MODEL 1
REMARK VINA RESULT:      -9.7      0.000      0.000
REMARK SMILES Cc1cc(Br)cc([N+](=O)[O-])c1OCCC[C@@](C)([NH3+])C(=O)NCCCNC(=O)c1ccc(-c2c3nc(c(-c4ccccc4)c4ccc([nH]4)c(-c4ccccc4)c4nc(c(-c5ccccc5)c5ccc2[nH]5)C=C4)C=C3)cc1
REMARK SMILES IDX 19 1 20 2 21 3 16 5 17 6 15 7 14 8 13 9 12 10 11 11 1 12
REMARK SMILES IDX 2 13 3 14 4 15 7 16 5 17 6 18 8 19 9 20 10 21 18 22 22 26
REMARK SMILES IDX 23 27 24 28 25 29 26 30 27 32 28 33 29 34 75 35 30 36 74 37
REMARK SMILES IDX 31 38 32 39 33 40 68 41 34 42 73 43 67 44 69 45 35 46 72 47
REMARK SMILES IDX 66 48 65 49 36 51 58 52 43 53 57 54 44 55 47 56 56 57 70 58
REMARK SMILES IDX 45 59 46 60 55 62 71 63 48 64 37 65 38 66 42 67 39 68 41 69
REMARK SMILES IDX 40 70 59 71 60 72 64 73 61 74 63 75 62 76 49 77 50 78 54 79
REMARK SMILES IDX 51 80 53 81 52 82
REMARK H PARENT 21 4 18 23 18 24 18 25 25 31 69 50 47 61
REMARK Flexibility Score: inf
ROOT
ATOM      1  C   UNL A   1      33.329  36.410  30.340  1.00  0.00     0.280 C 
ATOM      2  O   UNL A   1      33.051  37.406  29.661  1.00  0.00    -0.268 OA
ATOM      3  N   UNL A   1      33.408  35.259  29.623  1.00  0.00    -0.351 N 
ATOM      4  H   UNL A   1      32.966  35.318  28.744  1.00  0.00     0.163 HD
ENDROOT
BRANCH   1   5
ATOM      5  C   UNL A   1      33.619  36.533  31.868  1.00  0.00     0.171 C 
ATOM      6  C   UNL A   1      32.285  36.243  32.571  1.00  0.00     0.090 C 
BRANCH   5   7
ATOM      7  C   UNL A   1      34.751  35.579  32.405  1.00  0.00     0.082 C 
BRANCH   7   8
ATOM      8  C   UNL A   1      34.430  34.430  33.385  1.00  0.00     0.049 C 
BRANCH   8   9
ATOM      9  C   UNL A   1      35.310  34.289  34.658  1.00  0.00     0.230 C 
BRANCH   9  10
ATOM     10  O   UNL A   1      36.147  33.123  34.571  1.00  0.00    -0.487 OA
BRANCH  10  11
ATOM     11  C   UNL A   1      37.192  33.141  33.669  1.00  0.00     0.200 A 
ATOM     12  C   UNL A   1      36.120  31.339  32.215  1.00  0.00     0.049 C 
ATOM     13  C   UNL A   1      37.031  32.492  32.429  1.00  0.00    -0.001 A 
ATOM     14  C   UNL A   1      37.724  32.940  31.293  1.00  0.00     0.023 A 
ATOM     15  C   UNL A   1      38.650  33.964  31.391  1.00  0.00     0.025 A 
ATOM     16  C   UNL A   1      38.220  34.096  33.768  1.00  0.00     0.312 A 
ATOM     17  Br  UNL A   1      39.503  34.590  29.827  1.00  0.00    -0.051 Br
ATOM     18  C   UNL A   1      38.948  34.508  32.632  1.00  0.00     0.105 A 
BRANCH  16  19
ATOM     19  N   UNL A   1      38.641  34.636  35.063  1.00  0.00     0.066 N 
ATOM     20  O   UNL A   1      39.105  35.787  35.074  1.00  0.00    -0.258 OA
ATOM     21  O   UNL A   1      38.597  33.893  36.050  1.00  0.00    -0.258 OA
ENDBRANCH  16  19
ENDBRANCH  10  11
ENDBRANCH   9  10
ENDBRANCH   8   9
ENDBRANCH   7   8
ENDBRANCH   5   7
BRANCH   5  22
ATOM     22  N   UNL A   1      33.973  37.917  32.280  1.00  0.00    -0.345 N 
ATOM     23  H   UNL A   1      33.429  38.177  33.102  1.00  0.00     0.345 HD
ATOM     24  H   UNL A   1      33.767  38.562  31.517  1.00  0.00     0.345 HD
ATOM     25  H   UNL A   1      34.968  37.961  32.503  1.00  0.00     0.345 HD
ENDBRANCH   5  22
ENDBRANCH   1   5
BRANCH   3  26
ATOM     26  C   UNL A   1      34.005  33.960  29.878  1.00  0.00     0.118 C 
BRANCH  26  27
ATOM     27  C   UNL A   1      35.382  33.820  29.228  1.00  0.00     0.042 C 
BRANCH  27  28
ATOM     28  C   UNL A   1      35.388  33.070  27.895  1.00  0.00     0.118 C 
BRANCH  28  29
ATOM     29  N   UNL A   1      34.488  31.923  27.885  1.00  0.00    -0.352 N 
ATOM     30  C   UNL A   1      34.747  30.580  27.895  1.00  0.00     0.251 C 
ATOM     31  H   UNL A   1      33.531  32.155  27.870  1.00  0.00     0.163 HD
ATOM     32  O   UNL A   1      33.833  29.786  27.648  1.00  0.00    -0.269 OA
BRANCH  30  33
ATOM     33  C   UNL A   1      36.097  30.061  28.183  1.00  0.00     0.039 A 
ATOM     34  C   UNL A   1      37.079  30.142  27.189  1.00  0.00     0.014 A 
ATOM     35  C   UNL A   1      36.390  29.448  29.404  1.00  0.00     0.014 A 
ATOM     36  C   UNL A   1      38.367  29.667  27.444  1.00  0.00     0.010 A 
ATOM     37  C   UNL A   1      37.694  29.047  29.684  1.00  0.00     0.010 A 
ATOM     38  C   UNL A   1      38.695  29.149  28.706  1.00  0.00    -0.014 A 
BRANCH  38  39
ATOM     39  C   UNL A   1      40.079  28.718  29.026  1.00  0.00     0.031 A 
ATOM     40  C   UNL A   1      41.017  29.641  29.754  1.00  0.00     0.074 A 
ATOM     41  C   UNL A   1      40.515  27.517  28.602  1.00  0.00     0.049 A 
ATOM     42  N   UNL A   1      42.272  29.455  30.081  1.00  0.00    -0.248 NA
ATOM     43  C   UNL A   1      40.483  30.955  30.142  1.00  0.00     0.031 C 
ATOM     44  C   UNL A   1      39.715  26.538  27.863  1.00  0.00     0.029 A 
ATOM     45  N   UNL A   1      41.741  26.913  28.734  1.00  0.00    -0.354 N 
ATOM     46  C   UNL A   1      42.681  30.634  30.693  1.00  0.00     0.074 A 
ATOM     47  C   UNL A   1      41.559  31.545  30.641  1.00  0.00     0.031 C 
ATOM     48  C   UNL A   1      40.457  25.441  27.644  1.00  0.00     0.029 A 
ATOM     49  C   UNL A   1      41.795  25.655  28.183  1.00  0.00     0.049 A 
ATOM     50  H   UNL A   1      42.507  27.341  29.180  1.00  0.00     0.167 HD
ATOM     51  C   UNL A   1      43.876  30.927  31.261  1.00  0.00     0.031 A 
ATOM     52  C   UNL A   1      42.809  24.773  28.120  1.00  0.00     0.031 A 
ATOM     53  C   UNL A   1      44.994  30.021  31.307  1.00  0.00     0.049 A 
ATOM     54  C   UNL A   1      44.138  25.135  28.720  1.00  0.00     0.074 A 
ATOM     55  C   UNL A   1      46.226  30.200  31.910  1.00  0.00     0.029 A 
ATOM     56  N   UNL A   1      45.017  28.767  30.715  1.00  0.00    -0.354 N 
ATOM     57  N   UNL A   1      44.489  26.225  29.357  1.00  0.00    -0.248 NA
ATOM     58  C   UNL A   1      45.209  24.138  28.596  1.00  0.00     0.031 C 
ATOM     59  C   UNL A   1      47.018  29.081  31.626  1.00  0.00     0.029 A 
ATOM     60  C   UNL A   1      46.256  28.176  30.905  1.00  0.00     0.049 A 
ATOM     61  H   UNL A   1      44.264  28.358  30.231  1.00  0.00     0.167 HD
ATOM     62  C   UNL A   1      45.810  26.033  29.739  1.00  0.00     0.074 A 
ATOM     63  C   UNL A   1      46.193  24.716  29.269  1.00  0.00     0.031 C 
ATOM     64  C   UNL A   1      46.629  26.870  30.423  1.00  0.00     0.031 A 
BRANCH  51  65
ATOM     65  C   UNL A   1      44.035  32.305  31.849  1.00  0.00    -0.014 A 
ATOM     66  C   UNL A   1      44.524  33.378  31.086  1.00  0.00     0.009 A 
ATOM     67  C   UNL A   1      43.694  32.533  33.192  1.00  0.00     0.009 A 
ATOM     68  C   UNL A   1      44.726  34.631  31.670  1.00  0.00     0.001 A 
ATOM     69  C   UNL A   1      43.863  33.795  33.764  1.00  0.00     0.001 A 
ATOM     70  C   UNL A   1      44.395  34.839  33.007  1.00  0.00     0.000 A 
ENDBRANCH  51  65
BRANCH  52  71
ATOM     71  C   UNL A   1      42.591  23.441  27.498  1.00  0.00    -0.014 A 
ATOM     72  C   UNL A   1      42.101  22.377  28.269  1.00  0.00     0.009 A 
ATOM     73  C   UNL A   1      42.851  23.230  26.135  1.00  0.00     0.009 A 
ATOM     74  C   UNL A   1      41.889  21.122  27.693  1.00  0.00     0.001 A 
ATOM     75  C   UNL A   1      42.612  21.982  25.555  1.00  0.00     0.001 A 
ATOM     76  C   UNL A   1      42.138  20.927  26.335  1.00  0.00     0.000 A 
ENDBRANCH  52  71
BRANCH  64  77
ATOM     77  C   UNL A   1      48.013  26.372  30.735  1.00  0.00    -0.014 A 
ATOM     78  C   UNL A   1      48.286  25.649  31.907  1.00  0.00     0.009 A 
ATOM     79  C   UNL A   1      49.055  26.600  29.820  1.00  0.00     0.009 A 
ATOM     80  C   UNL A   1      49.581  25.197  32.172  1.00  0.00     0.001 A 
ATOM     81  C   UNL A   1      50.339  26.118  30.072  1.00  0.00     0.001 A 
ATOM     82  C   UNL A   1      50.605  25.426  31.253  1.00  0.00     0.000 A 
ENDBRANCH  64  77
ENDBRANCH  38  39
ENDBRANCH  30  33
ENDBRANCH  28  29
ENDBRANCH  27  28
ENDBRANCH  26  27
ENDBRANCH   3  26
TORSDOF 17
ENDMDL
MODEL 2
REMARK VINA RESULT:      -9.7      2.429      4.161
REMARK SMILES Cc1cc(Br)cc([N+](=O)[O-])c1OCCC[C@@](C)([NH3+])C(=O)NCCCNC(=O)c1ccc(-c2c3nc(c(-c4ccccc4)c4ccc([nH]4)c(-c4ccccc4)c4nc(c(-c5ccccc5)c5ccc2[nH]5)C=C4)C=C3)cc1
REMARK SMILES IDX 19 1 20 2 21 3 16 5 17 6 15 7 14 8 13 9 12 10 11 11 1 12
REMARK SMILES IDX 2 13 3 14 4 15 7 16 5 17 6 18 8 19 9 20 10 21 18 22 22 26
REMARK SMILES IDX 23 27 24 28 25 29 26 30 27 32 28 33 29 34 75 35 30 36 74 37
REMARK SMILES IDX 31 38 32 39 33 40 68 41 34 42 73 43 67 44 69 45 35 46 72 47
REMARK SMILES IDX 66 48 65 49 36 51 58 52 43 53 57 54 44 55 47 56 56 57 70 58
REMARK SMILES IDX 45 59 46 60 55 62 71 63 48 64 37 65 38 66 42 67 39 68 41 69
REMARK SMILES IDX 40 70 59 71 60 72 64 73 61 74 63 75 62 76 49 77 50 78 54 79
REMARK SMILES IDX 51 80 53 81 52 82
REMARK H PARENT 21 4 18 23 18 24 18 25 25 31 69 50 47 61
REMARK Flexibility Score: inf
ROOT
ATOM      1  C   UNL A   1      35.598  35.098  32.964  1.00  0.00     0.280 C 
ATOM      2  O   UNL A   1      36.710  35.460  32.560  1.00  0.00    -0.268 OA
ATOM      3  N   UNL A   1      34.564  35.802  32.435  1.00  0.00    -0.351 N 
ATOM      4  H   UNL A   1      34.841  36.660  32.040  1.00  0.00     0.163 HD
ENDROOT
BRANCH   1   5
ATOM      5  C   UNL A   1      35.451  33.892  33.944  1.00  0.00     0.171 C 
ATOM      6  C   UNL A   1      34.251  33.083  33.433  1.00  0.00     0.090 C 
BRANCH   5   7
ATOM      7  C   UNL A   1      36.729  32.980  34.065  1.00  0.00     0.082 C 
BRANCH   7   8
ATOM      8  C   UNL A   1      36.755  31.557  33.464  1.00  0.00     0.049 C 
BRANCH   8   9
ATOM      9  C   UNL A   1      38.132  30.852  33.317  1.00  0.00     0.230 C 
BRANCH   9  10
ATOM     10  O   UNL A   1      38.421  30.053  34.477  1.00  0.00    -0.487 OA
BRANCH  10  11
ATOM     11  C   UNL A   1      39.442  30.465  35.311  1.00  0.00     0.200 A 
ATOM     12  C   UNL A   1      41.202  29.184  33.981  1.00  0.00     0.049 C 
ATOM     13  C   UNL A   1      40.775  30.267  34.903  1.00  0.00    -0.001 A 
ATOM     14  C   UNL A   1      41.791  31.132  35.338  1.00  0.00     0.023 A 
ATOM     15  C   UNL A   1      41.519  32.136  36.252  1.00  0.00     0.025 A 
ATOM     16  C   UNL A   1      39.211  31.412  36.325  1.00  0.00     0.312 A 
ATOM     17  Br  UNL A   1      42.895  33.326  36.753  1.00  0.00    -0.051 Br
ATOM     18  C   UNL A   1      40.247  32.247  36.795  1.00  0.00     0.105 A 
BRANCH  16  19
ATOM     19  N   UNL A   1      37.915  31.511  36.999  1.00  0.00     0.066 N 
ATOM     20  O   UNL A   1      37.391  32.635  37.060  1.00  0.00    -0.258 OA
ATOM     21  O   UNL A   1      37.460  30.501  37.547  1.00  0.00    -0.258 OA
ENDBRANCH  16  19
ENDBRANCH  10  11
ENDBRANCH   9  10
ENDBRANCH   8   9
ENDBRANCH   7   8
ENDBRANCH   5   7
BRANCH   5  22
ATOM     22  N   UNL A   1      35.071  34.308  35.320  1.00  0.00    -0.345 N 
ATOM     23  H   UNL A   1      34.449  33.610  35.726  1.00  0.00     0.345 HD
ATOM     24  H   UNL A   1      34.595  35.209  35.283  1.00  0.00     0.345 HD
ATOM     25  H   UNL A   1      35.911  34.390  35.894  1.00  0.00     0.345 HD
ENDBRANCH   5  22
ENDBRANCH   1   5
BRANCH   3  26
ATOM     26  C   UNL A   1      33.136  35.556  32.329  1.00  0.00     0.118 C 
BRANCH  26  27
ATOM     27  C   UNL A   1      32.485  36.399  31.233  1.00  0.00     0.042 C 
BRANCH  27  28
ATOM     28  C   UNL A   1      33.175  36.321  29.870  1.00  0.00     0.118 C 
BRANCH  28  29
ATOM     29  N   UNL A   1      32.576  35.327  28.987  1.00  0.00    -0.352 N 
ATOM     30  C   UNL A   1      33.113  34.225  28.382  1.00  0.00     0.251 C 
ATOM     31  H   UNL A   1      31.621  35.475  28.794  1.00  0.00     0.163 HD
ATOM     32  O   UNL A   1      32.477  33.655  27.489  1.00  0.00    -0.269 OA
BRANCH  30  33
ATOM     33  C   UNL A   1      34.440  33.709  28.767  1.00  0.00     0.039 A 
ATOM     34  C   UNL A   1      34.549  32.912  29.911  1.00  0.00     0.014 A 
ATOM     35  C   UNL A   1      35.585  34.047  28.042  1.00  0.00     0.014 A 
ATOM     36  C   UNL A   1      35.794  32.404  30.289  1.00  0.00     0.010 A 
ATOM     37  C   UNL A   1      36.811  33.477  28.374  1.00  0.00     0.010 A 
ATOM     38  C   UNL A   1      36.930  32.652  29.503  1.00  0.00    -0.014 A 
BRANCH  38  39
ATOM     39  C   UNL A   1      38.245  32.052  29.838  1.00  0.00     0.031 A 
ATOM     40  C   UNL A   1      39.243  32.811  30.668  1.00  0.00     0.074 A 
ATOM     41  C   UNL A   1      38.570  30.845  29.338  1.00  0.00     0.049 A 
ATOM     42  N   UNL A   1      40.456  32.467  31.024  1.00  0.00    -0.248 NA
ATOM     43  C   UNL A   1      38.833  34.144  31.138  1.00  0.00     0.031 C 
ATOM     44  C   UNL A   1      37.704  30.016  28.496  1.00  0.00     0.029 A 
ATOM     45  N   UNL A   1      39.719  30.103  29.465  1.00  0.00    -0.354 N 
ATOM     46  C   UNL A   1      40.959  33.546  31.740  1.00  0.00     0.074 A 
ATOM     47  C   UNL A   1      39.942  34.576  31.720  1.00  0.00     0.031 C 
ATOM     48  C   UNL A   1      38.336  28.863  28.220  1.00  0.00     0.029 A 
ATOM     49  C   UNL A   1      39.664  28.891  28.821  1.00  0.00     0.049 A 
ATOM     50  H   UNL A   1      40.506  30.412  29.970  1.00  0.00     0.167 HD
ATOM     51  C   UNL A   1      42.152  33.666  32.371  1.00  0.00     0.031 A 
ATOM     52  C   UNL A   1      40.581  27.911  28.726  1.00  0.00     0.031 A 
ATOM     53  C   UNL A   1      43.165  32.643  32.387  1.00  0.00     0.049 A 
ATOM     54  C   UNL A   1      41.913  28.082  29.399  1.00  0.00     0.074 A 
ATOM     55  C   UNL A   1      44.382  32.642  33.045  1.00  0.00     0.029 A 
ATOM     56  N   UNL A   1      43.082  31.441  31.700  1.00  0.00    -0.354 N 
ATOM     57  N   UNL A   1      42.349  29.078  30.131  1.00  0.00    -0.248 NA
ATOM     58  C   UNL A   1      42.878  26.986  29.235  1.00  0.00     0.031 C 
ATOM     59  C   UNL A   1      45.063  31.468  32.703  1.00  0.00     0.029 A 
ATOM     60  C   UNL A   1      44.242  30.706  31.888  1.00  0.00     0.049 A 
ATOM     61  H   UNL A   1      42.312  31.152  31.159  1.00  0.00     0.167 HD
ATOM     62  C   UNL A   1      43.625  28.716  30.543  1.00  0.00     0.074 A 
ATOM     63  C   UNL A   1      43.887  27.404  29.987  1.00  0.00     0.031 C 
ATOM     64  C   UNL A   1      44.496  29.407  31.319  1.00  0.00     0.031 A 
BRANCH  51  65
ATOM     65  C   UNL A   1      42.430  34.971  33.071  1.00  0.00    -0.014 A 
ATOM     66  C   UNL A   1      41.785  35.312  34.271  1.00  0.00     0.009 A 
ATOM     67  C   UNL A   1      43.348  35.877  32.518  1.00  0.00     0.009 A 
ATOM     68  C   UNL A   1      42.007  36.556  34.868  1.00  0.00     0.001 A 
ATOM     69  C   UNL A   1      43.597  37.104  33.135  1.00  0.00     0.001 A 
ATOM     70  C   UNL A   1      42.913  37.450  34.301  1.00  0.00     0.000 A 
ENDBRANCH  51  65
BRANCH  52  71
ATOM     71  C   UNL A   1      40.251  26.661  27.994  1.00  0.00    -0.014 A 
ATOM     72  C   UNL A   1      40.704  26.474  26.680  1.00  0.00     0.009 A 
ATOM     73  C   UNL A   1      39.503  25.642  28.606  1.00  0.00     0.009 A 
ATOM     74  C   UNL A   1      40.402  25.301  25.985  1.00  0.00     0.001 A 
ATOM     75  C   UNL A   1      39.226  24.458  27.919  1.00  0.00     0.001 A 
ATOM     76  C   UNL A   1      39.669  24.291  26.607  1.00  0.00     0.000 A 
ENDBRANCH  52  71
BRANCH  64  77
ATOM     77  C   UNL A   1      45.805  28.740  31.640  1.00  0.00    -0.014 A 
ATOM     78  C   UNL A   1      46.937  28.914  30.829  1.00  0.00     0.009 A 
ATOM     79  C   UNL A   1      45.916  27.951  32.798  1.00  0.00     0.009 A 
ATOM     80  C   UNL A   1      48.141  28.284  31.150  1.00  0.00     0.001 A 
ATOM     81  C   UNL A   1      47.129  27.351  33.134  1.00  0.00     0.001 A 
ATOM     82  C   UNL A   1      48.239  27.508  32.305  1.00  0.00     0.000 A 
ENDBRANCH  64  77
ENDBRANCH  38  39
ENDBRANCH  30  33
ENDBRANCH  28  29
ENDBRANCH  27  28
ENDBRANCH  26  27
ENDBRANCH   3  26
TORSDOF 17
ENDMDL
MODEL 3
REMARK VINA RESULT:      -9.7      4.347      9.630
REMARK SMILES Cc1cc(Br)cc([N+](=O)[O-])c1OCCC[C@@](C)([NH3+])C(=O)NCCCNC(=O)c1ccc(-c2c3nc(c(-c4ccccc4)c4ccc([nH]4)c(-c4ccccc4)c4nc(c(-c5ccccc5)c5ccc2[nH]5)C=C4)C=C3)cc1
REMARK SMILES IDX 19 1 20 2 21 3 16 5 17 6 15 7 14 8 13 9 12 10 11 11 1 12
REMARK SMILES IDX 2 13 3 14 4 15 7 16 5 17 6 18 8 19 9 20 10 21 18 22 22 26
REMARK SMILES IDX 23 27 24 28 25 29 26 30 27 32 28 33 29 34 75 35 30 36 74 37
REMARK SMILES IDX 31 38 32 39 33 40 68 41 34 42 73 43 67 44 69 45 35 46 72 47
REMARK SMILES IDX 66 48 65 49 36 51 58 52 43 53 57 54 44 55 47 56 56 57 70 58
REMARK SMILES IDX 45 59 46 60 55 62 71 63 48 64 37 65 38 66 42 67 39 68 41 69
REMARK SMILES IDX 40 70 59 71 60 72 64 73 61 74 63 75 62 76 49 77 50 78 54 79
REMARK SMILES IDX 51 80 53 81 52 82
REMARK H PARENT 21 4 18 23 18 24 18 25 25 31 69 50 47 61
REMARK Flexibility Score: inf
ROOT
ATOM      1  C   UNL A   1      28.652  31.554  23.431  1.00  0.00     0.280 C 
ATOM      2  O   UNL A   1      27.767  32.412  23.340  1.00  0.00    -0.268 OA
ATOM      3  N   UNL A   1      29.619  31.852  24.337  1.00  0.00    -0.351 N 
ATOM      4  H   UNL A   1      29.640  32.806  24.582  1.00  0.00     0.163 HD
ENDROOT
BRANCH   1   5
ATOM      5  C   UNL A   1      28.582  30.234  22.601  1.00  0.00     0.171 C 
ATOM      6  C   UNL A   1      28.539  30.668  21.129  1.00  0.00     0.090 C 
BRANCH   5   7
ATOM      7  C   UNL A   1      29.768  29.231  22.854  1.00  0.00     0.082 C 
BRANCH   7   8
ATOM      8  C   UNL A   1      29.523  27.848  23.497  1.00  0.00     0.049 C 
BRANCH   8   9
ATOM      9  C   UNL A   1      30.596  27.298  24.477  1.00  0.00     0.230 C 
BRANCH   9  10
ATOM     10  O   UNL A   1      31.899  27.805  24.143  1.00  0.00    -0.487 OA
BRANCH  10  11
ATOM     11  C   UNL A   1      32.985  26.970  24.318  1.00  0.00     0.200 A 
ATOM     12  C   UNL A   1      33.549  27.991  26.587  1.00  0.00     0.049 C 
ATOM     13  C   UNL A   1      33.581  26.890  25.591  1.00  0.00    -0.001 A 
ATOM     14  C   UNL A   1      34.229  25.714  26.004  1.00  0.00     0.023 A 
ATOM     15  C   UNL A   1      34.377  24.649  25.133  1.00  0.00     0.025 A 
ATOM     16  C   UNL A   1      33.250  25.926  23.415  1.00  0.00     0.312 A 
ATOM     17  Br  UNL A   1      35.185  23.058  25.750  1.00  0.00    -0.051 Br
ATOM     18  C   UNL A   1      33.945  24.766  23.820  1.00  0.00     0.105 A 
BRANCH  16  19
ATOM     19  N   UNL A   1      32.899  26.032  21.997  1.00  0.00     0.066 N 
ATOM     20  O   UNL A   1      33.717  26.593  21.250  1.00  0.00    -0.258 OA
ATOM     21  O   UNL A   1      31.781  25.645  21.639  1.00  0.00    -0.258 OA
ENDBRANCH  16  19
ENDBRANCH  10  11
ENDBRANCH   9  10
ENDBRANCH   8   9
ENDBRANCH   7   8
ENDBRANCH   5   7
BRANCH   5  22
ATOM     22  N   UNL A   1      27.315  29.485  22.813  1.00  0.00    -0.345 N 
ATOM     23  H   UNL A   1      26.560  29.941  22.301  1.00  0.00     0.345 HD
ATOM     24  H   UNL A   1      27.092  29.471  23.809  1.00  0.00     0.345 HD
ATOM     25  H   UNL A   1      27.426  28.528  22.476  1.00  0.00     0.345 HD
ENDBRANCH   5  22
ENDBRANCH   1   5
BRANCH   3  26
ATOM     26  C   UNL A   1      30.627  31.062  25.023  1.00  0.00     0.118 C 
BRANCH  26  27
ATOM     27  C   UNL A   1      30.889  31.566  26.442  1.00  0.00     0.042 C 
BRANCH  27  28
ATOM     28  C   UNL A   1      32.267  32.195  26.655  1.00  0.00     0.118 C 
BRANCH  28  29
ATOM     29  N   UNL A   1      32.197  33.535  27.223  1.00  0.00    -0.352 N 
ATOM     30  C   UNL A   1      32.962  34.145  28.180  1.00  0.00     0.251 C 
ATOM     31  H   UNL A   1      31.476  34.097  26.857  1.00  0.00     0.163 HD
ATOM     32  O   UNL A   1      32.577  35.209  28.674  1.00  0.00    -0.269 OA
BRANCH  30  33
ATOM     33  C   UNL A   1      34.233  33.551  28.638  1.00  0.00     0.039 A 
ATOM     34  C   UNL A   1      35.414  33.883  27.967  1.00  0.00     0.014 A 
ATOM     35  C   UNL A   1      34.262  32.631  29.689  1.00  0.00     0.014 A 
ATOM     36  C   UNL A   1      36.630  33.341  28.391  1.00  0.00     0.010 A 
ATOM     37  C   UNL A   1      35.483  32.154  30.159  1.00  0.00     0.010 A 
ATOM     38  C   UNL A   1      36.679  32.500  29.513  1.00  0.00    -0.014 A 
BRANCH  38  39
ATOM     39  C   UNL A   1      37.970  31.983  30.033  1.00  0.00     0.031 A 
ATOM     40  C   UNL A   1      38.538  30.690  29.516  1.00  0.00     0.074 A 
ATOM     41  C   UNL A   1      38.601  32.645  31.021  1.00  0.00     0.049 A 
ATOM     42  N   UNL A   1      39.628  30.061  29.881  1.00  0.00    -0.248 NA
ATOM     43  C   UNL A   1      37.767  30.000  28.471  1.00  0.00     0.031 C 
ATOM     44  C   UNL A   1      38.142  33.896  31.630  1.00  0.00     0.029 A 
ATOM     45  N   UNL A   1      39.766  32.358  31.688  1.00  0.00    -0.354 N 
ATOM     46  C   UNL A   1      39.661  28.895  29.126  1.00  0.00     0.074 A 
ATOM     47  C   UNL A   1      38.456  28.878  28.326  1.00  0.00     0.031 C 
ATOM     48  C   UNL A   1      39.038  34.290  32.549  1.00  0.00     0.029 A 
ATOM     49  C   UNL A   1      40.105  33.299  32.629  1.00  0.00     0.049 A 
ATOM     50  H   UNL A   1      40.306  31.555  31.508  1.00  0.00     0.167 HD
ATOM     51  C   UNL A   1      40.614  27.932  29.089  1.00  0.00     0.031 A 
ATOM     52  C   UNL A   1      41.160  33.359  33.463  1.00  0.00     0.031 A 
ATOM     53  C   UNL A   1      41.811  27.948  29.890  1.00  0.00     0.049 A 
ATOM     54  C   UNL A   1      42.184  32.260  33.435  1.00  0.00     0.074 A 
ATOM     55  C   UNL A   1      42.866  27.053  29.884  1.00  0.00     0.029 A 
ATOM     56  N   UNL A   1      42.104  28.905  30.850  1.00  0.00    -0.354 N 
ATOM     57  N   UNL A   1      42.238  31.200  32.666  1.00  0.00    -0.248 NA
ATOM     58  C   UNL A   1      43.296  32.373  34.387  1.00  0.00     0.031 C 
ATOM     59  C   UNL A   1      43.765  27.432  30.887  1.00  0.00     0.029 A 
ATOM     60  C   UNL A   1      43.306  28.601  31.470  1.00  0.00     0.049 A 
ATOM     61  H   UNL A   1      41.542  29.685  31.060  1.00  0.00     0.167 HD
ATOM     62  C   UNL A   1      43.406  30.536  33.019  1.00  0.00     0.074 A 
ATOM     63  C   UNL A   1      44.033  31.320  34.063  1.00  0.00     0.031 C 
ATOM     64  C   UNL A   1      43.914  29.383  32.517  1.00  0.00     0.031 A 
BRANCH  51  65
ATOM     65  C   UNL A   1      40.374  26.766  28.167  1.00  0.00    -0.014 A 
ATOM     66  C   UNL A   1      40.881  26.748  26.857  1.00  0.00     0.009 A 
ATOM     67  C   UNL A   1      39.625  25.666  28.615  1.00  0.00     0.009 A 
ATOM     68  C   UNL A   1      40.591  25.686  25.997  1.00  0.00     0.001 A 
ATOM     69  C   UNL A   1      39.367  24.589  27.766  1.00  0.00     0.001 A 
ATOM     70  C   UNL A   1      39.835  24.607  26.452  1.00  0.00     0.000 A 
ENDBRANCH  51  65
BRANCH  52  71
ATOM     71  C   UNL A   1      41.319  34.526  34.368  1.00  0.00    -0.014 A 
ATOM     72  C   UNL A   1      40.647  34.559  35.599  1.00  0.00     0.009 A 
ATOM     73  C   UNL A   1      42.153  35.601  34.021  1.00  0.00     0.009 A 
ATOM     74  C   UNL A   1      40.793  35.650  36.459  1.00  0.00     0.001 A 
ATOM     75  C   UNL A   1      42.319  36.678  34.895  1.00  0.00     0.001 A 
ATOM     76  C   UNL A   1      41.634  36.706  36.109  1.00  0.00     0.000 A 
ENDBRANCH  52  71
BRANCH  64  77
ATOM     77  C   UNL A   1      45.234  28.919  33.068  1.00  0.00    -0.014 A 
ATOM     78  C   UNL A   1      46.451  29.342  32.513  1.00  0.00     0.009 A 
ATOM     79  C   UNL A   1      45.257  28.070  34.187  1.00  0.00     0.009 A 
ATOM     80  C   UNL A   1      47.663  28.896  33.045  1.00  0.00     0.001 A 
ATOM     81  C   UNL A   1      46.470  27.653  34.736  1.00  0.00     0.001 A 
ATOM     82  C   UNL A   1      47.673  28.057  34.159  1.00  0.00     0.000 A 
ENDBRANCH  64  77
ENDBRANCH  38  39
ENDBRANCH  30  33
ENDBRANCH  28  29
ENDBRANCH  27  28
ENDBRANCH  26  27
ENDBRANCH   3  26
TORSDOF 17
ENDMDL
