MODEL 1
REMARK VINA RESULT:      -8.6      0.000      0.000
REMARK SMILES CCCCCCCCNC(=O)Oc1cccc(-c2ccc([C@@H](C)C(=O)NCCCNC(=O)c3ccc(-c4c5nc(c(-c6ccccc6)c6ccc([nH]6)c(-c6ccccc6)c6nc(c(-c7ccccc7)c7ccc4[nH]7)C=C6)C=C5)cc3)cc2F)c1
REMARK SMILES IDX 13 1 14 2 15 3 16 4 17 5 84 6 12 7 10 8 9 9 11 11 8 12 7 13
REMARK SMILES IDX 6 14 5 15 4 16 3 17 2 18 1 19 18 20 19 21 82 22 20 23 81 24
REMARK SMILES IDX 83 25 21 26 22 27 23 28 24 29 25 30 26 31 27 33 28 34 29 35
REMARK SMILES IDX 30 36 31 37 32 39 33 40 34 41 80 42 35 43 79 44 36 45 37 46
REMARK SMILES IDX 38 47 73 48 39 49 78 50 72 51 74 52 40 53 77 54 71 55 70 56
REMARK SMILES IDX 41 58 63 59 48 60 62 61 49 62 52 63 61 64 75 65 50 66 51 67
REMARK SMILES IDX 60 69 76 70 53 71 42 72 43 73 47 74 44 75 46 76 45 77 64 78
REMARK SMILES IDX 65 79 69 80 66 81 68 82 67 83 54 84 55 85 59 86 56 87 58 88
REMARK SMILES IDX 57 89
REMARK H PARENT 9 10 26 32 30 38 74 57 52 68
REMARK Flexibility Score: inf
ROOT
ATOM      1  C   UNL A   1      41.591  27.532  27.529  1.00  0.00     0.133 A 
ATOM      2  C   UNL A   1      41.228  26.190  27.521  1.00  0.00     0.047 A 
ATOM      3  C   UNL A   1      39.994  25.823  28.039  1.00  0.00     0.004 A 
ATOM      4  C   UNL A   1      39.134  26.803  28.546  1.00  0.00     0.009 A 
ATOM      5  C   UNL A   1      39.488  28.170  28.570  1.00  0.00    -0.012 A 
ATOM      6  C   UNL A   1      40.742  28.517  28.039  1.00  0.00     0.056 A 
ENDROOT
BRANCH   1   7
ATOM      7  O   UNL A   1      42.788  27.863  26.880  1.00  0.00    -0.410 OA
BRANCH   7   8
ATOM      8  C   UNL A   1      42.809  27.829  25.496  1.00  0.00     0.412 C 
ATOM      9  N   UNL A   1      43.601  26.826  25.010  1.00  0.00    -0.321 N 
ATOM     10  H   UNL A   1      43.665  26.742  24.031  1.00  0.00     0.167 HD
ATOM     11  O   UNL A   1      42.222  28.596  24.743  1.00  0.00    -0.224 OA
BRANCH   9  12
ATOM     12  C   UNL A   1      44.358  25.872  25.797  1.00  0.00     0.119 C 
BRANCH  12  13
ATOM     13  C   UNL A   1      44.722  24.626  24.991  1.00  0.00     0.021 C 
BRANCH  13  14
ATOM     14  C   UNL A   1      44.441  23.298  25.704  1.00  0.00     0.002 C 
BRANCH  14  15
ATOM     15  C   UNL A   1      43.079  22.667  25.394  1.00  0.00     0.000 C 
BRANCH  15  16
ATOM     16  C   UNL A   1      42.502  21.791  26.511  1.00  0.00    -0.000 C 
BRANCH  16  17
ATOM     17  C   UNL A   1      41.975  22.558  27.729  1.00  0.00    -0.000 C 
BRANCH  17  18
ATOM     18  C   UNL A   1      42.914  22.589  28.938  1.00  0.00    -0.003 C 
ATOM     19  C   UNL A   1      43.385  23.988  29.302  1.00  0.00     0.004 C 
ENDBRANCH  17  18
ENDBRANCH  16  17
ENDBRANCH  15  16
ENDBRANCH  14  15
ENDBRANCH  13  14
ENDBRANCH  12  13
ENDBRANCH   9  12
ENDBRANCH   7   8
ENDBRANCH   1   7
BRANCH   5  20
ATOM     20  C   UNL A   1      38.577  29.182  29.154  1.00  0.00     0.018 A 
ATOM     21  C   UNL A   1      38.507  30.477  28.610  1.00  0.00     0.012 A 
ATOM     22  C   UNL A   1      37.736  28.921  30.246  1.00  0.00     0.131 A 
ATOM     23  C   UNL A   1      37.652  31.454  29.132  1.00  0.00     0.005 A 
ATOM     24  C   UNL A   1      36.839  29.877  30.737  1.00  0.00     0.044 A 
ATOM     25  F   UNL A   1      37.773  27.733  30.869  1.00  0.00    -0.206 F 
ATOM     26  C   UNL A   1      36.771  31.160  30.176  1.00  0.00    -0.033 A 
BRANCH  26  27
ATOM     27  C   UNL A   1      35.741  32.153  30.687  1.00  0.00     0.105 C 
ATOM     28  C   UNL A   1      35.259  31.926  32.119  1.00  0.00     0.023 C 
BRANCH  27  29
ATOM     29  C   UNL A   1      36.080  33.614  30.353  1.00  0.00     0.227 C 
ATOM     30  O   UNL A   1      35.550  34.159  29.378  1.00  0.00    -0.274 OA
ATOM     31  N   UNL A   1      36.944  34.382  31.071  1.00  0.00    -0.356 N 
ATOM     32  H   UNL A   1      37.007  35.312  30.753  1.00  0.00     0.163 HD
BRANCH  31  33
ATOM     33  C   UNL A   1      37.788  34.093  32.212  1.00  0.00     0.117 C 
BRANCH  33  34
ATOM     34  C   UNL A   1      37.107  34.422  33.539  1.00  0.00     0.042 C 
BRANCH  34  35
ATOM     35  C   UNL A   1      38.056  34.465  34.732  1.00  0.00     0.118 C 
BRANCH  35  36
ATOM     36  N   UNL A   1      37.819  33.372  35.665  1.00  0.00    -0.352 N 
ATOM     37  C   UNL A   1      38.221  32.059  35.633  1.00  0.00     0.251 C 
ATOM     38  H   UNL A   1      37.282  33.616  36.452  1.00  0.00     0.163 HD
ATOM     39  O   UNL A   1      37.722  31.266  36.429  1.00  0.00    -0.269 OA
BRANCH  37  40
ATOM     40  C   UNL A   1      39.227  31.576  34.659  1.00  0.00     0.039 A 
ATOM     41  C   UNL A   1      40.573  31.892  34.878  1.00  0.00     0.014 A 
ATOM     42  C   UNL A   1      38.862  30.878  33.505  1.00  0.00     0.014 A 
ATOM     43  C   UNL A   1      41.551  31.456  33.979  1.00  0.00     0.010 A 
ATOM     44  C   UNL A   1      39.844  30.378  32.650  1.00  0.00     0.010 A 
ATOM     45  C   UNL A   1      41.198  30.667  32.874  1.00  0.00    -0.014 A 
BRANCH  45  46
ATOM     46  C   UNL A   1      42.230  30.130  31.950  1.00  0.00     0.031 A 
ATOM     47  C   UNL A   1      42.901  28.813  32.233  1.00  0.00     0.074 A 
ATOM     48  C   UNL A   1      42.616  30.864  30.889  1.00  0.00     0.049 A 
ATOM     49  N   UNL A   1      43.862  28.218  31.572  1.00  0.00    -0.248 NA
ATOM     50  C   UNL A   1      42.446  28.079  33.424  1.00  0.00     0.031 C 
ATOM     51  C   UNL A   1      42.079  32.178  30.528  1.00  0.00     0.029 A 
ATOM     52  N   UNL A   1      43.558  30.614  29.923  1.00  0.00    -0.354 N 
ATOM     53  C   UNL A   1      44.144  27.056  32.280  1.00  0.00     0.074 A 
ATOM     54  C   UNL A   1      43.280  27.048  33.440  1.00  0.00     0.031 C 
ATOM     55  C   UNL A   1      42.686  32.608  29.410  1.00  0.00     0.029 A 
ATOM     56  C   UNL A   1      43.679  31.622  28.998  1.00  0.00     0.049 A 
ATOM     57  H   UNL A   1      44.096  29.790  29.896  1.00  0.00     0.167 HD
ATOM     58  C   UNL A   1      45.032  26.075  31.985  1.00  0.00     0.031 A 
ATOM     59  C   UNL A   1      44.505  31.748  27.942  1.00  0.00     0.031 A 
ATOM     60  C   UNL A   1      45.884  26.075  30.826  1.00  0.00     0.049 A 
ATOM     61  C   UNL A   1      45.482  30.649  27.637  1.00  0.00     0.074 A 
ATOM     62  C   UNL A   1      46.764  25.095  30.403  1.00  0.00     0.029 A 
ATOM     63  N   UNL A   1      45.966  27.110  29.907  1.00  0.00    -0.354 N 
ATOM     64  N   UNL A   1      45.681  29.520  28.273  1.00  0.00    -0.248 NA
ATOM     65  C   UNL A   1      46.342  30.838  26.460  1.00  0.00     0.031 C 
ATOM     66  C   UNL A   1      47.417  25.557  29.255  1.00  0.00     0.029 A 
ATOM     67  C   UNL A   1      46.903  26.803  28.934  1.00  0.00     0.049 A 
ATOM     68  H   UNL A   1      45.438  27.939  29.941  1.00  0.00     0.167 HD
ATOM     69  C   UNL A   1      46.674  28.857  27.566  1.00  0.00     0.074 A 
ATOM     70  C   UNL A   1      47.022  29.699  26.440  1.00  0.00     0.031 C 
ATOM     71  C   UNL A   1      47.247  27.656  27.826  1.00  0.00     0.031 A 
BRANCH  58  72
ATOM     72  C   UNL A   1      45.133  24.922  32.944  1.00  0.00    -0.014 A 
ATOM     73  C   UNL A   1      44.302  23.797  32.823  1.00  0.00     0.009 A 
ATOM     74  C   UNL A   1      46.098  24.945  33.963  1.00  0.00     0.009 A 
ATOM     75  C   UNL A   1      44.407  22.737  33.726  1.00  0.00     0.001 A 
ATOM     76  C   UNL A   1      46.221  23.870  34.847  1.00  0.00     0.001 A 
ATOM     77  C   UNL A   1      45.370  22.772  34.734  1.00  0.00     0.000 A 
ENDBRANCH  58  72
BRANCH  59  78
ATOM     78  C   UNL A   1      44.434  32.961  27.088  1.00  0.00    -0.014 A 
ATOM     79  C   UNL A   1      43.799  32.915  25.838  1.00  0.00     0.009 A 
ATOM     80  C   UNL A   1      44.992  34.174  27.522  1.00  0.00     0.009 A 
ATOM     81  C   UNL A   1      43.742  34.053  25.030  1.00  0.00     0.001 A 
ATOM     82  C   UNL A   1      44.910  35.317  26.724  1.00  0.00     0.001 A 
ATOM     83  C   UNL A   1      44.293  35.254  25.476  1.00  0.00     0.000 A 
ENDBRANCH  59  78
BRANCH  71  84
ATOM     84  C   UNL A   1      48.295  27.175  26.863  1.00  0.00    -0.014 A 
ATOM     85  C   UNL A   1      47.949  26.434  25.724  1.00  0.00     0.009 A 
ATOM     86  C   UNL A   1      49.643  27.499  27.082  1.00  0.00     0.009 A 
ATOM     87  C   UNL A   1      48.937  25.999  24.839  1.00  0.00     0.001 A 
ATOM     88  C   UNL A   1      50.625  27.086  26.182  1.00  0.00     0.001 A 
ATOM     89  C   UNL A   1      50.272  26.329  25.065  1.00  0.00     0.000 A 
ENDBRANCH  71  84
ENDBRANCH  45  46
ENDBRANCH  37  40
ENDBRANCH  35  36
ENDBRANCH  34  35
ENDBRANCH  33  34
ENDBRANCH  31  33
ENDBRANCH  27  29
ENDBRANCH  26  27
ENDBRANCH   5  20
TORSDOF 21
ENDMDL
MODEL 2
REMARK VINA RESULT:      -8.3      5.004      6.532
REMARK SMILES CCCCCCCCNC(=O)Oc1cccc(-c2ccc([C@@H](C)C(=O)NCCCNC(=O)c3ccc(-c4c5nc(c(-c6ccccc6)c6ccc([nH]6)c(-c6ccccc6)c6nc(c(-c7ccccc7)c7ccc4[nH]7)C=C6)C=C5)cc3)cc2F)c1
REMARK SMILES IDX 13 1 14 2 15 3 16 4 17 5 84 6 12 7 10 8 9 9 11 11 8 12 7 13
REMARK SMILES IDX 6 14 5 15 4 16 3 17 2 18 1 19 18 20 19 21 82 22 20 23 81 24
REMARK SMILES IDX 83 25 21 26 22 27 23 28 24 29 25 30 26 31 27 33 28 34 29 35
REMARK SMILES IDX 30 36 31 37 32 39 33 40 34 41 80 42 35 43 79 44 36 45 37 46
REMARK SMILES IDX 38 47 73 48 39 49 78 50 72 51 74 52 40 53 77 54 71 55 70 56
REMARK SMILES IDX 41 58 63 59 48 60 62 61 49 62 52 63 61 64 75 65 50 66 51 67
REMARK SMILES IDX 60 69 76 70 53 71 42 72 43 73 47 74 44 75 46 76 45 77 64 78
REMARK SMILES IDX 65 79 69 80 66 81 68 82 67 83 54 84 55 85 59 86 56 87 58 88
REMARK SMILES IDX 57 89
REMARK H PARENT 9 10 26 32 30 38 74 57 52 68
REMARK Flexibility Score: inf
ROOT
ATOM      1  C   UNL A   1      30.472  26.534  24.916  1.00  0.00     0.133 A 
ATOM      2  C   UNL A   1      29.902  27.145  23.805  1.00  0.00     0.047 A 
ATOM      3  C   UNL A   1      30.265  28.448  23.493  1.00  0.00     0.004 A 
ATOM      4  C   UNL A   1      31.203  29.117  24.287  1.00  0.00     0.009 A 
ATOM      5  C   UNL A   1      31.787  28.515  25.424  1.00  0.00    -0.012 A 
ATOM      6  C   UNL A   1      31.404  27.196  25.719  1.00  0.00     0.056 A 
ENDROOT
BRANCH   1   7
ATOM      7  O   UNL A   1      30.169  25.180  25.113  1.00  0.00    -0.410 OA
BRANCH   7   8
ATOM      8  C   UNL A   1      30.701  24.258  24.227  1.00  0.00     0.412 C 
ATOM      9  N   UNL A   1      31.289  23.201  24.864  1.00  0.00    -0.321 N 
ATOM     10  H   UNL A   1      31.690  22.505  24.295  1.00  0.00     0.167 HD
ATOM     11  O   UNL A   1      30.691  24.338  23.005  1.00  0.00    -0.224 OA
BRANCH   9  12
ATOM     12  C   UNL A   1      31.381  23.005  26.298  1.00  0.00     0.119 C 
BRANCH  12  13
ATOM     13  C   UNL A   1      32.748  22.465  26.715  1.00  0.00     0.021 C 
BRANCH  13  14
ATOM     14  C   UNL A   1      33.770  22.363  25.576  1.00  0.00     0.002 C 
BRANCH  14  15
ATOM     15  C   UNL A   1      34.214  20.939  25.224  1.00  0.00     0.000 C 
BRANCH  15  16
ATOM     16  C   UNL A   1      33.075  19.966  24.901  1.00  0.00    -0.000 C 
BRANCH  16  17
ATOM     17  C   UNL A   1      33.487  18.493  24.812  1.00  0.00    -0.000 C 
BRANCH  17  18
ATOM     18  C   UNL A   1      33.139  17.796  23.494  1.00  0.00    -0.003 C 
ATOM     19  C   UNL A   1      34.157  16.746  23.078  1.00  0.00     0.004 C 
ENDBRANCH  17  18
ENDBRANCH  16  17
ENDBRANCH  15  16
ENDBRANCH  14  15
ENDBRANCH  13  14
ENDBRANCH  12  13
ENDBRANCH   9  12
ENDBRANCH   7   8
ENDBRANCH   1   7
BRANCH   5  20
ATOM     20  C   UNL A   1      32.744  29.262  26.273  1.00  0.00     0.018 A 
ATOM     21  C   UNL A   1      34.039  28.763  26.497  1.00  0.00     0.012 A 
ATOM     22  C   UNL A   1      32.438  30.489  26.881  1.00  0.00     0.131 A 
ATOM     23  C   UNL A   1      34.970  29.446  27.287  1.00  0.00     0.005 A 
ATOM     24  C   UNL A   1      33.383  31.204  27.626  1.00  0.00     0.044 A 
ATOM     25  F   UNL A   1      31.210  31.019  26.772  1.00  0.00    -0.206 F 
ATOM     26  C   UNL A   1      34.675  30.699  27.830  1.00  0.00    -0.033 A 
BRANCH  26  27
ATOM     27  C   UNL A   1      35.698  31.530  28.586  1.00  0.00     0.105 C 
ATOM     28  C   UNL A   1      37.125  30.983  28.582  1.00  0.00     0.023 C 
BRANCH  27  29
ATOM     29  C   UNL A   1      35.593  33.037  28.304  1.00  0.00     0.227 C 
ATOM     30  O   UNL A   1      36.120  33.508  27.289  1.00  0.00    -0.274 OA
ATOM     31  N   UNL A   1      34.942  33.922  29.106  1.00  0.00    -0.356 N 
ATOM     32  H   UNL A   1      34.925  34.841  28.752  1.00  0.00     0.163 HD
BRANCH  31  33
ATOM     33  C   UNL A   1      34.271  33.772  30.381  1.00  0.00     0.117 C 
BRANCH  33  34
ATOM     34  C   UNL A   1      35.252  33.695  31.550  1.00  0.00     0.042 C 
BRANCH  34  35
ATOM     35  C   UNL A   1      35.304  32.332  32.230  1.00  0.00     0.118 C 
BRANCH  35  36
ATOM     36  N   UNL A   1      35.918  32.396  33.549  1.00  0.00    -0.352 N 
ATOM     37  C   UNL A   1      37.156  31.992  33.986  1.00  0.00     0.251 C 
ATOM     38  H   UNL A   1      35.350  32.798  34.245  1.00  0.00     0.163 HD
ATOM     39  O   UNL A   1      37.376  31.955  35.194  1.00  0.00    -0.269 OA
BRANCH  37  40
ATOM     40  C   UNL A   1      38.222  31.591  33.039  1.00  0.00     0.039 A 
ATOM     41  C   UNL A   1      38.966  30.438  33.321  1.00  0.00     0.014 A 
ATOM     42  C   UNL A   1      38.543  32.361  31.919  1.00  0.00     0.014 A 
ATOM     43  C   UNL A   1      39.983  30.030  32.453  1.00  0.00     0.010 A 
ATOM     44  C   UNL A   1      39.505  31.912  31.013  1.00  0.00     0.010 A 
ATOM     45  C   UNL A   1      40.239  30.745  31.273  1.00  0.00    -0.014 A 
BRANCH  45  46
ATOM     46  C   UNL A   1      41.262  30.284  30.300  1.00  0.00     0.031 A 
ATOM     47  C   UNL A   1      41.072  29.000  29.540  1.00  0.00     0.074 A 
ATOM     48  C   UNL A   1      42.400  30.989  30.151  1.00  0.00     0.049 A 
ATOM     49  N   UNL A   1      41.883  28.412  28.696  1.00  0.00    -0.248 NA
ATOM     50  C   UNL A   1      39.816  28.270  29.773  1.00  0.00     0.031 C 
ATOM     51  C   UNL A   1      42.729  32.226  30.861  1.00  0.00     0.029 A 
ATOM     52  N   UNL A   1      43.497  30.760  29.358  1.00  0.00    -0.354 N 
ATOM     53  C   UNL A   1      41.249  27.234  28.319  1.00  0.00     0.074 A 
ATOM     54  C   UNL A   1      40.004  27.172  29.054  1.00  0.00     0.031 C 
ATOM     55  C   UNL A   1      43.936  32.657  30.458  1.00  0.00     0.029 A 
ATOM     56  C   UNL A   1      44.480  31.709  29.493  1.00  0.00     0.049 A 
ATOM     57  H   UNL A   1      43.571  29.989  28.751  1.00  0.00     0.167 HD
ATOM     58  C   UNL A   1      41.657  26.296  27.431  1.00  0.00     0.031 A 
ATOM     59  C   UNL A   1      45.693  31.802  28.914  1.00  0.00     0.031 A 
ATOM     60  C   UNL A   1      42.889  26.362  26.691  1.00  0.00     0.049 A 
ATOM     61  C   UNL A   1      46.124  30.749  27.935  1.00  0.00     0.074 A 
ATOM     62  C   UNL A   1      43.357  25.498  25.717  1.00  0.00     0.029 A 
ATOM     63  N   UNL A   1      43.852  27.347  26.848  1.00  0.00    -0.354 N 
ATOM     64  N   UNL A   1      45.477  29.682  27.531  1.00  0.00    -0.248 NA
ATOM     65  C   UNL A   1      47.450  30.917  27.324  1.00  0.00     0.031 C 
ATOM     66  C   UNL A   1      44.627  25.931  25.320  1.00  0.00     0.029 A 
ATOM     67  C   UNL A   1      44.925  27.095  26.008  1.00  0.00     0.049 A 
ATOM     68  H   UNL A   1      43.784  28.111  27.464  1.00  0.00     0.167 HD
ATOM     69  C   UNL A   1      46.307  29.063  26.607  1.00  0.00     0.074 A 
ATOM     70  C   UNL A   1      47.496  29.885  26.493  1.00  0.00     0.031 C 
ATOM     71  C   UNL A   1      46.105  27.916  25.914  1.00  0.00     0.031 A 
BRANCH  58  72
ATOM     72  C   UNL A   1      40.763  25.106  27.221  1.00  0.00    -0.014 A 
ATOM     73  C   UNL A   1      39.587  25.203  26.460  1.00  0.00     0.009 A 
ATOM     74  C   UNL A   1      41.119  23.861  27.764  1.00  0.00     0.009 A 
ATOM     75  C   UNL A   1      38.766  24.088  26.280  1.00  0.00     0.001 A 
ATOM     76  C   UNL A   1      40.311  22.741  27.557  1.00  0.00     0.001 A 
ATOM     77  C   UNL A   1      39.131  22.857  26.824  1.00  0.00     0.000 A 
ENDBRANCH  58  72
BRANCH  59  78
ATOM     78  C   UNL A   1      46.581  32.947  29.240  1.00  0.00    -0.014 A 
ATOM     79  C   UNL A   1      46.527  34.127  28.484  1.00  0.00     0.009 A 
ATOM     80  C   UNL A   1      47.482  32.869  30.314  1.00  0.00     0.009 A 
ATOM     81  C   UNL A   1      47.371  35.199  28.783  1.00  0.00     0.001 A 
ATOM     82  C   UNL A   1      48.305  33.952  30.628  1.00  0.00     0.001 A 
ATOM     83  C   UNL A   1      48.255  35.113  29.858  1.00  0.00     0.000 A 
ENDBRANCH  59  78
BRANCH  71  84
ATOM     84  C   UNL A   1      47.183  27.494  24.957  1.00  0.00    -0.014 A 
ATOM     85  C   UNL A   1      47.213  27.976  23.640  1.00  0.00     0.009 A 
ATOM     86  C   UNL A   1      48.201  26.631  25.391  1.00  0.00     0.009 A 
ATOM     87  C   UNL A   1      48.226  27.576  22.766  1.00  0.00     0.001 A 
ATOM     88  C   UNL A   1      49.227  26.254  24.524  1.00  0.00     0.001 A 
ATOM     89  C   UNL A   1      49.234  26.720  23.209  1.00  0.00     0.000 A 
ENDBRANCH  71  84
ENDBRANCH  45  46
ENDBRANCH  37  40
ENDBRANCH  35  36
ENDBRANCH  34  35
ENDBRANCH  33  34
ENDBRANCH  31  33
ENDBRANCH  27  29
ENDBRANCH  26  27
ENDBRANCH   5  20
TORSDOF 21
ENDMDL
MODEL 3
REMARK VINA RESULT:      -8.3      4.689     11.472
REMARK SMILES CCCCCCCCNC(=O)Oc1cccc(-c2ccc([C@@H](C)C(=O)NCCCNC(=O)c3ccc(-c4c5nc(c(-c6ccccc6)c6ccc([nH]6)c(-c6ccccc6)c6nc(c(-c7ccccc7)c7ccc4[nH]7)C=C6)C=C5)cc3)cc2F)c1
REMARK SMILES IDX 13 1 14 2 15 3 16 4 17 5 84 6 12 7 10 8 9 9 11 11 8 12 7 13
REMARK SMILES IDX 6 14 5 15 4 16 3 17 2 18 1 19 18 20 19 21 82 22 20 23 81 24
REMARK SMILES IDX 83 25 21 26 22 27 23 28 24 29 25 30 26 31 27 33 28 34 29 35
REMARK SMILES IDX 30 36 31 37 32 39 33 40 34 41 80 42 35 43 79 44 36 45 37 46
REMARK SMILES IDX 38 47 73 48 39 49 78 50 72 51 74 52 40 53 77 54 71 55 70 56
REMARK SMILES IDX 41 58 63 59 48 60 62 61 49 62 52 63 61 64 75 65 50 66 51 67
REMARK SMILES IDX 60 69 76 70 53 71 42 72 43 73 47 74 44 75 46 76 45 77 64 78
REMARK SMILES IDX 65 79 69 80 66 81 68 82 67 83 54 84 55 85 59 86 56 87 58 88
REMARK SMILES IDX 57 89
REMARK H PARENT 9 10 26 32 30 38 74 57 52 68
REMARK Flexibility Score: inf
ROOT
ATOM      1  C   UNL A   1      33.781  24.449  23.102  1.00  0.00     0.133 A 
ATOM      2  C   UNL A   1      32.853  23.422  22.976  1.00  0.00     0.047 A 
ATOM      3  C   UNL A   1      33.151  22.177  23.513  1.00  0.00     0.004 A 
ATOM      4  C   UNL A   1      34.365  21.980  24.179  1.00  0.00     0.009 A 
ATOM      5  C   UNL A   1      35.323  23.010  24.311  1.00  0.00    -0.012 A 
ATOM      6  C   UNL A   1      34.999  24.261  23.759  1.00  0.00     0.056 A 
ENDROOT
BRANCH   1   7
ATOM      7  O   UNL A   1      33.379  25.716  22.657  1.00  0.00    -0.410 OA
BRANCH   7   8
ATOM      8  C   UNL A   1      32.756  25.806  21.423  1.00  0.00     0.412 C 
ATOM      9  N   UNL A   1      31.529  26.405  21.501  1.00  0.00    -0.321 N 
ATOM     10  H   UNL A   1      31.027  26.502  20.659  1.00  0.00     0.167 HD
ATOM     11  O   UNL A   1      33.199  25.398  20.357  1.00  0.00    -0.224 OA
BRANCH   9  12
ATOM     12  C   UNL A   1      30.894  26.910  22.702  1.00  0.00     0.119 C 
BRANCH  12  13
ATOM     13  C   UNL A   1      30.522  28.386  22.575  1.00  0.00     0.021 C 
BRANCH  13  14
ATOM     14  C   UNL A   1      31.189  29.304  23.607  1.00  0.00     0.002 C 
BRANCH  14  15
ATOM     15  C   UNL A   1      31.525  28.642  24.947  1.00  0.00     0.000 C 
BRANCH  15  16
ATOM     16  C   UNL A   1      31.668  29.607  26.129  1.00  0.00    -0.000 C 
BRANCH  16  17
ATOM     17  C   UNL A   1      32.444  29.053  27.328  1.00  0.00    -0.000 C 
BRANCH  17  18
ATOM     18  C   UNL A   1      33.770  28.368  26.988  1.00  0.00    -0.003 C 
ATOM     19  C   UNL A   1      34.986  29.246  27.239  1.00  0.00     0.004 C 
ENDBRANCH  17  18
ENDBRANCH  16  17
ENDBRANCH  15  16
ENDBRANCH  14  15
ENDBRANCH  13  14
ENDBRANCH  12  13
ENDBRANCH   9  12
ENDBRANCH   7   8
ENDBRANCH   1   7
BRANCH   5  20
ATOM     20  C   UNL A   1      36.620  22.762  24.982  1.00  0.00     0.018 A 
ATOM     21  C   UNL A   1      37.332  21.573  24.742  1.00  0.00     0.012 A 
ATOM     22  C   UNL A   1      37.217  23.675  25.865  1.00  0.00     0.131 A 
ATOM     23  C   UNL A   1      38.563  21.310  25.354  1.00  0.00     0.005 A 
ATOM     24  C   UNL A   1      38.474  23.443  26.435  1.00  0.00     0.044 A 
ATOM     25  F   UNL A   1      36.588  24.812  26.201  1.00  0.00    -0.206 F 
ATOM     26  C   UNL A   1      39.177  22.258  26.176  1.00  0.00    -0.033 A 
BRANCH  26  27
ATOM     27  C   UNL A   1      40.568  22.064  26.757  1.00  0.00     0.105 C 
ATOM     28  C   UNL A   1      40.703  22.348  28.253  1.00  0.00     0.023 C 
BRANCH  27  29
ATOM     29  C   UNL A   1      41.252  20.771  26.290  1.00  0.00     0.227 C 
ATOM     30  O   UNL A   1      40.628  19.703  26.315  1.00  0.00    -0.274 OA
ATOM     31  N   UNL A   1      42.532  20.704  25.832  1.00  0.00    -0.356 N 
ATOM     32  H   UNL A   1      42.797  19.807  25.522  1.00  0.00     0.163 HD
BRANCH  31  33
ATOM     33  C   UNL A   1      43.578  21.699  25.713  1.00  0.00     0.117 C 
BRANCH  33  34
ATOM     34  C   UNL A   1      43.807  22.461  27.017  1.00  0.00     0.042 C 
BRANCH  34  35
ATOM     35  C   UNL A   1      44.370  23.865  26.827  1.00  0.00     0.118 C 
BRANCH  35  36
ATOM     36  N   UNL A   1      43.835  24.518  25.641  1.00  0.00    -0.352 N 
ATOM     37  C   UNL A   1      42.941  25.553  25.510  1.00  0.00     0.251 C 
ATOM     38  H   UNL A   1      44.172  24.158  24.789  1.00  0.00     0.163 HD
ATOM     39  O   UNL A   1      42.474  25.797  24.399  1.00  0.00    -0.269 OA
BRANCH  37  40
ATOM     40  C   UNL A   1      42.518  26.368  26.672  1.00  0.00     0.039 A 
ATOM     41  C   UNL A   1      41.538  25.852  27.528  1.00  0.00     0.014 A 
ATOM     42  C   UNL A   1      43.021  27.652  26.895  1.00  0.00     0.014 A 
ATOM     43  C   UNL A   1      41.111  26.594  28.634  1.00  0.00     0.010 A 
ATOM     44  C   UNL A   1      42.653  28.359  28.040  1.00  0.00     0.010 A 
ATOM     45  C   UNL A   1      41.690  27.841  28.918  1.00  0.00    -0.014 A 
BRANCH  45  46
ATOM     46  C   UNL A   1      41.306  28.609  30.129  1.00  0.00     0.031 A 
ATOM     47  C   UNL A   1      40.126  29.543  30.102  1.00  0.00     0.074 A 
ATOM     48  C   UNL A   1      42.063  28.519  31.240  1.00  0.00     0.049 A 
ATOM     49  N   UNL A   1      39.679  30.336  31.043  1.00  0.00    -0.248 NA
ATOM     50  C   UNL A   1      39.361  29.608  28.847  1.00  0.00     0.031 C 
ATOM     51  C   UNL A   1      43.259  27.687  31.384  1.00  0.00     0.029 A 
ATOM     52  N   UNL A   1      41.944  29.143  32.456  1.00  0.00    -0.354 N 
ATOM     53  C   UNL A   1      38.600  31.013  30.486  1.00  0.00     0.074 A 
ATOM     54  C   UNL A   1      38.483  30.564  29.116  1.00  0.00     0.031 C 
ATOM     55  C   UNL A   1      43.752  27.837  32.624  1.00  0.00     0.029 A 
ATOM     56  C   UNL A   1      42.932  28.802  33.348  1.00  0.00     0.049 A 
ATOM     57  H   UNL A   1      41.220  29.774  32.670  1.00  0.00     0.167 HD
ATOM     58  C   UNL A   1      37.771  31.914  31.066  1.00  0.00     0.031 A 
ATOM     59  C   UNL A   1      43.162  29.227  34.605  1.00  0.00     0.031 A 
ATOM     60  C   UNL A   1      37.879  32.352  32.433  1.00  0.00     0.049 A 
ATOM     61  C   UNL A   1      42.231  30.228  35.226  1.00  0.00     0.074 A 
ATOM     62  C   UNL A   1      37.046  33.207  33.133  1.00  0.00     0.029 A 
ATOM     63  N   UNL A   1      38.887  31.973  33.306  1.00  0.00    -0.354 N 
ATOM     64  N   UNL A   1      41.169  30.799  34.711  1.00  0.00    -0.248 NA
ATOM     65  C   UNL A   1      42.526  30.637  36.606  1.00  0.00     0.031 C 
ATOM     66  C   UNL A   1      37.577  33.385  34.414  1.00  0.00     0.029 A 
ATOM     67  C   UNL A   1      38.711  32.599  34.529  1.00  0.00     0.049 A 
ATOM     68  H   UNL A   1      39.618  31.351  33.089  1.00  0.00     0.167 HD
ATOM     69  C   UNL A   1      40.659  31.619  35.707  1.00  0.00     0.074 A 
ATOM     70  C   UNL A   1      41.515  31.456  36.865  1.00  0.00     0.031 C 
ATOM     71  C   UNL A   1      39.578  32.435  35.668  1.00  0.00     0.031 A 
BRANCH  58  72
ATOM     72  C   UNL A   1      36.678  32.498  30.216  1.00  0.00    -0.014 A 
ATOM     73  C   UNL A   1      36.887  33.659  29.455  1.00  0.00     0.009 A 
ATOM     74  C   UNL A   1      35.431  31.858  30.146  1.00  0.00     0.009 A 
ATOM     75  C   UNL A   1      35.858  34.190  28.674  1.00  0.00     0.001 A 
ATOM     76  C   UNL A   1      34.413  32.374  29.341  1.00  0.00     0.001 A 
ATOM     77  C   UNL A   1      34.624  33.544  28.614  1.00  0.00     0.000 A 
ENDBRANCH  58  72
BRANCH  59  78
ATOM     78  C   UNL A   1      44.322  28.694  35.364  1.00  0.00    -0.014 A 
ATOM     79  C   UNL A   1      44.202  27.511  36.110  1.00  0.00     0.009 A 
ATOM     80  C   UNL A   1      45.558  29.359  35.340  1.00  0.00     0.009 A 
ATOM     81  C   UNL A   1      45.290  27.017  36.833  1.00  0.00     0.001 A 
ATOM     82  C   UNL A   1      46.652  28.848  36.043  1.00  0.00     0.001 A 
ATOM     83  C   UNL A   1      46.514  27.682  36.795  1.00  0.00     0.000 A 
ENDBRANCH  59  78
BRANCH  71  84
ATOM     84  C   UNL A   1      39.249  33.197  36.920  1.00  0.00    -0.014 A 
ATOM     85  C   UNL A   1      38.408  32.653  37.901  1.00  0.00     0.009 A 
ATOM     86  C   UNL A   1      39.818  34.463  37.135  1.00  0.00     0.009 A 
ATOM     87  C   UNL A   1      38.118  33.375  39.061  1.00  0.00     0.001 A 
ATOM     88  C   UNL A   1      39.548  35.170  38.306  1.00  0.00     0.001 A 
ATOM     89  C   UNL A   1      38.691  34.629  39.265  1.00  0.00     0.000 A 
ENDBRANCH  71  84
ENDBRANCH  45  46
ENDBRANCH  37  40
ENDBRANCH  35  36
ENDBRANCH  34  35
ENDBRANCH  33  34
ENDBRANCH  31  33
ENDBRANCH  27  29
ENDBRANCH  26  27
ENDBRANCH   5  20
TORSDOF 21
ENDMDL
