MODEL 1
REMARK VINA RESULT:     -11.4      0.000      0.000
REMARK SMILES CCN(CC)c1ccc([C@@H]2c3[nH]c4ccccc4c3C[C@@H](C(=O)NCCCNC(=O)c3ccc(-c4c5nc(c(-c6ccccc6)c6ccc([nH]6)c(-c6ccccc6)c6nc(c(-c7ccccc7)c7ccc4[nH]7)C=C6)C=C5)cc3)N2C(C)=O)cc1
REMARK SMILES IDX 25 1 24 2 22 3 23 4 21 6 10 7 11 8 79 9 12 10 19 11 13 12
REMARK SMILES IDX 18 14 20 15 14 16 17 17 15 18 16 19 9 20 6 21 7 22 84 23
REMARK SMILES IDX 8 24 83 25 3 26 2 27 1 28 4 29 5 30 80 31 81 32 82 33 26 34
REMARK SMILES IDX 27 35 28 36 29 37 30 39 31 40 32 41 78 42 33 43 77 44 34 45
REMARK SMILES IDX 35 46 36 47 71 48 37 49 76 50 70 51 72 52 38 53 75 54 69 55
REMARK SMILES IDX 68 56 39 58 61 59 46 60 60 61 47 62 50 63 59 64 73 65 48 66
REMARK SMILES IDX 49 67 58 69 74 70 51 71 40 72 41 73 45 74 42 75 44 76 43 77
REMARK SMILES IDX 62 78 63 79 67 80 64 81 66 82 65 83 52 84 53 85 57 86 54 87
REMARK SMILES IDX 56 88 55 89
REMARK H PARENT 24 5 12 13 28 38 72 57 50 68
REMARK Flexibility Score: inf
ROOT
ATOM      1  C   UNL A   1      32.931  31.197  26.986  1.00  0.00     0.117 C 
ENDROOT
BRANCH   1   2
ATOM      2  N   UNL A   1      33.566  29.808  27.018  1.00  0.00    -0.354 N 
ATOM      3  C   UNL A   1      34.173  28.849  26.202  1.00  0.00     0.243 C 
ATOM      4  O   UNL A   1      34.749  27.958  26.855  1.00  0.00    -0.273 OA
ATOM      5  H   UNL A   1      33.536  29.466  27.940  1.00  0.00     0.163 HD
BRANCH   3   6
ATOM      6  C   UNL A   1      34.011  28.587  24.567  1.00  0.00     0.179 C 
ATOM      7  C   UNL A   1      33.202  26.409  25.211  1.00  0.00     0.163 C 
ATOM      8  C   UNL A   1      31.831  27.107  25.084  1.00  0.00     0.047 A 
ATOM      9  N   UNL A   1      33.873  27.096  24.129  1.00  0.00    -0.318 N 
ATOM     10  N   UNL A   1      30.595  26.551  25.218  1.00  0.00    -0.356 N 
ATOM     11  C   UNL A   1      31.632  28.384  24.519  1.00  0.00    -0.014 A 
ATOM     12  C   UNL A   1      29.717  27.242  24.415  1.00  0.00     0.046 A 
ATOM     13  H   UNL A   1      30.368  25.784  25.792  1.00  0.00     0.166 HD
ATOM     14  C   UNL A   1      30.314  28.449  24.062  1.00  0.00     0.003 A 
ATOM     15  C   UNL A   1      32.749  29.312  24.157  1.00  0.00     0.073 C 
ATOM     16  C   UNL A   1      28.472  26.868  23.936  1.00  0.00     0.026 A 
ATOM     17  C   UNL A   1      29.644  29.369  23.250  1.00  0.00     0.010 A 
ATOM     18  C   UNL A   1      27.857  27.749  23.043  1.00  0.00     0.002 A 
ATOM     19  C   UNL A   1      28.420  28.985  22.719  1.00  0.00     0.001 A 
BRANCH   7  20
ATOM     20  C   UNL A   1      33.361  24.908  25.277  1.00  0.00    -0.019 A 
ATOM     21  C   UNL A   1      33.447  22.115  24.759  1.00  0.00     0.037 A 
ATOM     22  C   UNL A   1      34.488  22.973  24.439  1.00  0.00     0.026 A 
ATOM     23  C   UNL A   1      32.408  22.677  25.512  1.00  0.00     0.026 A 
ATOM     24  C   UNL A   1      34.487  24.307  24.763  1.00  0.00     0.008 A 
ATOM     25  C   UNL A   1      32.347  24.062  25.756  1.00  0.00     0.008 A 
BRANCH  21  26
ATOM     26  N   UNL A   1      33.468  20.800  24.321  1.00  0.00    -0.372 N 
BRANCH  26  27
ATOM     27  C   UNL A   1      34.469  19.879  24.874  1.00  0.00     0.113 C 
ATOM     28  C   UNL A   1      34.270  18.438  24.430  1.00  0.00     0.027 C 
ENDBRANCH  26  27
BRANCH  26  29
ATOM     29  C   UNL A   1      32.316  20.225  23.595  1.00  0.00     0.113 C 
ATOM     30  C   UNL A   1      31.997  20.860  22.239  1.00  0.00     0.027 C 
ENDBRANCH  26  29
ENDBRANCH  21  26
ENDBRANCH   7  20
BRANCH   9  31
ATOM     31  C   UNL A   1      33.385  26.609  22.866  1.00  0.00     0.220 C 
ATOM     32  C   UNL A   1      32.361  25.532  22.684  1.00  0.00     0.114 C 
ATOM     33  O   UNL A   1      33.810  27.037  21.778  1.00  0.00    -0.275 OA
ENDBRANCH   9  31
ENDBRANCH   3   6
ENDBRANCH   1   2
BRANCH   1  34
ATOM     34  C   UNL A   1      33.477  32.266  27.987  1.00  0.00     0.042 C 
BRANCH  34  35
ATOM     35  C   UNL A   1      33.145  33.775  27.921  1.00  0.00     0.118 C 
BRANCH  35  36
ATOM     36  N   UNL A   1      32.981  34.454  29.211  1.00  0.00    -0.352 N 
ATOM     37  C   UNL A   1      33.650  34.419  30.414  1.00  0.00     0.251 C 
ATOM     38  H   UNL A   1      32.219  35.078  29.218  1.00  0.00     0.163 HD
ATOM     39  O   UNL A   1      33.161  35.107  31.340  1.00  0.00    -0.269 OA
BRANCH  37  40
ATOM     40  C   UNL A   1      34.895  33.652  30.728  1.00  0.00     0.039 A 
ATOM     41  C   UNL A   1      36.081  33.990  30.047  1.00  0.00     0.014 A 
ATOM     42  C   UNL A   1      34.933  32.535  31.565  1.00  0.00     0.014 A 
ATOM     43  C   UNL A   1      37.271  33.260  30.224  1.00  0.00     0.010 A 
ATOM     44  C   UNL A   1      36.144  31.855  31.807  1.00  0.00     0.010 A 
ATOM     45  C   UNL A   1      37.328  32.192  31.131  1.00  0.00    -0.014 A 
BRANCH  45  46
ATOM     46  C   UNL A   1      38.593  31.415  31.351  1.00  0.00     0.031 A 
ATOM     47  C   UNL A   1      39.599  31.853  32.394  1.00  0.00     0.074 A 
ATOM     48  C   UNL A   1      38.872  30.332  30.593  1.00  0.00     0.049 A 
ATOM     49  N   UNL A   1      40.768  31.335  32.692  1.00  0.00    -0.248 NA
ATOM     50  C   UNL A   1      39.258  33.040  33.194  1.00  0.00     0.031 C 
ATOM     51  C   UNL A   1      38.015  29.798  29.531  1.00  0.00     0.029 A 
ATOM     52  N   UNL A   1      39.958  29.484  30.592  1.00  0.00    -0.354 N 
ATOM     53  C   UNL A   1      41.308  32.149  33.685  1.00  0.00     0.074 A 
ATOM     54  C   UNL A   1      40.359  33.217  33.909  1.00  0.00     0.031 C 
ATOM     55  C   UNL A   1      38.591  28.706  29.003  1.00  0.00     0.029 A 
ATOM     56  C   UNL A   1      39.882  28.484  29.648  1.00  0.00     0.049 A 
ATOM     57  H   UNL A   1      40.718  29.584  31.209  1.00  0.00     0.167 HD
ATOM     58  C   UNL A   1      42.477  32.017  34.359  1.00  0.00     0.031 A 
ATOM     59  C   UNL A   1      40.753  27.508  29.323  1.00  0.00     0.031 A 
ATOM     60  C   UNL A   1      43.418  30.946  34.155  1.00  0.00     0.049 A 
ATOM     61  C   UNL A   1      42.054  27.398  30.073  1.00  0.00     0.074 A 
ATOM     62  C   UNL A   1      44.593  30.690  34.843  1.00  0.00     0.029 A 
ATOM     63  N   UNL A   1      43.296  29.959  33.191  1.00  0.00    -0.354 N 
ATOM     64  N   UNL A   1      42.504  28.131  31.062  1.00  0.00    -0.248 NA
ATOM     65  C   UNL A   1      42.966  26.316  29.668  1.00  0.00     0.031 C 
ATOM     66  C   UNL A   1      45.222  29.597  34.241  1.00  0.00     0.029 A 
ATOM     67  C   UNL A   1      44.397  29.120  33.235  1.00  0.00     0.049 A 
ATOM     68  H   UNL A   1      42.540  29.870  32.566  1.00  0.00     0.167 HD
ATOM     69  C   UNL A   1      43.729  27.579  31.418  1.00  0.00     0.074 A 
ATOM     70  C   UNL A   1      43.942  26.438  30.556  1.00  0.00     0.031 C 
ATOM     71  C   UNL A   1      44.599  27.983  32.375  1.00  0.00     0.031 A 
BRANCH  58  72
ATOM     72  C   UNL A   1      42.830  33.072  35.378  1.00  0.00    -0.014 A 
ATOM     73  C   UNL A   1      42.391  32.990  36.708  1.00  0.00     0.009 A 
ATOM     74  C   UNL A   1      43.678  34.132  35.012  1.00  0.00     0.009 A 
ATOM     75  C   UNL A   1      42.762  33.964  37.639  1.00  0.00     0.001 A 
ATOM     76  C   UNL A   1      44.076  35.084  35.952  1.00  0.00     0.001 A 
ATOM     77  C   UNL A   1      43.610  35.006  37.263  1.00  0.00     0.000 A 
ENDBRANCH  58  72
BRANCH  59  78
ATOM     78  C   UNL A   1      40.443  26.552  28.219  1.00  0.00    -0.014 A 
ATOM     79  C   UNL A   1      39.659  25.409  28.452  1.00  0.00     0.009 A 
ATOM     80  C   UNL A   1      40.970  26.754  26.933  1.00  0.00     0.009 A 
ATOM     81  C   UNL A   1      39.445  24.473  27.436  1.00  0.00     0.001 A 
ATOM     82  C   UNL A   1      40.722  25.837  25.909  1.00  0.00     0.001 A 
ATOM     83  C   UNL A   1      39.974  24.689  26.164  1.00  0.00     0.000 A 
ENDBRANCH  59  78
BRANCH  71  84
ATOM     84  C   UNL A   1      45.842  27.158  32.577  1.00  0.00    -0.014 A 
ATOM     85  C   UNL A   1      45.835  25.995  33.363  1.00  0.00     0.009 A 
ATOM     86  C   UNL A   1      47.032  27.534  31.934  1.00  0.00     0.009 A 
ATOM     87  C   UNL A   1      47.005  25.250  33.533  1.00  0.00     0.001 A 
ATOM     88  C   UNL A   1      48.190  26.767  32.074  1.00  0.00     0.001 A 
ATOM     89  C   UNL A   1      48.179  25.633  32.884  1.00  0.00     0.000 A 
ENDBRANCH  71  84
ENDBRANCH  45  46
ENDBRANCH  37  40
ENDBRANCH  35  36
ENDBRANCH  34  35
ENDBRANCH   1  34
TORSDOF 15
ENDMDL
MODEL 2
REMARK VINA RESULT:     -11.4      2.719      4.194
REMARK SMILES CCN(CC)c1ccc([C@@H]2c3[nH]c4ccccc4c3C[C@@H](C(=O)NCCCNC(=O)c3ccc(-c4c5nc(c(-c6ccccc6)c6ccc([nH]6)c(-c6ccccc6)c6nc(c(-c7ccccc7)c7ccc4[nH]7)C=C6)C=C5)cc3)N2C(C)=O)cc1
REMARK SMILES IDX 25 1 24 2 22 3 23 4 21 6 10 7 11 8 79 9 12 10 19 11 13 12
REMARK SMILES IDX 18 14 20 15 14 16 17 17 15 18 16 19 9 20 6 21 7 22 84 23
REMARK SMILES IDX 8 24 83 25 3 26 2 27 1 28 4 29 5 30 80 31 81 32 82 33 26 34
REMARK SMILES IDX 27 35 28 36 29 37 30 39 31 40 32 41 78 42 33 43 77 44 34 45
REMARK SMILES IDX 35 46 36 47 71 48 37 49 76 50 70 51 72 52 38 53 75 54 69 55
REMARK SMILES IDX 68 56 39 58 61 59 46 60 60 61 47 62 50 63 59 64 73 65 48 66
REMARK SMILES IDX 49 67 58 69 74 70 51 71 40 72 41 73 45 74 42 75 44 76 43 77
REMARK SMILES IDX 62 78 63 79 67 80 64 81 66 82 65 83 52 84 53 85 57 86 54 87
REMARK SMILES IDX 56 88 55 89
REMARK H PARENT 24 5 12 13 28 38 72 57 50 68
REMARK Flexibility Score: inf
ROOT
ATOM      1  C   UNL A   1      30.849  26.720  26.610  1.00  0.00     0.117 C 
ENDROOT
BRANCH   1   2
ATOM      2  N   UNL A   1      31.332  25.294  26.870  1.00  0.00    -0.354 N 
ATOM      3  C   UNL A   1      32.483  24.502  26.892  1.00  0.00     0.243 C 
ATOM      4  O   UNL A   1      32.297  23.400  27.442  1.00  0.00    -0.273 OA
ATOM      5  H   UNL A   1      30.557  24.734  27.103  1.00  0.00     0.163 HD
BRANCH   3   6
ATOM      6  C   UNL A   1      33.922  24.696  26.082  1.00  0.00     0.179 C 
ATOM      7  C   UNL A   1      33.298  22.678  24.920  1.00  0.00     0.163 C 
ATOM      8  C   UNL A   1      32.752  23.686  23.886  1.00  0.00     0.047 A 
ATOM      9  N   UNL A   1      34.458  23.434  25.337  1.00  0.00    -0.318 N 
ATOM     10  N   UNL A   1      32.194  23.420  22.673  1.00  0.00    -0.356 N 
ATOM     11  C   UNL A   1      33.009  25.073  23.908  1.00  0.00    -0.014 A 
ATOM     12  C   UNL A   1      32.463  24.472  21.829  1.00  0.00     0.046 A 
ATOM     13  H   UNL A   1      31.685  22.610  22.439  1.00  0.00     0.166 HD
ATOM     14  C   UNL A   1      32.867  25.555  22.605  1.00  0.00     0.003 A 
ATOM     15  C   UNL A   1      33.674  25.774  25.052  1.00  0.00     0.073 C 
ATOM     16  C   UNL A   1      32.428  24.530  20.445  1.00  0.00     0.026 A 
ATOM     17  C   UNL A   1      33.199  26.777  22.012  1.00  0.00     0.010 A 
ATOM     18  C   UNL A   1      32.861  25.723  19.859  1.00  0.00     0.002 A 
ATOM     19  C   UNL A   1      33.222  26.833  20.625  1.00  0.00     0.001 A 
BRANCH   7  20
ATOM     20  C   UNL A   1      33.503  21.213  24.614  1.00  0.00    -0.019 A 
ATOM     21  C   UNL A   1      33.584  18.372  24.638  1.00  0.00     0.037 A 
ATOM     22  C   UNL A   1      32.484  19.091  24.194  1.00  0.00     0.026 A 
ATOM     23  C   UNL A   1      34.729  19.128  24.920  1.00  0.00     0.026 A 
ATOM     24  C   UNL A   1      32.471  20.460  24.101  1.00  0.00     0.008 A 
ATOM     25  C   UNL A   1      34.692  20.536  24.930  1.00  0.00     0.008 A 
BRANCH  21  26
ATOM     26  N   UNL A   1      33.499  16.998  24.797  1.00  0.00    -0.372 N 
BRANCH  26  27
ATOM     27  C   UNL A   1      34.585  16.151  24.285  1.00  0.00     0.113 C 
ATOM     28  C   UNL A   1      35.627  15.809  25.338  1.00  0.00     0.027 C 
ENDBRANCH  26  27
BRANCH  26  29
ATOM     29  C   UNL A   1      32.544  16.404  25.756  1.00  0.00     0.113 C 
ATOM     30  C   UNL A   1      32.218  14.924  25.543  1.00  0.00     0.027 C 
ENDBRANCH  26  29
ENDBRANCH  21  26
ENDBRANCH   7  20
BRANCH   9  31
ATOM     31  C   UNL A   1      35.459  23.401  24.304  1.00  0.00     0.220 C 
ATOM     32  C   UNL A   1      36.918  23.672  24.496  1.00  0.00     0.114 C 
ATOM     33  O   UNL A   1      35.181  23.164  23.115  1.00  0.00    -0.275 OA
ENDBRANCH   9  31
ENDBRANCH   3   6
ENDBRANCH   1   2
BRANCH   1  34
ATOM     34  C   UNL A   1      31.488  27.866  27.460  1.00  0.00     0.042 C 
BRANCH  34  35
ATOM     35  C   UNL A   1      32.930  28.393  27.272  1.00  0.00     0.118 C 
BRANCH  35  36
ATOM     36  N   UNL A   1      33.151  29.802  27.619  1.00  0.00    -0.352 N 
ATOM     37  C   UNL A   1      34.233  30.530  28.060  1.00  0.00     0.251 C 
ATOM     38  H   UNL A   1      32.341  30.351  27.511  1.00  0.00     0.163 HD
ATOM     39  O   UNL A   1      34.017  31.736  28.326  1.00  0.00    -0.269 OA
BRANCH  37  40
ATOM     40  C   UNL A   1      35.632  30.037  28.250  1.00  0.00     0.039 A 
ATOM     41  C   UNL A   1      36.018  29.597  29.532  1.00  0.00     0.014 A 
ATOM     42  C   UNL A   1      36.622  30.101  27.269  1.00  0.00     0.014 A 
ATOM     43  C   UNL A   1      37.340  29.200  29.811  1.00  0.00     0.010 A 
ATOM     44  C   UNL A   1      37.924  29.625  27.524  1.00  0.00     0.010 A 
ATOM     45  C   UNL A   1      38.311  29.183  28.801  1.00  0.00    -0.014 A 
BRANCH  45  46
ATOM     46  C   UNL A   1      39.720  28.743  29.072  1.00  0.00     0.031 A 
ATOM     47  C   UNL A   1      40.715  29.686  29.715  1.00  0.00     0.074 A 
ATOM     48  C   UNL A   1      40.133  27.509  28.712  1.00  0.00     0.049 A 
ATOM     49  N   UNL A   1      41.987  29.498  29.982  1.00  0.00    -0.248 NA
ATOM     50  C   UNL A   1      40.225  31.022  30.087  1.00  0.00     0.031 C 
ATOM     51  C   UNL A   1      39.301  26.493  28.062  1.00  0.00     0.029 A 
ATOM     52  N   UNL A   1      41.360  26.893  28.835  1.00  0.00    -0.354 N 
ATOM     53  C   UNL A   1      42.449  30.696  30.521  1.00  0.00     0.074 A 
ATOM     54  C   UNL A   1      41.334  31.617  30.504  1.00  0.00     0.031 C 
ATOM     55  C   UNL A   1      40.027  25.381  27.869  1.00  0.00     0.029 A 
ATOM     56  C   UNL A   1      41.393  25.612  28.332  1.00  0.00     0.049 A 
ATOM     57  H   UNL A   1      42.142  27.330  29.243  1.00  0.00     0.167 HD
ATOM     58  C   UNL A   1      43.680  31.004  30.999  1.00  0.00     0.031 A 
ATOM     59  C   UNL A   1      42.404  24.725  28.236  1.00  0.00     0.031 A 
ATOM     60  C   UNL A   1      44.790  30.086  31.037  1.00  0.00     0.049 A 
ATOM     61  C   UNL A   1      43.768  25.101  28.754  1.00  0.00     0.074 A 
ATOM     62  C   UNL A   1      46.053  30.286  31.569  1.00  0.00     0.029 A 
ATOM     63  N   UNL A   1      44.773  28.803  30.517  1.00  0.00    -0.354 N 
ATOM     64  N   UNL A   1      44.157  26.210  29.332  1.00  0.00    -0.248 NA
ATOM     65  C   UNL A   1      44.832  24.094  28.615  1.00  0.00     0.031 C 
ATOM     66  C   UNL A   1      46.825  29.152  31.299  1.00  0.00     0.029 A 
ATOM     67  C   UNL A   1      46.017  28.215  30.676  1.00  0.00     0.049 A 
ATOM     68  H   UNL A   1      43.993  28.373  30.097  1.00  0.00     0.167 HD
ATOM     69  C   UNL A   1      45.496  26.022  29.656  1.00  0.00     0.074 A 
ATOM     70  C   UNL A   1      45.846  24.685  29.231  1.00  0.00     0.031 C 
ATOM     71  C   UNL A   1      46.357  26.881  30.253  1.00  0.00     0.031 A 
BRANCH  58  72
ATOM     72  C   UNL A   1      43.914  32.405  31.506  1.00  0.00    -0.014 A 
ATOM     73  C   UNL A   1      43.677  32.754  32.844  1.00  0.00     0.009 A 
ATOM     74  C   UNL A   1      44.449  33.375  30.641  1.00  0.00     0.009 A 
ATOM     75  C   UNL A   1      43.936  34.052  33.295  1.00  0.00     0.001 A 
ATOM     76  C   UNL A   1      44.740  34.660  31.102  1.00  0.00     0.001 A 
ATOM     77  C   UNL A   1      44.473  35.001  32.426  1.00  0.00     0.000 A 
ENDBRANCH  58  72
BRANCH  59  78
ATOM     78  C   UNL A   1      42.184  23.389  27.608  1.00  0.00    -0.014 A 
ATOM     79  C   UNL A   1      42.511  23.162  26.261  1.00  0.00     0.009 A 
ATOM     80  C   UNL A   1      41.601  22.344  28.343  1.00  0.00     0.009 A 
ATOM     81  C   UNL A   1      42.222  21.935  25.655  1.00  0.00     0.001 A 
ATOM     82  C   UNL A   1      41.349  21.107  27.746  1.00  0.00     0.001 A 
ATOM     83  C   UNL A   1      41.644  20.908  26.399  1.00  0.00     0.000 A 
ENDBRANCH  59  78
BRANCH  71  84
ATOM     84  C   UNL A   1      47.752  26.387  30.529  1.00  0.00    -0.014 A 
ATOM     85  C   UNL A   1      48.776  26.501  29.575  1.00  0.00     0.009 A 
ATOM     86  C   UNL A   1      48.053  25.832  31.783  1.00  0.00     0.009 A 
ATOM     87  C   UNL A   1      50.061  26.032  29.859  1.00  0.00     0.001 A 
ATOM     88  C   UNL A   1      49.346  25.399  32.078  1.00  0.00     0.001 A 
ATOM     89  C   UNL A   1      50.346  25.488  31.111  1.00  0.00     0.000 A 
ENDBRANCH  71  84
ENDBRANCH  45  46
ENDBRANCH  37  40
ENDBRANCH  35  36
ENDBRANCH  34  35
ENDBRANCH   1  34
TORSDOF 15
ENDMDL
MODEL 3
REMARK VINA RESULT:     -11.3      3.638      6.974
REMARK SMILES CCN(CC)c1ccc([C@@H]2c3[nH]c4ccccc4c3C[C@@H](C(=O)NCCCNC(=O)c3ccc(-c4c5nc(c(-c6ccccc6)c6ccc([nH]6)c(-c6ccccc6)c6nc(c(-c7ccccc7)c7ccc4[nH]7)C=C6)C=C5)cc3)N2C(C)=O)cc1
REMARK SMILES IDX 25 1 24 2 22 3 23 4 21 6 10 7 11 8 79 9 12 10 19 11 13 12
REMARK SMILES IDX 18 14 20 15 14 16 17 17 15 18 16 19 9 20 6 21 7 22 84 23
REMARK SMILES IDX 8 24 83 25 3 26 2 27 1 28 4 29 5 30 80 31 81 32 82 33 26 34
REMARK SMILES IDX 27 35 28 36 29 37 30 39 31 40 32 41 78 42 33 43 77 44 34 45
REMARK SMILES IDX 35 46 36 47 71 48 37 49 76 50 70 51 72 52 38 53 75 54 69 55
REMARK SMILES IDX 68 56 39 58 61 59 46 60 60 61 47 62 50 63 59 64 73 65 48 66
REMARK SMILES IDX 49 67 58 69 74 70 51 71 40 72 41 73 45 74 42 75 44 76 43 77
REMARK SMILES IDX 62 78 63 79 67 80 64 81 66 82 65 83 52 84 53 85 57 86 54 87
REMARK SMILES IDX 56 88 55 89
REMARK H PARENT 24 5 12 13 28 38 72 57 50 68
REMARK Flexibility Score: inf
ROOT
ATOM      1  C   UNL A   1      33.592  30.527  27.567  1.00  0.00     0.117 C 
ENDROOT
BRANCH   1   2
ATOM      2  N   UNL A   1      33.691  29.045  27.209  1.00  0.00    -0.354 N 
ATOM      3  C   UNL A   1      34.016  28.179  26.161  1.00  0.00     0.243 C 
ATOM      4  O   UNL A   1      34.160  27.000  26.539  1.00  0.00    -0.273 OA
ATOM      5  H   UNL A   1      33.433  28.510  27.994  1.00  0.00     0.163 HD
BRANCH   3   6
ATOM      6  C   UNL A   1      33.968  28.432  24.518  1.00  0.00     0.179 C 
ATOM      7  C   UNL A   1      32.839  26.304  24.435  1.00  0.00     0.163 C 
ATOM      8  C   UNL A   1      31.583  27.200  24.460  1.00  0.00     0.047 A 
ATOM      9  N   UNL A   1      33.684  27.171  23.644  1.00  0.00    -0.318 N 
ATOM     10  N   UNL A   1      30.280  26.816  24.360  1.00  0.00    -0.356 N 
ATOM     11  C   UNL A   1      31.596  28.601  24.298  1.00  0.00    -0.014 A 
ATOM     12  C   UNL A   1      29.571  27.831  23.763  1.00  0.00     0.046 A 
ATOM     13  H   UNL A   1      29.909  25.956  24.664  1.00  0.00     0.166 HD
ATOM     14  C   UNL A   1      30.343  28.988  23.819  1.00  0.00     0.003 A 
ATOM     15  C   UNL A   1      32.848  29.422  24.286  1.00  0.00     0.073 C 
ATOM     16  C   UNL A   1      28.336  27.799  23.135  1.00  0.00     0.026 A 
ATOM     17  C   UNL A   1      29.868  30.193  23.292  1.00  0.00     0.010 A 
ATOM     18  C   UNL A   1      27.917  28.983  22.521  1.00  0.00     0.002 A 
ATOM     19  C   UNL A   1      28.657  30.164  22.612  1.00  0.00     0.001 A 
BRANCH   7  20
ATOM     20  C   UNL A   1      32.803  24.843  24.053  1.00  0.00    -0.019 A 
ATOM     21  C   UNL A   1      32.830  22.001  23.998  1.00  0.00     0.037 A 
ATOM     22  C   UNL A   1      31.691  22.739  24.280  1.00  0.00     0.026 A 
ATOM     23  C   UNL A   1      33.941  22.741  23.572  1.00  0.00     0.026 A 
ATOM     24  C   UNL A   1      31.651  24.109  24.225  1.00  0.00     0.008 A 
ATOM     25  C   UNL A   1      33.942  24.148  23.615  1.00  0.00     0.008 A 
BRANCH  21  26
ATOM     26  N   UNL A   1      32.829  20.625  24.163  1.00  0.00    -0.372 N 
BRANCH  26  27
ATOM     27  C   UNL A   1      32.153  19.786  23.164  1.00  0.00     0.113 C 
ATOM     28  C   UNL A   1      31.970  20.480  21.822  1.00  0.00     0.027 C 
ENDBRANCH  26  27
BRANCH  26  29
ATOM     29  C   UNL A   1      33.767  19.974  25.101  1.00  0.00     0.113 C 
ATOM     30  C   UNL A   1      34.373  18.651  24.628  1.00  0.00     0.027 C 
ENDBRANCH  26  29
ENDBRANCH  21  26
ENDBRANCH   7  20
BRANCH   9  31
ATOM     31  C   UNL A   1      33.254  27.151  22.271  1.00  0.00     0.220 C 
ATOM     32  C   UNL A   1      32.158  26.297  21.714  1.00  0.00     0.114 C 
ATOM     33  O   UNL A   1      33.795  27.847  21.393  1.00  0.00    -0.275 OA
ENDBRANCH   9  31
ENDBRANCH   3   6
ENDBRANCH   1   2
BRANCH   1  34
ATOM     34  C   UNL A   1      34.926  31.331  27.698  1.00  0.00     0.042 C 
BRANCH  34  35
ATOM     35  C   UNL A   1      35.300  32.213  28.912  1.00  0.00     0.118 C 
BRANCH  35  36
ATOM     36  N   UNL A   1      35.355  31.531  30.210  1.00  0.00    -0.352 N 
ATOM     37  C   UNL A   1      36.234  30.654  30.804  1.00  0.00     0.251 C 
ATOM     38  H   UNL A   1      34.589  31.751  30.788  1.00  0.00     0.163 HD
ATOM     39  O   UNL A   1      35.903  30.216  31.931  1.00  0.00    -0.269 OA
BRANCH  37  40
ATOM     40  C   UNL A   1      37.538  30.174  30.251  1.00  0.00     0.039 A 
ATOM     41  C   UNL A   1      38.502  29.670  31.147  1.00  0.00     0.014 A 
ATOM     42  C   UNL A   1      37.915  30.310  28.914  1.00  0.00     0.014 A 
ATOM     43  C   UNL A   1      39.783  29.280  30.714  1.00  0.00     0.010 A 
ATOM     44  C   UNL A   1      39.168  29.842  28.465  1.00  0.00     0.010 A 
ATOM     45  C   UNL A   1      40.129  29.336  29.357  1.00  0.00    -0.014 A 
BRANCH  45  46
ATOM     46  C   UNL A   1      41.482  28.904  28.872  1.00  0.00     0.031 A 
ATOM     47  C   UNL A   1      41.721  27.482  28.410  1.00  0.00     0.074 A 
ATOM     48  C   UNL A   1      42.519  29.770  28.877  1.00  0.00     0.049 A 
ATOM     49  N   UNL A   1      42.833  26.915  28.004  1.00  0.00    -0.248 NA
ATOM     50  C   UNL A   1      40.566  26.571  28.426  1.00  0.00     0.031 C 
ATOM     51  C   UNL A   1      42.455  31.166  29.314  1.00  0.00     0.029 A 
ATOM     52  N   UNL A   1      43.836  29.605  28.506  1.00  0.00    -0.354 N 
ATOM     53  C   UNL A   1      42.516  25.583  27.749  1.00  0.00     0.074 A 
ATOM     54  C   UNL A   1      41.120  25.416  28.085  1.00  0.00     0.031 C 
ATOM     55  C   UNL A   1      43.661  31.735  29.163  1.00  0.00     0.029 A 
ATOM     56  C   UNL A   1      44.604  30.737  28.667  1.00  0.00     0.049 A 
ATOM     57  H   UNL A   1      44.195  28.757  28.160  1.00  0.00     0.167 HD
ATOM     58  C   UNL A   1      43.306  24.591  27.268  1.00  0.00     0.031 A 
ATOM     59  C   UNL A   1      45.919  30.950  28.456  1.00  0.00     0.031 A 
ATOM     60  C   UNL A   1      44.691  24.754  26.912  1.00  0.00     0.049 A 
ATOM     61  C   UNL A   1      46.777  29.823  27.943  1.00  0.00     0.074 A 
ATOM     62  C   UNL A   1      45.550  23.824  26.349  1.00  0.00     0.029 A 
ATOM     63  N   UNL A   1      45.423  25.916  27.092  1.00  0.00    -0.354 N 
ATOM     64  N   UNL A   1      46.435  28.597  27.633  1.00  0.00    -0.248 NA
ATOM     65  C   UNL A   1      48.205  30.116  27.739  1.00  0.00     0.031 C 
ATOM     66  C   UNL A   1      46.821  24.400  26.263  1.00  0.00     0.029 A 
ATOM     67  C   UNL A   1      46.733  25.714  26.692  1.00  0.00     0.049 A 
ATOM     68  H   UNL A   1      45.064  26.760  27.452  1.00  0.00     0.167 HD
ATOM     69  C   UNL A   1      47.593  27.985  27.166  1.00  0.00     0.074 A 
ATOM     70  C   UNL A   1      48.642  28.980  27.212  1.00  0.00     0.031 C 
ATOM     71  C   UNL A   1      47.770  26.712  26.738  1.00  0.00     0.031 A 
BRANCH  58  72
ATOM     72  C   UNL A   1      42.701  23.218  27.112  1.00  0.00    -0.014 A 
ATOM     73  C   UNL A   1      42.672  22.300  28.174  1.00  0.00     0.009 A 
ATOM     74  C   UNL A   1      42.085  22.865  25.899  1.00  0.00     0.009 A 
ATOM     75  C   UNL A   1      42.073  21.047  28.012  1.00  0.00     0.001 A 
ATOM     76  C   UNL A   1      41.457  21.627  25.751  1.00  0.00     0.001 A 
ATOM     77  C   UNL A   1      41.461  20.715  26.804  1.00  0.00     0.000 A 
ENDBRANCH  58  72
BRANCH  59  78
ATOM     78  C   UNL A   1      46.527  32.283  28.743  1.00  0.00    -0.014 A 
ATOM     79  C   UNL A   1      46.917  32.632  30.047  1.00  0.00     0.009 A 
ATOM     80  C   UNL A   1      46.677  33.232  27.720  1.00  0.00     0.009 A 
ATOM     81  C   UNL A   1      47.404  33.913  30.325  1.00  0.00     0.001 A 
ATOM     82  C   UNL A   1      47.201  34.498  27.993  1.00  0.00     0.001 A 
ATOM     83  C   UNL A   1      47.549  34.843  29.297  1.00  0.00     0.000 A 
ENDBRANCH  59  78
BRANCH  71  84
ATOM     84  C   UNL A   1      49.138  26.332  26.238  1.00  0.00    -0.014 A 
ATOM     85  C   UNL A   1      49.583  26.697  24.957  1.00  0.00     0.009 A 
ATOM     86  C   UNL A   1      50.011  25.627  27.082  1.00  0.00     0.009 A 
ATOM     87  C   UNL A   1      50.857  26.329  24.519  1.00  0.00     0.001 A 
ATOM     88  C   UNL A   1      51.298  25.293  26.656  1.00  0.00     0.001 A 
ATOM     89  C   UNL A   1      51.715  25.633  25.371  1.00  0.00     0.000 A 
ENDBRANCH  71  84
ENDBRANCH  45  46
ENDBRANCH  37  40
ENDBRANCH  35  36
ENDBRANCH  34  35
ENDBRANCH   1  34
TORSDOF 15
ENDMDL
