MODEL 1
REMARK VINA RESULT:     -12.2      0.000      0.000
REMARK SMILES CN1C(=O)/C(=C\c2ccc(-c3ccccc3C(=O)NCCCNC(=O)c3ccc(-c4c5nc(c(-c6ccccc6)c6ccc([nH]6)c(-c6ccccc6)c6nc(c(-c7ccccc7)c7ccc4[nH]7)C=C6)C=C5)cc3)o2)C(=O)[NH+]=C1S
REMARK SMILES IDX 20 1 19 2 17 3 18 4 16 6 11 7 12 8 13 9 15 10 14 11 10 12
REMARK SMILES IDX 7 13 8 14 74 15 9 16 6 17 1 18 2 19 3 20 78 21 4 22 5 23
REMARK SMILES IDX 77 24 75 25 76 27 79 28 21 30 22 31 23 32 24 33 25 35 26 36
REMARK SMILES IDX 27 37 73 38 28 39 72 40 29 41 30 42 31 43 66 44 32 45 71 46
REMARK SMILES IDX 65 47 67 48 33 49 70 50 64 51 63 52 34 54 56 55 41 56 55 57
REMARK SMILES IDX 42 58 45 59 54 60 68 61 43 62 44 63 53 65 69 66 46 67 35 68
REMARK SMILES IDX 36 69 40 70 37 71 39 72 38 73 57 74 58 75 62 76 59 77 61 78
REMARK SMILES IDX 60 79 47 80 48 81 52 82 49 83 51 84 50 85
REMARK H PARENT 19 5 77 26 79 29 23 34 67 53 45 64
REMARK Flexibility Score: inf
ROOT
ATOM      1  C   UNL A   1      33.032  27.545  26.426  1.00  0.00     0.118 C 
ENDROOT
BRANCH   1   2
ATOM      2  N   UNL A   1      33.636  27.594  25.127  1.00  0.00    -0.352 N 
ATOM      3  C   UNL A   1      33.025  27.934  23.937  1.00  0.00     0.252 C 
ATOM      4  O   UNL A   1      33.761  28.102  22.962  1.00  0.00    -0.269 OA
ATOM      5  H   UNL A   1      34.590  27.358  25.079  1.00  0.00     0.163 HD
BRANCH   3   6
ATOM      6  C   UNL A   1      31.534  27.996  23.725  1.00  0.00     0.050 A 
ATOM      7  C   UNL A   1      30.598  26.942  23.623  1.00  0.00     0.030 A 
ATOM      8  C   UNL A   1      29.238  27.246  23.394  1.00  0.00     0.013 A 
ATOM      9  C   UNL A   1      28.785  28.561  23.321  1.00  0.00     0.001 A 
ATOM     10  C   UNL A   1      31.043  29.323  23.663  1.00  0.00     0.014 A 
ATOM     11  C   UNL A   1      29.688  29.602  23.470  1.00  0.00     0.001 A 
BRANCH   7  12
ATOM     12  C   UNL A   1      30.901  25.530  23.767  1.00  0.00     0.135 A 
ATOM     13  C   UNL A   1      31.820  23.848  24.904  1.00  0.00     0.128 A 
ATOM     14  C   UNL A   1      31.077  23.313  23.853  1.00  0.00     0.051 A 
ATOM     15  O   UNL A   1      31.720  25.217  24.817  1.00  0.00    -0.457 OA
ATOM     16  C   UNL A   1      30.521  24.383  23.111  1.00  0.00     0.051 A 
BRANCH  13  17
ATOM     17  C   UNL A   1      32.511  23.174  25.950  1.00  0.00     0.071 C 
ATOM     18  C   UNL A   1      36.414  22.981  23.249  1.00  0.00     0.301 C 
ATOM     19  N   UNL A   1      35.787  22.668  24.527  1.00  0.00    -0.189 N 
ATOM     20  C   UNL A   1      34.692  23.442  24.827  1.00  0.00     0.349 C 
ATOM     21  C   UNL A   1      36.265  21.807  25.480  1.00  0.00     0.318 C 
ATOM     22  O   UNL A   1      34.479  24.526  24.291  1.00  0.00    -0.240 OA
ATOM     23  C   UNL A   1      33.827  22.898  25.885  1.00  0.00     0.157 C 
ATOM     24  N   UNL A   1      35.672  21.499  26.576  1.00  0.00    -0.200 N 
ATOM     25  C   UNL A   1      34.413  21.957  26.867  1.00  0.00     0.347 C 
ATOM     26  H   UNL A   1      36.132  20.919  27.225  1.00  0.00     0.316 HD
ATOM     27  O   UNL A   1      33.791  21.585  27.847  1.00  0.00    -0.241 OA
BRANCH  21  28
ATOM     28  S   UNL A   1      37.836  21.085  25.235  1.00  0.00    -0.055 SA
ATOM     29  H   UNL A   1      37.684  19.820  24.757  1.00  0.00     0.116 HD
ENDBRANCH  21  28
ENDBRANCH  13  17
ENDBRANCH   7  12
ENDBRANCH   3   6
ENDBRANCH   1   2
BRANCH   1  30
ATOM     30  C   UNL A   1      32.669  28.831  27.127  1.00  0.00     0.042 C 
BRANCH  30  31
ATOM     31  C   UNL A   1      33.533  30.040  26.795  1.00  0.00     0.118 C 
BRANCH  31  32
ATOM     32  N   UNL A   1      33.700  31.027  27.868  1.00  0.00    -0.352 N 
ATOM     33  C   UNL A   1      34.697  31.295  28.782  1.00  0.00     0.251 C 
ATOM     34  H   UNL A   1      32.928  31.632  27.955  1.00  0.00     0.163 HD
ATOM     35  O   UNL A   1      34.495  32.171  29.625  1.00  0.00    -0.269 OA
BRANCH  33  36
ATOM     36  C   UNL A   1      35.966  30.527  28.831  1.00  0.00     0.039 A 
ATOM     37  C   UNL A   1      36.814  30.529  27.715  1.00  0.00     0.014 A 
ATOM     38  C   UNL A   1      36.357  29.817  29.958  1.00  0.00     0.014 A 
ATOM     39  C   UNL A   1      38.083  29.942  27.791  1.00  0.00     0.010 A 
ATOM     40  C   UNL A   1      37.673  29.395  30.096  1.00  0.00     0.010 A 
ATOM     41  C   UNL A   1      38.555  29.438  29.012  1.00  0.00    -0.014 A 
BRANCH  41  42
ATOM     42  C   UNL A   1      39.945  28.934  29.191  1.00  0.00     0.031 A 
ATOM     43  C   UNL A   1      41.019  29.847  29.735  1.00  0.00     0.074 A 
ATOM     44  C   UNL A   1      40.270  27.694  28.772  1.00  0.00     0.049 A 
ATOM     45  N   UNL A   1      42.308  29.643  29.838  1.00  0.00    -0.248 NA
ATOM     46  C   UNL A   1      40.595  31.190  30.173  1.00  0.00     0.031 C 
ATOM     47  C   UNL A   1      39.350  26.725  28.169  1.00  0.00     0.029 A 
ATOM     48  N   UNL A   1      41.477  27.037  28.781  1.00  0.00    -0.354 N 
ATOM     49  C   UNL A   1      42.844  30.836  30.310  1.00  0.00     0.074 A 
ATOM     50  C   UNL A   1      41.756  31.782  30.402  1.00  0.00     0.031 C 
ATOM     51  C   UNL A   1      40.013  25.587  27.913  1.00  0.00     0.029 A 
ATOM     52  C   UNL A   1      41.414  25.759  28.279  1.00  0.00     0.049 A 
ATOM     53  H   UNL A   1      42.308  27.443  29.116  1.00  0.00     0.167 HD
ATOM     54  C   UNL A   1      44.119  31.116  30.670  1.00  0.00     0.031 A 
ATOM     55  C   UNL A   1      42.376  24.830  28.126  1.00  0.00     0.031 A 
ATOM     56  C   UNL A   1      45.194  30.163  30.622  1.00  0.00     0.049 A 
ATOM     57  C   UNL A   1      43.782  25.157  28.547  1.00  0.00     0.074 A 
ATOM     58  C   UNL A   1      46.504  30.320  31.034  1.00  0.00     0.029 A 
ATOM     59  N   UNL A   1      45.076  28.870  30.136  1.00  0.00    -0.354 N 
ATOM     60  N   UNL A   1      44.255  26.267  29.060  1.00  0.00    -0.248 NA
ATOM     61  C   UNL A   1      44.783  24.096  28.381  1.00  0.00     0.031 C 
ATOM     62  C   UNL A   1      47.195  29.137  30.751  1.00  0.00     0.029 A 
ATOM     63  C   UNL A   1      46.297  28.224  30.221  1.00  0.00     0.049 A 
ATOM     64  H   UNL A   1      44.248  28.472  29.784  1.00  0.00     0.167 HD
ATOM     65  C   UNL A   1      45.601  26.027  29.306  1.00  0.00     0.074 A 
ATOM     66  C   UNL A   1      45.862  24.660  28.904  1.00  0.00     0.031 C 
ATOM     67  C   UNL A   1      46.537  26.863  29.818  1.00  0.00     0.031 A 
BRANCH  54  68
ATOM     68  C   UNL A   1      44.413  32.510  31.158  1.00  0.00    -0.014 A 
ATOM     69  C   UNL A   1      44.291  32.849  32.516  1.00  0.00     0.009 A 
ATOM     70  C   UNL A   1      44.843  33.493  30.253  1.00  0.00     0.009 A 
ATOM     71  C   UNL A   1      44.544  34.153  32.949  1.00  0.00     0.001 A 
ATOM     72  C   UNL A   1      45.130  34.786  30.694  1.00  0.00     0.001 A 
ATOM     73  C   UNL A   1      44.970  35.118  32.038  1.00  0.00     0.000 A 
ENDBRANCH  54  68
BRANCH  55  74
ATOM     74  C   UNL A   1      42.042  23.489  27.573  1.00  0.00    -0.014 A 
ATOM     75  C   UNL A   1      41.492  22.497  28.400  1.00  0.00     0.009 A 
ATOM     76  C   UNL A   1      42.277  23.188  26.222  1.00  0.00     0.009 A 
ATOM     77  C   UNL A   1      41.216  21.224  27.896  1.00  0.00     0.001 A 
ATOM     78  C   UNL A   1      41.968  21.924  25.713  1.00  0.00     0.001 A 
ATOM     79  C   UNL A   1      41.450  20.940  26.552  1.00  0.00     0.000 A 
ENDBRANCH  55  74
BRANCH  67  80
ATOM     80  C   UNL A   1      47.919  26.308  30.015  1.00  0.00    -0.014 A 
ATOM     81  C   UNL A   1      48.328  25.782  31.249  1.00  0.00     0.009 A 
ATOM     82  C   UNL A   1      48.812  26.274  28.931  1.00  0.00     0.009 A 
ATOM     83  C   UNL A   1      49.618  25.269  31.406  1.00  0.00     0.001 A 
ATOM     84  C   UNL A   1      50.088  25.731  29.081  1.00  0.00     0.001 A 
ATOM     85  C   UNL A   1      50.493  25.239  30.320  1.00  0.00     0.000 A 
ENDBRANCH  67  80
ENDBRANCH  41  42
ENDBRANCH  33  36
ENDBRANCH  31  32
ENDBRANCH  30  31
ENDBRANCH   1  30
TORSDOF 13
ENDMDL
MODEL 2
REMARK VINA RESULT:     -12.2      2.037      7.629
REMARK SMILES CN1C(=O)/C(=C\c2ccc(-c3ccccc3C(=O)NCCCNC(=O)c3ccc(-c4c5nc(c(-c6ccccc6)c6ccc([nH]6)c(-c6ccccc6)c6nc(c(-c7ccccc7)c7ccc4[nH]7)C=C6)C=C5)cc3)o2)C(=O)[NH+]=C1S
REMARK SMILES IDX 20 1 19 2 17 3 18 4 16 6 11 7 12 8 13 9 15 10 14 11 10 12
REMARK SMILES IDX 7 13 8 14 74 15 9 16 6 17 1 18 2 19 3 20 78 21 4 22 5 23
REMARK SMILES IDX 77 24 75 25 76 27 79 28 21 30 22 31 23 32 24 33 25 35 26 36
REMARK SMILES IDX 27 37 73 38 28 39 72 40 29 41 30 42 31 43 66 44 32 45 71 46
REMARK SMILES IDX 65 47 67 48 33 49 70 50 64 51 63 52 34 54 56 55 41 56 55 57
REMARK SMILES IDX 42 58 45 59 54 60 68 61 43 62 44 63 53 65 69 66 46 67 35 68
REMARK SMILES IDX 36 69 40 70 37 71 39 72 38 73 57 74 58 75 62 76 59 77 61 78
REMARK SMILES IDX 60 79 47 80 48 81 52 82 49 83 51 84 50 85
REMARK H PARENT 19 5 77 26 79 29 23 34 67 53 45 64
REMARK Flexibility Score: inf
ROOT
ATOM      1  C   UNL A   1      36.559  22.363  24.377  1.00  0.00     0.118 C 
ENDROOT
BRANCH   1   2
ATOM      2  N   UNL A   1      35.715  22.604  25.510  1.00  0.00    -0.352 N 
ATOM      3  C   UNL A   1      34.553  21.936  25.840  1.00  0.00     0.252 C 
ATOM      4  O   UNL A   1      34.078  22.164  26.955  1.00  0.00    -0.269 OA
ATOM      5  H   UNL A   1      35.995  23.325  26.120  1.00  0.00     0.163 HD
BRANCH   3   6
ATOM      6  C   UNL A   1      33.774  21.054  24.898  1.00  0.00     0.050 A 
ATOM      7  C   UNL A   1      32.745  21.398  23.992  1.00  0.00     0.030 A 
ATOM      8  C   UNL A   1      32.136  20.382  23.222  1.00  0.00     0.013 A 
ATOM      9  C   UNL A   1      32.560  19.058  23.292  1.00  0.00     0.001 A 
ATOM     10  C   UNL A   1      34.195  19.703  24.937  1.00  0.00     0.014 A 
ATOM     11  C   UNL A   1      33.601  18.719  24.142  1.00  0.00     0.001 A 
BRANCH   7  12
ATOM     12  C   UNL A   1      32.257  22.741  23.741  1.00  0.00     0.135 A 
ATOM     13  C   UNL A   1      32.636  24.910  23.396  1.00  0.00     0.128 A 
ATOM     14  C   UNL A   1      31.281  24.661  23.178  1.00  0.00     0.051 A 
ATOM     15  O   UNL A   1      33.214  23.719  23.768  1.00  0.00    -0.457 OA
ATOM     16  C   UNL A   1      31.036  23.289  23.430  1.00  0.00     0.051 A 
BRANCH  13  17
ATOM     17  C   UNL A   1      33.367  26.117  23.214  1.00  0.00     0.071 C 
ATOM     18  C   UNL A   1      31.637  27.784  27.312  1.00  0.00     0.301 C 
ATOM     19  N   UNL A   1      32.495  28.014  26.156  1.00  0.00    -0.189 N 
ATOM     20  C   UNL A   1      32.909  26.869  25.519  1.00  0.00     0.349 C 
ATOM     21  C   UNL A   1      33.021  29.214  25.757  1.00  0.00     0.318 C 
ATOM     22  O   UNL A   1      32.895  25.767  26.061  1.00  0.00    -0.240 OA
ATOM     23  C   UNL A   1      33.425  27.076  24.157  1.00  0.00     0.157 C 
ATOM     24  N   UNL A   1      33.728  29.410  24.703  1.00  0.00    -0.200 N 
ATOM     25  C   UNL A   1      33.960  28.408  23.797  1.00  0.00     0.347 C 
ATOM     26  H   UNL A   1      34.113  30.301  24.542  1.00  0.00     0.316 HD
ATOM     27  O   UNL A   1      34.532  28.603  22.738  1.00  0.00    -0.241 OA
BRANCH  21  28
ATOM     28  S   UNL A   1      32.766  30.611  26.773  1.00  0.00    -0.055 SA
ATOM     29  H   UNL A   1      31.454  30.972  26.727  1.00  0.00     0.116 HD
ENDBRANCH  21  28
ENDBRANCH  13  17
ENDBRANCH   7  12
ENDBRANCH   3   6
ENDBRANCH   1   2
BRANCH   1  30
ATOM     30  C   UNL A   1      37.489  21.175  24.380  1.00  0.00     0.042 C 
BRANCH  30  31
ATOM     31  C   UNL A   1      38.229  20.910  25.684  1.00  0.00     0.118 C 
BRANCH  31  32
ATOM     32  N   UNL A   1      39.288  19.895  25.629  1.00  0.00    -0.352 N 
ATOM     33  C   UNL A   1      40.622  19.877  25.973  1.00  0.00     0.251 C 
ATOM     34  H   UNL A   1      38.974  19.035  25.264  1.00  0.00     0.163 HD
ATOM     35  O   UNL A   1      41.274  18.860  25.727  1.00  0.00    -0.269 OA
BRANCH  33  36
ATOM     36  C   UNL A   1      41.313  21.052  26.561  1.00  0.00     0.039 A 
ATOM     37  C   UNL A   1      41.838  22.035  25.712  1.00  0.00     0.014 A 
ATOM     38  C   UNL A   1      41.442  21.224  27.932  1.00  0.00     0.014 A 
ATOM     39  C   UNL A   1      42.356  23.223  26.243  1.00  0.00     0.010 A 
ATOM     40  C   UNL A   1      41.786  22.464  28.452  1.00  0.00     0.010 A 
ATOM     41  C   UNL A   1      42.261  23.482  27.618  1.00  0.00    -0.014 A 
BRANCH  41  42
ATOM     42  C   UNL A   1      42.661  24.783  28.222  1.00  0.00     0.031 A 
ATOM     43  C   UNL A   1      41.628  25.861  28.453  1.00  0.00     0.074 A 
ATOM     44  C   UNL A   1      43.962  25.039  28.468  1.00  0.00     0.049 A 
ATOM     45  N   UNL A   1      41.795  27.101  28.839  1.00  0.00    -0.248 NA
ATOM     46  C   UNL A   1      40.225  25.515  28.163  1.00  0.00     0.031 C 
ATOM     47  C   UNL A   1      45.075  24.115  28.235  1.00  0.00     0.029 A 
ATOM     48  N   UNL A   1      44.571  26.167  28.964  1.00  0.00    -0.354 N 
ATOM     49  C   UNL A   1      40.533  27.684  28.796  1.00  0.00     0.074 A 
ATOM     50  C   UNL A   1      39.624  26.689  28.277  1.00  0.00     0.031 C 
ATOM     51  C   UNL A   1      46.220  24.693  28.630  1.00  0.00     0.029 A 
ATOM     52  C   UNL A   1      45.935  26.046  29.093  1.00  0.00     0.049 A 
ATOM     53  H   UNL A   1      44.078  26.983  29.204  1.00  0.00     0.167 HD
ATOM     54  C   UNL A   1      40.151  28.924  29.185  1.00  0.00     0.031 A 
ATOM     55  C   UNL A   1      46.854  26.927  29.531  1.00  0.00     0.031 A 
ATOM     56  C   UNL A   1      41.046  29.900  29.743  1.00  0.00     0.049 A 
ATOM     57  C   UNL A   1      46.405  28.292  29.973  1.00  0.00     0.074 A 
ATOM     58  C   UNL A   1      40.750  31.157  30.240  1.00  0.00     0.029 A 
ATOM     59  N   UNL A   1      42.413  29.723  29.886  1.00  0.00    -0.354 N 
ATOM     60  N   UNL A   1      45.196  28.801  29.993  1.00  0.00    -0.248 NA
ATOM     61  C   UNL A   1      47.449  29.201  30.466  1.00  0.00     0.031 C 
ATOM     62  C   UNL A   1      41.947  31.761  30.637  1.00  0.00     0.029 A 
ATOM     63  C   UNL A   1      42.979  30.856  30.445  1.00  0.00     0.049 A 
ATOM     64  H   UNL A   1      42.908  28.911  29.628  1.00  0.00     0.167 HD
ATOM     65  C   UNL A   1      45.330  30.075  30.529  1.00  0.00     0.074 A 
ATOM     66  C   UNL A   1      46.735  30.254  30.838  1.00  0.00     0.031 C 
ATOM     67  C   UNL A   1      44.377  31.014  30.747  1.00  0.00     0.031 A 
BRANCH  54  68
ATOM     68  C   UNL A   1      38.698  29.285  29.027  1.00  0.00    -0.014 A 
ATOM     69  C   UNL A   1      38.187  29.739  27.800  1.00  0.00     0.009 A 
ATOM     70  C   UNL A   1      37.821  29.147  30.114  1.00  0.00     0.009 A 
ATOM     71  C   UNL A   1      36.842  30.093  27.677  1.00  0.00     0.001 A 
ATOM     72  C   UNL A   1      36.468  29.468  29.979  1.00  0.00     0.001 A 
ATOM     73  C   UNL A   1      35.982  29.952  28.765  1.00  0.00     0.000 A 
ENDBRANCH  54  68
BRANCH  55  74
ATOM     74  C   UNL A   1      48.289  26.539  29.602  1.00  0.00    -0.014 A 
ATOM     75  C   UNL A   1      48.789  25.874  30.732  1.00  0.00     0.009 A 
ATOM     76  C   UNL A   1      49.168  26.839  28.550  1.00  0.00     0.009 A 
ATOM     77  C   UNL A   1      50.144  25.545  30.822  1.00  0.00     0.001 A 
ATOM     78  C   UNL A   1      50.516  26.479  28.628  1.00  0.00     0.001 A 
ATOM     79  C   UNL A   1      51.005  25.844  29.767  1.00  0.00     0.000 A 
ENDBRANCH  55  74
BRANCH  67  80
ATOM     80  C   UNL A   1      44.814  32.300  31.388  1.00  0.00    -0.014 A 
ATOM     81  C   UNL A   1      44.783  32.472  32.780  1.00  0.00     0.009 A 
ATOM     82  C   UNL A   1      45.303  33.343  30.585  1.00  0.00     0.009 A 
ATOM     83  C   UNL A   1      45.197  33.676  33.352  1.00  0.00     0.001 A 
ATOM     84  C   UNL A   1      45.747  34.533  31.160  1.00  0.00     0.001 A 
ATOM     85  C   UNL A   1      45.684  34.702  32.542  1.00  0.00     0.000 A 
ENDBRANCH  67  80
ENDBRANCH  41  42
ENDBRANCH  33  36
ENDBRANCH  31  32
ENDBRANCH  30  31
ENDBRANCH   1  30
TORSDOF 13
ENDMDL
MODEL 3
REMARK VINA RESULT:     -12.1      2.532      7.883
REMARK SMILES CN1C(=O)/C(=C\c2ccc(-c3ccccc3C(=O)NCCCNC(=O)c3ccc(-c4c5nc(c(-c6ccccc6)c6ccc([nH]6)c(-c6ccccc6)c6nc(c(-c7ccccc7)c7ccc4[nH]7)C=C6)C=C5)cc3)o2)C(=O)[NH+]=C1S
REMARK SMILES IDX 20 1 19 2 17 3 18 4 16 6 11 7 12 8 13 9 15 10 14 11 10 12
REMARK SMILES IDX 7 13 8 14 74 15 9 16 6 17 1 18 2 19 3 20 78 21 4 22 5 23
REMARK SMILES IDX 77 24 75 25 76 27 79 28 21 30 22 31 23 32 24 33 25 35 26 36
REMARK SMILES IDX 27 37 73 38 28 39 72 40 29 41 30 42 31 43 66 44 32 45 71 46
REMARK SMILES IDX 65 47 67 48 33 49 70 50 64 51 63 52 34 54 56 55 41 56 55 57
REMARK SMILES IDX 42 58 45 59 54 60 68 61 43 62 44 63 53 65 69 66 46 67 35 68
REMARK SMILES IDX 36 69 40 70 37 71 39 72 38 73 57 74 58 75 62 76 59 77 61 78
REMARK SMILES IDX 60 79 47 80 48 81 52 82 49 83 51 84 50 85
REMARK H PARENT 19 5 77 26 79 29 23 34 67 53 45 64
REMARK Flexibility Score: inf
ROOT
ATOM      1  C   UNL A   1      35.238  24.468  25.083  1.00  0.00     0.118 C 
ENDROOT
BRANCH   1   2
ATOM      2  N   UNL A   1      33.995  24.704  25.757  1.00  0.00    -0.352 N 
ATOM      3  C   UNL A   1      32.905  23.858  25.815  1.00  0.00     0.252 C 
ATOM      4  O   UNL A   1      32.008  24.162  26.604  1.00  0.00    -0.269 OA
ATOM      5  H   UNL A   1      33.909  25.563  26.230  1.00  0.00     0.163 HD
BRANCH   3   6
ATOM      6  C   UNL A   1      32.689  22.674  24.908  1.00  0.00     0.050 A 
ATOM      7  C   UNL A   1      32.462  22.644  23.513  1.00  0.00     0.030 A 
ATOM      8  C   UNL A   1      32.256  21.401  22.875  1.00  0.00     0.013 A 
ATOM      9  C   UNL A   1      32.328  20.199  23.575  1.00  0.00     0.001 A 
ATOM     10  C   UNL A   1      32.772  21.437  25.591  1.00  0.00     0.014 A 
ATOM     11  C   UNL A   1      32.600  20.216  24.934  1.00  0.00     0.001 A 
BRANCH   7  12
ATOM     12  C   UNL A   1      32.448  23.799  22.635  1.00  0.00     0.135 A 
ATOM     13  C   UNL A   1      31.749  25.858  22.149  1.00  0.00     0.128 A 
ATOM     14  C   UNL A   1      32.737  25.503  21.232  1.00  0.00     0.051 A 
ATOM     15  O   UNL A   1      31.567  24.785  22.988  1.00  0.00    -0.457 OA
ATOM     16  C   UNL A   1      33.157  24.181  21.522  1.00  0.00     0.051 A 
BRANCH  13  17
ATOM     17  C   UNL A   1      31.069  27.100  22.300  1.00  0.00     0.071 C 
ATOM     18  C   UNL A   1      33.873  28.190  25.976  1.00  0.00     0.301 C 
ATOM     19  N   UNL A   1      32.779  28.595  25.102  1.00  0.00    -0.189 N 
ATOM     20  C   UNL A   1      32.754  27.952  23.888  1.00  0.00     0.349 C 
ATOM     21  C   UNL A   1      31.900  29.624  25.320  1.00  0.00     0.318 C 
ATOM     22  O   UNL A   1      33.738  27.390  23.415  1.00  0.00    -0.240 OA
ATOM     23  C   UNL A   1      31.472  28.043  23.171  1.00  0.00     0.157 C 
ATOM     24  N   UNL A   1      30.906  29.932  24.568  1.00  0.00    -0.200 N 
ATOM     25  C   UNL A   1      30.568  29.174  23.476  1.00  0.00     0.347 C 
ATOM     26  H   UNL A   1      30.374  30.731  24.780  1.00  0.00     0.316 HD
ATOM     27  O   UNL A   1      29.564  29.386  22.819  1.00  0.00    -0.241 OA
BRANCH  21  28
ATOM     28  S   UNL A   1      32.154  30.653  26.707  1.00  0.00    -0.055 SA
ATOM     29  H   UNL A   1      32.570  29.900  27.761  1.00  0.00     0.116 HD
ENDBRANCH  21  28
ENDBRANCH  13  17
ENDBRANCH   7  12
ENDBRANCH   3   6
ENDBRANCH   1   2
BRANCH   1  30
ATOM     30  C   UNL A   1      36.309  23.651  25.761  1.00  0.00     0.042 C 
BRANCH  30  31
ATOM     31  C   UNL A   1      37.245  22.879  24.840  1.00  0.00     0.118 C 
BRANCH  31  32
ATOM     32  N   UNL A   1      38.369  22.196  25.490  1.00  0.00    -0.352 N 
ATOM     33  C   UNL A   1      39.377  22.597  26.340  1.00  0.00     0.251 C 
ATOM     34  H   UNL A   1      38.413  21.237  25.269  1.00  0.00     0.163 HD
ATOM     35  O   UNL A   1      40.235  21.772  26.659  1.00  0.00    -0.269 OA
BRANCH  33  36
ATOM     36  C   UNL A   1      39.504  23.994  26.828  1.00  0.00     0.039 A 
ATOM     37  C   UNL A   1      39.066  24.313  28.120  1.00  0.00     0.014 A 
ATOM     38  C   UNL A   1      40.065  24.999  26.053  1.00  0.00     0.014 A 
ATOM     39  C   UNL A   1      39.315  25.582  28.657  1.00  0.00     0.010 A 
ATOM     40  C   UNL A   1      40.472  26.190  26.639  1.00  0.00     0.010 A 
ATOM     41  C   UNL A   1      40.093  26.509  27.948  1.00  0.00    -0.014 A 
BRANCH  41  42
ATOM     42  C   UNL A   1      40.513  27.816  28.523  1.00  0.00     0.031 A 
ATOM     43  C   UNL A   1      41.933  28.015  28.998  1.00  0.00     0.074 A 
ATOM     44  C   UNL A   1      39.600  28.790  28.717  1.00  0.00     0.049 A 
ATOM     45  N   UNL A   1      42.458  29.024  29.647  1.00  0.00    -0.248 NA
ATOM     46  C   UNL A   1      42.879  26.910  28.757  1.00  0.00     0.031 C 
ATOM     47  C   UNL A   1      38.179  28.714  28.365  1.00  0.00     0.029 A 
ATOM     48  N   UNL A   1      39.734  30.040  29.271  1.00  0.00    -0.354 N 
ATOM     49  C   UNL A   1      43.771  28.655  29.922  1.00  0.00     0.074 A 
ATOM     50  C   UNL A   1      43.942  27.305  29.439  1.00  0.00     0.031 C 
ATOM     51  C   UNL A   1      37.587  29.880  28.667  1.00  0.00     0.029 A 
ATOM     52  C   UNL A   1      38.566  30.767  29.283  1.00  0.00     0.049 A 
ATOM     53  H   UNL A   1      40.585  30.384  29.626  1.00  0.00     0.167 HD
ATOM     54  C   UNL A   1      44.759  29.382  30.494  1.00  0.00     0.031 A 
ATOM     55  C   UNL A   1      38.311  32.006  29.741  1.00  0.00     0.031 A 
ATOM     56  C   UNL A   1      44.603  30.741  30.936  1.00  0.00     0.049 A 
ATOM     57  C   UNL A   1      39.428  32.802  30.358  1.00  0.00     0.074 A 
ATOM     58  C   UNL A   1      45.559  31.593  31.458  1.00  0.00     0.029 A 
ATOM     59  N   UNL A   1      43.411  31.448  30.898  1.00  0.00    -0.354 N 
ATOM     60  N   UNL A   1      40.681  32.463  30.544  1.00  0.00    -0.248 NA
ATOM     61  C   UNL A   1      39.097  34.157  30.816  1.00  0.00     0.031 C 
ATOM     62  C   UNL A   1      44.934  32.801  31.784  1.00  0.00     0.029 A 
ATOM     63  C   UNL A   1      43.603  32.721  31.407  1.00  0.00     0.049 A 
ATOM     64  H   UNL A   1      42.556  31.096  30.560  1.00  0.00     0.167 HD
ATOM     65  C   UNL A   1      41.294  33.573  31.110  1.00  0.00     0.074 A 
ATOM     66  C   UNL A   1      40.278  34.601  31.220  1.00  0.00     0.031 C 
ATOM     67  C   UNL A   1      42.581  33.730  31.505  1.00  0.00     0.031 A 
BRANCH  54  68
ATOM     68  C   UNL A   1      46.101  28.720  30.663  1.00  0.00    -0.014 A 
ATOM     69  C   UNL A   1      47.082  28.792  29.660  1.00  0.00     0.009 A 
ATOM     70  C   UNL A   1      46.399  28.034  31.851  1.00  0.00     0.009 A 
ATOM     71  C   UNL A   1      48.313  28.151  29.822  1.00  0.00     0.001 A 
ATOM     72  C   UNL A   1      47.643  27.425  32.025  1.00  0.00     0.001 A 
ATOM     73  C   UNL A   1      48.594  27.474  31.007  1.00  0.00     0.000 A 
ENDBRANCH  54  68
BRANCH  55  74
ATOM     74  C   UNL A   1      36.947  32.588  29.611  1.00  0.00    -0.014 A 
ATOM     75  C   UNL A   1      36.582  33.286  28.450  1.00  0.00     0.009 A 
ATOM     76  C   UNL A   1      36.007  32.457  30.645  1.00  0.00     0.009 A 
ATOM     77  C   UNL A   1      35.317  33.870  28.340  1.00  0.00     0.001 A 
ATOM     78  C   UNL A   1      34.732  33.013  30.518  1.00  0.00     0.001 A 
ATOM     79  C   UNL A   1      34.392  33.729  29.372  1.00  0.00     0.000 A 
ENDBRANCH  55  74
BRANCH  67  80
ATOM     80  C   UNL A   1      42.974  35.073  32.050  1.00  0.00    -0.014 A 
ATOM     81  C   UNL A   1      43.547  36.057  31.230  1.00  0.00     0.009 A 
ATOM     82  C   UNL A   1      42.728  35.371  33.400  1.00  0.00     0.009 A 
ATOM     83  C   UNL A   1      43.900  37.300  31.760  1.00  0.00     0.001 A 
ATOM     84  C   UNL A   1      43.052  36.624  33.920  1.00  0.00     0.001 A 
ATOM     85  C   UNL A   1      43.647  37.583  33.102  1.00  0.00     0.000 A 
ENDBRANCH  67  80
ENDBRANCH  41  42
ENDBRANCH  33  36
ENDBRANCH  31  32
ENDBRANCH  30  31
ENDBRANCH   1  30
TORSDOF 13
ENDMDL
