MODEL 1
REMARK VINA RESULT:     -11.9      0.000      0.000
REMARK SMILES Cc1n[nH]c(C[N@H+]2CCC[C@H](c3cccc(C(=O)NCCCNC(=O)c4ccc(-c5c6nc(c(-c7ccccc7)c7ccc([nH]7)c(-c7ccccc7)c7nc(c(-c8ccccc8)c8ccc5[nH]8)C=C7)C=C6)cc4)c3)C2)n1
REMARK SMILES IDX 20 1 19 2 17 3 18 4 16 6 12 7 13 8 74 9 14 10 15 11 11 12
REMARK SMILES IDX 7 13 8 14 75 15 9 17 10 18 6 19 5 20 1 21 2 22 3 23 76 24
REMARK SMILES IDX 4 25 21 27 22 28 23 29 24 30 25 32 26 33 27 34 73 35 28 36
REMARK SMILES IDX 72 37 29 38 30 39 31 40 66 41 32 42 71 43 65 44 67 45 33 46
REMARK SMILES IDX 70 47 64 48 63 49 34 51 56 52 41 53 55 54 42 55 45 56 54 57
REMARK SMILES IDX 68 58 43 59 44 60 53 62 69 63 46 64 35 65 36 66 40 67 37 68
REMARK SMILES IDX 39 69 38 70 57 71 58 72 62 73 59 74 61 75 60 76 47 77 48 78
REMARK SMILES IDX 52 79 49 80 51 81 50 82
REMARK H PARENT 19 5 7 16 4 26 23 31 67 50 45 61
REMARK Flexibility Score: inf
ROOT
ATOM      1  C   UNL A   1      44.961  28.241  27.310  1.00  0.00     0.118 C 
ENDROOT
BRANCH   1   2
ATOM      2  N   UNL A   1      44.146  28.283  26.104  1.00  0.00    -0.352 N 
ATOM      3  C   UNL A   1      43.464  27.324  25.390  1.00  0.00     0.251 C 
ATOM      4  O   UNL A   1      42.755  27.726  24.464  1.00  0.00    -0.269 OA
ATOM      5  H   UNL A   1      44.065  29.185  25.720  1.00  0.00     0.163 HD
BRANCH   3   6
ATOM      6  C   UNL A   1      43.520  25.857  25.668  1.00  0.00     0.040 A 
ATOM      7  C   UNL A   1      42.739  23.818  26.798  1.00  0.00    -0.039 A 
ATOM      8  C   UNL A   1      43.692  23.076  26.098  1.00  0.00     0.004 A 
ATOM      9  C   UNL A   1      42.716  25.207  26.601  1.00  0.00     0.018 A 
ATOM     10  C   UNL A   1      44.556  23.707  25.201  1.00  0.00     0.001 A 
ATOM     11  C   UNL A   1      44.459  25.083  24.975  1.00  0.00     0.014 A 
BRANCH   7  12
ATOM     12  C   UNL A   1      41.739  23.236  27.794  1.00  0.00     0.074 C 
ATOM     13  N   UNL A   1      40.715  21.341  26.498  1.00  0.00    -0.328 N 
ATOM     14  C   UNL A   1      39.412  22.015  26.456  1.00  0.00     0.262 C 
ATOM     15  C   UNL A   1      41.487  21.721  27.699  1.00  0.00     0.270 C 
ATOM     16  H   UNL A   1      41.231  21.665  25.680  1.00  0.00     0.348 HD
ATOM     17  C   UNL A   1      39.555  23.536  26.536  1.00  0.00     0.062 C 
ATOM     18  C   UNL A   1      40.368  23.952  27.758  1.00  0.00     0.020 C 
BRANCH  13  19
ATOM     19  C   UNL A   1      40.604  19.872  26.371  1.00  0.00     0.340 C 
BRANCH  19  20
ATOM     20  C   UNL A   1      41.885  19.193  26.018  1.00  0.00     0.179 A 
ATOM     21  C   UNL A   1      45.135  19.006  24.692  1.00  0.00     0.092 C 
ATOM     22  C   UNL A   1      43.843  18.772  25.364  1.00  0.00     0.147 A 
ATOM     23  N   UNL A   1      43.675  17.901  26.366  1.00  0.00    -0.159 NA
ATOM     24  N   UNL A   1      42.746  19.534  25.081  1.00  0.00    -0.211 NA
ATOM     25  N   UNL A   1      42.413  18.165  26.743  1.00  0.00    -0.258 N 
ATOM     26  H   UNL A   1      41.931  17.678  27.451  1.00  0.00     0.192 HD
ENDBRANCH  19  20
ENDBRANCH  13  19
ENDBRANCH   7  12
ENDBRANCH   3   6
ENDBRANCH   1   2
BRANCH   1  27
ATOM     27  C   UNL A   1      45.813  26.966  27.407  1.00  0.00     0.042 C 
BRANCH  27  28
ATOM     28  C   UNL A   1      46.478  26.805  28.764  1.00  0.00     0.118 C 
BRANCH  28  29
ATOM     29  N   UNL A   1      46.075  25.564  29.422  1.00  0.00    -0.352 N 
ATOM     30  C   UNL A   1      45.055  25.345  30.327  1.00  0.00     0.251 C 
ATOM     31  H   UNL A   1      46.606  24.770  29.187  1.00  0.00     0.163 HD
ATOM     32  O   UNL A   1      45.029  24.336  31.007  1.00  0.00    -0.269 OA
BRANCH  30  33
ATOM     33  C   UNL A   1      44.015  26.377  30.478  1.00  0.00     0.039 A 
ATOM     34  C   UNL A   1      44.187  27.418  31.392  1.00  0.00     0.014 A 
ATOM     35  C   UNL A   1      42.900  26.331  29.646  1.00  0.00     0.014 A 
ATOM     36  C   UNL A   1      43.284  28.477  31.381  1.00  0.00     0.010 A 
ATOM     37  C   UNL A   1      42.094  27.440  29.539  1.00  0.00     0.010 A 
ATOM     38  C   UNL A   1      42.259  28.504  30.421  1.00  0.00    -0.014 A 
BRANCH  38  39
ATOM     39  C   UNL A   1      41.437  29.703  30.266  1.00  0.00     0.031 A 
ATOM     40  C   UNL A   1      42.179  30.953  29.929  1.00  0.00     0.074 A 
ATOM     41  C   UNL A   1      40.090  29.689  30.217  1.00  0.00     0.049 A 
ATOM     42  N   UNL A   1      42.302  32.014  30.656  1.00  0.00    -0.248 NA
ATOM     43  C   UNL A   1      42.948  30.995  28.676  1.00  0.00     0.031 C 
ATOM     44  C   UNL A   1      39.186  28.533  30.203  1.00  0.00     0.029 A 
ATOM     45  N   UNL A   1      39.239  30.737  30.046  1.00  0.00    -0.354 N 
ATOM     46  C   UNL A   1      43.025  32.930  29.894  1.00  0.00     0.074 A 
ATOM     47  C   UNL A   1      43.510  32.204  28.746  1.00  0.00     0.031 C 
ATOM     48  C   UNL A   1      37.961  28.924  29.786  1.00  0.00     0.029 A 
ATOM     49  C   UNL A   1      37.949  30.371  29.691  1.00  0.00     0.049 A 
ATOM     50  H   UNL A   1      39.514  31.675  30.164  1.00  0.00     0.167 HD
ATOM     51  C   UNL A   1      42.995  34.266  30.160  1.00  0.00     0.031 A 
ATOM     52  C   UNL A   1      36.941  31.197  29.325  1.00  0.00     0.031 A 
ATOM     53  C   UNL A   1      42.420  34.542  31.451  1.00  0.00     0.049 A 
ATOM     54  C   UNL A   1      37.272  32.549  29.823  1.00  0.00     0.074 A 
ATOM     55  C   UNL A   1      42.737  34.216  32.754  1.00  0.00     0.029 A 
ATOM     56  N   UNL A   1      41.108  34.953  31.471  1.00  0.00    -0.354 N 
ATOM     57  N   UNL A   1      37.301  32.861  31.087  1.00  0.00    -0.248 NA
ATOM     58  C   UNL A   1      37.977  33.463  28.940  1.00  0.00     0.031 C 
ATOM     59  C   UNL A   1      41.480  33.982  33.387  1.00  0.00     0.029 A 
ATOM     60  C   UNL A   1      40.473  34.241  32.454  1.00  0.00     0.049 A 
ATOM     61  H   UNL A   1      40.701  35.632  30.887  1.00  0.00     0.167 HD
ATOM     62  C   UNL A   1      38.377  33.727  31.209  1.00  0.00     0.074 A 
ATOM     63  C   UNL A   1      38.670  34.158  29.845  1.00  0.00     0.031 C 
ATOM     64  C   UNL A   1      39.102  33.787  32.367  1.00  0.00     0.031 A 
BRANCH  51  65
ATOM     65  C   UNL A   1      43.121  35.345  29.113  1.00  0.00    -0.014 A 
ATOM     66  C   UNL A   1      43.967  36.442  29.369  1.00  0.00     0.009 A 
ATOM     67  C   UNL A   1      42.233  35.471  28.030  1.00  0.00     0.009 A 
ATOM     68  C   UNL A   1      43.875  37.625  28.624  1.00  0.00     0.001 A 
ATOM     69  C   UNL A   1      42.168  36.635  27.258  1.00  0.00     0.001 A 
ATOM     70  C   UNL A   1      42.968  37.723  27.574  1.00  0.00     0.000 A 
ENDBRANCH  51  65
BRANCH  52  71
ATOM     71  C   UNL A   1      35.820  30.945  28.400  1.00  0.00    -0.014 A 
ATOM     72  C   UNL A   1      35.679  29.702  27.768  1.00  0.00     0.009 A 
ATOM     73  C   UNL A   1      34.734  31.838  28.348  1.00  0.00     0.009 A 
ATOM     74  C   UNL A   1      34.476  29.344  27.149  1.00  0.00     0.001 A 
ATOM     75  C   UNL A   1      33.532  31.482  27.726  1.00  0.00     0.001 A 
ATOM     76  C   UNL A   1      33.398  30.226  27.142  1.00  0.00     0.000 A 
ENDBRANCH  52  71
BRANCH  64  77
ATOM     77  C   UNL A   1      38.547  33.090  33.586  1.00  0.00    -0.014 A 
ATOM     78  C   UNL A   1      38.741  31.721  33.846  1.00  0.00     0.009 A 
ATOM     79  C   UNL A   1      37.937  33.872  34.578  1.00  0.00     0.009 A 
ATOM     80  C   UNL A   1      38.306  31.150  35.046  1.00  0.00     0.001 A 
ATOM     81  C   UNL A   1      37.523  33.306  35.786  1.00  0.00     0.001 A 
ATOM     82  C   UNL A   1      37.702  31.945  36.017  1.00  0.00     0.000 A 
ENDBRANCH  64  77
ENDBRANCH  38  39
ENDBRANCH  30  33
ENDBRANCH  28  29
ENDBRANCH  27  28
ENDBRANCH   1  27
TORSDOF 13
ENDMDL
MODEL 2
REMARK VINA RESULT:     -11.9      3.049     11.174
REMARK SMILES Cc1n[nH]c(C[N@H+]2CCC[C@H](c3cccc(C(=O)NCCCNC(=O)c4ccc(-c5c6nc(c(-c7ccccc7)c7ccc([nH]7)c(-c7ccccc7)c7nc(c(-c8ccccc8)c8ccc5[nH]8)C=C7)C=C6)cc4)c3)C2)n1
REMARK SMILES IDX 20 1 19 2 17 3 18 4 16 6 12 7 13 8 74 9 14 10 15 11 11 12
REMARK SMILES IDX 7 13 8 14 75 15 9 17 10 18 6 19 5 20 1 21 2 22 3 23 76 24
REMARK SMILES IDX 4 25 21 27 22 28 23 29 24 30 25 32 26 33 27 34 73 35 28 36
REMARK SMILES IDX 72 37 29 38 30 39 31 40 66 41 32 42 71 43 65 44 67 45 33 46
REMARK SMILES IDX 70 47 64 48 63 49 34 51 56 52 41 53 55 54 42 55 45 56 54 57
REMARK SMILES IDX 68 58 43 59 44 60 53 62 69 63 46 64 35 65 36 66 40 67 37 68
REMARK SMILES IDX 39 69 38 70 57 71 58 72 62 73 59 74 61 75 60 76 47 77 48 78
REMARK SMILES IDX 52 79 49 80 51 81 50 82
REMARK H PARENT 19 5 7 16 4 26 23 31 67 50 45 61
REMARK Flexibility Score: inf
ROOT
ATOM      1  C   UNL A   1      39.478  32.272  34.375  1.00  0.00     0.118 C 
ENDROOT
BRANCH   1   2
ATOM      2  N   UNL A   1      38.058  32.581  34.302  1.00  0.00    -0.352 N 
ATOM      3  C   UNL A   1      37.018  32.079  33.552  1.00  0.00     0.251 C 
ATOM      4  O   UNL A   1      35.889  32.490  33.831  1.00  0.00    -0.269 OA
ATOM      5  H   UNL A   1      37.783  33.301  34.915  1.00  0.00     0.163 HD
BRANCH   3   6
ATOM      6  C   UNL A   1      37.168  31.078  32.454  1.00  0.00     0.040 A 
ATOM      7  C   UNL A   1      37.271  30.439  30.081  1.00  0.00    -0.039 A 
ATOM      8  C   UNL A   1      37.495  29.114  30.458  1.00  0.00     0.004 A 
ATOM      9  C   UNL A   1      37.059  31.382  31.099  1.00  0.00     0.018 A 
ATOM     10  C   UNL A   1      37.548  28.764  31.809  1.00  0.00     0.001 A 
ATOM     11  C   UNL A   1      37.403  29.741  32.798  1.00  0.00     0.014 A 
BRANCH   7  12
ATOM     12  C   UNL A   1      37.203  30.937  28.641  1.00  0.00     0.074 C 
ATOM     13  N   UNL A   1      34.889  31.911  28.507  1.00  0.00    -0.328 N 
ATOM     14  C   UNL A   1      34.457  30.871  27.565  1.00  0.00     0.262 C 
ATOM     15  C   UNL A   1      36.337  32.184  28.392  1.00  0.00     0.270 C 
ATOM     16  H   UNL A   1      34.715  31.541  29.442  1.00  0.00     0.348 HD
ATOM     17  C   UNL A   1      35.257  29.579  27.739  1.00  0.00     0.062 C 
ATOM     18  C   UNL A   1      36.757  29.840  27.645  1.00  0.00     0.020 C 
BRANCH  13  19
ATOM     19  C   UNL A   1      34.095  33.153  28.392  1.00  0.00     0.340 C 
BRANCH  19  20
ATOM     20  C   UNL A   1      34.037  33.957  29.648  1.00  0.00     0.179 A 
ATOM     21  C   UNL A   1      33.006  36.640  31.670  1.00  0.00     0.092 C 
ATOM     22  C   UNL A   1      33.566  35.395  31.114  1.00  0.00     0.147 A 
ATOM     23  N   UNL A   1      33.814  34.301  31.845  1.00  0.00    -0.159 NA
ATOM     24  N   UNL A   1      33.756  35.239  29.771  1.00  0.00    -0.211 NA
ATOM     25  N   UNL A   1      34.143  33.411  30.893  1.00  0.00    -0.258 N 
ATOM     26  H   UNL A   1      34.425  32.484  31.073  1.00  0.00     0.192 HD
ENDBRANCH  19  20
ENDBRANCH  13  19
ENDBRANCH   7  12
ENDBRANCH   3   6
ENDBRANCH   1   2
BRANCH   1  27
ATOM     27  C   UNL A   1      40.367  33.517  34.229  1.00  0.00     0.042 C 
BRANCH  27  28
ATOM     28  C   UNL A   1      41.421  33.363  33.145  1.00  0.00     0.118 C 
BRANCH  28  29
ATOM     29  N   UNL A   1      41.183  34.271  32.025  1.00  0.00    -0.352 N 
ATOM     30  C   UNL A   1      41.390  34.067  30.675  1.00  0.00     0.251 C 
ATOM     31  H   UNL A   1      40.824  35.155  32.267  1.00  0.00     0.163 HD
ATOM     32  O   UNL A   1      41.428  35.005  29.900  1.00  0.00    -0.269 OA
BRANCH  30  33
ATOM     33  C   UNL A   1      41.599  32.690  30.195  1.00  0.00     0.039 A 
ATOM     34  C   UNL A   1      42.847  32.298  29.710  1.00  0.00     0.014 A 
ATOM     35  C   UNL A   1      40.553  31.778  30.301  1.00  0.00     0.014 A 
ATOM     36  C   UNL A   1      43.070  30.951  29.441  1.00  0.00     0.010 A 
ATOM     37  C   UNL A   1      40.815  30.434  30.173  1.00  0.00     0.010 A 
ATOM     38  C   UNL A   1      42.061  30.013  29.715  1.00  0.00    -0.014 A 
BRANCH  38  39
ATOM     39  C   UNL A   1      42.354  28.583  29.635  1.00  0.00     0.031 A 
ATOM     40  C   UNL A   1      43.009  27.992  30.837  1.00  0.00     0.074 A 
ATOM     41  C   UNL A   1      41.897  27.777  28.654  1.00  0.00     0.049 A 
ATOM     42  N   UNL A   1      44.197  27.490  30.918  1.00  0.00    -0.248 NA
ATOM     43  C   UNL A   1      42.295  28.044  32.122  1.00  0.00     0.031 C 
ATOM     44  C   UNL A   1      40.972  28.097  27.561  1.00  0.00     0.029 A 
ATOM     45  N   UNL A   1      42.085  26.437  28.506  1.00  0.00    -0.354 N 
ATOM     46  C   UNL A   1      44.332  27.009  32.218  1.00  0.00     0.074 A 
ATOM     47  C   UNL A   1      43.189  27.497  32.949  1.00  0.00     0.031 C 
ATOM     48  C   UNL A   1      40.492  26.952  27.028  1.00  0.00     0.029 A 
ATOM     49  C   UNL A   1      41.214  25.837  27.608  1.00  0.00     0.049 A 
ATOM     50  H   UNL A   1      42.779  25.937  28.992  1.00  0.00     0.167 HD
ATOM     51  C   UNL A   1      45.269  26.074  32.544  1.00  0.00     0.031 A 
ATOM     52  C   UNL A   1      41.081  24.511  27.368  1.00  0.00     0.031 A 
ATOM     53  C   UNL A   1      46.248  25.911  31.500  1.00  0.00     0.049 A 
ATOM     54  C   UNL A   1      42.316  23.848  27.839  1.00  0.00     0.074 A 
ATOM     55  C   UNL A   1      47.174  26.732  30.890  1.00  0.00     0.029 A 
ATOM     56  N   UNL A   1      46.091  24.830  30.666  1.00  0.00    -0.354 N 
ATOM     57  N   UNL A   1      43.477  24.010  27.272  1.00  0.00    -0.248 NA
ATOM     58  C   UNL A   1      42.351  23.322  29.193  1.00  0.00     0.031 C 
ATOM     59  C   UNL A   1      47.153  26.347  29.517  1.00  0.00     0.029 A 
ATOM     60  C   UNL A   1      46.267  25.276  29.382  1.00  0.00     0.049 A 
ATOM     61  H   UNL A   1      45.890  23.906  30.940  1.00  0.00     0.167 HD
ATOM     62  C   UNL A   1      44.379  24.041  28.326  1.00  0.00     0.074 A 
ATOM     63  C   UNL A   1      43.648  23.487  29.463  1.00  0.00     0.031 C 
ATOM     64  C   UNL A   1      45.531  24.773  28.243  1.00  0.00     0.031 A 
BRANCH  51  65
ATOM     65  C   UNL A   1      45.092  25.031  33.619  1.00  0.00    -0.014 A 
ATOM     66  C   UNL A   1      44.239  23.939  33.371  1.00  0.00     0.009 A 
ATOM     67  C   UNL A   1      45.497  25.227  34.952  1.00  0.00     0.009 A 
ATOM     68  C   UNL A   1      43.760  23.134  34.413  1.00  0.00     0.001 A 
ATOM     69  C   UNL A   1      45.054  24.400  35.988  1.00  0.00     0.001 A 
ATOM     70  C   UNL A   1      44.162  23.371  35.723  1.00  0.00     0.000 A 
ENDBRANCH  51  65
BRANCH  52  71
ATOM     71  C   UNL A   1      39.883  23.756  26.956  1.00  0.00    -0.014 A 
ATOM     72  C   UNL A   1      38.684  24.421  26.660  1.00  0.00     0.009 A 
ATOM     73  C   UNL A   1      39.994  22.402  26.589  1.00  0.00     0.009 A 
ATOM     74  C   UNL A   1      37.652  23.768  25.976  1.00  0.00     0.001 A 
ATOM     75  C   UNL A   1      38.961  21.749  25.909  1.00  0.00     0.001 A 
ATOM     76  C   UNL A   1      37.796  22.439  25.586  1.00  0.00     0.000 A 
ENDBRANCH  52  71
BRANCH  64  77
ATOM     77  C   UNL A   1      45.922  25.327  26.894  1.00  0.00    -0.014 A 
ATOM     78  C   UNL A   1      45.393  26.519  26.368  1.00  0.00     0.009 A 
ATOM     79  C   UNL A   1      46.967  24.702  26.198  1.00  0.00     0.009 A 
ATOM     80  C   UNL A   1      45.874  27.050  25.167  1.00  0.00     0.001 A 
ATOM     81  C   UNL A   1      47.463  25.244  25.010  1.00  0.00     0.001 A 
ATOM     82  C   UNL A   1      46.913  26.413  24.491  1.00  0.00     0.000 A 
ENDBRANCH  64  77
ENDBRANCH  38  39
ENDBRANCH  30  33
ENDBRANCH  28  29
ENDBRANCH  27  28
ENDBRANCH   1  27
TORSDOF 13
ENDMDL
MODEL 3
REMARK VINA RESULT:     -11.8      4.391     10.403
REMARK SMILES Cc1n[nH]c(C[N@H+]2CCC[C@H](c3cccc(C(=O)NCCCNC(=O)c4ccc(-c5c6nc(c(-c7ccccc7)c7ccc([nH]7)c(-c7ccccc7)c7nc(c(-c8ccccc8)c8ccc5[nH]8)C=C7)C=C6)cc4)c3)C2)n1
REMARK SMILES IDX 20 1 19 2 17 3 18 4 16 6 12 7 13 8 74 9 14 10 15 11 11 12
REMARK SMILES IDX 7 13 8 14 75 15 9 17 10 18 6 19 5 20 1 21 2 22 3 23 76 24
REMARK SMILES IDX 4 25 21 27 22 28 23 29 24 30 25 32 26 33 27 34 73 35 28 36
REMARK SMILES IDX 72 37 29 38 30 39 31 40 66 41 32 42 71 43 65 44 67 45 33 46
REMARK SMILES IDX 70 47 64 48 63 49 34 51 56 52 41 53 55 54 42 55 45 56 54 57
REMARK SMILES IDX 68 58 43 59 44 60 53 62 69 63 46 64 35 65 36 66 40 67 37 68
REMARK SMILES IDX 39 69 38 70 57 71 58 72 62 73 59 74 61 75 60 76 47 77 48 78
REMARK SMILES IDX 52 79 49 80 51 81 50 82
REMARK H PARENT 19 5 7 16 4 26 23 31 67 50 45 61
REMARK Flexibility Score: inf
ROOT
ATOM      1  C   UNL A   1      32.770  29.293  26.091  1.00  0.00     0.118 C 
ENDROOT
BRANCH   1   2
ATOM      2  N   UNL A   1      33.504  29.371  24.835  1.00  0.00    -0.352 N 
ATOM      3  C   UNL A   1      33.527  28.588  23.703  1.00  0.00     0.251 C 
ATOM      4  O   UNL A   1      34.185  29.015  22.751  1.00  0.00    -0.269 OA
ATOM      5  H   UNL A   1      34.111  30.144  24.787  1.00  0.00     0.163 HD
BRANCH   3   6
ATOM      6  C   UNL A   1      32.808  27.286  23.555  1.00  0.00     0.040 A 
ATOM      7  C   UNL A   1      32.734  24.876  23.075  1.00  0.00    -0.039 A 
ATOM      8  C   UNL A   1      31.363  24.877  23.333  1.00  0.00     0.004 A 
ATOM      9  C   UNL A   1      33.414  26.102  23.142  1.00  0.00     0.018 A 
ATOM     10  C   UNL A   1      30.712  26.061  23.688  1.00  0.00     0.001 A 
ATOM     11  C   UNL A   1      31.433  27.251  23.815  1.00  0.00     0.014 A 
BRANCH   7  12
ATOM     12  C   UNL A   1      33.549  23.645  22.689  1.00  0.00     0.074 C 
ATOM     13  N   UNL A   1      32.833  21.953  24.404  1.00  0.00    -0.328 N 
ATOM     14  C   UNL A   1      34.168  21.940  25.014  1.00  0.00     0.262 C 
ATOM     15  C   UNL A   1      32.894  22.281  22.965  1.00  0.00     0.270 C 
ATOM     16  H   UNL A   1      32.312  22.696  24.871  1.00  0.00     0.348 HD
ATOM     17  C   UNL A   1      34.903  23.264  24.802  1.00  0.00     0.062 C 
ATOM     18  C   UNL A   1      34.960  23.634  23.323  1.00  0.00     0.020 C 
BRANCH  13  19
ATOM     19  C   UNL A   1      32.083  20.701  24.641  1.00  0.00     0.340 C 
BRANCH  19  20
ATOM     20  C   UNL A   1      32.596  19.528  23.874  1.00  0.00     0.179 A 
ATOM     21  C   UNL A   1      34.102  16.375  23.501  1.00  0.00     0.092 C 
ATOM     22  C   UNL A   1      33.404  17.662  23.325  1.00  0.00     0.147 A 
ATOM     23  N   UNL A   1      32.531  17.904  22.340  1.00  0.00    -0.159 NA
ATOM     24  N   UNL A   1      33.517  18.663  24.246  1.00  0.00    -0.211 NA
ATOM     25  N   UNL A   1      32.055  19.111  22.694  1.00  0.00    -0.258 N 
ATOM     26  H   UNL A   1      31.400  19.626  22.168  1.00  0.00     0.192 HD
ENDBRANCH  19  20
ENDBRANCH  13  19
ENDBRANCH   7  12
ENDBRANCH   3   6
ENDBRANCH   1   2
BRANCH   1  27
ATOM     27  C   UNL A   1      33.590  28.650  27.220  1.00  0.00     0.042 C 
BRANCH  27  28
ATOM     28  C   UNL A   1      35.012  29.182  27.290  1.00  0.00     0.118 C 
BRANCH  28  29
ATOM     29  N   UNL A   1      35.242  29.956  28.509  1.00  0.00    -0.352 N 
ATOM     30  C   UNL A   1      36.304  29.907  29.389  1.00  0.00     0.251 C 
ATOM     31  H   UNL A   1      34.538  30.606  28.734  1.00  0.00     0.163 HD
ATOM     32  O   UNL A   1      36.216  30.390  30.503  1.00  0.00    -0.269 OA
BRANCH  30  33
ATOM     33  C   UNL A   1      37.539  29.225  28.964  1.00  0.00     0.039 A 
ATOM     34  C   UNL A   1      38.181  29.608  27.786  1.00  0.00     0.014 A 
ATOM     35  C   UNL A   1      38.085  28.249  29.793  1.00  0.00     0.014 A 
ATOM     36  C   UNL A   1      39.439  29.082  27.506  1.00  0.00     0.010 A 
ATOM     37  C   UNL A   1      39.382  27.841  29.590  1.00  0.00     0.010 A 
ATOM     38  C   UNL A   1      40.056  28.228  28.435  1.00  0.00    -0.014 A 
BRANCH  38  39
ATOM     39  C   UNL A   1      41.453  27.839  28.251  1.00  0.00     0.031 A 
ATOM     40  C   UNL A   1      41.672  26.535  27.561  1.00  0.00     0.074 A 
ATOM     41  C   UNL A   1      42.498  28.658  28.485  1.00  0.00     0.049 A 
ATOM     42  N   UNL A   1      42.196  25.462  28.055  1.00  0.00    -0.248 NA
ATOM     43  C   UNL A   1      41.171  26.376  26.187  1.00  0.00     0.031 C 
ATOM     44  C   UNL A   1      42.484  30.078  28.855  1.00  0.00     0.029 A 
ATOM     45  N   UNL A   1      43.825  28.405  28.318  1.00  0.00    -0.354 N 
ATOM     46  C   UNL A   1      42.247  24.535  27.015  1.00  0.00     0.074 A 
ATOM     47  C   UNL A   1      41.481  25.103  25.932  1.00  0.00     0.031 C 
ATOM     48  C   UNL A   1      43.707  30.612  28.640  1.00  0.00     0.029 A 
ATOM     49  C   UNL A   1      44.624  29.539  28.305  1.00  0.00     0.049 A 
ATOM     50  H   UNL A   1      44.188  27.495  28.215  1.00  0.00     0.167 HD
ATOM     51  C   UNL A   1      43.086  23.463  27.051  1.00  0.00     0.031 A 
ATOM     52  C   UNL A   1      45.946  29.599  28.021  1.00  0.00     0.031 A 
ATOM     53  C   UNL A   1      43.633  23.254  28.367  1.00  0.00     0.049 A 
ATOM     54  C   UNL A   1      46.501  28.241  28.202  1.00  0.00     0.074 A 
ATOM     55  C   UNL A   1      43.107  22.975  29.612  1.00  0.00     0.029 A 
ATOM     56  N   UNL A   1      44.910  23.710  28.588  1.00  0.00    -0.354 N 
ATOM     57  N   UNL A   1      46.600  27.656  29.361  1.00  0.00    -0.248 NA
ATOM     58  C   UNL A   1      46.572  27.358  27.050  1.00  0.00     0.031 C 
ATOM     59  C   UNL A   1      43.905  23.730  30.521  1.00  0.00     0.029 A 
ATOM     60  C   UNL A   1      44.906  24.371  29.788  1.00  0.00     0.049 A 
ATOM     61  H   UNL A   1      45.685  23.584  27.994  1.00  0.00     0.167 HD
ATOM     62  C   UNL A   1      46.293  26.327  29.109  1.00  0.00     0.074 A 
ATOM     63  C   UNL A   1      46.411  26.181  27.661  1.00  0.00     0.031 C 
ATOM     64  C   UNL A   1      45.698  25.550  30.065  1.00  0.00     0.031 A 
BRANCH  51  65
ATOM     65  C   UNL A   1      43.721  22.838  25.833  1.00  0.00    -0.014 A 
ATOM     66  C   UNL A   1      43.765  21.434  25.737  1.00  0.00     0.009 A 
ATOM     67  C   UNL A   1      44.524  23.559  24.931  1.00  0.00     0.009 A 
ATOM     68  C   UNL A   1      44.622  20.790  24.835  1.00  0.00     0.001 A 
ATOM     69  C   UNL A   1      45.348  22.920  24.000  1.00  0.00     0.001 A 
ATOM     70  C   UNL A   1      45.420  21.535  23.972  1.00  0.00     0.000 A 
ENDBRANCH  51  65
BRANCH  52  71
ATOM     71  C   UNL A   1      46.716  30.695  27.405  1.00  0.00    -0.014 A 
ATOM     72  C   UNL A   1      46.063  31.763  26.772  1.00  0.00     0.009 A 
ATOM     73  C   UNL A   1      48.091  30.831  27.675  1.00  0.00     0.009 A 
ATOM     74  C   UNL A   1      46.749  32.944  26.467  1.00  0.00     0.001 A 
ATOM     75  C   UNL A   1      48.777  32.010  27.367  1.00  0.00     0.001 A 
ATOM     76  C   UNL A   1      48.100  33.074  26.779  1.00  0.00     0.000 A 
ENDBRANCH  52  71
BRANCH  64  77
ATOM     77  C   UNL A   1      45.626  26.091  31.473  1.00  0.00    -0.014 A 
ATOM     78  C   UNL A   1      44.594  26.934  31.922  1.00  0.00     0.009 A 
ATOM     79  C   UNL A   1      46.549  25.613  32.415  1.00  0.00     0.009 A 
ATOM     80  C   UNL A   1      44.511  27.314  33.265  1.00  0.00     0.001 A 
ATOM     81  C   UNL A   1      46.452  25.973  33.761  1.00  0.00     0.001 A 
ATOM     82  C   UNL A   1      45.438  26.828  34.185  1.00  0.00     0.000 A 
ENDBRANCH  64  77
ENDBRANCH  38  39
ENDBRANCH  30  33
ENDBRANCH  28  29
ENDBRANCH  27  28
ENDBRANCH   1  27
TORSDOF 13
ENDMDL
