MODEL 1
REMARK VINA RESULT:     -12.0      0.000      0.000
REMARK SMILES Cc1c(Br)c(C)c2c(c1Br)O[C@H](C(F)(F)F)C(C(=O)NCCCNC(=O)c1ccc(-c3c4nc(c(-c5ccccc5)c5ccc([nH]5)c(-c5ccccc5)c5nc(c(-c6ccccc6)c6ccc3[nH]6)C=C5)C=C4)cc1)=C2
REMARK SMILES IDX 22 1 21 2 20 3 18 4 19 5 17 7 1 8 2 9 3 10 9 11 4 12 5 13
REMARK SMILES IDX 8 14 10 15 6 16 7 17 11 18 75 19 12 20 13 21 14 22 15 23
REMARK SMILES IDX 16 24 23 25 24 26 25 27 26 29 27 30 28 31 74 32 29 33 73 34
REMARK SMILES IDX 30 35 31 36 32 37 67 38 33 39 72 40 66 41 68 42 34 43 71 44
REMARK SMILES IDX 65 45 64 46 35 48 57 49 42 50 56 51 43 52 46 53 55 54 69 55
REMARK SMILES IDX 44 56 45 57 54 59 70 60 47 61 36 62 37 63 41 64 38 65 40 66
REMARK SMILES IDX 39 67 58 68 59 69 63 70 60 71 62 72 61 73 48 74 49 75 53 76
REMARK SMILES IDX 50 77 52 78 51 79
REMARK H PARENT 20 6 24 28 68 47 46 58
REMARK Flexibility Score: inf
ROOT
ATOM      1  C   UNL A   1      33.727  28.580  24.656  1.00  0.00     0.042 C 
ENDROOT
BRANCH   1   2
ATOM      2  C   UNL A   1      33.032  27.278  24.289  1.00  0.00     0.118 C 
BRANCH   2   3
ATOM      3  N   UNL A   1      32.101  26.855  25.325  1.00  0.00    -0.352 N 
ATOM      4  C   UNL A   1      31.749  25.697  25.931  1.00  0.00     0.251 C 
ATOM      5  O   UNL A   1      30.863  25.798  26.784  1.00  0.00    -0.270 OA
ATOM      6  H   UNL A   1      31.590  27.616  25.683  1.00  0.00     0.163 HD
BRANCH   4   7
ATOM      7  C   UNL A   1      32.349  24.363  25.638  1.00  0.00     0.067 C 
ATOM      8  C   UNL A   1      36.065  19.054  24.727  1.00  0.00     0.047 C 
ATOM      9  C   UNL A   1      35.495  20.412  25.065  1.00  0.00    -0.019 A 
ATOM     10  C   UNL A   1      36.307  21.530  25.381  1.00  0.00     0.025 A 
ATOM     11  C   UNL A   1      34.100  20.598  25.019  1.00  0.00     0.064 A 
ATOM     12  Br  UNL A   1      38.215  21.323  25.390  1.00  0.00    -0.050 Br
ATOM     13  C   UNL A   1      35.741  22.801  25.679  1.00  0.00    -0.026 A 
ATOM     14  C   UNL A   1      33.533  21.847  25.303  1.00  0.00     0.142 A 
ATOM     15  Br  UNL A   1      32.923  19.167  24.521  1.00  0.00    -0.046 Br
ATOM     16  C   UNL A   1      36.585  24.007  26.033  1.00  0.00     0.046 C 
ATOM     17  C   UNL A   1      34.333  22.948  25.634  1.00  0.00     0.022 A 
ATOM     18  O   UNL A   1      32.166  21.930  25.295  1.00  0.00    -0.474 OA
ATOM     19  C   UNL A   1      33.652  24.216  25.938  1.00  0.00     0.026 C 
ATOM     20  C   UNL A   1      31.595  23.229  25.023  1.00  0.00     0.314 C 
BRANCH  20  21
ATOM     21  C   UNL A   1      31.371  23.402  23.509  1.00  0.00     0.429 C 
ATOM     22  F   UNL A   1      31.449  22.203  22.879  1.00  0.00    -0.167 F 
ATOM     23  F   UNL A   1      30.148  23.908  23.220  1.00  0.00    -0.167 F 
ATOM     24  F   UNL A   1      32.277  24.224  22.935  1.00  0.00    -0.167 F 
ENDBRANCH  20  21
ENDBRANCH   4   7
ENDBRANCH   2   3
ENDBRANCH   1   2
BRANCH   1  25
ATOM     25  C   UNL A   1      33.995  28.675  26.151  1.00  0.00     0.118 C 
BRANCH  25  26
ATOM     26  N   UNL A   1      33.813  30.038  26.644  1.00  0.00    -0.352 N 
ATOM     27  C   UNL A   1      34.483  30.718  27.628  1.00  0.00     0.251 C 
ATOM     28  H   UNL A   1      33.098  30.549  26.201  1.00  0.00     0.163 HD
ATOM     29  O   UNL A   1      33.998  31.742  28.107  1.00  0.00    -0.269 OA
BRANCH  27  30
ATOM     30  C   UNL A   1      35.785  30.223  28.108  1.00  0.00     0.039 A 
ATOM     31  C   UNL A   1      35.874  29.626  29.367  1.00  0.00     0.014 A 
ATOM     32  C   UNL A   1      36.927  30.382  27.320  1.00  0.00     0.014 A 
ATOM     33  C   UNL A   1      37.104  29.138  29.809  1.00  0.00     0.010 A 
ATOM     34  C   UNL A   1      38.121  29.799  27.710  1.00  0.00     0.010 A 
ATOM     35  C   UNL A   1      38.229  29.197  28.969  1.00  0.00    -0.014 A 
BRANCH  35  36
ATOM     36  C   UNL A   1      39.547  28.685  29.405  1.00  0.00     0.031 A 
ATOM     37  C   UNL A   1      40.379  29.495  30.360  1.00  0.00     0.074 A 
ATOM     38  C   UNL A   1      40.012  27.525  28.906  1.00  0.00     0.049 A 
ATOM     39  N   UNL A   1      41.575  29.244  30.827  1.00  0.00    -0.248 NA
ATOM     40  C   UNL A   1      39.806  30.767  30.829  1.00  0.00     0.031 C 
ATOM     41  C   UNL A   1      39.305  26.670  27.949  1.00  0.00     0.029 A 
ATOM     42  N   UNL A   1      41.188  26.862  29.141  1.00  0.00    -0.354 N 
ATOM     43  C   UNL A   1      41.895  30.329  31.633  1.00  0.00     0.074 A 
ATOM     44  C   UNL A   1      40.806  31.273  31.533  1.00  0.00     0.031 C 
ATOM     45  C   UNL A   1      40.041  25.572  27.718  1.00  0.00     0.029 A 
ATOM     46  C   UNL A   1      41.285  25.666  28.474  1.00  0.00     0.049 A 
ATOM     47  H   UNL A   1      41.895  27.210  29.731  1.00  0.00     0.167 HD
ATOM     48  C   UNL A   1      42.983  30.509  32.417  1.00  0.00     0.031 A 
ATOM     49  C   UNL A   1      42.268  24.746  28.477  1.00  0.00     0.031 A 
ATOM     50  C   UNL A   1      44.058  29.562  32.522  1.00  0.00     0.049 A 
ATOM     51  C   UNL A   1      43.488  24.984  29.322  1.00  0.00     0.074 A 
ATOM     52  C   UNL A   1      45.187  29.626  33.317  1.00  0.00     0.029 A 
ATOM     53  N   UNL A   1      44.134  28.377  31.806  1.00  0.00    -0.354 N 
ATOM     54  N   UNL A   1      43.753  25.988  30.122  1.00  0.00    -0.248 NA
ATOM     55  C   UNL A   1      44.541  23.962  29.267  1.00  0.00     0.031 C 
ATOM     56  C   UNL A   1      45.975  28.505  33.039  1.00  0.00     0.029 A 
ATOM     57  C   UNL A   1      45.308  27.714  32.116  1.00  0.00     0.049 A 
ATOM     58  H   UNL A   1      43.453  28.056  31.170  1.00  0.00     0.167 HD
ATOM     59  C   UNL A   1      44.995  25.712  30.680  1.00  0.00     0.074 A 
ATOM     60  C   UNL A   1      45.420  24.437  30.140  1.00  0.00     0.031 C 
ATOM     61  C   UNL A   1      45.718  26.451  31.557  1.00  0.00     0.031 A 
BRANCH  48  62
ATOM     62  C   UNL A   1      43.052  31.777  33.222  1.00  0.00    -0.014 A 
ATOM     63  C   UNL A   1      42.547  31.832  34.533  1.00  0.00     0.009 A 
ATOM     64  C   UNL A   1      43.643  32.926  32.676  1.00  0.00     0.009 A 
ATOM     65  C   UNL A   1      42.597  33.021  35.262  1.00  0.00     0.001 A 
ATOM     66  C   UNL A   1      43.721  34.105  33.419  1.00  0.00     0.001 A 
ATOM     67  C   UNL A   1      43.189  34.155  34.707  1.00  0.00     0.000 A 
ENDBRANCH  48  62
BRANCH  49  68
ATOM     68  C   UNL A   1      42.107  23.498  27.686  1.00  0.00    -0.014 A 
ATOM     69  C   UNL A   1      42.583  23.432  26.368  1.00  0.00     0.009 A 
ATOM     70  C   UNL A   1      41.523  22.355  28.256  1.00  0.00     0.009 A 
ATOM     71  C   UNL A   1      42.471  22.249  25.634  1.00  0.00     0.001 A 
ATOM     72  C   UNL A   1      41.437  21.166  27.527  1.00  0.00     0.001 A 
ATOM     73  C   UNL A   1      41.907  21.115  26.216  1.00  0.00     0.000 A 
ENDBRANCH  49  68
BRANCH  61  74
ATOM     74  C   UNL A   1      47.046  25.903  31.994  1.00  0.00    -0.014 A 
ATOM     75  C   UNL A   1      48.207  26.139  31.243  1.00  0.00     0.009 A 
ATOM     76  C   UNL A   1      47.151  25.217  33.215  1.00  0.00     0.009 A 
ATOM     77  C   UNL A   1      49.446  25.684  31.698  1.00  0.00     0.001 A 
ATOM     78  C   UNL A   1      48.395  24.790  33.682  1.00  0.00     0.001 A 
ATOM     79  C   UNL A   1      49.539  25.019  32.921  1.00  0.00     0.000 A 
ENDBRANCH  61  74
ENDBRANCH  35  36
ENDBRANCH  27  30
ENDBRANCH  25  26
ENDBRANCH   1  25
TORSDOF 11
ENDMDL
MODEL 2
REMARK VINA RESULT:     -11.5      2.919      7.634
REMARK SMILES Cc1c(Br)c(C)c2c(c1Br)O[C@H](C(F)(F)F)C(C(=O)NCCCNC(=O)c1ccc(-c3c4nc(c(-c5ccccc5)c5ccc([nH]5)c(-c5ccccc5)c5nc(c(-c6ccccc6)c6ccc3[nH]6)C=C5)C=C4)cc1)=C2
REMARK SMILES IDX 22 1 21 2 20 3 18 4 19 5 17 7 1 8 2 9 3 10 9 11 4 12 5 13
REMARK SMILES IDX 8 14 10 15 6 16 7 17 11 18 75 19 12 20 13 21 14 22 15 23
REMARK SMILES IDX 16 24 23 25 24 26 25 27 26 29 27 30 28 31 74 32 29 33 73 34
REMARK SMILES IDX 30 35 31 36 32 37 67 38 33 39 72 40 66 41 68 42 34 43 71 44
REMARK SMILES IDX 65 45 64 46 35 48 57 49 42 50 56 51 43 52 46 53 55 54 69 55
REMARK SMILES IDX 44 56 45 57 54 59 70 60 47 61 36 62 37 63 41 64 38 65 40 66
REMARK SMILES IDX 39 67 58 68 59 69 63 70 60 71 62 72 61 73 48 74 49 75 53 76
REMARK SMILES IDX 50 77 52 78 51 79
REMARK H PARENT 20 6 24 28 68 47 46 58
REMARK Flexibility Score: inf
ROOT
ATOM      1  C   UNL A   1      37.522  19.472  24.871  1.00  0.00     0.042 C 
ENDROOT
BRANCH   1   2
ATOM      2  C   UNL A   1      36.247  20.289  25.014  1.00  0.00     0.118 C 
BRANCH   2   3
ATOM      3  N   UNL A   1      35.063  19.442  25.001  1.00  0.00    -0.352 N 
ATOM      4  C   UNL A   1      33.721  19.614  24.997  1.00  0.00     0.251 C 
ATOM      5  O   UNL A   1      33.057  18.573  25.003  1.00  0.00    -0.270 OA
ATOM      6  H   UNL A   1      35.303  18.488  24.994  1.00  0.00     0.163 HD
BRANCH   4   7
ATOM      7  C   UNL A   1      33.028  20.934  24.983  1.00  0.00     0.067 C 
ATOM      8  C   UNL A   1      30.365  26.776  23.710  1.00  0.00     0.047 C 
ATOM      9  C   UNL A   1      31.053  25.431  23.671  1.00  0.00    -0.019 A 
ATOM     10  C   UNL A   1      31.843  25.002  22.574  1.00  0.00     0.025 A 
ATOM     11  C   UNL A   1      30.952  24.579  24.787  1.00  0.00     0.064 A 
ATOM     12  Br  UNL A   1      32.050  26.169  21.064  1.00  0.00    -0.050 Br
ATOM     13  C   UNL A   1      32.492  23.736  22.573  1.00  0.00    -0.026 A 
ATOM     14  C   UNL A   1      31.593  23.333  24.799  1.00  0.00     0.142 A 
ATOM     15  Br  UNL A   1      29.975  25.103  26.352  1.00  0.00    -0.046 Br
ATOM     16  C   UNL A   1      33.328  23.250  21.409  1.00  0.00     0.046 C 
ATOM     17  C   UNL A   1      32.358  22.901  23.708  1.00  0.00     0.022 A 
ATOM     18  O   UNL A   1      31.396  22.539  25.897  1.00  0.00    -0.474 OA
ATOM     19  C   UNL A   1      32.979  21.570  23.798  1.00  0.00     0.026 C 
ATOM     20  C   UNL A   1      32.429  21.572  26.193  1.00  0.00     0.314 C 
BRANCH  20  21
ATOM     21  C   UNL A   1      33.480  22.192  27.134  1.00  0.00     0.429 C 
ATOM     22  F   UNL A   1      32.881  22.994  28.050  1.00  0.00    -0.167 F 
ATOM     23  F   UNL A   1      34.166  21.257  27.834  1.00  0.00    -0.167 F 
ATOM     24  F   UNL A   1      34.396  22.937  26.477  1.00  0.00    -0.167 F 
ENDBRANCH  20  21
ENDBRANCH   4   7
ENDBRANCH   2   3
ENDBRANCH   1   2
BRANCH   1  25
ATOM     25  C   UNL A   1      38.731  20.208  25.432  1.00  0.00     0.118 C 
BRANCH  25  26
ATOM     26  N   UNL A   1      39.838  19.296  25.704  1.00  0.00    -0.352 N 
ATOM     27  C   UNL A   1      41.134  19.562  26.063  1.00  0.00     0.251 C 
ATOM     28  H   UNL A   1      39.620  18.340  25.616  1.00  0.00     0.163 HD
ATOM     29  O   UNL A   1      41.993  18.687  25.955  1.00  0.00    -0.269 OA
BRANCH  27  30
ATOM     30  C   UNL A   1      41.495  20.893  26.579  1.00  0.00     0.039 A 
ATOM     31  C   UNL A   1      42.014  21.853  25.708  1.00  0.00     0.014 A 
ATOM     32  C   UNL A   1      41.351  21.178  27.938  1.00  0.00     0.014 A 
ATOM     33  C   UNL A   1      42.334  23.120  26.196  1.00  0.00     0.010 A 
ATOM     34  C   UNL A   1      41.562  22.467  28.400  1.00  0.00     0.010 A 
ATOM     35  C   UNL A   1      42.082  23.442  27.540  1.00  0.00    -0.014 A 
BRANCH  35  36
ATOM     36  C   UNL A   1      42.406  24.778  28.089  1.00  0.00     0.031 A 
ATOM     37  C   UNL A   1      43.822  25.096  28.483  1.00  0.00     0.074 A 
ATOM     38  C   UNL A   1      41.424  25.679  28.278  1.00  0.00     0.049 A 
ATOM     39  N   UNL A   1      44.302  26.187  29.021  1.00  0.00    -0.248 NA
ATOM     40  C   UNL A   1      44.825  24.039  28.272  1.00  0.00     0.031 C 
ATOM     41  C   UNL A   1      40.009  25.469  27.961  1.00  0.00     0.029 A 
ATOM     42  N   UNL A   1      41.471  26.955  28.775  1.00  0.00    -0.354 N 
ATOM     43  C   UNL A   1      45.654  25.941  29.218  1.00  0.00     0.074 A 
ATOM     44  C   UNL A   1      45.905  24.576  28.816  1.00  0.00     0.031 C 
ATOM     45  C   UNL A   1      39.332  26.597  28.226  1.00  0.00     0.029 A 
ATOM     46  C   UNL A   1      40.253  27.589  28.769  1.00  0.00     0.049 A 
ATOM     47  H   UNL A   1      42.297  27.376  29.105  1.00  0.00     0.167 HD
ATOM     48  C   UNL A   1      46.612  26.787  29.663  1.00  0.00     0.031 A 
ATOM     49  C   UNL A   1      39.919  28.835  29.155  1.00  0.00     0.031 A 
ATOM     50  C   UNL A   1      46.360  28.146  30.050  1.00  0.00     0.049 A 
ATOM     51  C   UNL A   1      40.991  29.746  29.685  1.00  0.00     0.074 A 
ATOM     52  C   UNL A   1      47.264  29.103  30.475  1.00  0.00     0.029 A 
ATOM     53  N   UNL A   1      45.107  28.742  30.060  1.00  0.00    -0.354 N 
ATOM     54  N   UNL A   1      42.275  29.519  29.815  1.00  0.00    -0.248 NA
ATOM     55  C   UNL A   1      40.567  31.085  30.118  1.00  0.00     0.031 C 
ATOM     56  C   UNL A   1      46.550  30.260  30.796  1.00  0.00     0.029 A 
ATOM     57  C   UNL A   1      45.209  30.045  30.515  1.00  0.00     0.049 A 
ATOM     58  H   UNL A   1      44.270  28.302  29.785  1.00  0.00     0.167 HD
ATOM     59  C   UNL A   1      42.818  30.690  30.328  1.00  0.00     0.074 A 
ATOM     60  C   UNL A   1      41.725  31.631  30.467  1.00  0.00     0.031 C 
ATOM     61  C   UNL A   1      44.106  30.960  30.657  1.00  0.00     0.031 A 
BRANCH  48  62
ATOM     62  C   UNL A   1      48.018  26.258  29.742  1.00  0.00    -0.014 A 
ATOM     63  C   UNL A   1      48.874  26.303  28.628  1.00  0.00     0.009 A 
ATOM     64  C   UNL A   1      48.502  25.726  30.946  1.00  0.00     0.009 A 
ATOM     65  C   UNL A   1      50.169  25.788  28.708  1.00  0.00     0.001 A 
ATOM     66  C   UNL A   1      49.808  25.242  31.033  1.00  0.00     0.001 A 
ATOM     67  C   UNL A   1      50.637  25.264  29.912  1.00  0.00     0.000 A 
ENDBRANCH  48  62
BRANCH  49  68
ATOM     68  C   UNL A   1      38.515  29.298  29.007  1.00  0.00    -0.014 A 
ATOM     69  C   UNL A   1      38.039  29.717  27.756  1.00  0.00     0.009 A 
ATOM     70  C   UNL A   1      37.632  29.280  30.099  1.00  0.00     0.009 A 
ATOM     71  C   UNL A   1      36.709  30.114  27.602  1.00  0.00     0.001 A 
ATOM     72  C   UNL A   1      36.295  29.654  29.935  1.00  0.00     0.001 A 
ATOM     73  C   UNL A   1      35.836  30.075  28.688  1.00  0.00     0.000 A 
ENDBRANCH  49  68
BRANCH  61  74
ATOM     74  C   UNL A   1      44.410  32.327  31.199  1.00  0.00    -0.014 A 
ATOM     75  C   UNL A   1      44.491  32.554  32.581  1.00  0.00     0.009 A 
ATOM     76  C   UNL A   1      44.705  33.379  30.316  1.00  0.00     0.009 A 
ATOM     77  C   UNL A   1      44.844  33.813  33.069  1.00  0.00     0.001 A 
ATOM     78  C   UNL A   1      45.088  34.628  30.807  1.00  0.00     0.001 A 
ATOM     79  C   UNL A   1      45.152  34.845  32.182  1.00  0.00     0.000 A 
ENDBRANCH  61  74
ENDBRANCH  35  36
ENDBRANCH  27  30
ENDBRANCH  25  26
ENDBRANCH   1  25
TORSDOF 11
ENDMDL
MODEL 3
REMARK VINA RESULT:     -11.5      3.011      7.321
REMARK SMILES Cc1c(Br)c(C)c2c(c1Br)O[C@H](C(F)(F)F)C(C(=O)NCCCNC(=O)c1ccc(-c3c4nc(c(-c5ccccc5)c5ccc([nH]5)c(-c5ccccc5)c5nc(c(-c6ccccc6)c6ccc3[nH]6)C=C5)C=C4)cc1)=C2
REMARK SMILES IDX 22 1 21 2 20 3 18 4 19 5 17 7 1 8 2 9 3 10 9 11 4 12 5 13
REMARK SMILES IDX 8 14 10 15 6 16 7 17 11 18 75 19 12 20 13 21 14 22 15 23
REMARK SMILES IDX 16 24 23 25 24 26 25 27 26 29 27 30 28 31 74 32 29 33 73 34
REMARK SMILES IDX 30 35 31 36 32 37 67 38 33 39 72 40 66 41 68 42 34 43 71 44
REMARK SMILES IDX 65 45 64 46 35 48 57 49 42 50 56 51 43 52 46 53 55 54 69 55
REMARK SMILES IDX 44 56 45 57 54 59 70 60 47 61 36 62 37 63 41 64 38 65 40 66
REMARK SMILES IDX 39 67 58 68 59 69 63 70 60 71 62 72 61 73 48 74 49 75 53 76
REMARK SMILES IDX 50 77 52 78 51 79
REMARK H PARENT 20 6 24 28 68 47 46 58
REMARK Flexibility Score: inf
ROOT
ATOM      1  C   UNL A   1      37.528  19.558  24.863  1.00  0.00     0.042 C 
ENDROOT
BRANCH   1   2
ATOM      2  C   UNL A   1      36.240  20.350  25.017  1.00  0.00     0.118 C 
BRANCH   2   3
ATOM      3  N   UNL A   1      35.072  19.481  25.022  1.00  0.00    -0.352 N 
ATOM      4  C   UNL A   1      33.727  19.626  25.037  1.00  0.00     0.251 C 
ATOM      5  O   UNL A   1      33.084  18.573  25.052  1.00  0.00    -0.270 OA
ATOM      6  H   UNL A   1      35.330  18.532  25.010  1.00  0.00     0.163 HD
BRANCH   4   7
ATOM      7  C   UNL A   1      33.009  20.933  25.033  1.00  0.00     0.067 C 
ATOM      8  C   UNL A   1      30.255  26.744  23.816  1.00  0.00     0.047 C 
ATOM      9  C   UNL A   1      30.969  25.414  23.766  1.00  0.00    -0.019 A 
ATOM     10  C   UNL A   1      31.788  25.021  22.676  1.00  0.00     0.025 A 
ATOM     11  C   UNL A   1      30.865  24.540  24.864  1.00  0.00     0.064 A 
ATOM     12  Br  UNL A   1      32.000  26.219  21.192  1.00  0.00    -0.050 Br
ATOM     13  C   UNL A   1      32.461  23.768  22.665  1.00  0.00    -0.026 A 
ATOM     14  C   UNL A   1      31.530  23.307  24.866  1.00  0.00     0.142 A 
ATOM     15  Br  UNL A   1      29.849  25.016  26.420  1.00  0.00    -0.046 Br
ATOM     16  C   UNL A   1      33.328  23.319  21.508  1.00  0.00     0.046 C 
ATOM     17  C   UNL A   1      32.324  22.910  23.782  1.00  0.00     0.022 A 
ATOM     18  O   UNL A   1      31.329  22.489  25.945  1.00  0.00    -0.474 OA
ATOM     19  C   UNL A   1      32.969  21.590  23.860  1.00  0.00     0.026 C 
ATOM     20  C   UNL A   1      32.375  21.537  26.244  1.00  0.00     0.314 C 
BRANCH  20  21
ATOM     21  C   UNL A   1      33.396  22.160  27.215  1.00  0.00     0.429 C 
ATOM     22  F   UNL A   1      32.770  22.624  28.325  1.00  0.00    -0.167 F 
ATOM     23  F   UNL A   1      34.319  21.265  27.641  1.00  0.00    -0.167 F 
ATOM     24  F   UNL A   1      34.076  23.192  26.668  1.00  0.00    -0.167 F 
ENDBRANCH  20  21
ENDBRANCH   4   7
ENDBRANCH   2   3
ENDBRANCH   1   2
BRANCH   1  25
ATOM     25  C   UNL A   1      38.708  20.265  25.514  1.00  0.00     0.118 C 
BRANCH  25  26
ATOM     26  N   UNL A   1      39.825  19.351  25.742  1.00  0.00    -0.352 N 
ATOM     27  C   UNL A   1      41.128  19.615  26.074  1.00  0.00     0.251 C 
ATOM     28  H   UNL A   1      39.607  18.397  25.642  1.00  0.00     0.163 HD
ATOM     29  O   UNL A   1      41.987  18.745  25.929  1.00  0.00    -0.269 OA
BRANCH  27  30
ATOM     30  C   UNL A   1      41.498  20.937  26.606  1.00  0.00     0.039 A 
ATOM     31  C   UNL A   1      41.338  21.202  27.968  1.00  0.00     0.014 A 
ATOM     32  C   UNL A   1      41.973  21.929  25.746  1.00  0.00     0.014 A 
ATOM     33  C   UNL A   1      41.711  22.448  28.473  1.00  0.00     0.010 A 
ATOM     34  C   UNL A   1      42.447  23.123  26.263  1.00  0.00     0.010 A 
ATOM     35  C   UNL A   1      42.295  23.406  27.627  1.00  0.00    -0.014 A 
BRANCH  35  36
ATOM     36  C   UNL A   1      42.705  24.735  28.130  1.00  0.00     0.031 A 
ATOM     37  C   UNL A   1      41.670  25.808  28.322  1.00  0.00     0.074 A 
ATOM     38  C   UNL A   1      44.006  24.989  28.364  1.00  0.00     0.049 A 
ATOM     39  N   UNL A   1      41.830  27.048  28.710  1.00  0.00    -0.248 NA
ATOM     40  C   UNL A   1      40.275  25.453  28.010  1.00  0.00     0.031 C 
ATOM     41  C   UNL A   1      45.102  24.034  28.183  1.00  0.00     0.029 A 
ATOM     42  N   UNL A   1      44.624  26.127  28.813  1.00  0.00    -0.354 N 
ATOM     43  C   UNL A   1      40.562  27.614  28.678  1.00  0.00     0.074 A 
ATOM     44  C   UNL A   1      39.658  26.613  28.162  1.00  0.00     0.031 C 
ATOM     45  C   UNL A   1      46.251  24.611  28.565  1.00  0.00     0.029 A 
ATOM     46  C   UNL A   1      45.980  25.985  28.975  1.00  0.00     0.049 A 
ATOM     47  H   UNL A   1      44.143  26.965  29.000  1.00  0.00     0.167 HD
ATOM     48  C   UNL A   1      40.177  28.849  29.077  1.00  0.00     0.031 A 
ATOM     49  C   UNL A   1      46.901  26.866  29.411  1.00  0.00     0.031 A 
ATOM     50  C   UNL A   1      41.078  29.837  29.600  1.00  0.00     0.049 A 
ATOM     51  C   UNL A   1      46.458  28.245  29.810  1.00  0.00     0.074 A 
ATOM     52  C   UNL A   1      40.788  31.104  30.072  1.00  0.00     0.029 A 
ATOM     53  N   UNL A   1      42.450  29.665  29.719  1.00  0.00    -0.354 N 
ATOM     54  N   UNL A   1      45.249  28.751  29.827  1.00  0.00    -0.248 NA
ATOM     55  C   UNL A   1      47.507  29.175  30.252  1.00  0.00     0.031 C 
ATOM     56  C   UNL A   1      41.992  31.720  30.424  1.00  0.00     0.029 A 
ATOM     57  C   UNL A   1      43.025  30.816  30.228  1.00  0.00     0.049 A 
ATOM     58  H   UNL A   1      42.940  28.847  29.477  1.00  0.00     0.167 HD
ATOM     59  C   UNL A   1      45.387  30.051  30.296  1.00  0.00     0.074 A 
ATOM     60  C   UNL A   1      46.795  30.248  30.570  1.00  0.00     0.031 C 
ATOM     61  C   UNL A   1      44.432  30.995  30.481  1.00  0.00     0.031 A 
BRANCH  48  62
ATOM     62  C   UNL A   1      38.716  29.186  28.964  1.00  0.00    -0.014 A 
ATOM     63  C   UNL A   1      37.850  29.035  30.060  1.00  0.00     0.009 A 
ATOM     64  C   UNL A   1      38.199  29.678  27.756  1.00  0.00     0.009 A 
ATOM     65  C   UNL A   1      36.491  29.330  29.937  1.00  0.00     0.001 A 
ATOM     66  C   UNL A   1      36.846  30.004  27.645  1.00  0.00     0.001 A 
ATOM     67  C   UNL A   1      35.992  29.820  28.731  1.00  0.00     0.000 A 
ENDBRANCH  48  62
BRANCH  49  68
ATOM     68  C   UNL A   1      48.320  26.443  29.534  1.00  0.00    -0.014 A 
ATOM     69  C   UNL A   1      49.217  26.667  28.478  1.00  0.00     0.009 A 
ATOM     70  C   UNL A   1      48.797  25.858  30.718  1.00  0.00     0.009 A 
ATOM     71  C   UNL A   1      50.561  26.309  28.604  1.00  0.00     0.001 A 
ATOM     72  C   UNL A   1      50.148  25.526  30.850  1.00  0.00     0.001 A 
ATOM     73  C   UNL A   1      51.027  25.747  29.791  1.00  0.00     0.000 A 
ENDBRANCH  49  68
BRANCH  61  74
ATOM     74  C   UNL A   1      44.873  32.332  31.006  1.00  0.00    -0.014 A 
ATOM     75  C   UNL A   1      45.196  33.380  30.131  1.00  0.00     0.009 A 
ATOM     76  C   UNL A   1      44.880  32.571  32.390  1.00  0.00     0.009 A 
ATOM     77  C   UNL A   1      45.535  34.638  30.633  1.00  0.00     0.001 A 
ATOM     78  C   UNL A   1      45.190  33.838  32.887  1.00  0.00     0.001 A 
ATOM     79  C   UNL A   1      45.522  34.867  32.009  1.00  0.00     0.000 A 
ENDBRANCH  61  74
ENDBRANCH  35  36
ENDBRANCH  27  30
ENDBRANCH  25  26
ENDBRANCH   1  25
TORSDOF 11
ENDMDL
