MODEL 1
REMARK VINA RESULT:     -12.2      0.000      0.000
REMARK SMILES Cc1ccc(C(=O)NCCCNC(=O)c2ccc(-c3c4nc(c(-c5ccccc5)c5ccc([nH]5)c(-c5ccccc5)c5nc(c(-c6ccccc6)c6ccc3[nH]6)C=C5)C=C4)cc2)c2c1N[C@H](c1ccccc1F)[C@H]1CC=C[C@@H]21
REMARK SMILES IDX 10 1 9 2 8 3 6 4 7 5 5 7 1 8 2 9 3 10 64 11 4 12 63 13 65 14
REMARK SMILES IDX 78 15 66 16 74 18 77 19 75 20 76 21 67 22 68 23 72 24 69 25
REMARK SMILES IDX 71 26 73 27 70 28 11 29 12 30 13 31 14 33 15 34 16 35 62 36
REMARK SMILES IDX 17 37 61 38 18 39 19 40 20 41 55 42 21 43 60 44 54 45 56 46
REMARK SMILES IDX 22 47 59 48 53 49 52 50 23 52 45 53 30 54 44 55 31 56 34 57
REMARK SMILES IDX 43 58 57 59 32 60 33 61 42 63 58 64 35 65 24 66 25 67 29 68
REMARK SMILES IDX 26 69 28 70 27 71 46 72 47 73 51 74 48 75 50 76 49 77 36 78
REMARK SMILES IDX 37 79 41 80 38 81 40 82 39 83
REMARK H PARENT 8 6 65 17 12 32 56 51 34 62
REMARK Flexibility Score: inf
ROOT
ATOM      1  C   UNL A   1      35.646  23.548  25.718  1.00  0.00     0.042 C 
ENDROOT
BRANCH   1   2
ATOM      2  C   UNL A   1      35.066  22.146  25.517  1.00  0.00     0.118 C 
BRANCH   2   3
ATOM      3  N   UNL A   1      34.416  22.062  24.225  1.00  0.00    -0.352 N 
ATOM      4  C   UNL A   1      33.133  22.249  23.778  1.00  0.00     0.251 C 
ATOM      5  O   UNL A   1      32.935  21.842  22.633  1.00  0.00    -0.269 OA
ATOM      6  H   UNL A   1      35.037  21.814  23.503  1.00  0.00     0.163 HD
BRANCH   4   7
ATOM      7  C   UNL A   1      32.043  22.915  24.574  1.00  0.00     0.045 A 
ATOM      8  C   UNL A   1      29.025  24.764  27.079  1.00  0.00     0.046 C 
ATOM      9  C   UNL A   1      30.051  24.142  26.167  1.00  0.00    -0.028 A 
ATOM     10  C   UNL A   1      30.406  22.814  26.379  1.00  0.00     0.006 A 
ATOM     11  C   UNL A   1      30.609  24.841  25.077  1.00  0.00     0.042 A 
ATOM     12  C   UNL A   1      31.359  22.205  25.568  1.00  0.00     0.014 A 
ATOM     13  C   UNL A   1      31.636  24.255  24.299  1.00  0.00    -0.005 A 
ATOM     14  N   UNL A   1      30.142  26.109  24.800  1.00  0.00    -0.377 N 
ATOM     15  C   UNL A   1      32.198  25.050  23.133  1.00  0.00     0.050 C 
ATOM     16  C   UNL A   1      30.858  27.052  23.961  1.00  0.00     0.117 C 
ATOM     17  H   UNL A   1      29.282  26.388  25.189  1.00  0.00     0.161 HD
ATOM     18  C   UNL A   1      31.417  26.325  22.729  1.00  0.00     0.031 C 
ATOM     19  C   UNL A   1      33.590  25.597  23.318  1.00  0.00    -0.023 C 
ATOM     20  C   UNL A   1      32.472  27.184  22.007  1.00  0.00     0.034 C 
ATOM     21  C   UNL A   1      33.744  26.763  22.676  1.00  0.00    -0.030 C 
BRANCH  16  22
ATOM     22  C   UNL A   1      29.902  28.217  23.750  1.00  0.00     0.010 A 
ATOM     23  C   UNL A   1      28.655  27.940  23.148  1.00  0.00     0.009 A 
ATOM     24  C   UNL A   1      30.230  29.560  23.966  1.00  0.00     0.128 A 
ATOM     25  C   UNL A   1      27.796  28.968  22.752  1.00  0.00     0.001 A 
ATOM     26  C   UNL A   1      29.373  30.589  23.573  1.00  0.00     0.039 A 
ATOM     27  F   UNL A   1      31.392  29.912  24.528  1.00  0.00    -0.207 F 
ATOM     28  C   UNL A   1      28.161  30.295  22.954  1.00  0.00     0.003 A 
ENDBRANCH  16  22
ENDBRANCH   4   7
ENDBRANCH   2   3
ENDBRANCH   1   2
BRANCH   1  29
ATOM     29  C   UNL A   1      37.023  23.709  25.074  1.00  0.00     0.118 C 
BRANCH  29  30
ATOM     30  N   UNL A   1      37.937  22.665  25.513  1.00  0.00    -0.352 N 
ATOM     31  C   UNL A   1      39.160  22.794  26.123  1.00  0.00     0.251 C 
ATOM     32  H   UNL A   1      37.638  21.741  25.353  1.00  0.00     0.163 HD
ATOM     33  O   UNL A   1      39.940  21.851  26.165  1.00  0.00    -0.269 OA
BRANCH  31  34
ATOM     34  C   UNL A   1      39.523  24.085  26.734  1.00  0.00     0.039 A 
ATOM     35  C   UNL A   1      40.250  25.015  25.989  1.00  0.00     0.014 A 
ATOM     36  C   UNL A   1      39.161  24.355  28.058  1.00  0.00     0.014 A 
ATOM     37  C   UNL A   1      40.582  26.242  26.562  1.00  0.00     0.010 A 
ATOM     38  C   UNL A   1      39.441  25.599  28.609  1.00  0.00     0.010 A 
ATOM     39  C   UNL A   1      40.168  26.545  27.870  1.00  0.00    -0.014 A 
BRANCH  39  40
ATOM     40  C   UNL A   1      40.531  27.831  28.504  1.00  0.00     0.031 A 
ATOM     41  C   UNL A   1      41.932  28.042  29.001  1.00  0.00     0.074 A 
ATOM     42  C   UNL A   1      39.598  28.788  28.660  1.00  0.00     0.049 A 
ATOM     43  N   UNL A   1      42.441  29.086  29.600  1.00  0.00    -0.248 NA
ATOM     44  C   UNL A   1      42.883  26.933  28.811  1.00  0.00     0.031 C 
ATOM     45  C   UNL A   1      38.202  28.685  28.234  1.00  0.00     0.029 A 
ATOM     46  N   UNL A   1      39.688  30.038  29.218  1.00  0.00    -0.354 N 
ATOM     47  C   UNL A   1      43.765  28.759  29.859  1.00  0.00     0.074 A 
ATOM     48  C   UNL A   1      43.973  27.406  29.400  1.00  0.00     0.031 C 
ATOM     49  C   UNL A   1      37.572  29.837  28.519  1.00  0.00     0.029 A 
ATOM     50  C   UNL A   1      38.511  30.744  29.173  1.00  0.00     0.049 A 
ATOM     51  H   UNL A   1      40.516  30.395  29.613  1.00  0.00     0.167 HD
ATOM     52  C   UNL A   1      44.729  29.533  30.406  1.00  0.00     0.031 A 
ATOM     53  C   UNL A   1      38.222  31.986  29.608  1.00  0.00     0.031 A 
ATOM     54  C   UNL A   1      44.525  30.883  30.846  1.00  0.00     0.049 A 
ATOM     55  C   UNL A   1      39.302  32.812  30.246  1.00  0.00     0.074 A 
ATOM     56  C   UNL A   1      45.456  31.761  31.373  1.00  0.00     0.029 A 
ATOM     57  N   UNL A   1      43.313  31.551  30.808  1.00  0.00    -0.354 N 
ATOM     58  N   UNL A   1      40.561  32.506  30.443  1.00  0.00    -0.248 NA
ATOM     59  C   UNL A   1      38.927  34.154  30.719  1.00  0.00     0.031 C 
ATOM     60  C   UNL A   1      44.796  32.947  31.697  1.00  0.00     0.029 A 
ATOM     61  C   UNL A   1      43.465  32.823  31.325  1.00  0.00     0.049 A 
ATOM     62  H   UNL A   1      42.469  31.175  30.464  1.00  0.00     0.167 HD
ATOM     63  C   UNL A   1      41.134  33.619  31.043  1.00  0.00     0.074 A 
ATOM     64  C   UNL A   1      40.088  34.612  31.174  1.00  0.00     0.031 C 
ATOM     65  C   UNL A   1      42.414  33.799  31.444  1.00  0.00     0.031 A 
BRANCH  52  66
ATOM     66  C   UNL A   1      46.104  28.949  30.544  1.00  0.00    -0.014 A 
ATOM     67  C   UNL A   1      47.056  29.110  29.526  1.00  0.00     0.009 A 
ATOM     68  C   UNL A   1      46.481  28.316  31.740  1.00  0.00     0.009 A 
ATOM     69  C   UNL A   1      48.359  28.642  29.700  1.00  0.00     0.001 A 
ATOM     70  C   UNL A   1      47.790  27.869  31.918  1.00  0.00     0.001 A 
ATOM     71  C   UNL A   1      48.727  28.031  30.898  1.00  0.00     0.000 A 
ENDBRANCH  52  66
BRANCH  53  72
ATOM     72  C   UNL A   1      36.853  32.525  29.411  1.00  0.00    -0.014 A 
ATOM     73  C   UNL A   1      36.505  33.146  28.203  1.00  0.00     0.009 A 
ATOM     74  C   UNL A   1      35.872  32.369  30.403  1.00  0.00     0.009 A 
ATOM     75  C   UNL A   1      35.201  33.601  27.991  1.00  0.00     0.001 A 
ATOM     76  C   UNL A   1      34.564  32.807  30.181  1.00  0.00     0.001 A 
ATOM     77  C   UNL A   1      34.231  33.424  28.976  1.00  0.00     0.000 A 
ENDBRANCH  53  72
BRANCH  65  78
ATOM     78  C   UNL A   1      42.787  35.116  32.060  1.00  0.00    -0.014 A 
ATOM     79  C   UNL A   1      42.605  35.341  33.432  1.00  0.00     0.009 A 
ATOM     80  C   UNL A   1      43.465  36.075  31.290  1.00  0.00     0.009 A 
ATOM     81  C   UNL A   1      43.104  36.503  34.024  1.00  0.00     0.001 A 
ATOM     82  C   UNL A   1      43.981  37.224  31.890  1.00  0.00     0.001 A 
ATOM     83  C   UNL A   1      43.800  37.437  33.256  1.00  0.00     0.000 A 
ENDBRANCH  65  78
ENDBRANCH  39  40
ENDBRANCH  31  34
ENDBRANCH  29  30
ENDBRANCH   1  29
TORSDOF 11
ENDMDL
MODEL 2
REMARK VINA RESULT:     -12.2      2.968      7.942
REMARK SMILES Cc1ccc(C(=O)NCCCNC(=O)c2ccc(-c3c4nc(c(-c5ccccc5)c5ccc([nH]5)c(-c5ccccc5)c5nc(c(-c6ccccc6)c6ccc3[nH]6)C=C5)C=C4)cc2)c2c1N[C@H](c1ccccc1F)[C@H]1CC=C[C@@H]21
REMARK SMILES IDX 10 1 9 2 8 3 6 4 7 5 5 7 1 8 2 9 3 10 64 11 4 12 63 13 65 14
REMARK SMILES IDX 78 15 66 16 74 18 77 19 75 20 76 21 67 22 68 23 72 24 69 25
REMARK SMILES IDX 71 26 73 27 70 28 11 29 12 30 13 31 14 33 15 34 16 35 62 36
REMARK SMILES IDX 17 37 61 38 18 39 19 40 20 41 55 42 21 43 60 44 54 45 56 46
REMARK SMILES IDX 22 47 59 48 53 49 52 50 23 52 45 53 30 54 44 55 31 56 34 57
REMARK SMILES IDX 43 58 57 59 32 60 33 61 42 63 58 64 35 65 24 66 25 67 29 68
REMARK SMILES IDX 26 69 28 70 27 71 46 72 47 73 51 74 48 75 50 76 49 77 36 78
REMARK SMILES IDX 37 79 41 80 38 81 40 82 39 83
REMARK H PARENT 8 6 65 17 12 32 56 51 34 62
REMARK Flexibility Score: inf
ROOT
ATOM      1  C   UNL A   1      33.735  28.184  25.706  1.00  0.00     0.042 C 
ENDROOT
BRANCH   1   2
ATOM      2  C   UNL A   1      32.523  28.779  24.983  1.00  0.00     0.118 C 
BRANCH   2   3
ATOM      3  N   UNL A   1      31.345  27.980  25.257  1.00  0.00    -0.352 N 
ATOM      4  C   UNL A   1      30.732  26.923  24.636  1.00  0.00     0.251 C 
ATOM      5  O   UNL A   1      29.602  26.677  25.057  1.00  0.00    -0.269 OA
ATOM      6  H   UNL A   1      30.878  28.262  26.077  1.00  0.00     0.163 HD
BRANCH   4   7
ATOM      7  C   UNL A   1      31.364  26.090  23.552  1.00  0.00     0.045 A 
ATOM      8  C   UNL A   1      33.334  23.890  20.377  1.00  0.00     0.046 C 
ATOM      9  C   UNL A   1      32.625  24.612  21.493  1.00  0.00    -0.028 A 
ATOM     10  C   UNL A   1      32.098  25.873  21.236  1.00  0.00     0.006 A 
ATOM     11  C   UNL A   1      32.424  24.024  22.759  1.00  0.00     0.042 A 
ATOM     12  C   UNL A   1      31.446  26.579  22.242  1.00  0.00     0.014 A 
ATOM     13  C   UNL A   1      31.833  24.768  23.810  1.00  0.00    -0.005 A 
ATOM     14  N   UNL A   1      32.831  22.720  22.952  1.00  0.00    -0.377 N 
ATOM     15  C   UNL A   1      31.638  24.085  25.153  1.00  0.00     0.050 C 
ATOM     16  C   UNL A   1      33.011  22.132  24.265  1.00  0.00     0.117 C 
ATOM     17  H   UNL A   1      33.006  22.162  22.161  1.00  0.00     0.161 HD
ATOM     18  C   UNL A   1      31.854  22.552  25.183  1.00  0.00     0.031 C 
ATOM     19  C   UNL A   1      32.549  24.538  26.263  1.00  0.00    -0.023 C 
ATOM     20  C   UNL A   1      32.179  22.260  26.660  1.00  0.00     0.034 C 
ATOM     21  C   UNL A   1      32.827  23.534  27.105  1.00  0.00    -0.030 C 
BRANCH  16  22
ATOM     22  C   UNL A   1      33.246  20.648  24.019  1.00  0.00     0.010 A 
ATOM     23  C   UNL A   1      32.329  19.969  23.188  1.00  0.00     0.009 A 
ATOM     24  C   UNL A   1      34.213  19.879  24.677  1.00  0.00     0.128 A 
ATOM     25  C   UNL A   1      32.361  18.580  23.055  1.00  0.00     0.001 A 
ATOM     26  C   UNL A   1      34.249  18.490  24.544  1.00  0.00     0.039 A 
ATOM     27  F   UNL A   1      35.119  20.441  25.484  1.00  0.00    -0.207 F 
ATOM     28  C   UNL A   1      33.316  17.838  23.743  1.00  0.00     0.003 A 
ENDBRANCH  16  22
ENDBRANCH   4   7
ENDBRANCH   2   3
ENDBRANCH   1   2
BRANCH   1  29
ATOM     29  C   UNL A   1      33.718  28.470  27.207  1.00  0.00     0.118 C 
BRANCH  29  30
ATOM     30  N   UNL A   1      33.638  29.900  27.472  1.00  0.00    -0.352 N 
ATOM     31  C   UNL A   1      34.517  30.696  28.162  1.00  0.00     0.251 C 
ATOM     32  H   UNL A   1      32.848  30.357  27.106  1.00  0.00     0.163 HD
ATOM     33  O   UNL A   1      34.179  31.805  28.556  1.00  0.00    -0.269 OA
BRANCH  31  34
ATOM     34  C   UNL A   1      35.882  30.201  28.420  1.00  0.00     0.039 A 
ATOM     35  C   UNL A   1      36.194  29.681  29.677  1.00  0.00     0.014 A 
ATOM     36  C   UNL A   1      36.853  30.281  27.417  1.00  0.00     0.014 A 
ATOM     37  C   UNL A   1      37.481  29.200  29.917  1.00  0.00     0.010 A 
ATOM     38  C   UNL A   1      38.117  29.750  27.638  1.00  0.00     0.010 A 
ATOM     39  C   UNL A   1      38.445  29.220  28.895  1.00  0.00    -0.014 A 
BRANCH  39  40
ATOM     40  C   UNL A   1      39.822  28.738  29.138  1.00  0.00     0.031 A 
ATOM     41  C   UNL A   1      40.811  29.636  29.821  1.00  0.00     0.074 A 
ATOM     42  C   UNL A   1      40.187  27.513  28.717  1.00  0.00     0.049 A 
ATOM     43  N   UNL A   1      42.066  29.408  30.107  1.00  0.00    -0.248 NA
ATOM     44  C   UNL A   1      40.335  30.970  30.227  1.00  0.00     0.031 C 
ATOM     45  C   UNL A   1      39.315  26.563  28.025  1.00  0.00     0.029 A 
ATOM     46  N   UNL A   1      41.388  26.857  28.815  1.00  0.00    -0.354 N 
ATOM     47  C   UNL A   1      42.527  30.565  30.721  1.00  0.00     0.074 A 
ATOM     48  C   UNL A   1      41.437  31.513  30.725  1.00  0.00     0.031 C 
ATOM     49  C   UNL A   1      40.001  25.433  27.787  1.00  0.00     0.029 A 
ATOM     50  C   UNL A   1      41.367  25.593  28.281  1.00  0.00     0.049 A 
ATOM     51  H   UNL A   1      42.188  27.256  29.227  1.00  0.00     0.167 HD
ATOM     52  C   UNL A   1      43.743  30.802  31.259  1.00  0.00     0.031 A 
ATOM     53  C   UNL A   1      42.339  24.664  28.202  1.00  0.00     0.031 A 
ATOM     54  C   UNL A   1      44.819  29.852  31.270  1.00  0.00     0.049 A 
ATOM     55  C   UNL A   1      43.694  24.965  28.776  1.00  0.00     0.074 A 
ATOM     56  C   UNL A   1      46.075  29.988  31.833  1.00  0.00     0.029 A 
ATOM     57  N   UNL A   1      44.765  28.593  30.696  1.00  0.00    -0.354 N 
ATOM     58  N   UNL A   1      44.101  26.047  29.394  1.00  0.00    -0.248 NA
ATOM     59  C   UNL A   1      44.723  23.922  28.646  1.00  0.00     0.031 C 
ATOM     60  C   UNL A   1      46.799  28.827  31.559  1.00  0.00     0.029 A 
ATOM     61  C   UNL A   1      45.975  27.949  30.870  1.00  0.00     0.049 A 
ATOM     62  H   UNL A   1      43.982  28.214  30.233  1.00  0.00     0.167 HD
ATOM     63  C   UNL A   1      45.423  25.810  29.744  1.00  0.00     0.074 A 
ATOM     64  C   UNL A   1      45.751  24.480  29.276  1.00  0.00     0.031 C 
ATOM     65  C   UNL A   1      46.284  26.624  30.400  1.00  0.00     0.031 A 
BRANCH  52  66
ATOM     66  C   UNL A   1      43.978  32.135  31.905  1.00  0.00    -0.014 A 
ATOM     67  C   UNL A   1      44.444  33.223  31.151  1.00  0.00     0.009 A 
ATOM     68  C   UNL A   1      43.640  32.331  33.253  1.00  0.00     0.009 A 
ATOM     69  C   UNL A   1      44.573  34.483  31.738  1.00  0.00     0.001 A 
ATOM     70  C   UNL A   1      43.751  33.597  33.831  1.00  0.00     0.001 A 
ATOM     71  C   UNL A   1      44.218  34.670  33.074  1.00  0.00     0.000 A 
ENDBRANCH  52  66
BRANCH  53  72
ATOM     72  C   UNL A   1      42.038  23.347  27.586  1.00  0.00    -0.014 A 
ATOM     73  C   UNL A   1      42.378  23.098  26.248  1.00  0.00     0.009 A 
ATOM     74  C   UNL A   1      41.465  22.315  28.346  1.00  0.00     0.009 A 
ATOM     75  C   UNL A   1      42.151  21.841  25.682  1.00  0.00     0.001 A 
ATOM     76  C   UNL A   1      41.258  21.053  27.783  1.00  0.00     0.001 A 
ATOM     77  C   UNL A   1      41.599  20.818  26.451  1.00  0.00     0.000 A 
ENDBRANCH  53  72
BRANCH  65  78
ATOM     78  C   UNL A   1      47.670  26.120  30.671  1.00  0.00    -0.014 A 
ATOM     79  C   UNL A   1      48.681  26.254  29.708  1.00  0.00     0.009 A 
ATOM     80  C   UNL A   1      48.001  25.653  31.954  1.00  0.00     0.009 A 
ATOM     81  C   UNL A   1      50.001  25.933  30.029  1.00  0.00     0.001 A 
ATOM     82  C   UNL A   1      49.325  25.355  32.276  1.00  0.00     0.001 A 
ATOM     83  C   UNL A   1      50.324  25.495  31.313  1.00  0.00     0.000 A 
ENDBRANCH  65  78
ENDBRANCH  39  40
ENDBRANCH  31  34
ENDBRANCH  29  30
ENDBRANCH   1  29
TORSDOF 11
ENDMDL
MODEL 3
REMARK VINA RESULT:     -12.1      0.470      5.883
REMARK SMILES Cc1ccc(C(=O)NCCCNC(=O)c2ccc(-c3c4nc(c(-c5ccccc5)c5ccc([nH]5)c(-c5ccccc5)c5nc(c(-c6ccccc6)c6ccc3[nH]6)C=C5)C=C4)cc2)c2c1N[C@H](c1ccccc1F)[C@H]1CC=C[C@@H]21
REMARK SMILES IDX 10 1 9 2 8 3 6 4 7 5 5 7 1 8 2 9 3 10 64 11 4 12 63 13 65 14
REMARK SMILES IDX 78 15 66 16 74 18 77 19 75 20 76 21 67 22 68 23 72 24 69 25
REMARK SMILES IDX 71 26 73 27 70 28 11 29 12 30 13 31 14 33 15 34 16 35 62 36
REMARK SMILES IDX 17 37 61 38 18 39 19 40 20 41 55 42 21 43 60 44 54 45 56 46
REMARK SMILES IDX 22 47 59 48 53 49 52 50 23 52 45 53 30 54 44 55 31 56 34 57
REMARK SMILES IDX 43 58 57 59 32 60 33 61 42 63 58 64 35 65 24 66 25 67 29 68
REMARK SMILES IDX 26 69 28 70 27 71 46 72 47 73 51 74 48 75 50 76 49 77 36 78
REMARK SMILES IDX 37 79 41 80 38 81 40 82 39 83
REMARK H PARENT 8 6 65 17 12 32 56 51 34 62
REMARK Flexibility Score: inf
ROOT
ATOM      1  C   UNL A   1      35.334  23.498  26.049  1.00  0.00     0.042 C 
ENDROOT
BRANCH   1   2
ATOM      2  C   UNL A   1      34.950  22.021  25.925  1.00  0.00     0.118 C 
BRANCH   2   3
ATOM      3  N   UNL A   1      34.310  21.783  24.647  1.00  0.00    -0.352 N 
ATOM      4  C   UNL A   1      33.041  21.956  24.157  1.00  0.00     0.251 C 
ATOM      5  O   UNL A   1      32.839  21.402  23.076  1.00  0.00    -0.269 OA
ATOM      6  H   UNL A   1      34.929  21.413  23.976  1.00  0.00     0.163 HD
BRANCH   4   7
ATOM      7  C   UNL A   1      31.970  22.769  24.835  1.00  0.00     0.045 A 
ATOM      8  C   UNL A   1      29.008  25.072  27.008  1.00  0.00     0.046 C 
ATOM      9  C   UNL A   1      30.016  24.286  26.209  1.00  0.00    -0.028 A 
ATOM     10  C   UNL A   1      30.335  22.999  26.629  1.00  0.00     0.006 A 
ATOM     11  C   UNL A   1      30.589  24.788  25.023  1.00  0.00     0.042 A 
ATOM     12  C   UNL A   1      31.270  22.244  25.928  1.00  0.00     0.014 A 
ATOM     13  C   UNL A   1      31.599  24.058  24.350  1.00  0.00    -0.005 A 
ATOM     14  N   UNL A   1      30.156  26.008  24.547  1.00  0.00    -0.377 N 
ATOM     15  C   UNL A   1      32.180  24.644  23.074  1.00  0.00     0.050 C 
ATOM     16  C   UNL A   1      30.895  26.786  23.571  1.00  0.00     0.117 C 
ATOM     17  H   UNL A   1      29.304  26.368  24.885  1.00  0.00     0.161 HD
ATOM     18  C   UNL A   1      31.432  25.859  22.471  1.00  0.00     0.031 C 
ATOM     19  C   UNL A   1      33.586  25.176  23.172  1.00  0.00    -0.023 C 
ATOM     20  C   UNL A   1      32.508  26.563  21.624  1.00  0.00     0.034 C 
ATOM     21  C   UNL A   1      33.770  26.220  22.354  1.00  0.00    -0.030 C 
BRANCH  16  22
ATOM     22  C   UNL A   1      29.970  27.928  23.175  1.00  0.00     0.010 A 
ATOM     23  C   UNL A   1      28.580  27.730  23.333  1.00  0.00     0.009 A 
ATOM     24  C   UNL A   1      30.385  29.096  22.525  1.00  0.00     0.128 A 
ATOM     25  C   UNL A   1      27.656  28.647  22.828  1.00  0.00     0.001 A 
ATOM     26  C   UNL A   1      29.464  30.015  22.022  1.00  0.00     0.039 A 
ATOM     27  F   UNL A   1      31.682  29.361  22.332  1.00  0.00    -0.207 F 
ATOM     28  C   UNL A   1      28.097  29.785  22.162  1.00  0.00     0.003 A 
ENDBRANCH  16  22
ENDBRANCH   4   7
ENDBRANCH   2   3
ENDBRANCH   1   2
BRANCH   1  29
ATOM     29  C   UNL A   1      36.685  23.806  25.406  1.00  0.00     0.118 C 
BRANCH  29  30
ATOM     30  N   UNL A   1      37.648  22.744  25.665  1.00  0.00    -0.352 N 
ATOM     31  C   UNL A   1      38.936  22.847  26.126  1.00  0.00     0.251 C 
ATOM     32  H   UNL A   1      37.332  21.830  25.487  1.00  0.00     0.163 HD
ATOM     33  O   UNL A   1      39.716  21.909  26.014  1.00  0.00    -0.269 OA
BRANCH  31  34
ATOM     34  C   UNL A   1      39.371  24.102  26.765  1.00  0.00     0.039 A 
ATOM     35  C   UNL A   1      39.005  24.359  28.088  1.00  0.00     0.014 A 
ATOM     36  C   UNL A   1      40.119  25.032  26.036  1.00  0.00     0.014 A 
ATOM     37  C   UNL A   1      39.427  25.540  28.697  1.00  0.00     0.010 A 
ATOM     38  C   UNL A   1      40.587  26.181  26.661  1.00  0.00     0.010 A 
ATOM     39  C   UNL A   1      40.231  26.451  27.991  1.00  0.00    -0.014 A 
BRANCH  39  40
ATOM     40  C   UNL A   1      40.668  27.720  28.612  1.00  0.00     0.031 A 
ATOM     41  C   UNL A   1      39.685  28.842  28.773  1.00  0.00     0.074 A 
ATOM     42  C   UNL A   1      41.948  27.871  28.997  1.00  0.00     0.049 A 
ATOM     43  N   UNL A   1      39.875  30.035  29.273  1.00  0.00    -0.248 NA
ATOM     44  C   UNL A   1      38.310  28.600  28.302  1.00  0.00     0.031 C 
ATOM     45  C   UNL A   1      42.995  26.856  28.871  1.00  0.00     0.029 A 
ATOM     46  N   UNL A   1      42.585  28.939  29.577  1.00  0.00    -0.354 N 
ATOM     47  C   UNL A   1      38.651  30.682  29.174  1.00  0.00     0.074 A 
ATOM     48  C   UNL A   1      37.735  29.774  28.525  1.00  0.00     0.031 C 
ATOM     49  C   UNL A   1      44.137  27.339  29.386  1.00  0.00     0.029 A 
ATOM     50  C   UNL A   1      43.910  28.706  29.850  1.00  0.00     0.049 A 
ATOM     51  H   UNL A   1      42.135  29.791  29.777  1.00  0.00     0.167 HD
ATOM     52  C   UNL A   1      38.316  31.915  29.615  1.00  0.00     0.031 A 
ATOM     53  C   UNL A   1      44.837  29.503  30.415  1.00  0.00     0.031 A 
ATOM     54  C   UNL A   1      39.223  32.809  30.275  1.00  0.00     0.049 A 
ATOM     55  C   UNL A   1      44.449  30.882  30.863  1.00  0.00     0.074 A 
ATOM     56  C   UNL A   1      38.960  34.063  30.797  1.00  0.00     0.029 A 
ATOM     57  N   UNL A   1      40.561  32.544  30.509  1.00  0.00    -0.354 N 
ATOM     58  N   UNL A   1      43.275  31.463  30.804  1.00  0.00    -0.248 NA
ATOM     59  C   UNL A   1      45.505  31.716  31.456  1.00  0.00     0.031 C 
ATOM     60  C   UNL A   1      40.153  34.578  31.306  1.00  0.00     0.029 A 
ATOM     61  C   UNL A   1      41.146  33.622  31.145  1.00  0.00     0.049 A 
ATOM     62  H   UNL A   1      41.027  31.713  30.258  1.00  0.00     0.167 HD
ATOM     63  C   UNL A   1      43.445  32.720  31.369  1.00  0.00     0.074 A 
ATOM     64  C   UNL A   1      44.833  32.818  31.770  1.00  0.00     0.031 C 
ATOM     65  C   UNL A   1      42.528  33.701  31.541  1.00  0.00     0.031 A 
BRANCH  52  66
ATOM     66  C   UNL A   1      36.900  32.370  29.417  1.00  0.00    -0.014 A 
ATOM     67  C   UNL A   1      35.943  32.192  30.429  1.00  0.00     0.009 A 
ATOM     68  C   UNL A   1      36.543  33.066  28.252  1.00  0.00     0.009 A 
ATOM     69  C   UNL A   1      34.652  32.699  30.273  1.00  0.00     0.001 A 
ATOM     70  C   UNL A   1      35.257  33.589  28.109  1.00  0.00     0.001 A 
ATOM     71  C   UNL A   1      34.313  33.404  29.118  1.00  0.00     0.000 A 
ENDBRANCH  52  66
BRANCH  53  72
ATOM     72  C   UNL A   1      46.214  28.985  30.619  1.00  0.00    -0.014 A 
ATOM     73  C   UNL A   1      46.543  28.297  31.796  1.00  0.00     0.009 A 
ATOM     74  C   UNL A   1      47.186  29.121  29.616  1.00  0.00     0.009 A 
ATOM     75  C   UNL A   1      47.820  27.756  31.966  1.00  0.00     0.001 A 
ATOM     76  C   UNL A   1      48.456  28.562  29.779  1.00  0.00     0.001 A 
ATOM     77  C   UNL A   1      48.773  27.883  30.955  1.00  0.00     0.000 A 
ENDBRANCH  53  72
BRANCH  65  78
ATOM     78  C   UNL A   1      42.967  34.976  32.198  1.00  0.00    -0.014 A 
ATOM     79  C   UNL A   1      43.554  36.004  31.445  1.00  0.00     0.009 A 
ATOM     80  C   UNL A   1      42.648  35.208  33.546  1.00  0.00     0.009 A 
ATOM     81  C   UNL A   1      43.809  37.245  32.032  1.00  0.00     0.001 A 
ATOM     82  C   UNL A   1      42.884  36.456  34.122  1.00  0.00     0.001 A 
ATOM     83  C   UNL A   1      43.464  37.473  33.364  1.00  0.00     0.000 A 
ENDBRANCH  65  78
ENDBRANCH  39  40
ENDBRANCH  31  34
ENDBRANCH  29  30
ENDBRANCH   1  29
TORSDOF 11
ENDMDL
