MODEL 1
REMARK VINA RESULT:     -10.9      0.000      0.000
REMARK SMILES CCOc1cc(/C=C(/F)C(=O)NCCCNC(=O)c2ccc(-c3c4nc(c(-c5ccccc5)c5ccc([nH]5)c(-c5ccccc5)c5nc(c(-c6ccccc6)c6ccc3[nH]6)C=C5)C=C4)cc2)ccc1O
REMARK SMILES IDX 13 1 12 2 10 3 11 4 8 6 7 7 9 8 6 9 4 10 5 11 69 12 68 13
REMARK SMILES IDX 67 14 3 15 2 16 1 17 70 18 14 20 15 21 16 22 17 23 18 25
REMARK SMILES IDX 19 26 20 27 66 28 21 29 65 30 22 31 23 32 24 33 59 34 25 35
REMARK SMILES IDX 64 36 58 37 60 38 26 39 63 40 57 41 56 42 27 44 49 45 34 46
REMARK SMILES IDX 48 47 35 48 38 49 47 50 61 51 36 52 37 53 46 55 62 56 39 57
REMARK SMILES IDX 28 58 29 59 33 60 30 61 32 62 31 63 50 64 51 65 55 66 52 67
REMARK SMILES IDX 54 68 53 69 40 70 41 71 45 72 42 73 44 74 43 75
REMARK H PARENT 12 5 70 19 16 24 60 43 38 54
REMARK Flexibility Score: inf
ROOT
ATOM      1  C   UNL A   1      36.440  20.375  25.049  1.00  0.00     0.118 C 
ENDROOT
BRANCH   1   2
ATOM      2  N   UNL A   1      36.161  21.735  24.622  1.00  0.00    -0.350 N 
ATOM      3  C   UNL A   1      35.271  22.681  25.035  1.00  0.00     0.280 C 
ATOM      4  O   UNL A   1      35.398  23.797  24.534  1.00  0.00    -0.267 OA
ATOM      5  H   UNL A   1      36.734  22.035  23.880  1.00  0.00     0.163 HD
BRANCH   3   6
ATOM      6  C   UNL A   1      34.211  22.368  26.041  1.00  0.00     0.188 C 
ATOM      7  C   UNL A   1      33.249  21.431  25.984  1.00  0.00     0.053 C 
ATOM      8  F   UNL A   1      34.198  23.162  27.134  1.00  0.00    -0.201 F 
BRANCH   7   9
ATOM      9  C   UNL A   1      32.922  20.395  24.989  1.00  0.00    -0.019 A 
ATOM     10  C   UNL A   1      32.528  18.077  24.290  1.00  0.00     0.161 A 
ATOM     11  C   UNL A   1      32.852  19.025  25.275  1.00  0.00     0.058 A 
ATOM     12  C   UNL A   1      32.195  18.523  23.012  1.00  0.00     0.157 A 
ATOM     13  C   UNL A   1      32.210  19.885  22.717  1.00  0.00     0.051 A 
ATOM     14  C   UNL A   1      32.564  20.814  23.699  1.00  0.00     0.012 A 
BRANCH  10  15
ATOM     15  O   UNL A   1      32.496  16.786  24.743  1.00  0.00    -0.490 OA
BRANCH  15  16
ATOM     16  C   UNL A   1      33.621  16.307  25.479  1.00  0.00     0.226 C 
ATOM     17  C   UNL A   1      34.851  16.393  24.590  1.00  0.00     0.049 C 
ENDBRANCH  15  16
ENDBRANCH  10  15
BRANCH  12  18
ATOM     18  O   UNL A   1      31.778  17.705  22.003  1.00  0.00    -0.504 OA
ATOM     19  H   UNL A   1      31.527  18.070  21.177  1.00  0.00     0.293 HD
ENDBRANCH  12  18
ENDBRANCH   7   9
ENDBRANCH   3   6
ENDBRANCH   1   2
BRANCH   1  20
ATOM     20  C   UNL A   1      37.836  19.895  24.664  1.00  0.00     0.042 C 
BRANCH  20  21
ATOM     21  C   UNL A   1      38.930  20.220  25.680  1.00  0.00     0.118 C 
BRANCH  21  22
ATOM     22  N   UNL A   1      39.958  19.192  25.774  1.00  0.00    -0.352 N 
ATOM     23  C   UNL A   1      41.305  19.286  26.022  1.00  0.00     0.251 C 
ATOM     24  H   UNL A   1      39.630  18.273  25.636  1.00  0.00     0.163 HD
ATOM     25  O   UNL A   1      42.012  18.291  25.912  1.00  0.00    -0.269 OA
BRANCH  23  26
ATOM     26  C   UNL A   1      41.916  20.580  26.393  1.00  0.00     0.039 A 
ATOM     27  C   UNL A   1      42.261  21.473  25.374  1.00  0.00     0.014 A 
ATOM     28  C   UNL A   1      42.172  20.909  27.725  1.00  0.00     0.014 A 
ATOM     29  C   UNL A   1      42.789  22.726  25.696  1.00  0.00     0.010 A 
ATOM     30  C   UNL A   1      42.622  22.187  28.050  1.00  0.00     0.010 A 
ATOM     31  C   UNL A   1      42.932  23.111  27.038  1.00  0.00    -0.014 A 
BRANCH  31  32
ATOM     32  C   UNL A   1      43.384  24.478  27.402  1.00  0.00     0.031 A 
ATOM     33  C   UNL A   1      42.392  25.523  27.832  1.00  0.00     0.074 A 
ATOM     34  C   UNL A   1      44.688  24.800  27.281  1.00  0.00     0.049 A 
ATOM     35  N   UNL A   1      42.597  26.781  28.133  1.00  0.00    -0.248 NA
ATOM     36  C   UNL A   1      40.982  25.109  27.913  1.00  0.00     0.031 C 
ATOM     37  C   UNL A   1      45.747  23.891  26.835  1.00  0.00     0.029 A 
ATOM     38  N   UNL A   1      45.344  25.983  27.516  1.00  0.00    -0.354 N 
ATOM     39  C   UNL A   1      41.345  27.311  28.419  1.00  0.00     0.074 A 
ATOM     40  C   UNL A   1      40.382  26.252  28.210  1.00  0.00     0.031 C 
ATOM     41  C   UNL A   1      46.921  24.541  26.857  1.00  0.00     0.029 A 
ATOM     42  C   UNL A   1      46.695  25.921  27.271  1.00  0.00     0.049 A 
ATOM     43  H   UNL A   1      44.889  26.797  27.831  1.00  0.00     0.167 HD
ATOM     44  C   UNL A   1      41.027  28.561  28.830  1.00  0.00     0.031 A 
ATOM     45  C   UNL A   1      47.646  26.870  27.359  1.00  0.00     0.031 A 
ATOM     46  C   UNL A   1      41.987  29.612  29.045  1.00  0.00     0.049 A 
ATOM     47  C   UNL A   1      47.264  28.255  27.806  1.00  0.00     0.074 A 
ATOM     48  C   UNL A   1      41.767  30.892  29.524  1.00  0.00     0.029 A 
ATOM     49  N   UNL A   1      43.344  29.507  28.789  1.00  0.00    -0.354 N 
ATOM     50  N   UNL A   1      46.085  28.718  28.141  1.00  0.00    -0.248 NA
ATOM     51  C   UNL A   1      48.349  29.241  27.899  1.00  0.00     0.031 C 
ATOM     52  C   UNL A   1      42.982  31.583  29.497  1.00  0.00     0.029 A 
ATOM     53  C   UNL A   1      43.971  30.711  29.069  1.00  0.00     0.049 A 
ATOM     54  H   UNL A   1      43.797  28.699  28.458  1.00  0.00     0.167 HD
ATOM     55  C   UNL A   1      46.290  30.042  28.510  1.00  0.00     0.074 A 
ATOM     56  C   UNL A   1      47.708  30.300  28.375  1.00  0.00     0.031 C 
ATOM     57  C   UNL A   1      45.382  30.959  28.925  1.00  0.00     0.031 A 
BRANCH  44  58
ATOM     58  C   UNL A   1      39.573  28.869  29.064  1.00  0.00    -0.014 A 
ATOM     59  C   UNL A   1      38.984  28.709  30.329  1.00  0.00     0.009 A 
ATOM     60  C   UNL A   1      38.792  29.376  28.013  1.00  0.00     0.009 A 
ATOM     61  C   UNL A   1      37.636  29.015  30.527  1.00  0.00     0.001 A 
ATOM     62  C   UNL A   1      37.454  29.713  28.222  1.00  0.00     0.001 A 
ATOM     63  C   UNL A   1      36.874  29.523  29.476  1.00  0.00     0.000 A 
ENDBRANCH  44  58
BRANCH  45  64
ATOM     64  C   UNL A   1      49.056  26.541  27.024  1.00  0.00    -0.014 A 
ATOM     65  C   UNL A   1      49.522  26.655  25.705  1.00  0.00     0.009 A 
ATOM     66  C   UNL A   1      49.947  26.116  28.022  1.00  0.00     0.009 A 
ATOM     67  C   UNL A   1      50.842  26.328  25.388  1.00  0.00     0.001 A 
ATOM     68  C   UNL A   1      51.274  25.819  27.709  1.00  0.00     0.001 A 
ATOM     69  C   UNL A   1      51.719  25.916  26.392  1.00  0.00     0.000 A 
ENDBRANCH  45  64
BRANCH  57  70
ATOM     70  C   UNL A   1      45.899  32.321  29.298  1.00  0.00    -0.014 A 
ATOM     71  C   UNL A   1      46.350  32.604  30.597  1.00  0.00     0.009 A 
ATOM     72  C   UNL A   1      45.979  33.324  28.319  1.00  0.00     0.009 A 
ATOM     73  C   UNL A   1      46.836  33.875  30.914  1.00  0.00     0.001 A 
ATOM     74  C   UNL A   1      46.495  34.582  28.630  1.00  0.00     0.001 A 
ATOM     75  C   UNL A   1      46.914  34.859  29.930  1.00  0.00     0.000 A 
ENDBRANCH  57  70
ENDBRANCH  31  32
ENDBRANCH  23  26
ENDBRANCH  21  22
ENDBRANCH  20  21
ENDBRANCH   1  20
TORSDOF 14
ENDMDL
MODEL 2
REMARK VINA RESULT:     -10.8      6.246     10.302
REMARK SMILES CCOc1cc(/C=C(/F)C(=O)NCCCNC(=O)c2ccc(-c3c4nc(c(-c5ccccc5)c5ccc([nH]5)c(-c5ccccc5)c5nc(c(-c6ccccc6)c6ccc3[nH]6)C=C5)C=C4)cc2)ccc1O
REMARK SMILES IDX 13 1 12 2 10 3 11 4 8 6 7 7 9 8 6 9 4 10 5 11 69 12 68 13
REMARK SMILES IDX 67 14 3 15 2 16 1 17 70 18 14 20 15 21 16 22 17 23 18 25
REMARK SMILES IDX 19 26 20 27 66 28 21 29 65 30 22 31 23 32 24 33 59 34 25 35
REMARK SMILES IDX 64 36 58 37 60 38 26 39 63 40 57 41 56 42 27 44 49 45 34 46
REMARK SMILES IDX 48 47 35 48 38 49 47 50 61 51 36 52 37 53 46 55 62 56 39 57
REMARK SMILES IDX 28 58 29 59 33 60 30 61 32 62 31 63 50 64 51 65 55 66 52 67
REMARK SMILES IDX 54 68 53 69 40 70 41 71 45 72 42 73 44 74 43 75
REMARK H PARENT 12 5 70 19 16 24 60 43 38 54
REMARK Flexibility Score: inf
ROOT
ATOM      1  C   UNL A   1      31.365  30.850  26.182  1.00  0.00     0.118 C 
ENDROOT
BRANCH   1   2
ATOM      2  N   UNL A   1      32.665  30.262  26.457  1.00  0.00    -0.350 N 
ATOM      3  C   UNL A   1      33.065  29.018  26.847  1.00  0.00     0.280 C 
ATOM      4  O   UNL A   1      34.279  28.820  26.858  1.00  0.00    -0.267 OA
ATOM      5  H   UNL A   1      33.411  30.892  26.340  1.00  0.00     0.163 HD
BRANCH   3   6
ATOM      6  C   UNL A   1      32.076  27.965  27.229  1.00  0.00     0.188 C 
ATOM      7  C   UNL A   1      31.367  27.149  26.430  1.00  0.00     0.053 C 
ATOM      8  F   UNL A   1      31.837  27.848  28.554  1.00  0.00    -0.201 F 
BRANCH   7   9
ATOM      9  C   UNL A   1      31.329  26.968  24.968  1.00  0.00    -0.019 A 
ATOM     10  C   UNL A   1      30.630  27.594  22.702  1.00  0.00     0.161 A 
ATOM     11  C   UNL A   1      30.628  27.807  24.091  1.00  0.00     0.058 A 
ATOM     12  C   UNL A   1      31.413  26.565  22.181  1.00  0.00     0.157 A 
ATOM     13  C   UNL A   1      32.156  25.748  23.030  1.00  0.00     0.051 A 
ATOM     14  C   UNL A   1      32.120  25.952  24.412  1.00  0.00     0.012 A 
BRANCH  10  15
ATOM     15  O   UNL A   1      29.902  28.511  21.994  1.00  0.00    -0.490 OA
BRANCH  15  16
ATOM     16  C   UNL A   1      29.407  29.655  22.690  1.00  0.00     0.226 C 
ATOM     17  C   UNL A   1      27.908  29.749  22.457  1.00  0.00     0.049 C 
ENDBRANCH  15  16
ENDBRANCH  10  15
BRANCH  12  18
ATOM     18  O   UNL A   1      31.563  26.321  20.846  1.00  0.00    -0.504 OA
ATOM     19  H   UNL A   1      32.410  26.390  20.450  1.00  0.00     0.293 HD
ENDBRANCH  12  18
ENDBRANCH   7   9
ENDBRANCH   3   6
ENDBRANCH   1   2
BRANCH   1  20
ATOM     20  C   UNL A   1      31.309  32.347  26.464  1.00  0.00     0.042 C 
BRANCH  20  21
ATOM     21  C   UNL A   1      32.537  32.916  27.172  1.00  0.00     0.118 C 
BRANCH  21  22
ATOM     22  N   UNL A   1      32.347  34.275  27.662  1.00  0.00    -0.352 N 
ATOM     23  C   UNL A   1      32.997  34.975  28.649  1.00  0.00     0.251 C 
ATOM     24  H   UNL A   1      31.631  34.776  27.208  1.00  0.00     0.163 HD
ATOM     25  O   UNL A   1      32.570  36.069  28.996  1.00  0.00    -0.269 OA
BRANCH  23  26
ATOM     26  C   UNL A   1      34.188  34.408  29.317  1.00  0.00     0.039 A 
ATOM     27  C   UNL A   1      34.022  33.761  30.545  1.00  0.00     0.014 A 
ATOM     28  C   UNL A   1      35.462  34.529  28.760  1.00  0.00     0.014 A 
ATOM     29  C   UNL A   1      35.119  33.168  31.173  1.00  0.00     0.010 A 
ATOM     30  C   UNL A   1      36.541  33.869  29.344  1.00  0.00     0.010 A 
ATOM     31  C   UNL A   1      36.380  33.178  30.556  1.00  0.00    -0.014 A 
BRANCH  31  32
ATOM     32  C   UNL A   1      37.534  32.457  31.152  1.00  0.00     0.031 A 
ATOM     33  C   UNL A   1      38.164  32.944  32.427  1.00  0.00     0.074 A 
ATOM     34  C   UNL A   1      38.059  31.398  30.505  1.00  0.00     0.049 A 
ATOM     35  N   UNL A   1      39.209  32.475  33.062  1.00  0.00    -0.248 NA
ATOM     36  C   UNL A   1      37.556  34.124  33.062  1.00  0.00     0.031 C 
ATOM     37  C   UNL A   1      37.569  30.849  29.238  1.00  0.00     0.029 A 
ATOM     38  N   UNL A   1      39.128  30.595  30.821  1.00  0.00    -0.354 N 
ATOM     39  C   UNL A   1      39.396  33.312  34.155  1.00  0.00     0.074 A 
ATOM     40  C   UNL A   1      38.385  34.344  34.073  1.00  0.00     0.031 C 
ATOM     41  C   UNL A   1      38.315  29.785  28.901  1.00  0.00     0.029 A 
ATOM     42  C   UNL A   1      39.363  29.604  29.900  1.00  0.00     0.049 A 
ATOM     43  H   UNL A   1      39.672  30.719  31.632  1.00  0.00     0.167 HD
ATOM     44  C   UNL A   1      40.314  33.223  35.146  1.00  0.00     0.031 A 
ATOM     45  C   UNL A   1      40.322  28.659  29.854  1.00  0.00     0.031 A 
ATOM     46  C   UNL A   1      41.315  32.191  35.232  1.00  0.00     0.049 A 
ATOM     47  C   UNL A   1      41.339  28.589  30.959  1.00  0.00     0.074 A 
ATOM     48  C   UNL A   1      42.248  31.980  36.232  1.00  0.00     0.029 A 
ATOM     49  N   UNL A   1      41.517  31.204  34.280  1.00  0.00    -0.354 N 
ATOM     50  N   UNL A   1      41.455  29.345  32.023  1.00  0.00    -0.248 NA
ATOM     51  C   UNL A   1      42.348  27.525  30.862  1.00  0.00     0.031 C 
ATOM     52  C   UNL A   1      43.056  30.903  35.855  1.00  0.00     0.029 A 
ATOM     53  C   UNL A   1      42.582  30.400  34.654  1.00  0.00     0.049 A 
ATOM     54  H   UNL A   1      40.984  31.091  33.461  1.00  0.00     0.167 HD
ATOM     55  C   UNL A   1      42.533  28.834  32.735  1.00  0.00     0.074 A 
ATOM     56  C   UNL A   1      43.022  27.692  31.991  1.00  0.00     0.031 C 
ATOM     57  C   UNL A   1      43.065  29.270  33.903  1.00  0.00     0.031 A 
BRANCH  44  58
ATOM     58  C   UNL A   1      40.292  34.280  36.215  1.00  0.00    -0.014 A 
ATOM     59  C   UNL A   1      41.045  35.459  36.095  1.00  0.00     0.009 A 
ATOM     60  C   UNL A   1      39.466  34.116  37.338  1.00  0.00     0.009 A 
ATOM     61  C   UNL A   1      40.998  36.435  37.093  1.00  0.00     0.001 A 
ATOM     62  C   UNL A   1      39.396  35.108  38.319  1.00  0.00     0.001 A 
ATOM     63  C   UNL A   1      40.169  36.262  38.200  1.00  0.00     0.000 A 
ENDBRANCH  44  58
BRANCH  45  64
ATOM     64  C   UNL A   1      40.360  27.695  28.723  1.00  0.00    -0.014 A 
ATOM     65  C   UNL A   1      39.658  26.481  28.794  1.00  0.00     0.009 A 
ATOM     66  C   UNL A   1      41.095  27.985  27.562  1.00  0.00     0.009 A 
ATOM     67  C   UNL A   1      39.711  25.569  27.738  1.00  0.00     0.001 A 
ATOM     68  C   UNL A   1      41.122  27.085  26.495  1.00  0.00     0.001 A 
ATOM     69  C   UNL A   1      40.438  25.874  26.587  1.00  0.00     0.000 A 
ENDBRANCH  45  64
BRANCH  57  70
ATOM     70  C   UNL A   1      44.220  28.491  34.469  1.00  0.00    -0.014 A 
ATOM     71  C   UNL A   1      45.549  28.835  34.177  1.00  0.00     0.009 A 
ATOM     72  C   UNL A   1      43.972  27.424  35.346  1.00  0.00     0.009 A 
ATOM     73  C   UNL A   1      46.605  28.102  34.725  1.00  0.00     0.001 A 
ATOM     74  C   UNL A   1      45.028  26.714  35.919  1.00  0.00     0.001 A 
ATOM     75  C   UNL A   1      46.343  27.047  35.600  1.00  0.00     0.000 A 
ENDBRANCH  57  70
ENDBRANCH  31  32
ENDBRANCH  23  26
ENDBRANCH  21  22
ENDBRANCH  20  21
ENDBRANCH   1  20
TORSDOF 14
ENDMDL
MODEL 3
REMARK VINA RESULT:     -10.8      6.662     11.190
REMARK SMILES CCOc1cc(/C=C(/F)C(=O)NCCCNC(=O)c2ccc(-c3c4nc(c(-c5ccccc5)c5ccc([nH]5)c(-c5ccccc5)c5nc(c(-c6ccccc6)c6ccc3[nH]6)C=C5)C=C4)cc2)ccc1O
REMARK SMILES IDX 13 1 12 2 10 3 11 4 8 6 7 7 9 8 6 9 4 10 5 11 69 12 68 13
REMARK SMILES IDX 67 14 3 15 2 16 1 17 70 18 14 20 15 21 16 22 17 23 18 25
REMARK SMILES IDX 19 26 20 27 66 28 21 29 65 30 22 31 23 32 24 33 59 34 25 35
REMARK SMILES IDX 64 36 58 37 60 38 26 39 63 40 57 41 56 42 27 44 49 45 34 46
REMARK SMILES IDX 48 47 35 48 38 49 47 50 61 51 36 52 37 53 46 55 62 56 39 57
REMARK SMILES IDX 28 58 29 59 33 60 30 61 32 62 31 63 50 64 51 65 55 66 52 67
REMARK SMILES IDX 54 68 53 69 40 70 41 71 45 72 42 73 44 74 43 75
REMARK H PARENT 12 5 70 19 16 24 60 43 38 54
REMARK Flexibility Score: inf
ROOT
ATOM      1  C   UNL A   1      31.501  30.836  25.767  1.00  0.00     0.118 C 
ENDROOT
BRANCH   1   2
ATOM      2  N   UNL A   1      31.895  29.543  26.301  1.00  0.00    -0.350 N 
ATOM      3  C   UNL A   1      32.499  28.451  25.754  1.00  0.00     0.280 C 
ATOM      4  O   UNL A   1      32.813  27.558  26.540  1.00  0.00    -0.267 OA
ATOM      5  H   UNL A   1      31.678  29.434  27.254  1.00  0.00     0.163 HD
BRANCH   3   6
ATOM      6  C   UNL A   1      32.765  28.359  24.287  1.00  0.00     0.188 C 
ATOM      7  C   UNL A   1      31.885  28.361  23.272  1.00  0.00     0.053 C 
ATOM      8  F   UNL A   1      34.064  28.214  23.942  1.00  0.00    -0.201 F 
BRANCH   7   9
ATOM      9  C   UNL A   1      30.417  28.489  23.223  1.00  0.00    -0.019 A 
ATOM     10  C   UNL A   1      28.341  29.694  22.724  1.00  0.00     0.161 A 
ATOM     11  C   UNL A   1      29.743  29.626  22.756  1.00  0.00     0.058 A 
ATOM     12  C   UNL A   1      27.604  28.571  23.097  1.00  0.00     0.157 A 
ATOM     13  C   UNL A   1      28.254  27.413  23.519  1.00  0.00     0.051 A 
ATOM     14  C   UNL A   1      29.649  27.370  23.575  1.00  0.00     0.012 A 
BRANCH  10  15
ATOM     15  O   UNL A   1      27.848  30.872  22.232  1.00  0.00    -0.490 OA
BRANCH  15  16
ATOM     16  C   UNL A   1      28.112  31.188  20.865  1.00  0.00     0.226 C 
ATOM     17  C   UNL A   1      27.773  32.652  20.634  1.00  0.00     0.049 C 
ENDBRANCH  15  16
ENDBRANCH  10  15
BRANCH  12  18
ATOM     18  O   UNL A   1      26.244  28.491  23.021  1.00  0.00    -0.504 OA
ATOM     19  H   UNL A   1      25.714  29.194  23.343  1.00  0.00     0.293 HD
ENDBRANCH  12  18
ENDBRANCH   7   9
ENDBRANCH   3   6
ENDBRANCH   1   2
BRANCH   1  20
ATOM     20  C   UNL A   1      31.342  31.909  26.839  1.00  0.00     0.042 C 
BRANCH  20  21
ATOM     21  C   UNL A   1      32.617  32.682  27.170  1.00  0.00     0.118 C 
BRANCH  21  22
ATOM     22  N   UNL A   1      32.370  34.058  27.582  1.00  0.00    -0.352 N 
ATOM     23  C   UNL A   1      32.997  34.843  28.519  1.00  0.00     0.251 C 
ATOM     24  H   UNL A   1      31.628  34.499  27.108  1.00  0.00     0.163 HD
ATOM     25  O   UNL A   1      32.525  35.936  28.806  1.00  0.00    -0.269 OA
BRANCH  23  26
ATOM     26  C   UNL A   1      34.218  34.370  29.205  1.00  0.00     0.039 A 
ATOM     27  C   UNL A   1      34.082  33.676  30.411  1.00  0.00     0.014 A 
ATOM     28  C   UNL A   1      35.489  34.624  28.687  1.00  0.00     0.014 A 
ATOM     29  C   UNL A   1      35.214  33.169  31.054  1.00  0.00     0.010 A 
ATOM     30  C   UNL A   1      36.610  34.051  29.284  1.00  0.00     0.010 A 
ATOM     31  C   UNL A   1      36.483  33.313  30.473  1.00  0.00    -0.014 A 
BRANCH  31  32
ATOM     32  C   UNL A   1      37.684  32.685  31.081  1.00  0.00     0.031 A 
ATOM     33  C   UNL A   1      38.307  31.466  30.460  1.00  0.00     0.074 A 
ATOM     34  C   UNL A   1      38.175  33.176  32.237  1.00  0.00     0.049 A 
ATOM     35  N   UNL A   1      39.322  30.753  30.882  1.00  0.00    -0.248 NA
ATOM     36  C   UNL A   1      37.700  30.968  29.216  1.00  0.00     0.031 C 
ATOM     37  C   UNL A   1      37.638  34.329  32.965  1.00  0.00     0.029 A 
ATOM     38  N   UNL A   1      39.234  32.763  33.007  1.00  0.00    -0.354 N 
ATOM     39  C   UNL A   1      39.460  29.715  29.969  1.00  0.00     0.074 A 
ATOM     40  C   UNL A   1      38.399  29.864  28.998  1.00  0.00     0.031 C 
ATOM     41  C   UNL A   1      38.387  34.547  34.057  1.00  0.00     0.029 A 
ATOM     42  C   UNL A   1      39.426  33.526  34.134  1.00  0.00     0.049 A 
ATOM     43  H   UNL A   1      39.802  31.994  32.772  1.00  0.00     0.167 HD
ATOM     44  C   UNL A   1      40.394  28.735  29.934  1.00  0.00     0.031 A 
ATOM     45  C   UNL A   1      40.329  33.412  35.126  1.00  0.00     0.031 A 
ATOM     46  C   UNL A   1      41.455  28.592  30.896  1.00  0.00     0.049 A 
ATOM     47  C   UNL A   1      41.348  32.307  35.071  1.00  0.00     0.074 A 
ATOM     48  C   UNL A   1      42.487  27.671  30.907  1.00  0.00     0.029 A 
ATOM     49  N   UNL A   1      41.616  29.387  32.020  1.00  0.00    -0.354 N 
ATOM     50  N   UNL A   1      41.508  31.377  34.161  1.00  0.00    -0.248 NA
ATOM     51  C   UNL A   1      42.317  32.245  36.173  1.00  0.00     0.031 C 
ATOM     52  C   UNL A   1      43.236  27.866  32.072  1.00  0.00     0.029 A 
ATOM     53  C   UNL A   1      42.712  28.956  32.750  1.00  0.00     0.049 A 
ATOM     54  H   UNL A   1      41.038  30.145  32.264  1.00  0.00     0.167 HD
ATOM     55  C   UNL A   1      42.611  30.636  34.567  1.00  0.00     0.074 A 
ATOM     56  C   UNL A   1      43.091  31.238  35.794  1.00  0.00     0.031 C 
ATOM     57  C   UNL A   1      43.177  29.557  33.973  1.00  0.00     0.031 A 
BRANCH  44  58
ATOM     58  C   UNL A   1      40.304  27.726  28.822  1.00  0.00    -0.014 A 
ATOM     59  C   UNL A   1      40.969  27.921  27.601  1.00  0.00     0.009 A 
ATOM     60  C   UNL A   1      39.583  26.537  29.019  1.00  0.00     0.009 A 
ATOM     61  C   UNL A   1      40.884  26.963  26.587  1.00  0.00     0.001 A 
ATOM     62  C   UNL A   1      39.528  25.567  28.016  1.00  0.00     0.001 A 
ATOM     63  C   UNL A   1      40.170  25.785  26.798  1.00  0.00     0.000 A 
ENDBRANCH  44  58
BRANCH  45  64
ATOM     64  C   UNL A   1      40.317  34.378  36.255  1.00  0.00    -0.014 A 
ATOM     65  C   UNL A   1      39.559  34.119  37.409  1.00  0.00     0.009 A 
ATOM     66  C   UNL A   1      41.067  35.563  36.190  1.00  0.00     0.009 A 
ATOM     67  C   UNL A   1      39.534  35.037  38.461  1.00  0.00     0.001 A 
ATOM     68  C   UNL A   1      41.064  36.465  37.256  1.00  0.00     0.001 A 
ATOM     69  C   UNL A   1      40.291  36.206  38.386  1.00  0.00     0.000 A 
ENDBRANCH  45  64
BRANCH  57  70
ATOM     70  C   UNL A   1      44.401  28.974  34.623  1.00  0.00    -0.014 A 
ATOM     71  C   UNL A   1      45.687  29.449  34.324  1.00  0.00     0.009 A 
ATOM     72  C   UNL A   1      44.258  27.963  35.587  1.00  0.00     0.009 A 
ATOM     73  C   UNL A   1      46.807  28.898  34.950  1.00  0.00     0.001 A 
ATOM     74  C   UNL A   1      45.376  27.437  36.236  1.00  0.00     0.001 A 
ATOM     75  C   UNL A   1      46.650  27.898  35.909  1.00  0.00     0.000 A 
ENDBRANCH  57  70
ENDBRANCH  31  32
ENDBRANCH  23  26
ENDBRANCH  21  22
ENDBRANCH  20  21
ENDBRANCH   1  20
TORSDOF 14
ENDMDL
