MODEL 1
REMARK VINA RESULT:     -11.5      0.000      0.000
REMARK SMILES O=C(NCCCNC(=O)[C@@H](CO)NC(=O)[C@H]1CCCc2ccccc21)c1ccc(-c2c3nc(c(-c4ccccc4)c4ccc([nH]4)c(-c4ccccc4)c4nc(c(-c5ccccc5)c5ccc2[nH]5)C=C4)C=C3)cc1
REMARK SMILES IDX 5 1 4 2 3 3 1 4 2 5 26 7 27 8 73 9 28 10 72 11 29 12 30 13
REMARK SMILES IDX 31 14 66 15 32 16 71 17 65 18 67 19 33 20 70 21 64 22 63 23
REMARK SMILES IDX 34 25 56 26 41 27 55 28 42 29 45 30 54 31 68 32 43 33 44 34
REMARK SMILES IDX 53 36 69 37 46 38 35 39 36 40 40 41 37 42 39 43 38 44 57 45
REMARK SMILES IDX 58 46 62 47 59 48 61 49 60 50 47 51 48 52 52 53 49 54 51 55
REMARK SMILES IDX 50 56 6 57 7 58 8 59 9 61 10 62 11 63 12 64 13 66 14 67
REMARK SMILES IDX 15 69 16 70 17 71 25 72 18 73 20 74 24 75 19 76 21 77 23 78
REMARK SMILES IDX 22 79
REMARK H PARENT 3 6 67 24 45 35 7 60 12 65 13 68
REMARK Flexibility Score: inf
ROOT
ATOM      1  C   UNL A   1      34.048  28.346  25.814  1.00  0.00     0.042 C 
ENDROOT
BRANCH   1   2
ATOM      2  C   UNL A   1      33.727  28.558  27.283  1.00  0.00     0.118 C 
BRANCH   2   3
ATOM      3  N   UNL A   1      33.633  29.968  27.634  1.00  0.00    -0.352 N 
ATOM      4  O   UNL A   1      34.204  31.890  28.663  1.00  0.00    -0.269 OA
ATOM      5  C   UNL A   1      34.543  30.777  28.268  1.00  0.00     0.251 C 
ATOM      6  H   UNL A   1      32.790  30.408  27.377  1.00  0.00     0.163 HD
BRANCH   5   7
ATOM      7  C   UNL A   1      35.926  30.306  28.493  1.00  0.00     0.039 A 
ATOM      8  C   UNL A   1      36.895  30.446  27.498  1.00  0.00     0.014 A 
ATOM      9  C   UNL A   1      36.269  29.741  29.725  1.00  0.00     0.014 A 
ATOM     10  C   UNL A   1      38.149  29.877  27.668  1.00  0.00     0.010 A 
ATOM     11  C   UNL A   1      37.569  29.277  29.940  1.00  0.00     0.010 A 
ATOM     12  C   UNL A   1      38.514  29.320  28.903  1.00  0.00    -0.014 A 
BRANCH  12  13
ATOM     13  C   UNL A   1      39.920  28.889  29.109  1.00  0.00     0.031 A 
ATOM     14  C   UNL A   1      40.933  29.793  29.751  1.00  0.00     0.074 A 
ATOM     15  C   UNL A   1      40.268  27.645  28.723  1.00  0.00     0.049 A 
ATOM     16  N   UNL A   1      42.195  29.557  30.009  1.00  0.00    -0.248 NA
ATOM     17  C   UNL A   1      40.481  31.135  30.149  1.00  0.00     0.031 C 
ATOM     18  C   UNL A   1      39.370  26.677  28.084  1.00  0.00     0.029 A 
ATOM     19  N   UNL A   1      41.457  26.972  28.829  1.00  0.00    -0.354 N 
ATOM     20  C   UNL A   1      42.694  30.722  30.577  1.00  0.00     0.074 A 
ATOM     21  C   UNL A   1      41.604  31.674  30.605  1.00  0.00     0.031 C 
ATOM     22  C   UNL A   1      40.022  25.521  27.908  1.00  0.00     0.029 A 
ATOM     23  C   UNL A   1      41.402  25.689  28.341  1.00  0.00     0.049 A 
ATOM     24  H   UNL A   1      42.271  27.368  29.214  1.00  0.00     0.167 HD
ATOM     25  C   UNL A   1      43.945  30.972  31.034  1.00  0.00     0.031 A 
ATOM     26  C   UNL A   1      42.361  24.752  28.228  1.00  0.00     0.031 A 
ATOM     27  C   UNL A   1      45.027  30.021  30.993  1.00  0.00     0.049 A 
ATOM     28  C   UNL A   1      43.747  25.076  28.696  1.00  0.00     0.074 A 
ATOM     29  C   UNL A   1      46.323  30.170  31.457  1.00  0.00     0.029 A 
ATOM     30  N   UNL A   1      44.943  28.748  30.450  1.00  0.00    -0.354 N 
ATOM     31  N   UNL A   1      44.191  26.171  29.264  1.00  0.00    -0.248 NA
ATOM     32  C   UNL A   1      44.765  24.035  28.508  1.00  0.00     0.031 C 
ATOM     33  C   UNL A   1      47.039  29.012  31.138  1.00  0.00     0.029 A 
ATOM     34  C   UNL A   1      46.171  28.113  30.539  1.00  0.00     0.049 A 
ATOM     35  H   UNL A   1      44.130  28.353  30.059  1.00  0.00     0.167 HD
ATOM     36  C   UNL A   1      45.535  25.944  29.519  1.00  0.00     0.074 A 
ATOM     37  C   UNL A   1      45.826  24.599  29.066  1.00  0.00     0.031 C 
ATOM     38  C   UNL A   1      46.448  26.776  30.077  1.00  0.00     0.031 A 
BRANCH  25  39
ATOM     39  C   UNL A   1      44.225  32.343  31.588  1.00  0.00    -0.014 A 
ATOM     40  C   UNL A   1      44.653  33.395  30.763  1.00  0.00     0.009 A 
ATOM     41  C   UNL A   1      44.010  32.599  32.952  1.00  0.00     0.009 A 
ATOM     42  C   UNL A   1      44.891  34.663  31.298  1.00  0.00     0.001 A 
ATOM     43  C   UNL A   1      44.220  33.875  33.478  1.00  0.00     0.001 A 
ATOM     44  C   UNL A   1      44.669  34.904  32.653  1.00  0.00     0.000 A 
ENDBRANCH  25  39
BRANCH  26  45
ATOM     45  C   UNL A   1      42.041  23.434  27.621  1.00  0.00    -0.014 A 
ATOM     46  C   UNL A   1      42.309  23.184  26.267  1.00  0.00     0.009 A 
ATOM     47  C   UNL A   1      41.474  22.412  28.400  1.00  0.00     0.009 A 
ATOM     48  C   UNL A   1      41.993  21.947  25.702  1.00  0.00     0.001 A 
ATOM     49  C   UNL A   1      41.192  21.165  27.841  1.00  0.00     0.001 A 
ATOM     50  C   UNL A   1      41.442  20.937  26.490  1.00  0.00     0.000 A 
ENDBRANCH  26  45
BRANCH  38  51
ATOM     51  C   UNL A   1      47.838  26.237  30.260  1.00  0.00    -0.014 A 
ATOM     52  C   UNL A   1      48.264  25.714  31.491  1.00  0.00     0.009 A 
ATOM     53  C   UNL A   1      48.728  26.233  29.175  1.00  0.00     0.009 A 
ATOM     54  C   UNL A   1      49.566  25.233  31.640  1.00  0.00     0.001 A 
ATOM     55  C   UNL A   1      50.018  25.722  29.317  1.00  0.00     0.001 A 
ATOM     56  C   UNL A   1      50.439  25.232  30.552  1.00  0.00     0.000 A 
ENDBRANCH  38  51
ENDBRANCH  12  13
ENDBRANCH   5   7
ENDBRANCH   2   3
ENDBRANCH   1   2
BRANCH   1  57
ATOM     57  C   UNL A   1      33.255  29.252  24.882  1.00  0.00     0.117 C 
BRANCH  57  58
ATOM     58  N   UNL A   1      33.680  29.104  23.499  1.00  0.00    -0.354 N 
ATOM     59  C   UNL A   1      33.516  28.102  22.596  1.00  0.00     0.244 C 
ATOM     60  H   UNL A   1      34.182  29.876  23.150  1.00  0.00     0.163 HD
ATOM     61  O   UNL A   1      34.258  28.133  21.606  1.00  0.00    -0.273 OA
BRANCH  59  62
ATOM     62  C   UNL A   1      32.572  26.905  22.803  1.00  0.00     0.197 C 
BRANCH  62  63
ATOM     63  C   UNL A   1      31.103  27.331  22.879  1.00  0.00     0.191 C 
BRANCH  63  64
ATOM     64  O   UNL A   1      30.666  27.982  21.691  1.00  0.00    -0.394 OA
ATOM     65  H   UNL A   1      30.959  27.475  20.917  1.00  0.00     0.210 HD
ENDBRANCH  63  64
ENDBRANCH  62  63
BRANCH  62  66
ATOM     66  N   UNL A   1      32.794  25.806  21.864  1.00  0.00    -0.342 N 
ATOM     67  C   UNL A   1      33.138  24.509  22.081  1.00  0.00     0.228 C 
ATOM     68  H   UNL A   1      32.674  26.045  20.916  1.00  0.00     0.164 HD
ATOM     69  O   UNL A   1      33.418  23.828  21.092  1.00  0.00    -0.274 OA
BRANCH  67  70
ATOM     70  C   UNL A   1      33.094  23.925  23.492  1.00  0.00     0.109 C 
ATOM     71  C   UNL A   1      31.735  23.215  23.627  1.00  0.00     0.018 C 
ATOM     72  C   UNL A   1      34.286  23.041  23.813  1.00  0.00    -0.032 A 
ATOM     73  C   UNL A   1      31.689  22.381  24.897  1.00  0.00     0.006 C 
ATOM     74  C   UNL A   1      34.119  21.814  24.485  1.00  0.00    -0.044 A 
ATOM     75  C   UNL A   1      35.588  23.493  23.532  1.00  0.00     0.005 A 
ATOM     76  C   UNL A   1      32.749  21.286  24.838  1.00  0.00     0.036 C 
ATOM     77  C   UNL A   1      35.246  21.039  24.798  1.00  0.00     0.004 A 
ATOM     78  C   UNL A   1      36.700  22.721  23.865  1.00  0.00     0.000 A 
ATOM     79  C   UNL A   1      36.528  21.490  24.489  1.00  0.00     0.000 A 
ENDBRANCH  67  70
ENDBRANCH  62  66
ENDBRANCH  59  62
ENDBRANCH  57  58
ENDBRANCH   1  57
TORSDOF 14
ENDMDL
MODEL 2
REMARK VINA RESULT:     -11.4      0.247      6.018
REMARK SMILES O=C(NCCCNC(=O)[C@@H](CO)NC(=O)[C@H]1CCCc2ccccc21)c1ccc(-c2c3nc(c(-c4ccccc4)c4ccc([nH]4)c(-c4ccccc4)c4nc(c(-c5ccccc5)c5ccc2[nH]5)C=C4)C=C3)cc1
REMARK SMILES IDX 5 1 4 2 3 3 1 4 2 5 26 7 27 8 73 9 28 10 72 11 29 12 30 13
REMARK SMILES IDX 31 14 66 15 32 16 71 17 65 18 67 19 33 20 70 21 64 22 63 23
REMARK SMILES IDX 34 25 56 26 41 27 55 28 42 29 45 30 54 31 68 32 43 33 44 34
REMARK SMILES IDX 53 36 69 37 46 38 35 39 36 40 40 41 37 42 39 43 38 44 57 45
REMARK SMILES IDX 58 46 62 47 59 48 61 49 60 50 47 51 48 52 52 53 49 54 51 55
REMARK SMILES IDX 50 56 6 57 7 58 8 59 9 61 10 62 11 63 12 64 13 66 14 67
REMARK SMILES IDX 15 69 16 70 17 71 25 72 18 73 20 74 24 75 19 76 21 77 23 78
REMARK SMILES IDX 22 79
REMARK H PARENT 3 6 67 24 45 35 7 60 12 65 13 68
REMARK Flexibility Score: inf
ROOT
ATOM      1  C   UNL A   1      34.026  28.379  25.780  1.00  0.00     0.042 C 
ENDROOT
BRANCH   1   2
ATOM      2  C   UNL A   1      33.690  28.562  27.250  1.00  0.00     0.118 C 
BRANCH   2   3
ATOM      3  N   UNL A   1      33.618  29.964  27.636  1.00  0.00    -0.352 N 
ATOM      4  O   UNL A   1      34.224  31.852  28.706  1.00  0.00    -0.269 OA
ATOM      5  C   UNL A   1      34.544  30.744  28.283  1.00  0.00     0.251 C 
ATOM      6  H   UNL A   1      32.781  30.422  27.394  1.00  0.00     0.163 HD
BRANCH   5   7
ATOM      7  C   UNL A   1      35.921  30.248  28.488  1.00  0.00     0.039 A 
ATOM      8  C   UNL A   1      36.886  30.399  27.491  1.00  0.00     0.014 A 
ATOM      9  C   UNL A   1      36.263  29.648  29.704  1.00  0.00     0.014 A 
ATOM     10  C   UNL A   1      38.133  29.808  27.640  1.00  0.00     0.010 A 
ATOM     11  C   UNL A   1      37.558  29.161  29.899  1.00  0.00     0.010 A 
ATOM     12  C   UNL A   1      38.498  29.216  28.858  1.00  0.00    -0.014 A 
BRANCH  12  13
ATOM     13  C   UNL A   1      39.898  28.760  29.046  1.00  0.00     0.031 A 
ATOM     14  C   UNL A   1      40.341  27.389  28.624  1.00  0.00     0.074 A 
ATOM     15  C   UNL A   1      40.781  29.622  29.590  1.00  0.00     0.049 A 
ATOM     16  N   UNL A   1      41.531  26.849  28.712  1.00  0.00    -0.248 NA
ATOM     17  C   UNL A   1      39.324  26.505  28.035  1.00  0.00     0.031 C 
ATOM     18  C   UNL A   1      40.466  30.980  30.043  1.00  0.00     0.029 A 
ATOM     19  N   UNL A   1      42.123  29.496  29.836  1.00  0.00    -0.354 N 
ATOM     20  C   UNL A   1      41.403  25.559  28.212  1.00  0.00     0.074 A 
ATOM     21  C   UNL A   1      40.014  25.388  27.844  1.00  0.00     0.031 C 
ATOM     22  C   UNL A   1      41.590  31.579  30.457  1.00  0.00     0.029 A 
ATOM     23  C   UNL A   1      42.686  30.625  30.378  1.00  0.00     0.049 A 
ATOM     24  H   UNL A   1      42.634  28.677  29.644  1.00  0.00     0.167 HD
ATOM     25  C   UNL A   1      42.359  24.608  28.072  1.00  0.00     0.031 A 
ATOM     26  C   UNL A   1      43.943  30.865  30.794  1.00  0.00     0.031 A 
ATOM     27  C   UNL A   1      43.738  24.784  28.451  1.00  0.00     0.049 A 
ATOM     28  C   UNL A   1      44.965  29.776  30.673  1.00  0.00     0.074 A 
ATOM     29  C   UNL A   1      44.787  23.889  28.323  1.00  0.00     0.029 A 
ATOM     30  N   UNL A   1      44.259  25.926  29.039  1.00  0.00    -0.354 N 
ATOM     31  N   UNL A   1      44.834  28.574  30.165  1.00  0.00    -0.248 NA
ATOM     32  C   UNL A   1      46.309  30.076  31.183  1.00  0.00     0.031 C 
ATOM     33  C   UNL A   1      45.927  24.467  28.890  1.00  0.00     0.029 A 
ATOM     34  C   UNL A   1      45.606  25.748  29.308  1.00  0.00     0.049 A 
ATOM     35  H   UNL A   1      43.746  26.744  29.236  1.00  0.00     0.167 HD
ATOM     36  C   UNL A   1      46.083  27.981  30.275  1.00  0.00     0.074 A 
ATOM     37  C   UNL A   1      46.962  28.964  30.877  1.00  0.00     0.031 C 
ATOM     38  C   UNL A   1      46.467  26.733  29.913  1.00  0.00     0.031 A 
BRANCH  25  39
ATOM     39  C   UNL A   1      41.939  23.274  27.517  1.00  0.00    -0.014 A 
ATOM     40  C   UNL A   1      42.090  22.964  26.156  1.00  0.00     0.009 A 
ATOM     41  C   UNL A   1      41.428  22.291  28.381  1.00  0.00     0.009 A 
ATOM     42  C   UNL A   1      41.708  21.713  25.668  1.00  0.00     0.001 A 
ATOM     43  C   UNL A   1      41.074  21.030  27.894  1.00  0.00     0.001 A 
ATOM     44  C   UNL A   1      41.206  20.745  26.537  1.00  0.00     0.000 A 
ENDBRANCH  25  39
BRANCH  26  45
ATOM     45  C   UNL A   1      44.288  32.184  31.387  1.00  0.00    -0.014 A 
ATOM     46  C   UNL A   1      44.159  32.406  32.766  1.00  0.00     0.009 A 
ATOM     47  C   UNL A   1      44.762  33.225  30.573  1.00  0.00     0.009 A 
ATOM     48  C   UNL A   1      44.472  33.652  33.312  1.00  0.00     0.001 A 
ATOM     49  C   UNL A   1      45.108  34.459  31.127  1.00  0.00     0.001 A 
ATOM     50  C   UNL A   1      44.954  34.674  32.495  1.00  0.00     0.000 A 
ENDBRANCH  26  45
BRANCH  38  51
ATOM     51  C   UNL A   1      47.911  26.377  30.126  1.00  0.00    -0.014 A 
ATOM     52  C   UNL A   1      48.873  26.590  29.127  1.00  0.00     0.009 A 
ATOM     53  C   UNL A   1      48.317  25.838  31.357  1.00  0.00     0.009 A 
ATOM     54  C   UNL A   1      50.206  26.237  29.343  1.00  0.00     0.001 A 
ATOM     55  C   UNL A   1      49.656  25.516  31.583  1.00  0.00     0.001 A 
ATOM     56  C   UNL A   1      50.596  25.705  30.573  1.00  0.00     0.000 A 
ENDBRANCH  38  51
ENDBRANCH  12  13
ENDBRANCH   5   7
ENDBRANCH   2   3
ENDBRANCH   1   2
BRANCH   1  57
ATOM     57  C   UNL A   1      33.237  29.300  24.859  1.00  0.00     0.117 C 
BRANCH  57  58
ATOM     58  N   UNL A   1      33.668  29.173  23.476  1.00  0.00    -0.354 N 
ATOM     59  C   UNL A   1      33.489  28.194  22.550  1.00  0.00     0.244 C 
ATOM     60  H   UNL A   1      34.188  29.942  23.148  1.00  0.00     0.163 HD
ATOM     61  O   UNL A   1      34.238  28.232  21.566  1.00  0.00    -0.273 OA
BRANCH  59  62
ATOM     62  C   UNL A   1      32.520  27.012  22.725  1.00  0.00     0.197 C 
BRANCH  62  63
ATOM     63  C   UNL A   1      31.056  27.460  22.735  1.00  0.00     0.191 C 
BRANCH  63  64
ATOM     64  O   UNL A   1      30.812  28.535  21.834  1.00  0.00    -0.394 OA
ATOM     65  H   UNL A   1      29.996  28.994  22.089  1.00  0.00     0.210 HD
ENDBRANCH  63  64
ENDBRANCH  62  63
BRANCH  62  66
ATOM     66  N   UNL A   1      32.765  25.903  21.805  1.00  0.00    -0.342 N 
ATOM     67  C   UNL A   1      33.096  24.607  22.045  1.00  0.00     0.228 C 
ATOM     68  H   UNL A   1      32.676  26.133  20.851  1.00  0.00     0.164 HD
ATOM     69  O   UNL A   1      33.404  23.915  21.072  1.00  0.00    -0.274 OA
BRANCH  67  70
ATOM     70  C   UNL A   1      33.006  24.038  23.460  1.00  0.00     0.109 C 
ATOM     71  C   UNL A   1      31.623  23.371  23.573  1.00  0.00     0.018 C 
ATOM     72  C   UNL A   1      34.164  23.120  23.813  1.00  0.00    -0.032 A 
ATOM     73  C   UNL A   1      31.526  22.551  24.849  1.00  0.00     0.006 C 
ATOM     74  C   UNL A   1      33.945  21.906  24.492  1.00  0.00    -0.044 A 
ATOM     75  C   UNL A   1      35.484  23.530  23.555  1.00  0.00     0.005 A 
ATOM     76  C   UNL A   1      32.553  21.423  24.821  1.00  0.00     0.036 C 
ATOM     77  C   UNL A   1      35.041  21.099  24.834  1.00  0.00     0.004 A 
ATOM     78  C   UNL A   1      36.565  22.727  23.916  1.00  0.00     0.000 A 
ATOM     79  C   UNL A   1      36.343  21.508  24.548  1.00  0.00     0.000 A 
ENDBRANCH  67  70
ENDBRANCH  62  66
ENDBRANCH  59  62
ENDBRANCH  57  58
ENDBRANCH   1  57
TORSDOF 14
ENDMDL
MODEL 3
REMARK VINA RESULT:     -11.4      4.149     10.029
REMARK SMILES O=C(NCCCNC(=O)[C@@H](CO)NC(=O)[C@H]1CCCc2ccccc21)c1ccc(-c2c3nc(c(-c4ccccc4)c4ccc([nH]4)c(-c4ccccc4)c4nc(c(-c5ccccc5)c5ccc2[nH]5)C=C4)C=C3)cc1
REMARK SMILES IDX 5 1 4 2 3 3 1 4 2 5 26 7 27 8 73 9 28 10 72 11 29 12 30 13
REMARK SMILES IDX 31 14 66 15 32 16 71 17 65 18 67 19 33 20 70 21 64 22 63 23
REMARK SMILES IDX 34 25 56 26 41 27 55 28 42 29 45 30 54 31 68 32 43 33 44 34
REMARK SMILES IDX 53 36 69 37 46 38 35 39 36 40 40 41 37 42 39 43 38 44 57 45
REMARK SMILES IDX 58 46 62 47 59 48 61 49 60 50 47 51 48 52 52 53 49 54 51 55
REMARK SMILES IDX 50 56 6 57 7 58 8 59 9 61 10 62 11 63 12 64 13 66 14 67
REMARK SMILES IDX 15 69 16 70 17 71 25 72 18 73 20 74 24 75 19 76 21 77 23 78
REMARK SMILES IDX 22 79
REMARK H PARENT 3 6 67 24 45 35 7 60 12 65 13 68
REMARK Flexibility Score: inf
ROOT
ATOM      1  C   UNL A   1      40.890  20.088  27.345  1.00  0.00     0.042 C 
ENDROOT
BRANCH   1   2
ATOM      2  C   UNL A   1      40.760  21.499  26.799  1.00  0.00     0.118 C 
BRANCH   2   3
ATOM      3  N   UNL A   1      39.489  21.721  26.125  1.00  0.00    -0.352 N 
ATOM      4  O   UNL A   1      37.545  22.762  25.657  1.00  0.00    -0.269 OA
ATOM      5  C   UNL A   1      38.683  22.833  26.117  1.00  0.00     0.251 C 
ATOM      6  H   UNL A   1      39.159  20.962  25.593  1.00  0.00     0.163 HD
BRANCH   5   7
ATOM      7  C   UNL A   1      39.172  24.110  26.676  1.00  0.00     0.039 A 
ATOM      8  C   UNL A   1      38.906  24.453  28.003  1.00  0.00     0.014 A 
ATOM      9  C   UNL A   1      39.931  24.967  25.874  1.00  0.00     0.014 A 
ATOM     10  C   UNL A   1      39.249  25.712  28.475  1.00  0.00     0.010 A 
ATOM     11  C   UNL A   1      40.382  26.185  26.390  1.00  0.00     0.010 A 
ATOM     12  C   UNL A   1      40.024  26.578  27.689  1.00  0.00    -0.014 A 
BRANCH  12  13
ATOM     13  C   UNL A   1      40.529  27.837  28.291  1.00  0.00     0.031 A 
ATOM     14  C   UNL A   1      41.994  28.054  28.545  1.00  0.00     0.074 A 
ATOM     15  C   UNL A   1      39.638  28.804  28.590  1.00  0.00     0.049 A 
ATOM     16  N   UNL A   1      42.590  29.103  29.055  1.00  0.00    -0.248 NA
ATOM     17  C   UNL A   1      42.908  26.958  28.191  1.00  0.00     0.031 C 
ATOM     18  C   UNL A   1      38.188  28.705  28.391  1.00  0.00     0.029 A 
ATOM     19  N   UNL A   1      39.815  30.062  29.101  1.00  0.00    -0.354 N 
ATOM     20  C   UNL A   1      43.942  28.788  29.104  1.00  0.00     0.074 A 
ATOM     21  C   UNL A   1      44.076  27.439  28.595  1.00  0.00     0.031 C 
ATOM     22  C   UNL A   1      37.618  29.871  28.722  1.00  0.00     0.029 A 
ATOM     23  C   UNL A   1      38.644  30.768  29.232  1.00  0.00     0.049 A 
ATOM     24  H   UNL A   1      40.695  30.425  29.351  1.00  0.00     0.167 HD
ATOM     25  C   UNL A   1      44.974  29.554  29.533  1.00  0.00     0.031 A 
ATOM     26  C   UNL A   1      38.411  31.994  29.733  1.00  0.00     0.031 A 
ATOM     27  C   UNL A   1      44.830  30.892  30.048  1.00  0.00     0.049 A 
ATOM     28  C   UNL A   1      39.567  32.798  30.247  1.00  0.00     0.074 A 
ATOM     29  C   UNL A   1      45.818  31.759  30.482  1.00  0.00     0.029 A 
ATOM     30  N   UNL A   1      43.622  31.554  30.208  1.00  0.00    -0.354 N 
ATOM     31  N   UNL A   1      40.843  32.496  30.252  1.00  0.00    -0.248 NA
ATOM     32  C   UNL A   1      39.251  34.110  30.824  1.00  0.00     0.031 C 
ATOM     33  C   UNL A   1      45.203  32.920  30.962  1.00  0.00     0.029 A 
ATOM     34  C   UNL A   1      43.837  32.805  30.762  1.00  0.00     0.049 A 
ATOM     35  H   UNL A   1      42.741  31.188  29.963  1.00  0.00     0.167 HD
ATOM     36  C   UNL A   1      41.485  33.590  30.814  1.00  0.00     0.074 A 
ATOM     37  C   UNL A   1      40.460  34.569  31.114  1.00  0.00     0.031 C 
ATOM     38  C   UNL A   1      42.806  33.766  31.062  1.00  0.00     0.031 A 
BRANCH  25  39
ATOM     39  C   UNL A   1      46.352  28.951  29.499  1.00  0.00    -0.014 A 
ATOM     40  C   UNL A   1      47.184  29.083  28.375  1.00  0.00     0.009 A 
ATOM     41  C   UNL A   1      46.846  28.279  30.629  1.00  0.00     0.009 A 
ATOM     42  C   UNL A   1      48.466  28.529  28.373  1.00  0.00     0.001 A 
ATOM     43  C   UNL A   1      48.139  27.751  30.635  1.00  0.00     0.001 A 
ATOM     44  C   UNL A   1      48.945  27.868  29.504  1.00  0.00     0.000 A 
ENDBRANCH  25  39
BRANCH  26  45
ATOM     45  C   UNL A   1      37.021  32.517  29.795  1.00  0.00    -0.014 A 
ATOM     46  C   UNL A   1      36.200  32.243  30.898  1.00  0.00     0.009 A 
ATOM     47  C   UNL A   1      36.513  33.306  28.750  1.00  0.00     0.009 A 
ATOM     48  C   UNL A   1      34.891  32.728  30.941  1.00  0.00     0.001 A 
ATOM     49  C   UNL A   1      35.216  33.818  28.812  1.00  0.00     0.001 A 
ATOM     50  C   UNL A   1      34.403  33.520  29.903  1.00  0.00     0.000 A 
ENDBRANCH  26  45
BRANCH  38  51
ATOM     51  C   UNL A   1      43.217  35.085  31.655  1.00  0.00    -0.014 A 
ATOM     52  C   UNL A   1      43.640  36.151  30.846  1.00  0.00     0.009 A 
ATOM     53  C   UNL A   1      43.158  35.267  33.045  1.00  0.00     0.009 A 
ATOM     54  C   UNL A   1      44.031  37.360  31.422  1.00  0.00     0.001 A 
ATOM     55  C   UNL A   1      43.518  36.487  33.616  1.00  0.00     0.001 A 
ATOM     56  C   UNL A   1      43.964  37.529  32.805  1.00  0.00     0.000 A 
ENDBRANCH  38  51
ENDBRANCH  12  13
ENDBRANCH   5   7
ENDBRANCH   2   3
ENDBRANCH   1   2
BRANCH   1  57
ATOM     57  C   UNL A   1      42.334  19.647  27.547  1.00  0.00     0.117 C 
BRANCH  57  58
ATOM     58  N   UNL A   1      42.784  18.776  26.473  1.00  0.00    -0.354 N 
ATOM     59  C   UNL A   1      43.705  18.944  25.487  1.00  0.00     0.244 C 
ATOM     60  H   UNL A   1      42.338  17.898  26.456  1.00  0.00     0.163 HD
ATOM     61  O   UNL A   1      43.640  18.149  24.540  1.00  0.00    -0.273 OA
BRANCH  59  62
ATOM     62  C   UNL A   1      44.705  20.112  25.435  1.00  0.00     0.197 C 
BRANCH  62  63
ATOM     63  C   UNL A   1      45.940  19.779  24.593  1.00  0.00     0.191 C 
BRANCH  63  64
ATOM     64  O   UNL A   1      46.403  18.451  24.812  1.00  0.00    -0.394 OA
ATOM     65  H   UNL A   1      47.373  18.440  24.798  1.00  0.00     0.210 HD
ENDBRANCH  63  64
ENDBRANCH  62  63
BRANCH  62  66
ATOM     66  N   UNL A   1      44.102  21.393  25.071  1.00  0.00    -0.342 N 
ATOM     67  C   UNL A   1      44.304  22.642  25.568  1.00  0.00     0.228 C 
ATOM     68  H   UNL A   1      43.438  21.343  24.345  1.00  0.00     0.164 HD
ATOM     69  O   UNL A   1      43.540  23.530  25.185  1.00  0.00    -0.274 OA
BRANCH  67  70
ATOM     70  C   UNL A   1      45.484  22.920  26.497  1.00  0.00     0.109 C 
ATOM     71  C   UNL A   1      46.388  23.927  25.764  1.00  0.00     0.018 C 
ATOM     72  C   UNL A   1      45.062  23.368  27.887  1.00  0.00    -0.032 A 
ATOM     73  C   UNL A   1      47.456  24.469  26.699  1.00  0.00     0.006 C 
ATOM     74  C   UNL A   1      45.717  24.433  28.535  1.00  0.00    -0.044 A 
ATOM     75  C   UNL A   1      44.075  22.648  28.583  1.00  0.00     0.005 A 
ATOM     76  C   UNL A   1      46.803  25.227  27.850  1.00  0.00     0.036 C 
ATOM     77  C   UNL A   1      45.325  24.797  29.832  1.00  0.00     0.004 A 
ATOM     78  C   UNL A   1      43.707  23.009  29.878  1.00  0.00     0.000 A 
ATOM     79  C   UNL A   1      44.326  24.089  30.499  1.00  0.00     0.000 A 
ENDBRANCH  67  70
ENDBRANCH  62  66
ENDBRANCH  59  62
ENDBRANCH  57  58
ENDBRANCH   1  57
TORSDOF 14
ENDMDL
