MODEL 1
REMARK VINA RESULT:     -10.5      0.000      0.000
REMARK SMILES Cc1ncccc1NS(=O)(=O)[C@@H](C)C(=O)NCCCNC(=O)c1ccc(-c2c3nc(c(-c4ccccc4)c4ccc([nH]4)c(-c4ccccc4)c4nc(c(-c5ccccc5)c5ccc2[nH]5)C=C4)C=C3)cc1
REMARK SMILES IDX 17 1 16 2 14 3 15 4 12 6 13 7 9 8 10 9 11 10 8 11 7 13 1 14
REMARK SMILES IDX 2 15 3 16 4 17 6 18 5 19 18 20 19 21 20 22 21 23 22 25 23 26
REMARK SMILES IDX 24 27 70 28 25 29 69 30 26 31 27 32 28 33 63 34 29 35 68 36
REMARK SMILES IDX 62 37 64 38 30 39 67 40 61 41 60 42 31 44 53 45 38 46 52 47
REMARK SMILES IDX 39 48 42 49 51 50 65 51 40 52 41 53 50 55 66 56 43 57 32 58
REMARK SMILES IDX 33 59 37 60 34 61 36 62 35 63 54 64 55 65 59 66 56 67 58 68
REMARK SMILES IDX 57 69 44 70 45 71 49 72 46 73 48 74 47 75
REMARK H PARENT 16 5 8 12 20 24 64 43 42 54
REMARK Flexibility Score: inf
ROOT
ATOM      1  C   UNL A   1      31.841  30.305  25.888  1.00  0.00     0.117 C 
ENDROOT
BRANCH   1   2
ATOM      2  N   UNL A   1      31.159  29.981  24.661  1.00  0.00    -0.355 N 
ATOM      3  C   UNL A   1      31.329  28.968  23.785  1.00  0.00     0.239 C 
ATOM      4  O   UNL A   1      30.286  28.667  23.175  1.00  0.00    -0.274 OA
ATOM      5  H   UNL A   1      30.441  30.610  24.419  1.00  0.00     0.163 HD
BRANCH   3   6
ATOM      6  C   UNL A   1      32.571  28.157  23.481  1.00  0.00     0.215 C 
ATOM      7  C   UNL A   1      33.683  28.957  22.813  1.00  0.00     0.037 C 
BRANCH   6   8
ATOM      8  S   UNL A   1      32.472  26.440  23.024  1.00  0.00     0.244 S 
ATOM      9  O   UNL A   1      33.646  25.707  23.430  1.00  0.00    -0.206 OA
ATOM     10  O   UNL A   1      32.128  26.424  21.612  1.00  0.00    -0.206 OA
BRANCH   8  11
ATOM     11  N   UNL A   1      31.114  25.734  23.727  1.00  0.00    -0.281 N 
ATOM     12  H   UNL A   1      30.232  25.954  23.349  1.00  0.00     0.180 HD
BRANCH  11  13
ATOM     13  C   UNL A   1      31.163  24.834  24.841  1.00  0.00     0.070 A 
ATOM     14  C   UNL A   1      31.541  26.616  26.652  1.00  0.00     0.069 C 
ATOM     15  C   UNL A   1      31.341  25.210  26.179  1.00  0.00     0.061 A 
ATOM     16  N   UNL A   1      31.394  24.291  27.182  1.00  0.00    -0.259 NA
ATOM     17  C   UNL A   1      31.241  22.985  26.883  1.00  0.00     0.111 A 
ATOM     18  C   UNL A   1      31.024  23.468  24.571  1.00  0.00     0.030 A 
ATOM     19  C   UNL A   1      31.041  22.530  25.599  1.00  0.00     0.022 A 
ENDBRANCH  11  13
ENDBRANCH   8  11
ENDBRANCH   6   8
ENDBRANCH   3   6
ENDBRANCH   1   2
BRANCH   1  20
ATOM     20  C   UNL A   1      31.467  31.642  26.499  1.00  0.00     0.042 C 
BRANCH  20  21
ATOM     21  C   UNL A   1      32.650  32.437  27.016  1.00  0.00     0.118 C 
BRANCH  21  22
ATOM     22  N   UNL A   1      32.325  33.750  27.560  1.00  0.00    -0.352 N 
ATOM     23  C   UNL A   1      32.994  34.536  28.470  1.00  0.00     0.251 C 
ATOM     24  H   UNL A   1      31.487  34.139  27.219  1.00  0.00     0.163 HD
ATOM     25  O   UNL A   1      32.575  35.660  28.737  1.00  0.00    -0.269 OA
BRANCH  23  26
ATOM     26  C   UNL A   1      34.191  34.015  29.161  1.00  0.00     0.039 A 
ATOM     27  C   UNL A   1      34.031  33.251  30.321  1.00  0.00     0.014 A 
ATOM     28  C   UNL A   1      35.465  34.227  28.640  1.00  0.00     0.014 A 
ATOM     29  C   UNL A   1      35.140  32.629  30.898  1.00  0.00     0.010 A 
ATOM     30  C   UNL A   1      36.536  33.492  29.125  1.00  0.00     0.010 A 
ATOM     31  C   UNL A   1      36.394  32.699  30.271  1.00  0.00    -0.014 A 
BRANCH  31  32
ATOM     32  C   UNL A   1      37.593  31.991  30.790  1.00  0.00     0.031 A 
ATOM     33  C   UNL A   1      38.345  32.572  31.960  1.00  0.00     0.074 A 
ATOM     34  C   UNL A   1      38.064  30.900  30.153  1.00  0.00     0.049 A 
ATOM     35  N   UNL A   1      39.503  32.221  32.458  1.00  0.00    -0.248 NA
ATOM     36  C   UNL A   1      37.737  33.736  32.630  1.00  0.00     0.031 C 
ATOM     37  C   UNL A   1      37.458  30.264  28.981  1.00  0.00     0.029 A 
ATOM     38  N   UNL A   1      39.180  30.138  30.400  1.00  0.00    -0.354 N 
ATOM     39  C   UNL A   1      39.772  33.138  33.466  1.00  0.00     0.074 A 
ATOM     40  C   UNL A   1      38.696  34.101  33.466  1.00  0.00     0.031 C 
ATOM     41  C   UNL A   1      38.189  29.192  28.634  1.00  0.00     0.029 A 
ATOM     42  C   UNL A   1      39.343  29.095  29.520  1.00  0.00     0.049 A 
ATOM     43  H   UNL A   1      39.805  30.322  31.138  1.00  0.00     0.167 HD
ATOM     44  C   UNL A   1      40.805  33.161  34.341  1.00  0.00     0.031 A 
ATOM     45  C   UNL A   1      40.321  28.174  29.431  1.00  0.00     0.031 A 
ATOM     46  C   UNL A   1      41.851  32.178  34.368  1.00  0.00     0.049 A 
ATOM     47  C   UNL A   1      41.459  28.224  30.415  1.00  0.00     0.074 A 
ATOM     48  C   UNL A   1      42.913  32.074  35.248  1.00  0.00     0.029 A 
ATOM     49  N   UNL A   1      41.958  31.119  33.479  1.00  0.00    -0.354 N 
ATOM     50  N   UNL A   1      41.667  29.065  31.397  1.00  0.00    -0.248 NA
ATOM     51  C   UNL A   1      42.490  27.186  30.281  1.00  0.00     0.031 C 
ATOM     52  C   UNL A   1      43.688  30.976  34.867  1.00  0.00     0.029 A 
ATOM     53  C   UNL A   1      43.075  30.363  33.784  1.00  0.00     0.049 A 
ATOM     54  H   UNL A   1      41.333  30.934  32.742  1.00  0.00     0.167 HD
ATOM     55  C   UNL A   1      42.833  28.637  32.021  1.00  0.00     0.074 A 
ATOM     56  C   UNL A   1      43.274  27.452  31.317  1.00  0.00     0.031 C 
ATOM     57  C   UNL A   1      43.484  29.177  33.080  1.00  0.00     0.031 A 
BRANCH  44  58
ATOM     58  C   UNL A   1      40.837  34.271  35.353  1.00  0.00    -0.014 A 
ATOM     59  C   UNL A   1      41.515  35.473  35.089  1.00  0.00     0.009 A 
ATOM     60  C   UNL A   1      40.146  34.137  36.567  1.00  0.00     0.009 A 
ATOM     61  C   UNL A   1      41.529  36.502  36.032  1.00  0.00     0.001 A 
ATOM     62  C   UNL A   1      40.133  35.181  37.494  1.00  0.00     0.001 A 
ATOM     63  C   UNL A   1      40.831  36.358  37.230  1.00  0.00     0.000 A 
ENDBRANCH  44  58
BRANCH  45  64
ATOM     64  C   UNL A   1      40.274  27.116  28.386  1.00  0.00    -0.014 A 
ATOM     65  C   UNL A   1      40.887  27.322  27.139  1.00  0.00     0.009 A 
ATOM     66  C   UNL A   1      39.587  25.913  28.608  1.00  0.00     0.009 A 
ATOM     67  C   UNL A   1      40.775  26.369  26.124  1.00  0.00     0.001 A 
ATOM     68  C   UNL A   1      39.506  24.945  27.603  1.00  0.00     0.001 A 
ATOM     69  C   UNL A   1      40.086  25.180  26.358  1.00  0.00     0.000 A 
ENDBRANCH  45  64
BRANCH  57  70
ATOM     70  C   UNL A   1      44.706  28.458  33.576  1.00  0.00    -0.014 A 
ATOM     71  C   UNL A   1      45.987  28.780  33.103  1.00  0.00     0.009 A 
ATOM     72  C   UNL A   1      44.572  27.472  34.566  1.00  0.00     0.009 A 
ATOM     73  C   UNL A   1      47.106  28.102  33.588  1.00  0.00     0.001 A 
ATOM     74  C   UNL A   1      45.696  26.819  35.073  1.00  0.00     0.001 A 
ATOM     75  C   UNL A   1      46.961  27.129  34.576  1.00  0.00     0.000 A 
ENDBRANCH  57  70
ENDBRANCH  31  32
ENDBRANCH  23  26
ENDBRANCH  21  22
ENDBRANCH  20  21
ENDBRANCH   1  20
TORSDOF 13
ENDMDL
MODEL 2
REMARK VINA RESULT:     -10.5      1.530      6.215
REMARK SMILES Cc1ncccc1NS(=O)(=O)[C@@H](C)C(=O)NCCCNC(=O)c1ccc(-c2c3nc(c(-c4ccccc4)c4ccc([nH]4)c(-c4ccccc4)c4nc(c(-c5ccccc5)c5ccc2[nH]5)C=C4)C=C3)cc1
REMARK SMILES IDX 17 1 16 2 14 3 15 4 12 6 13 7 9 8 10 9 11 10 8 11 7 13 1 14
REMARK SMILES IDX 2 15 3 16 4 17 6 18 5 19 18 20 19 21 20 22 21 23 22 25 23 26
REMARK SMILES IDX 24 27 70 28 25 29 69 30 26 31 27 32 28 33 63 34 29 35 68 36
REMARK SMILES IDX 62 37 64 38 30 39 67 40 61 41 60 42 31 44 53 45 38 46 52 47
REMARK SMILES IDX 39 48 42 49 51 50 65 51 40 52 41 53 50 55 66 56 43 57 32 58
REMARK SMILES IDX 33 59 37 60 34 61 36 62 35 63 54 64 55 65 59 66 56 67 58 68
REMARK SMILES IDX 57 69 44 70 45 71 49 72 46 73 48 74 47 75
REMARK H PARENT 16 5 8 12 20 24 64 43 42 54
REMARK Flexibility Score: inf
ROOT
ATOM      1  C   UNL A   1      31.367  28.906  24.985  1.00  0.00     0.117 C 
ENDROOT
BRANCH   1   2
ATOM      2  N   UNL A   1      30.937  28.566  23.653  1.00  0.00    -0.355 N 
ATOM      3  C   UNL A   1      31.422  27.681  22.757  1.00  0.00     0.239 C 
ATOM      4  O   UNL A   1      30.553  27.241  21.982  1.00  0.00    -0.274 OA
ATOM      5  H   UNL A   1      30.148  29.067  23.342  1.00  0.00     0.163 HD
BRANCH   3   6
ATOM      6  C   UNL A   1      32.830  27.146  22.598  1.00  0.00     0.215 C 
ATOM      7  C   UNL A   1      33.856  28.209  22.223  1.00  0.00     0.037 C 
BRANCH   6   8
ATOM      8  S   UNL A   1      33.138  25.514  21.957  1.00  0.00     0.244 S 
ATOM      9  O   UNL A   1      34.313  24.919  22.546  1.00  0.00    -0.206 OA
ATOM     10  O   UNL A   1      33.106  25.643  20.510  1.00  0.00    -0.206 OA
BRANCH   8  11
ATOM     11  N   UNL A   1      31.812  24.519  22.254  1.00  0.00    -0.281 N 
ATOM     12  H   UNL A   1      31.001  24.657  21.713  1.00  0.00     0.180 HD
BRANCH  11  13
ATOM     13  C   UNL A   1      31.791  23.484  23.244  1.00  0.00     0.070 A 
ATOM     14  C   UNL A   1      30.695  24.872  25.107  1.00  0.00     0.069 C 
ATOM     15  C   UNL A   1      31.277  23.614  24.541  1.00  0.00     0.061 A 
ATOM     16  N   UNL A   1      31.308  22.586  25.433  1.00  0.00    -0.259 NA
ATOM     17  C   UNL A   1      31.823  21.400  25.048  1.00  0.00     0.111 A 
ATOM     18  C   UNL A   1      32.331  22.242  22.889  1.00  0.00     0.030 A 
ATOM     19  C   UNL A   1      32.331  21.179  23.787  1.00  0.00     0.022 A 
ENDBRANCH  11  13
ENDBRANCH   8  11
ENDBRANCH   6   8
ENDBRANCH   3   6
ENDBRANCH   1   2
BRANCH   1  20
ATOM     20  C   UNL A   1      31.223  30.371  25.353  1.00  0.00     0.042 C 
BRANCH  20  21
ATOM     21  C   UNL A   1      32.181  30.834  26.433  1.00  0.00     0.118 C 
BRANCH  21  22
ATOM     22  N   UNL A   1      31.985  32.203  26.892  1.00  0.00    -0.352 N 
ATOM     23  C   UNL A   1      32.826  33.052  27.576  1.00  0.00     0.251 C 
ATOM     24  H   UNL A   1      31.103  32.586  26.676  1.00  0.00     0.163 HD
ATOM     25  O   UNL A   1      32.482  34.209  27.800  1.00  0.00    -0.269 OA
BRANCH  23  26
ATOM     26  C   UNL A   1      34.125  32.560  28.079  1.00  0.00     0.039 A 
ATOM     27  C   UNL A   1      35.182  33.461  28.233  1.00  0.00     0.014 A 
ATOM     28  C   UNL A   1      34.288  31.228  28.451  1.00  0.00     0.014 A 
ATOM     29  C   UNL A   1      36.365  33.042  28.846  1.00  0.00     0.010 A 
ATOM     30  C   UNL A   1      35.401  30.853  29.188  1.00  0.00     0.010 A 
ATOM     31  C   UNL A   1      36.463  31.747  29.380  1.00  0.00    -0.014 A 
BRANCH  31  32
ATOM     32  C   UNL A   1      37.662  31.269  30.115  1.00  0.00     0.031 A 
ATOM     33  C   UNL A   1      38.606  30.306  29.441  1.00  0.00     0.074 A 
ATOM     34  C   UNL A   1      37.844  31.608  31.407  1.00  0.00     0.049 A 
ATOM     35  N   UNL A   1      39.605  29.633  29.950  1.00  0.00    -0.248 NA
ATOM     36  C   UNL A   1      38.364  30.026  28.014  1.00  0.00     0.031 C 
ATOM     37  C   UNL A   1      36.980  32.494  32.191  1.00  0.00     0.029 A 
ATOM     38  N   UNL A   1      38.821  31.231  32.296  1.00  0.00    -0.354 N 
ATOM     39  C   UNL A   1      40.080  28.830  28.920  1.00  0.00     0.074 A 
ATOM     40  C   UNL A   1      39.221  29.045  27.780  1.00  0.00     0.031 C 
ATOM     41  C   UNL A   1      37.483  32.618  33.430  1.00  0.00     0.029 A 
ATOM     42  C   UNL A   1      38.670  31.781  33.547  1.00  0.00     0.049 A 
ATOM     43  H   UNL A   1      39.559  30.625  32.060  1.00  0.00     0.167 HD
ATOM     44  C   UNL A   1      41.157  28.010  28.910  1.00  0.00     0.031 A 
ATOM     45  C   UNL A   1      39.402  31.616  34.665  1.00  0.00     0.031 A 
ATOM     46  C   UNL A   1      42.036  27.830  30.031  1.00  0.00     0.049 A 
ATOM     47  C   UNL A   1      40.593  30.696  34.627  1.00  0.00     0.074 A 
ATOM     48  C   UNL A   1      43.188  27.068  30.110  1.00  0.00     0.029 A 
ATOM     49  N   UNL A   1      41.865  28.432  31.268  1.00  0.00    -0.354 N 
ATOM     50  N   UNL A   1      41.060  29.988  33.628  1.00  0.00    -0.248 NA
ATOM     51  C   UNL A   1      41.364  30.564  35.871  1.00  0.00     0.031 C 
ATOM     52  C   UNL A   1      43.692  27.175  31.408  1.00  0.00     0.029 A 
ATOM     53  C   UNL A   1      42.886  28.050  32.120  1.00  0.00     0.049 A 
ATOM     54  H   UNL A   1      41.128  29.040  31.504  1.00  0.00     0.167 HD
ATOM     55  C   UNL A   1      42.199  29.356  34.112  1.00  0.00     0.074 A 
ATOM     56  C   UNL A   1      42.361  29.779  35.487  1.00  0.00     0.031 C 
ATOM     57  C   UNL A   1      43.035  28.499  33.479  1.00  0.00     0.031 A 
BRANCH  44  58
ATOM     58  C   UNL A   1      41.455  27.266  27.638  1.00  0.00    -0.014 A 
ATOM     59  C   UNL A   1      42.274  27.827  26.644  1.00  0.00     0.009 A 
ATOM     60  C   UNL A   1      40.948  25.971  27.447  1.00  0.00     0.009 A 
ATOM     61  C   UNL A   1      42.552  27.122  25.472  1.00  0.00     0.001 A 
ATOM     62  C   UNL A   1      41.255  25.255  26.288  1.00  0.00     0.001 A 
ATOM     63  C   UNL A   1      42.049  25.833  25.299  1.00  0.00     0.000 A 
ENDBRANCH  44  58
BRANCH  45  64
ATOM     64  C   UNL A   1      39.048  32.337  35.918  1.00  0.00    -0.014 A 
ATOM     65  C   UNL A   1      38.157  31.764  36.840  1.00  0.00     0.009 A 
ATOM     66  C   UNL A   1      39.562  33.616  36.183  1.00  0.00     0.009 A 
ATOM     67  C   UNL A   1      37.755  32.471  37.975  1.00  0.00     0.001 A 
ATOM     68  C   UNL A   1      39.186  34.307  37.338  1.00  0.00     0.001 A 
ATOM     69  C   UNL A   1      38.271  33.741  38.224  1.00  0.00     0.000 A 
ENDBRANCH  45  64
BRANCH  57  70
ATOM     70  C   UNL A   1      44.231  28.010  34.246  1.00  0.00    -0.014 A 
ATOM     71  C   UNL A   1      44.200  26.799  34.954  1.00  0.00     0.009 A 
ATOM     72  C   UNL A   1      45.419  28.756  34.221  1.00  0.00     0.009 A 
ATOM     73  C   UNL A   1      45.328  26.364  35.651  1.00  0.00     0.001 A 
ATOM     74  C   UNL A   1      46.555  28.302  34.892  1.00  0.00     0.001 A 
ATOM     75  C   UNL A   1      46.505  27.111  35.614  1.00  0.00     0.000 A 
ENDBRANCH  57  70
ENDBRANCH  31  32
ENDBRANCH  23  26
ENDBRANCH  21  22
ENDBRANCH  20  21
ENDBRANCH   1  20
TORSDOF 13
ENDMDL
MODEL 3
REMARK VINA RESULT:     -10.4      3.209      4.613
REMARK SMILES Cc1ncccc1NS(=O)(=O)[C@@H](C)C(=O)NCCCNC(=O)c1ccc(-c2c3nc(c(-c4ccccc4)c4ccc([nH]4)c(-c4ccccc4)c4nc(c(-c5ccccc5)c5ccc2[nH]5)C=C4)C=C3)cc1
REMARK SMILES IDX 17 1 16 2 14 3 15 4 12 6 13 7 9 8 10 9 11 10 8 11 7 13 1 14
REMARK SMILES IDX 2 15 3 16 4 17 6 18 5 19 18 20 19 21 20 22 21 23 22 25 23 26
REMARK SMILES IDX 24 27 70 28 25 29 69 30 26 31 27 32 28 33 63 34 29 35 68 36
REMARK SMILES IDX 62 37 64 38 30 39 67 40 61 41 60 42 31 44 53 45 38 46 52 47
REMARK SMILES IDX 39 48 42 49 51 50 65 51 40 52 41 53 50 55 66 56 43 57 32 58
REMARK SMILES IDX 33 59 37 60 34 61 36 62 35 63 54 64 55 65 59 66 56 67 58 68
REMARK SMILES IDX 57 69 44 70 45 71 49 72 46 73 48 74 47 75
REMARK H PARENT 16 5 8 12 20 24 64 43 42 54
REMARK Flexibility Score: inf
ROOT
ATOM      1  C   UNL A   1      31.780  28.755  25.096  1.00  0.00     0.117 C 
ENDROOT
BRANCH   1   2
ATOM      2  N   UNL A   1      31.534  28.549  23.692  1.00  0.00    -0.355 N 
ATOM      3  C   UNL A   1      31.311  27.425  22.979  1.00  0.00     0.239 C 
ATOM      4  O   UNL A   1      30.616  27.616  21.965  1.00  0.00    -0.274 OA
ATOM      5  H   UNL A   1      31.526  29.376  23.157  1.00  0.00     0.163 HD
BRANCH   3   6
ATOM      6  C   UNL A   1      31.754  26.004  23.261  1.00  0.00     0.215 C 
ATOM      7  C   UNL A   1      30.983  25.328  24.388  1.00  0.00     0.037 C 
BRANCH   6   8
ATOM      8  S   UNL A   1      33.454  25.506  23.081  1.00  0.00     0.244 S 
ATOM      9  O   UNL A   1      34.234  25.828  24.251  1.00  0.00    -0.206 OA
ATOM     10  O   UNL A   1      33.895  26.054  21.810  1.00  0.00    -0.206 OA
BRANCH   8  11
ATOM     11  N   UNL A   1      33.542  23.848  22.803  1.00  0.00    -0.281 N 
ATOM     12  H   UNL A   1      32.938  23.460  22.128  1.00  0.00     0.180 HD
BRANCH  11  13
ATOM     13  C   UNL A   1      34.439  22.965  23.487  1.00  0.00     0.070 A 
ATOM     14  C   UNL A   1      32.642  21.597  24.711  1.00  0.00     0.069 C 
ATOM     15  C   UNL A   1      34.056  21.927  24.347  1.00  0.00     0.061 A 
ATOM     16  N   UNL A   1      34.972  21.140  24.975  1.00  0.00    -0.259 NA
ATOM     17  C   UNL A   1      36.284  21.347  24.741  1.00  0.00     0.111 A 
ATOM     18  C   UNL A   1      35.811  23.157  23.283  1.00  0.00     0.030 A 
ATOM     19  C   UNL A   1      36.748  22.330  23.895  1.00  0.00     0.022 A 
ENDBRANCH  11  13
ENDBRANCH   8  11
ENDBRANCH   6   8
ENDBRANCH   3   6
ENDBRANCH   1   2
BRANCH   1  20
ATOM     20  C   UNL A   1      33.206  29.128  25.452  1.00  0.00     0.042 C 
BRANCH  20  21
ATOM     21  C   UNL A   1      33.524  29.014  26.930  1.00  0.00     0.118 C 
BRANCH  21  22
ATOM     22  N   UNL A   1      33.587  30.279  27.651  1.00  0.00    -0.352 N 
ATOM     23  C   UNL A   1      34.636  30.898  28.292  1.00  0.00     0.251 C 
ATOM     24  H   UNL A   1      32.735  30.774  27.685  1.00  0.00     0.163 HD
ATOM     25  O   UNL A   1      34.486  32.015  28.779  1.00  0.00    -0.269 OA
BRANCH  23  26
ATOM     26  C   UNL A   1      35.931  30.202  28.433  1.00  0.00     0.039 A 
ATOM     27  C   UNL A   1      36.858  30.267  27.388  1.00  0.00     0.014 A 
ATOM     28  C   UNL A   1      36.258  29.534  29.610  1.00  0.00     0.014 A 
ATOM     29  C   UNL A   1      38.140  29.741  27.566  1.00  0.00     0.010 A 
ATOM     30  C   UNL A   1      37.570  29.147  29.838  1.00  0.00     0.010 A 
ATOM     31  C   UNL A   1      38.524  29.227  28.814  1.00  0.00    -0.014 A 
BRANCH  31  32
ATOM     32  C   UNL A   1      39.896  28.730  29.090  1.00  0.00     0.031 A 
ATOM     33  C   UNL A   1      40.906  29.660  29.714  1.00  0.00     0.074 A 
ATOM     34  C   UNL A   1      40.265  27.497  28.689  1.00  0.00     0.049 A 
ATOM     35  N   UNL A   1      42.193  29.494  29.879  1.00  0.00    -0.248 NA
ATOM     36  C   UNL A   1      40.411  30.972  30.169  1.00  0.00     0.031 C 
ATOM     37  C   UNL A   1      39.399  26.516  28.032  1.00  0.00     0.029 A 
ATOM     38  N   UNL A   1      41.481  26.863  28.766  1.00  0.00    -0.354 N 
ATOM     39  C   UNL A   1      42.659  30.688  30.419  1.00  0.00     0.074 A 
ATOM     40  C   UNL A   1      41.536  31.592  30.489  1.00  0.00     0.031 C 
ATOM     41  C   UNL A   1      40.100  25.394  27.798  1.00  0.00     0.029 A 
ATOM     42  C   UNL A   1      41.476  25.594  28.235  1.00  0.00     0.049 A 
ATOM     43  H   UNL A   1      42.280  27.277  29.164  1.00  0.00     0.167 HD
ATOM     44  C   UNL A   1      43.904  30.996  30.851  1.00  0.00     0.031 A 
ATOM     45  C   UNL A   1      42.475  24.700  28.106  1.00  0.00     0.031 A 
ATOM     46  C   UNL A   1      45.011  30.081  30.820  1.00  0.00     0.049 A 
ATOM     47  C   UNL A   1      43.851  25.070  28.593  1.00  0.00     0.074 A 
ATOM     48  C   UNL A   1      46.299  30.271  31.286  1.00  0.00     0.029 A 
ATOM     49  N   UNL A   1      44.953  28.795  30.305  1.00  0.00    -0.354 N 
ATOM     50  N   UNL A   1      44.260  26.183  29.151  1.00  0.00    -0.248 NA
ATOM     51  C   UNL A   1      44.899  24.052  28.440  1.00  0.00     0.031 C 
ATOM     52  C   UNL A   1      47.035  29.115  31.014  1.00  0.00     0.029 A 
ATOM     53  C   UNL A   1      46.188  28.184  30.432  1.00  0.00     0.049 A 
ATOM     54  H   UNL A   1      44.154  28.380  29.909  1.00  0.00     0.167 HD
ATOM     55  C   UNL A   1      45.602  25.984  29.450  1.00  0.00     0.074 A 
ATOM     56  C   UNL A   1      45.932  24.640  29.026  1.00  0.00     0.031 C 
ATOM     57  C   UNL A   1      46.486  26.839  30.020  1.00  0.00     0.031 A 
BRANCH  44  58
ATOM     58  C   UNL A   1      44.126  32.372  31.415  1.00  0.00    -0.014 A 
ATOM     59  C   UNL A   1      44.502  33.442  30.586  1.00  0.00     0.009 A 
ATOM     60  C   UNL A   1      43.914  32.614  32.780  1.00  0.00     0.009 A 
ATOM     61  C   UNL A   1      44.695  34.718  31.119  1.00  0.00     0.001 A 
ATOM     62  C   UNL A   1      44.074  33.898  33.305  1.00  0.00     0.001 A 
ATOM     63  C   UNL A   1      44.472  34.947  32.476  1.00  0.00     0.000 A 
ENDBRANCH  44  58
BRANCH  45  64
ATOM     64  C   UNL A   1      42.223  23.364  27.502  1.00  0.00    -0.014 A 
ATOM     65  C   UNL A   1      41.720  22.313  28.286  1.00  0.00     0.009 A 
ATOM     66  C   UNL A   1      42.520  23.116  26.153  1.00  0.00     0.009 A 
ATOM     67  C   UNL A   1      41.561  21.035  27.746  1.00  0.00     0.001 A 
ATOM     68  C   UNL A   1      42.326  21.845  25.605  1.00  0.00     0.001 A 
ATOM     69  C   UNL A   1      41.862  20.802  26.406  1.00  0.00     0.000 A 
ENDBRANCH  45  64
BRANCH  57  70
ATOM     70  C   UNL A   1      47.875  26.325  30.272  1.00  0.00    -0.014 A 
ATOM     71  C   UNL A   1      48.870  26.390  29.284  1.00  0.00     0.009 A 
ATOM     72  C   UNL A   1      48.201  25.808  31.535  1.00  0.00     0.009 A 
ATOM     73  C   UNL A   1      50.155  25.913  29.548  1.00  0.00     0.001 A 
ATOM     74  C   UNL A   1      49.495  25.363  31.807  1.00  0.00     0.001 A 
ATOM     75  C   UNL A   1      50.467  25.407  30.809  1.00  0.00     0.000 A 
ENDBRANCH  57  70
ENDBRANCH  31  32
ENDBRANCH  23  26
ENDBRANCH  21  22
ENDBRANCH  20  21
ENDBRANCH   1  20
TORSDOF 13
ENDMDL
