MODEL 1
REMARK VINA RESULT:     -10.8      0.000      0.000
REMARK SMILES CCN(C(=O)C1(C)CCCC1)[C@@H]1COC[C@H]1C(=O)NCCCNC(=O)c1ccc(-c2c3nc(c(-c4ccccc4)c4ccc([nH]4)c(-c4ccccc4)c4nc(c(-c5ccccc5)c5ccc2[nH]5)C=C4)C=C3)cc1
REMARK SMILES IDX 20 1 19 2 17 3 18 4 16 6 12 7 13 8 14 9 15 10 3 11 2 12 1 13
REMARK SMILES IDX 4 14 5 15 6 16 7 17 8 18 11 19 9 20 10 21 21 22 22 23 23 24
REMARK SMILES IDX 24 25 25 27 26 28 27 29 73 30 28 31 72 32 29 33 30 34 31 35
REMARK SMILES IDX 66 36 32 37 71 38 65 39 67 40 33 41 70 42 64 43 63 44 34 46
REMARK SMILES IDX 56 47 41 48 55 49 42 50 45 51 54 52 68 53 43 54 44 55 53 57
REMARK SMILES IDX 69 58 46 59 35 60 36 61 40 62 37 63 39 64 38 65 57 66 58 67
REMARK SMILES IDX 62 68 59 69 61 70 60 71 47 72 48 73 52 74 49 75 51 76 50 77
REMARK H PARENT 19 5 23 26 67 45 45 56
REMARK Flexibility Score: inf
ROOT
ATOM      1  C   UNL A   1      36.136  20.805  25.111  1.00  0.00     0.117 C 
ENDROOT
BRANCH   1   2
ATOM      2  N   UNL A   1      34.892  20.077  25.295  1.00  0.00    -0.356 N 
ATOM      3  C   UNL A   1      33.655  20.491  25.665  1.00  0.00     0.227 C 
ATOM      4  O   UNL A   1      32.770  19.631  25.724  1.00  0.00    -0.275 OA
ATOM      5  H   UNL A   1      34.960  19.111  25.120  1.00  0.00     0.163 HD
BRANCH   3   6
ATOM      6  C   UNL A   1      33.315  21.938  25.950  1.00  0.00     0.129 C 
ATOM      7  C   UNL A   1      32.030  22.453  25.304  1.00  0.00     0.125 C 
ATOM      8  C   UNL A   1      31.493  23.393  26.380  1.00  0.00     0.186 C 
ATOM      9  O   UNL A   1      31.869  22.804  27.633  1.00  0.00    -0.378 OA
ATOM     10  C   UNL A   1      33.160  22.206  27.438  1.00  0.00     0.176 C 
BRANCH   7  11
ATOM     11  N   UNL A   1      32.274  22.987  23.944  1.00  0.00    -0.336 N 
BRANCH  11  12
ATOM     12  C   UNL A   1      32.908  22.120  22.950  1.00  0.00     0.116 C 
ATOM     13  C   UNL A   1      31.906  21.121  22.378  1.00  0.00     0.027 C 
ENDBRANCH  11  12
BRANCH  11  14
ATOM     14  C   UNL A   1      31.896  24.316  23.717  1.00  0.00     0.228 C 
ATOM     15  O   UNL A   1      30.702  24.583  23.535  1.00  0.00    -0.274 OA
BRANCH  14  16
ATOM     16  C   UNL A   1      32.971  25.427  23.516  1.00  0.00     0.047 C 
ATOM     17  C   UNL A   1      33.124  25.680  22.009  1.00  0.00     0.022 C 
ATOM     18  C   UNL A   1      32.502  26.749  24.182  1.00  0.00     0.016 C 
ATOM     19  C   UNL A   1      34.317  25.235  24.228  1.00  0.00     0.016 C 
ATOM     20  C   UNL A   1      32.927  26.645  25.644  1.00  0.00     0.001 C 
ATOM     21  C   UNL A   1      34.077  25.650  25.675  1.00  0.00     0.001 C 
ENDBRANCH  14  16
ENDBRANCH  11  14
ENDBRANCH   7  11
ENDBRANCH   3   6
ENDBRANCH   1   2
BRANCH   1  22
ATOM     22  C   UNL A   1      37.331  19.875  24.966  1.00  0.00     0.042 C 
BRANCH  22  23
ATOM     23  C   UNL A   1      38.636  20.478  25.462  1.00  0.00     0.118 C 
BRANCH  23  24
ATOM     24  N   UNL A   1      39.669  19.469  25.666  1.00  0.00    -0.352 N 
ATOM     25  C   UNL A   1      40.974  19.622  26.060  1.00  0.00     0.251 C 
ATOM     26  H   UNL A   1      39.387  18.541  25.498  1.00  0.00     0.163 HD
ATOM     27  O   UNL A   1      41.761  18.681  25.962  1.00  0.00    -0.269 OA
BRANCH  25  28
ATOM     28  C   UNL A   1      41.439  20.920  26.586  1.00  0.00     0.039 A 
ATOM     29  C   UNL A   1      42.034  21.835  25.714  1.00  0.00     0.014 A 
ATOM     30  C   UNL A   1      41.286  21.233  27.938  1.00  0.00     0.014 A 
ATOM     31  C   UNL A   1      42.410  23.094  26.187  1.00  0.00     0.010 A 
ATOM     32  C   UNL A   1      41.575  22.515  28.386  1.00  0.00     0.010 A 
ATOM     33  C   UNL A   1      42.145  23.458  27.517  1.00  0.00    -0.014 A 
BRANCH  33  34
ATOM     34  C   UNL A   1      42.465  24.813  28.033  1.00  0.00     0.031 A 
ATOM     35  C   UNL A   1      43.860  25.126  28.503  1.00  0.00     0.074 A 
ATOM     36  C   UNL A   1      41.489  25.734  28.151  1.00  0.00     0.049 A 
ATOM     37  N   UNL A   1      44.312  26.207  29.083  1.00  0.00    -0.248 NA
ATOM     38  C   UNL A   1      44.874  24.074  28.317  1.00  0.00     0.031 C 
ATOM     39  C   UNL A   1      40.089  25.544  27.762  1.00  0.00     0.029 A 
ATOM     40  N   UNL A   1      41.523  27.013  28.647  1.00  0.00    -0.354 N 
ATOM     41  C   UNL A   1      45.655  25.961  29.342  1.00  0.00     0.074 A 
ATOM     42  C   UNL A   1      45.930  24.608  28.912  1.00  0.00     0.031 C 
ATOM     43  C   UNL A   1      39.405  26.670  28.017  1.00  0.00     0.029 A 
ATOM     44  C   UNL A   1      40.302  27.642  28.632  1.00  0.00     0.049 A 
ATOM     45  H   UNL A   1      42.346  27.439  28.981  1.00  0.00     0.167 HD
ATOM     46  C   UNL A   1      46.584  26.793  29.869  1.00  0.00     0.031 A 
ATOM     47  C   UNL A   1      39.941  28.859  29.084  1.00  0.00     0.031 A 
ATOM     48  C   UNL A   1      46.311  28.138  30.298  1.00  0.00     0.049 A 
ATOM     49  C   UNL A   1      40.982  29.748  29.708  1.00  0.00     0.074 A 
ATOM     50  C   UNL A   1      47.191  29.073  30.817  1.00  0.00     0.029 A 
ATOM     51  N   UNL A   1      45.062  28.739  30.259  1.00  0.00    -0.354 N 
ATOM     52  N   UNL A   1      42.260  29.520  29.894  1.00  0.00    -0.248 NA
ATOM     53  C   UNL A   1      40.532  31.066  30.176  1.00  0.00     0.031 C 
ATOM     54  C   UNL A   1      46.462  30.221  31.142  1.00  0.00     0.029 A 
ATOM     55  C   UNL A   1      45.144  30.025  30.764  1.00  0.00     0.049 A 
ATOM     56  H   UNL A   1      44.241  28.314  29.924  1.00  0.00     0.167 HD
ATOM     57  C   UNL A   1      42.772  30.678  30.467  1.00  0.00     0.074 A 
ATOM     58  C   UNL A   1      41.670  31.610  30.584  1.00  0.00     0.031 C 
ATOM     59  C   UNL A   1      44.040  30.945  30.861  1.00  0.00     0.031 A 
BRANCH  46  60
ATOM     60  C   UNL A   1      47.986  26.268  30.008  1.00  0.00    -0.014 A 
ATOM     61  C   UNL A   1      48.901  26.355  28.945  1.00  0.00     0.009 A 
ATOM     62  C   UNL A   1      48.412  25.711  31.224  1.00  0.00     0.009 A 
ATOM     63  C   UNL A   1      50.200  25.862  29.087  1.00  0.00     0.001 A 
ATOM     64  C   UNL A   1      49.720  25.249  31.373  1.00  0.00     0.001 A 
ATOM     65  C   UNL A   1      50.610  25.316  30.302  1.00  0.00     0.000 A 
ENDBRANCH  46  60
BRANCH  47  66
ATOM     66  C   UNL A   1      38.527  29.311  28.975  1.00  0.00    -0.014 A 
ATOM     67  C   UNL A   1      37.662  29.227  30.077  1.00  0.00     0.009 A 
ATOM     68  C   UNL A   1      38.026  29.801  27.759  1.00  0.00     0.009 A 
ATOM     69  C   UNL A   1      36.318  29.587  29.953  1.00  0.00     0.001 A 
ATOM     70  C   UNL A   1      36.691  30.194  27.647  1.00  0.00     0.001 A 
ATOM     71  C   UNL A   1      35.834  30.073  28.739  1.00  0.00     0.000 A 
ENDBRANCH  47  66
BRANCH  59  72
ATOM     72  C   UNL A   1      44.320  32.318  31.406  1.00  0.00    -0.014 A 
ATOM     73  C   UNL A   1      44.666  33.386  30.565  1.00  0.00     0.009 A 
ATOM     74  C   UNL A   1      44.181  32.554  32.784  1.00  0.00     0.009 A 
ATOM     75  C   UNL A   1      44.897  34.656  31.097  1.00  0.00     0.001 A 
ATOM     76  C   UNL A   1      44.380  33.832  33.308  1.00  0.00     0.001 A 
ATOM     77  C   UNL A   1      44.747  34.879  32.465  1.00  0.00     0.000 A 
ENDBRANCH  59  72
ENDBRANCH  33  34
ENDBRANCH  25  28
ENDBRANCH  23  24
ENDBRANCH  22  23
ENDBRANCH   1  22
TORSDOF 14
ENDMDL
MODEL 2
REMARK VINA RESULT:     -10.8      0.475      6.051
REMARK SMILES CCN(C(=O)C1(C)CCCC1)[C@@H]1COC[C@H]1C(=O)NCCCNC(=O)c1ccc(-c2c3nc(c(-c4ccccc4)c4ccc([nH]4)c(-c4ccccc4)c4nc(c(-c5ccccc5)c5ccc2[nH]5)C=C4)C=C3)cc1
REMARK SMILES IDX 20 1 19 2 17 3 18 4 16 6 12 7 13 8 14 9 15 10 3 11 2 12 1 13
REMARK SMILES IDX 4 14 5 15 6 16 7 17 8 18 11 19 9 20 10 21 21 22 22 23 23 24
REMARK SMILES IDX 24 25 25 27 26 28 27 29 73 30 28 31 72 32 29 33 30 34 31 35
REMARK SMILES IDX 66 36 32 37 71 38 65 39 67 40 33 41 70 42 64 43 63 44 34 46
REMARK SMILES IDX 56 47 41 48 55 49 42 50 45 51 54 52 68 53 43 54 44 55 53 57
REMARK SMILES IDX 69 58 46 59 35 60 36 61 40 62 37 63 39 64 38 65 57 66 58 67
REMARK SMILES IDX 62 68 59 69 61 70 60 71 47 72 48 73 52 74 49 75 51 76 50 77
REMARK H PARENT 19 5 23 26 67 45 45 56
REMARK Flexibility Score: inf
ROOT
ATOM      1  C   UNL A   1      36.126  21.101  25.331  1.00  0.00     0.117 C 
ENDROOT
BRANCH   1   2
ATOM      2  N   UNL A   1      34.905  20.318  25.415  1.00  0.00    -0.356 N 
ATOM      3  C   UNL A   1      33.626  20.675  25.686  1.00  0.00     0.227 C 
ATOM      4  O   UNL A   1      32.778  19.777  25.674  1.00  0.00    -0.275 OA
ATOM      5  H   UNL A   1      35.029  19.356  25.244  1.00  0.00     0.163 HD
BRANCH   3   6
ATOM      6  C   UNL A   1      33.201  22.105  25.946  1.00  0.00     0.129 C 
ATOM      7  C   UNL A   1      31.890  22.532  25.289  1.00  0.00     0.125 C 
ATOM      8  C   UNL A   1      31.295  23.457  26.348  1.00  0.00     0.186 C 
ATOM      9  O   UNL A   1      31.702  22.913  27.611  1.00  0.00    -0.378 OA
ATOM     10  C   UNL A   1      33.026  22.389  27.429  1.00  0.00     0.176 C 
BRANCH   7  11
ATOM     11  N   UNL A   1      32.105  23.056  23.920  1.00  0.00    -0.336 N 
BRANCH  11  12
ATOM     12  C   UNL A   1      32.841  22.233  22.959  1.00  0.00     0.116 C 
ATOM     13  C   UNL A   1      31.935  21.170  22.343  1.00  0.00     0.027 C 
ENDBRANCH  11  12
BRANCH  11  14
ATOM     14  C   UNL A   1      31.603  24.336  23.653  1.00  0.00     0.228 C 
ATOM     15  O   UNL A   1      30.386  24.485  23.486  1.00  0.00    -0.274 OA
BRANCH  14  16
ATOM     16  C   UNL A   1      32.567  25.532  23.392  1.00  0.00     0.047 C 
ATOM     17  C   UNL A   1      32.529  25.861  21.893  1.00  0.00     0.022 C 
ATOM     18  C   UNL A   1      32.084  26.785  24.173  1.00  0.00     0.016 C 
ATOM     19  C   UNL A   1      33.995  25.412  23.941  1.00  0.00     0.016 C 
ATOM     20  C   UNL A   1      32.679  26.651  25.572  1.00  0.00     0.001 C 
ATOM     21  C   UNL A   1      33.893  25.745  25.425  1.00  0.00     0.001 C 
ENDBRANCH  14  16
ENDBRANCH  11  14
ENDBRANCH   7  11
ENDBRANCH   3   6
ENDBRANCH   1   2
BRANCH   1  22
ATOM     22  C   UNL A   1      37.328  20.252  24.942  1.00  0.00     0.042 C 
BRANCH  22  23
ATOM     23  C   UNL A   1      38.642  20.758  25.517  1.00  0.00     0.118 C 
BRANCH  23  24
ATOM     24  N   UNL A   1      39.639  19.700  25.631  1.00  0.00    -0.352 N 
ATOM     25  C   UNL A   1      40.962  19.780  25.986  1.00  0.00     0.251 C 
ATOM     26  H   UNL A   1      39.314  18.794  25.425  1.00  0.00     0.163 HD
ATOM     27  O   UNL A   1      41.706  18.816  25.810  1.00  0.00    -0.269 OA
BRANCH  25  28
ATOM     28  C   UNL A   1      41.497  21.028  26.562  1.00  0.00     0.039 A 
ATOM     29  C   UNL A   1      42.058  21.985  25.714  1.00  0.00     0.014 A 
ATOM     30  C   UNL A   1      41.443  21.254  27.939  1.00  0.00     0.014 A 
ATOM     31  C   UNL A   1      42.500  23.201  26.242  1.00  0.00     0.010 A 
ATOM     32  C   UNL A   1      41.796  22.496  28.449  1.00  0.00     0.010 A 
ATOM     33  C   UNL A   1      42.335  23.481  27.607  1.00  0.00    -0.014 A 
BRANCH  33  34
ATOM     34  C   UNL A   1      42.726  24.791  28.187  1.00  0.00     0.031 A 
ATOM     35  C   UNL A   1      41.688  25.861  28.387  1.00  0.00     0.074 A 
ATOM     36  C   UNL A   1      44.020  25.044  28.461  1.00  0.00     0.049 A 
ATOM     37  N   UNL A   1      41.844  27.101  28.775  1.00  0.00    -0.248 NA
ATOM     38  C   UNL A   1      40.293  25.496  28.087  1.00  0.00     0.031 C 
ATOM     39  C   UNL A   1      45.128  24.102  28.281  1.00  0.00     0.029 A 
ATOM     40  N   UNL A   1      44.626  26.179  28.937  1.00  0.00    -0.354 N 
ATOM     41  C   UNL A   1      40.574  27.664  28.753  1.00  0.00     0.074 A 
ATOM     42  C   UNL A   1      39.668  26.651  28.257  1.00  0.00     0.031 C 
ATOM     43  C   UNL A   1      46.273  24.691  28.658  1.00  0.00     0.029 A 
ATOM     44  C   UNL A   1      45.990  26.066  29.058  1.00  0.00     0.049 A 
ATOM     45  H   UNL A   1      44.130  26.997  29.169  1.00  0.00     0.167 HD
ATOM     46  C   UNL A   1      40.190  28.905  29.134  1.00  0.00     0.031 A 
ATOM     47  C   UNL A   1      46.913  26.974  29.430  1.00  0.00     0.031 A 
ATOM     48  C   UNL A   1      41.090  29.912  29.627  1.00  0.00     0.049 A 
ATOM     49  C   UNL A   1      46.466  28.361  29.805  1.00  0.00     0.074 A 
ATOM     50  C   UNL A   1      40.795  31.191  30.068  1.00  0.00     0.029 A 
ATOM     51  N   UNL A   1      42.462  29.753  29.741  1.00  0.00    -0.354 N 
ATOM     52  N   UNL A   1      45.254  28.860  29.833  1.00  0.00    -0.248 NA
ATOM     53  C   UNL A   1      47.515  29.308  30.209  1.00  0.00     0.031 C 
ATOM     54  C   UNL A   1      41.997  31.824  30.398  1.00  0.00     0.029 A 
ATOM     55  C   UNL A   1      43.031  30.918  30.227  1.00  0.00     0.049 A 
ATOM     56  H   UNL A   1      42.958  28.935  29.511  1.00  0.00     0.167 HD
ATOM     57  C   UNL A   1      45.391  30.165  30.289  1.00  0.00     0.074 A 
ATOM     58  C   UNL A   1      46.802  30.375  30.541  1.00  0.00     0.031 C 
ATOM     59  C   UNL A   1      44.436  31.106  30.484  1.00  0.00     0.031 A 
BRANCH  46  60
ATOM     60  C   UNL A   1      38.727  29.239  29.034  1.00  0.00    -0.014 A 
ATOM     61  C   UNL A   1      37.873  29.098  30.140  1.00  0.00     0.009 A 
ATOM     62  C   UNL A   1      38.200  29.735  27.831  1.00  0.00     0.009 A 
ATOM     63  C   UNL A   1      36.516  29.411  30.033  1.00  0.00     0.001 A 
ATOM     64  C   UNL A   1      36.850  30.078  27.736  1.00  0.00     0.001 A 
ATOM     65  C   UNL A   1      36.008  29.907  28.833  1.00  0.00     0.000 A 
ENDBRANCH  46  60
BRANCH  47  66
ATOM     66  C   UNL A   1      48.355  26.611  29.459  1.00  0.00    -0.014 A 
ATOM     67  C   UNL A   1      49.171  26.826  28.337  1.00  0.00     0.009 A 
ATOM     68  C   UNL A   1      48.919  26.017  30.600  1.00  0.00     0.009 A 
ATOM     69  C   UNL A   1      50.507  26.420  28.343  1.00  0.00     0.001 A 
ATOM     70  C   UNL A   1      50.265  25.645  30.616  1.00  0.00     0.001 A 
ATOM     71  C   UNL A   1      51.054  25.833  29.483  1.00  0.00     0.000 A 
ENDBRANCH  47  66
BRANCH  59  72
ATOM     72  C   UNL A   1      44.873  32.431  31.044  1.00  0.00    -0.014 A 
ATOM     73  C   UNL A   1      44.951  32.653  32.427  1.00  0.00     0.009 A 
ATOM     74  C   UNL A   1      45.265  33.455  30.166  1.00  0.00     0.009 A 
ATOM     75  C   UNL A   1      45.384  33.887  32.919  1.00  0.00     0.001 A 
ATOM     76  C   UNL A   1      45.728  34.674  30.661  1.00  0.00     0.001 A 
ATOM     77  C   UNL A   1      45.778  34.892  32.036  1.00  0.00     0.000 A 
ENDBRANCH  59  72
ENDBRANCH  33  34
ENDBRANCH  25  28
ENDBRANCH  23  24
ENDBRANCH  22  23
ENDBRANCH   1  22
TORSDOF 14
ENDMDL
MODEL 3
REMARK VINA RESULT:     -10.7      1.873      7.195
REMARK SMILES CCN(C(=O)C1(C)CCCC1)[C@@H]1COC[C@H]1C(=O)NCCCNC(=O)c1ccc(-c2c3nc(c(-c4ccccc4)c4ccc([nH]4)c(-c4ccccc4)c4nc(c(-c5ccccc5)c5ccc2[nH]5)C=C4)C=C3)cc1
REMARK SMILES IDX 20 1 19 2 17 3 18 4 16 6 12 7 13 8 14 9 15 10 3 11 2 12 1 13
REMARK SMILES IDX 4 14 5 15 6 16 7 17 8 18 11 19 9 20 10 21 21 22 22 23 23 24
REMARK SMILES IDX 24 25 25 27 26 28 27 29 73 30 28 31 72 32 29 33 30 34 31 35
REMARK SMILES IDX 66 36 32 37 71 38 65 39 67 40 33 41 70 42 64 43 63 44 34 46
REMARK SMILES IDX 56 47 41 48 55 49 42 50 45 51 54 52 68 53 43 54 44 55 53 57
REMARK SMILES IDX 69 58 46 59 35 60 36 61 40 62 37 63 39 64 38 65 57 66 58 67
REMARK SMILES IDX 62 68 59 69 61 70 60 71 47 72 48 73 52 74 49 75 51 76 50 77
REMARK H PARENT 19 5 23 26 67 45 45 56
REMARK Flexibility Score: inf
ROOT
ATOM      1  C   UNL A   1      33.326  26.648  25.959  1.00  0.00     0.117 C 
ENDROOT
BRANCH   1   2
ATOM      2  N   UNL A   1      33.061  26.235  24.591  1.00  0.00    -0.356 N 
ATOM      3  C   UNL A   1      32.467  25.127  24.086  1.00  0.00     0.227 C 
ATOM      4  O   UNL A   1      32.367  25.054  22.856  1.00  0.00    -0.275 OA
ATOM      5  H   UNL A   1      33.369  26.876  23.909  1.00  0.00     0.163 HD
BRANCH   3   6
ATOM      6  C   UNL A   1      31.889  24.028  24.952  1.00  0.00     0.129 C 
ATOM      7  C   UNL A   1      32.903  23.244  25.785  1.00  0.00     0.125 C 
ATOM      8  C   UNL A   1      32.119  22.985  27.069  1.00  0.00     0.186 C 
ATOM      9  O   UNL A   1      31.283  24.136  27.253  1.00  0.00    -0.378 OA
ATOM     10  C   UNL A   1      30.869  24.559  25.945  1.00  0.00     0.176 C 
BRANCH   7  11
ATOM     11  N   UNL A   1      33.455  22.090  25.037  1.00  0.00    -0.336 N 
BRANCH  11  12
ATOM     12  C   UNL A   1      32.550  21.286  24.216  1.00  0.00     0.116 C 
ATOM     13  C   UNL A   1      32.325  19.910  24.837  1.00  0.00     0.027 C 
ENDBRANCH  11  12
BRANCH  11  14
ATOM     14  C   UNL A   1      34.822  21.836  25.200  1.00  0.00     0.228 C 
ATOM     15  O   UNL A   1      35.191  21.054  26.085  1.00  0.00    -0.274 OA
BRANCH  14  16
ATOM     16  C   UNL A   1      35.885  22.654  24.404  1.00  0.00     0.047 C 
ATOM     17  C   UNL A   1      35.318  22.946  23.007  1.00  0.00     0.022 C 
ATOM     18  C   UNL A   1      36.150  24.011  25.111  1.00  0.00     0.016 C 
ATOM     19  C   UNL A   1      37.312  22.093  24.364  1.00  0.00     0.016 C 
ATOM     20  C   UNL A   1      37.210  23.723  26.170  1.00  0.00     0.001 C 
ATOM     21  C   UNL A   1      37.939  22.472  25.701  1.00  0.00     0.001 C 
ENDBRANCH  14  16
ENDBRANCH  11  14
ENDBRANCH   7  11
ENDBRANCH   3   6
ENDBRANCH   1   2
BRANCH   1  22
ATOM     22  C   UNL A   1      33.348  28.162  26.109  1.00  0.00     0.042 C 
BRANCH  22  23
ATOM     23  C   UNL A   1      33.364  28.630  27.556  1.00  0.00     0.118 C 
BRANCH  23  24
ATOM     24  N   UNL A   1      33.479  30.080  27.666  1.00  0.00    -0.352 N 
ATOM     25  C   UNL A   1      34.525  30.841  28.123  1.00  0.00     0.251 C 
ATOM     26  H   UNL A   1      32.690  30.587  27.368  1.00  0.00     0.163 HD
ATOM     27  O   UNL A   1      34.360  32.038  28.354  1.00  0.00    -0.269 OA
BRANCH  25  28
ATOM     28  C   UNL A   1      35.844  30.220  28.353  1.00  0.00     0.039 A 
ATOM     29  C   UNL A   1      36.767  30.172  27.306  1.00  0.00     0.014 A 
ATOM     30  C   UNL A   1      36.168  29.686  29.602  1.00  0.00     0.014 A 
ATOM     31  C   UNL A   1      38.043  29.653  27.535  1.00  0.00     0.010 A 
ATOM     32  C   UNL A   1      37.464  29.256  29.853  1.00  0.00     0.010 A 
ATOM     33  C   UNL A   1      38.414  29.229  28.821  1.00  0.00    -0.014 A 
BRANCH  33  34
ATOM     34  C   UNL A   1      39.785  28.740  29.115  1.00  0.00     0.031 A 
ATOM     35  C   UNL A   1      40.792  29.666  29.740  1.00  0.00     0.074 A 
ATOM     36  C   UNL A   1      40.146  27.494  28.751  1.00  0.00     0.049 A 
ATOM     37  N   UNL A   1      42.064  29.467  29.974  1.00  0.00    -0.248 NA
ATOM     38  C   UNL A   1      40.312  31.002  30.130  1.00  0.00     0.031 C 
ATOM     39  C   UNL A   1      39.272  26.509  28.108  1.00  0.00     0.029 A 
ATOM     40  N   UNL A   1      41.351  26.846  28.859  1.00  0.00    -0.354 N 
ATOM     41  C   UNL A   1      42.535  30.652  30.525  1.00  0.00     0.074 A 
ATOM     42  C   UNL A   1      41.430  31.585  30.534  1.00  0.00     0.031 C 
ATOM     43  C   UNL A   1      39.965  25.379  27.896  1.00  0.00     0.029 A 
ATOM     44  C   UNL A   1      41.341  25.574  28.340  1.00  0.00     0.049 A 
ATOM     45  H   UNL A   1      42.147  27.255  29.270  1.00  0.00     0.167 HD
ATOM     46  C   UNL A   1      43.770  30.933  31.003  1.00  0.00     0.031 A 
ATOM     47  C   UNL A   1      42.335  24.673  28.216  1.00  0.00     0.031 A 
ATOM     48  C   UNL A   1      44.869  30.006  30.994  1.00  0.00     0.049 A 
ATOM     49  C   UNL A   1      43.710  25.027  28.713  1.00  0.00     0.074 A 
ATOM     50  C   UNL A   1      46.151  30.184  31.483  1.00  0.00     0.029 A 
ATOM     51  N   UNL A   1      44.814  28.725  30.465  1.00  0.00    -0.354 N 
ATOM     52  N   UNL A   1      44.125  26.132  29.283  1.00  0.00    -0.248 NA
ATOM     53  C   UNL A   1      44.753  24.003  28.558  1.00  0.00     0.031 C 
ATOM     54  C   UNL A   1      46.888  29.030  31.201  1.00  0.00     0.029 A 
ATOM     55  C   UNL A   1      46.046  28.110  30.598  1.00  0.00     0.049 A 
ATOM     56  H   UNL A   1      44.018  28.316  30.056  1.00  0.00     0.167 HD
ATOM     57  C   UNL A   1      45.465  25.924  29.585  1.00  0.00     0.074 A 
ATOM     58  C   UNL A   1      45.788  24.581  29.150  1.00  0.00     0.031 C 
ATOM     59  C   UNL A   1      46.348  26.768  30.171  1.00  0.00     0.031 A 
BRANCH  46  60
ATOM     60  C   UNL A   1      43.994  32.304  31.581  1.00  0.00    -0.014 A 
ATOM     61  C   UNL A   1      44.390  33.378  30.766  1.00  0.00     0.009 A 
ATOM     62  C   UNL A   1      43.774  32.535  32.947  1.00  0.00     0.009 A 
ATOM     63  C   UNL A   1      44.595  34.645  31.316  1.00  0.00     0.001 A 
ATOM     64  C   UNL A   1      43.949  33.810  33.488  1.00  0.00     0.001 A 
ATOM     65  C   UNL A   1      44.368  34.861  32.674  1.00  0.00     0.000 A 
ENDBRANCH  46  60
BRANCH  47  66
ATOM     66  C   UNL A   1      42.075  23.351  27.586  1.00  0.00    -0.014 A 
ATOM     67  C   UNL A   1      42.364  23.135  26.229  1.00  0.00     0.009 A 
ATOM     68  C   UNL A   1      41.507  22.304  28.330  1.00  0.00     0.009 A 
ATOM     69  C   UNL A   1      42.055  21.915  25.623  1.00  0.00     0.001 A 
ATOM     70  C   UNL A   1      41.232  21.074  27.731  1.00  0.00     0.001 A 
ATOM     71  C   UNL A   1      41.492  20.885  26.374  1.00  0.00     0.000 A 
ENDBRANCH  47  66
BRANCH  59  72
ATOM     72  C   UNL A   1      47.736  26.249  30.426  1.00  0.00    -0.014 A 
ATOM     73  C   UNL A   1      48.723  26.272  29.429  1.00  0.00     0.009 A 
ATOM     74  C   UNL A   1      48.072  25.779  31.706  1.00  0.00     0.009 A 
ATOM     75  C   UNL A   1      50.011  25.806  29.702  1.00  0.00     0.001 A 
ATOM     76  C   UNL A   1      49.368  25.344  31.984  1.00  0.00     0.001 A 
ATOM     77  C   UNL A   1      50.334  25.349  30.980  1.00  0.00     0.000 A 
ENDBRANCH  59  72
ENDBRANCH  33  34
ENDBRANCH  25  28
ENDBRANCH  23  24
ENDBRANCH  22  23
ENDBRANCH   1  22
TORSDOF 14
ENDMDL
