MODEL 1
REMARK VINA RESULT:     -12.9      0.000      0.000
REMARK SMILES C[NH+]1CCC(C(=O)N2C[C@@H](C(=O)NCCCNC(=O)c3ccc(-c4c5nc(c(-c6ccccc6)c6ccc([nH]6)c(-c6ccccc6)c6nc(c(-c7ccccc7)c7ccc4[nH]7)C=C6)C=C5)cc3)[C@H](c3ccc4c(c3)OCO4)C2)CC1
REMARK SMILES IDX 15 1 14 2 13 3 11 4 12 5 10 7 8 8 9 9 78 10 68 11 6 12 7 13
REMARK SMILES IDX 5 14 1 15 2 16 3 17 80 18 4 20 79 21 69 22 70 23 74 24 71 25
REMARK SMILES IDX 73 26 72 27 75 28 77 29 76 30 16 31 17 32 18 33 19 35 20 36
REMARK SMILES IDX 21 37 67 38 22 39 66 40 23 41 24 42 25 43 60 44 26 45 65 46
REMARK SMILES IDX 59 47 61 48 27 49 64 50 58 51 57 52 28 54 50 55 35 56 49 57
REMARK SMILES IDX 36 58 39 59 48 60 62 61 37 62 38 63 47 65 63 66 40 67 29 68
REMARK SMILES IDX 30 69 34 70 31 71 33 72 32 73 51 74 52 75 56 76 53 77 55 78
REMARK SMILES IDX 54 79 41 80 42 81 46 82 43 83 45 84 44 85
REMARK H PARENT 13 6 2 19 17 34 61 53 39 64
REMARK Flexibility Score: inf
ROOT
ATOM      1  C   UNL A   1      32.101  29.095  26.814  1.00  0.00     0.042 C 
ENDROOT
BRANCH   1   2
ATOM      2  C   UNL A   1      31.855  29.783  25.487  1.00  0.00     0.117 C 
BRANCH   2   3
ATOM      3  N   UNL A   1      32.977  29.705  24.568  1.00  0.00    -0.356 N 
ATOM      4  C   UNL A   1      33.286  28.728  23.669  1.00  0.00     0.225 C 
ATOM      5  O   UNL A   1      34.177  28.950  22.851  1.00  0.00    -0.275 OA
ATOM      6  H   UNL A   1      33.601  30.465  24.598  1.00  0.00     0.163 HD
BRANCH   4   7
ATOM      7  C   UNL A   1      32.545  27.413  23.716  1.00  0.00     0.107 C 
ATOM      8  N   UNL A   1      32.672  25.137  23.433  1.00  0.00    -0.341 N 
ATOM      9  C   UNL A   1      33.530  26.265  23.709  1.00  0.00     0.133 C 
ATOM     10  C   UNL A   1      31.667  25.542  22.449  1.00  0.00     0.128 C 
ATOM     11  C   UNL A   1      31.681  27.095  22.470  1.00  0.00     0.053 C 
BRANCH   8  12
ATOM     12  C   UNL A   1      32.697  23.859  23.927  1.00  0.00     0.226 C 
ATOM     13  O   UNL A   1      31.658  23.357  24.374  1.00  0.00    -0.275 OA
BRANCH  12  14
ATOM     14  C   UNL A   1      34.027  23.147  24.220  1.00  0.00     0.090 C 
ATOM     15  C   UNL A   1      37.951  22.236  25.731  1.00  0.00     0.332 C 
ATOM     16  N   UNL A   1      36.743  22.909  25.256  1.00  0.00    -0.337 N 
ATOM     17  C   UNL A   1      35.603  22.605  26.128  1.00  0.00     0.262 C 
ATOM     18  C   UNL A   1      36.448  22.538  23.862  1.00  0.00     0.262 C 
ATOM     19  H   UNL A   1      36.909  23.916  25.285  1.00  0.00     0.347 HD
ATOM     20  C   UNL A   1      34.372  23.398  25.696  1.00  0.00     0.075 C 
ATOM     21  C   UNL A   1      35.264  23.367  23.352  1.00  0.00     0.075 C 
ENDBRANCH  12  14
ENDBRANCH   8  12
BRANCH  11  22
ATOM     22  C   UNL A   1      30.355  27.837  22.537  1.00  0.00    -0.038 A 
ATOM     23  C   UNL A   1      29.232  27.336  23.237  1.00  0.00     0.008 A 
ATOM     24  C   UNL A   1      30.315  29.160  22.050  1.00  0.00     0.054 A 
ATOM     25  C   UNL A   1      28.121  28.150  23.506  1.00  0.00     0.051 A 
ATOM     26  C   UNL A   1      29.235  29.953  22.382  1.00  0.00     0.166 A 
ATOM     27  C   UNL A   1      28.175  29.465  23.104  1.00  0.00     0.165 A 
ATOM     28  O   UNL A   1      29.153  31.297  22.185  1.00  0.00    -0.454 OA
ATOM     29  O   UNL A   1      27.280  30.437  23.428  1.00  0.00    -0.454 OA
ATOM     30  C   UNL A   1      28.005  31.614  23.004  1.00  0.00     0.468 C 
ENDBRANCH  11  22
ENDBRANCH   4   7
ENDBRANCH   2   3
ENDBRANCH   1   2
BRANCH   1  31
ATOM     31  C   UNL A   1      33.513  29.296  27.344  1.00  0.00     0.118 C 
BRANCH  31  32
ATOM     32  N   UNL A   1      33.710  30.589  27.997  1.00  0.00    -0.352 N 
ATOM     33  C   UNL A   1      34.786  31.072  28.702  1.00  0.00     0.251 C 
ATOM     34  H   UNL A   1      32.951  31.211  27.920  1.00  0.00     0.163 HD
ATOM     35  O   UNL A   1      34.691  32.118  29.338  1.00  0.00    -0.269 OA
BRANCH  33  36
ATOM     36  C   UNL A   1      36.048  30.305  28.723  1.00  0.00     0.039 A 
ATOM     37  C   UNL A   1      36.860  30.283  27.585  1.00  0.00     0.014 A 
ATOM     38  C   UNL A   1      36.449  29.645  29.884  1.00  0.00     0.014 A 
ATOM     39  C   UNL A   1      38.126  29.695  27.651  1.00  0.00     0.010 A 
ATOM     40  C   UNL A   1      37.742  29.154  29.979  1.00  0.00     0.010 A 
ATOM     41  C   UNL A   1      38.599  29.181  28.867  1.00  0.00    -0.014 A 
BRANCH  41  42
ATOM     42  C   UNL A   1      39.977  28.657  29.039  1.00  0.00     0.031 A 
ATOM     43  C   UNL A   1      41.081  29.605  29.415  1.00  0.00     0.074 A 
ATOM     44  C   UNL A   1      40.262  27.380  28.715  1.00  0.00     0.049 A 
ATOM     45  N   UNL A   1      42.376  29.432  29.359  1.00  0.00    -0.248 NA
ATOM     46  C   UNL A   1      40.669  30.943  29.870  1.00  0.00     0.031 C 
ATOM     47  C   UNL A   1      39.289  26.362  28.310  1.00  0.00     0.029 A 
ATOM     48  N   UNL A   1      41.469  26.729  28.647  1.00  0.00    -0.354 N 
ATOM     49  C   UNL A   1      42.931  30.654  29.718  1.00  0.00     0.074 A 
ATOM     50  C   UNL A   1      41.835  31.567  29.957  1.00  0.00     0.031 C 
ATOM     51  C   UNL A   1      39.937  25.215  28.046  1.00  0.00     0.029 A 
ATOM     52  C   UNL A   1      41.371  25.432  28.206  1.00  0.00     0.049 A 
ATOM     53  H   UNL A   1      42.324  27.153  28.890  1.00  0.00     0.167 HD
ATOM     54  C   UNL A   1      44.238  30.985  29.842  1.00  0.00     0.031 A 
ATOM     55  C   UNL A   1      42.329  24.526  27.932  1.00  0.00     0.031 A 
ATOM     56  C   UNL A   1      45.323  30.065  29.645  1.00  0.00     0.049 A 
ATOM     57  C   UNL A   1      43.773  24.911  28.095  1.00  0.00     0.074 A 
ATOM     58  C   UNL A   1      46.679  30.284  29.810  1.00  0.00     0.029 A 
ATOM     59  N   UNL A   1      45.172  28.745  29.252  1.00  0.00    -0.354 N 
ATOM     60  N   UNL A   1      44.283  26.062  28.461  1.00  0.00    -0.248 NA
ATOM     61  C   UNL A   1      44.773  23.872  27.808  1.00  0.00     0.031 C 
ATOM     62  C   UNL A   1      47.353  29.103  29.486  1.00  0.00     0.029 A 
ATOM     63  C   UNL A   1      46.412  28.138  29.163  1.00  0.00     0.049 A 
ATOM     64  H   UNL A   1      44.312  28.305  29.065  1.00  0.00     0.167 HD
ATOM     65  C   UNL A   1      45.660  25.875  28.482  1.00  0.00     0.074 A 
ATOM     66  C   UNL A   1      45.905  24.502  28.093  1.00  0.00     0.031 C 
ATOM     67  C   UNL A   1      46.631  26.763  28.797  1.00  0.00     0.031 A 
BRANCH  54  68
ATOM     68  C   UNL A   1      44.558  32.408  30.203  1.00  0.00    -0.014 A 
ATOM     69  C   UNL A   1      44.724  33.392  29.215  1.00  0.00     0.009 A 
ATOM     70  C   UNL A   1      44.673  32.774  31.553  1.00  0.00     0.009 A 
ATOM     71  C   UNL A   1      45.039  34.704  29.571  1.00  0.00     0.001 A 
ATOM     72  C   UNL A   1      44.959  34.094  31.907  1.00  0.00     0.001 A 
ATOM     73  C   UNL A   1      45.153  35.054  30.915  1.00  0.00     0.000 A 
ENDBRANCH  54  68
BRANCH  55  74
ATOM     74  C   UNL A   1      41.956  23.161  27.480  1.00  0.00    -0.014 A 
ATOM     75  C   UNL A   1      42.033  22.823  26.120  1.00  0.00     0.009 A 
ATOM     76  C   UNL A   1      41.525  22.190  28.397  1.00  0.00     0.009 A 
ATOM     77  C   UNL A   1      41.662  21.549  25.684  1.00  0.00     0.001 A 
ATOM     78  C   UNL A   1      41.179  20.909  27.962  1.00  0.00     0.001 A 
ATOM     79  C   UNL A   1      41.240  20.591  26.606  1.00  0.00     0.000 A 
ENDBRANCH  55  74
BRANCH  67  80
ATOM     80  C   UNL A   1      48.048  26.268  28.799  1.00  0.00    -0.014 A 
ATOM     81  C   UNL A   1      48.829  26.287  27.634  1.00  0.00     0.009 A 
ATOM     82  C   UNL A   1      48.629  25.849  30.006  1.00  0.00     0.009 A 
ATOM     83  C   UNL A   1      50.163  25.878  27.676  1.00  0.00     0.001 A 
ATOM     84  C   UNL A   1      49.969  25.463  30.049  1.00  0.00     0.001 A 
ATOM     85  C   UNL A   1      50.733  25.474  28.884  1.00  0.00     0.000 A 
ENDBRANCH  67  80
ENDBRANCH  41  42
ENDBRANCH  33  36
ENDBRANCH  31  32
ENDBRANCH   1  31
TORSDOF 13
ENDMDL
MODEL 2
REMARK VINA RESULT:     -12.7      2.684      6.713
REMARK SMILES C[NH+]1CCC(C(=O)N2C[C@@H](C(=O)NCCCNC(=O)c3ccc(-c4c5nc(c(-c6ccccc6)c6ccc([nH]6)c(-c6ccccc6)c6nc(c(-c7ccccc7)c7ccc4[nH]7)C=C6)C=C5)cc3)[C@H](c3ccc4c(c3)OCO4)C2)CC1
REMARK SMILES IDX 15 1 14 2 13 3 11 4 12 5 10 7 8 8 9 9 78 10 68 11 6 12 7 13
REMARK SMILES IDX 5 14 1 15 2 16 3 17 80 18 4 20 79 21 69 22 70 23 74 24 71 25
REMARK SMILES IDX 73 26 72 27 75 28 77 29 76 30 16 31 17 32 18 33 19 35 20 36
REMARK SMILES IDX 21 37 67 38 22 39 66 40 23 41 24 42 25 43 60 44 26 45 65 46
REMARK SMILES IDX 59 47 61 48 27 49 64 50 58 51 57 52 28 54 50 55 35 56 49 57
REMARK SMILES IDX 36 58 39 59 48 60 62 61 37 62 38 63 47 65 63 66 40 67 29 68
REMARK SMILES IDX 30 69 34 70 31 71 33 72 32 73 51 74 52 75 56 76 53 77 55 78
REMARK SMILES IDX 54 79 41 80 42 81 46 82 43 83 45 84 44 85
REMARK H PARENT 13 6 2 19 17 34 61 53 39 64
REMARK Flexibility Score: inf
ROOT
ATOM      1  C   UNL A   1      31.817  30.237  26.869  1.00  0.00     0.042 C 
ENDROOT
BRANCH   1   2
ATOM      2  C   UNL A   1      31.597  29.817  25.430  1.00  0.00     0.117 C 
BRANCH   2   3
ATOM      3  N   UNL A   1      32.815  29.776  24.638  1.00  0.00    -0.356 N 
ATOM      4  C   UNL A   1      33.243  28.816  23.770  1.00  0.00     0.225 C 
ATOM      5  O   UNL A   1      34.213  29.067  23.057  1.00  0.00    -0.275 OA
ATOM      6  H   UNL A   1      33.414  30.550  24.743  1.00  0.00     0.163 HD
BRANCH   4   7
ATOM      7  C   UNL A   1      32.534  27.484  23.725  1.00  0.00     0.107 C 
ATOM      8  N   UNL A   1      32.728  25.228  23.342  1.00  0.00    -0.341 N 
ATOM      9  C   UNL A   1      33.547  26.360  23.705  1.00  0.00     0.133 C 
ATOM     10  C   UNL A   1      31.753  25.656  22.337  1.00  0.00     0.128 C 
ATOM     11  C   UNL A   1      31.729  27.206  22.431  1.00  0.00     0.053 C 
BRANCH   8  12
ATOM     12  C   UNL A   1      32.765  23.928  23.776  1.00  0.00     0.226 C 
ATOM     13  O   UNL A   1      31.708  23.301  23.915  1.00  0.00    -0.275 OA
BRANCH  12  14
ATOM     14  C   UNL A   1      34.045  23.329  24.380  1.00  0.00     0.090 C 
ATOM     15  C   UNL A   1      37.608  20.988  24.954  1.00  0.00     0.332 C 
ATOM     16  N   UNL A   1      36.295  21.481  24.542  1.00  0.00    -0.337 N 
ATOM     17  C   UNL A   1      36.425  22.718  23.765  1.00  0.00     0.262 C 
ATOM     18  C   UNL A   1      35.421  21.686  25.709  1.00  0.00     0.262 C 
ATOM     19  H   UNL A   1      35.864  20.773  23.946  1.00  0.00     0.347 HD
ATOM     20  C   UNL A   1      35.064  23.168  23.241  1.00  0.00     0.075 C 
ATOM     21  C   UNL A   1      34.013  22.063  25.233  1.00  0.00     0.075 C 
ENDBRANCH  12  14
ENDBRANCH   8  12
BRANCH  11  22
ATOM     22  C   UNL A   1      30.383  27.914  22.479  1.00  0.00    -0.038 A 
ATOM     23  C   UNL A   1      29.269  27.393  23.179  1.00  0.00     0.008 A 
ATOM     24  C   UNL A   1      30.311  29.227  21.971  1.00  0.00     0.054 A 
ATOM     25  C   UNL A   1      28.136  28.181  23.429  1.00  0.00     0.051 A 
ATOM     26  C   UNL A   1      29.209  29.996  22.284  1.00  0.00     0.166 A 
ATOM     27  C   UNL A   1      28.157  29.492  23.007  1.00  0.00     0.165 A 
ATOM     28  O   UNL A   1      29.092  31.335  22.065  1.00  0.00    -0.454 OA
ATOM     29  O   UNL A   1      27.235  30.445  23.310  1.00  0.00    -0.454 OA
ATOM     30  C   UNL A   1      27.930  31.633  22.872  1.00  0.00     0.468 C 
ENDBRANCH  11  22
ENDBRANCH   4   7
ENDBRANCH   2   3
ENDBRANCH   1   2
BRANCH   1  31
ATOM     31  C   UNL A   1      32.964  31.222  27.042  1.00  0.00     0.118 C 
BRANCH  31  32
ATOM     32  N   UNL A   1      32.519  32.587  27.319  1.00  0.00    -0.352 N 
ATOM     33  C   UNL A   1      33.078  33.557  28.116  1.00  0.00     0.251 C 
ATOM     34  H   UNL A   1      31.689  32.852  26.862  1.00  0.00     0.163 HD
ATOM     35  O   UNL A   1      32.456  34.584  28.370  1.00  0.00    -0.269 OA
BRANCH  33  36
ATOM     36  C   UNL A   1      34.418  33.341  28.698  1.00  0.00     0.039 A 
ATOM     37  C   UNL A   1      34.538  32.665  29.916  1.00  0.00     0.014 A 
ATOM     38  C   UNL A   1      35.557  33.768  28.016  1.00  0.00     0.014 A 
ATOM     39  C   UNL A   1      35.806  32.318  30.391  1.00  0.00     0.010 A 
ATOM     40  C   UNL A   1      36.806  33.335  28.435  1.00  0.00     0.010 A 
ATOM     41  C   UNL A   1      36.945  32.597  29.621  1.00  0.00    -0.014 A 
BRANCH  41  42
ATOM     42  C   UNL A   1      38.307  32.148  30.005  1.00  0.00     0.031 A 
ATOM     43  C   UNL A   1      38.830  30.848  29.461  1.00  0.00     0.074 A 
ATOM     44  C   UNL A   1      39.003  32.819  30.943  1.00  0.00     0.049 A 
ATOM     45  N   UNL A   1      39.855  30.137  29.856  1.00  0.00    -0.248 NA
ATOM     46  C   UNL A   1      38.068  30.245  28.355  1.00  0.00     0.031 C 
ATOM     47  C   UNL A   1      38.600  34.079  31.571  1.00  0.00     0.029 A 
ATOM     48  N   UNL A   1      40.193  32.509  31.557  1.00  0.00    -0.354 N 
ATOM     49  C   UNL A   1      39.826  28.981  29.086  1.00  0.00     0.074 A 
ATOM     50  C   UNL A   1      38.667  29.071  28.225  1.00  0.00     0.031 C 
ATOM     51  C   UNL A   1      39.529  34.439  32.472  1.00  0.00     0.029 A 
ATOM     52  C   UNL A   1      40.561  33.409  32.527  1.00  0.00     0.049 A 
ATOM     53  H   UNL A   1      40.729  31.718  31.324  1.00  0.00     0.167 HD
ATOM     54  C   UNL A   1      40.691  27.940  29.091  1.00  0.00     0.031 A 
ATOM     55  C   UNL A   1      41.598  33.394  33.386  1.00  0.00     0.031 A 
ATOM     56  C   UNL A   1      41.864  27.873  29.917  1.00  0.00     0.049 A 
ATOM     57  C   UNL A   1      42.556  32.236  33.361  1.00  0.00     0.074 A 
ATOM     58  C   UNL A   1      42.840  26.893  29.951  1.00  0.00     0.029 A 
ATOM     59  N   UNL A   1      42.227  28.835  30.846  1.00  0.00    -0.354 N 
ATOM     60  N   UNL A   1      42.533  31.163  32.609  1.00  0.00    -0.248 NA
ATOM     61  C   UNL A   1      43.685  32.287  34.303  1.00  0.00     0.031 C 
ATOM     62  C   UNL A   1      43.779  27.247  30.925  1.00  0.00     0.029 A 
ATOM     63  C   UNL A   1      43.409  28.469  31.463  1.00  0.00     0.049 A 
ATOM     64  H   UNL A   1      41.719  29.656  31.038  1.00  0.00     0.167 HD
ATOM     65  C   UNL A   1      43.659  30.429  32.961  1.00  0.00     0.074 A 
ATOM     66  C   UNL A   1      44.344  31.179  33.993  1.00  0.00     0.031 C 
ATOM     67  C   UNL A   1      44.086  29.242  32.472  1.00  0.00     0.031 A 
BRANCH  54  68
ATOM     68  C   UNL A   1      40.390  26.788  28.176  1.00  0.00    -0.014 A 
ATOM     69  C   UNL A   1      40.919  26.729  26.877  1.00  0.00     0.009 A 
ATOM     70  C   UNL A   1      39.584  25.732  28.629  1.00  0.00     0.009 A 
ATOM     71  C   UNL A   1      40.613  25.658  26.037  1.00  0.00     0.001 A 
ATOM     72  C   UNL A   1      39.304  24.647  27.797  1.00  0.00     0.001 A 
ATOM     73  C   UNL A   1      39.810  24.617  26.498  1.00  0.00     0.000 A 
ENDBRANCH  54  68
BRANCH  55  74
ATOM     74  C   UNL A   1      41.791  34.515  34.341  1.00  0.00    -0.014 A 
ATOM     75  C   UNL A   1      41.226  34.452  35.625  1.00  0.00     0.009 A 
ATOM     76  C   UNL A   1      42.536  35.648  33.982  1.00  0.00     0.009 A 
ATOM     77  C   UNL A   1      41.383  35.513  36.521  1.00  0.00     0.001 A 
ATOM     78  C   UNL A   1      42.713  36.696  34.889  1.00  0.00     0.001 A 
ATOM     79  C   UNL A   1      42.131  36.631  36.154  1.00  0.00     0.000 A 
ENDBRANCH  55  74
BRANCH  67  80
ATOM     80  C   UNL A   1      45.386  28.704  32.994  1.00  0.00    -0.014 A 
ATOM     81  C   UNL A   1      45.424  27.824  34.086  1.00  0.00     0.009 A 
ATOM     82  C   UNL A   1      46.580  29.026  32.332  1.00  0.00     0.009 A 
ATOM     83  C   UNL A   1      46.641  27.289  34.514  1.00  0.00     0.001 A 
ATOM     84  C   UNL A   1      47.791  28.473  32.748  1.00  0.00     0.001 A 
ATOM     85  C   UNL A   1      47.821  27.608  33.841  1.00  0.00     0.000 A 
ENDBRANCH  67  80
ENDBRANCH  41  42
ENDBRANCH  33  36
ENDBRANCH  31  32
ENDBRANCH   1  31
TORSDOF 13
ENDMDL
MODEL 3
REMARK VINA RESULT:     -12.6      2.729      8.548
REMARK SMILES C[NH+]1CCC(C(=O)N2C[C@@H](C(=O)NCCCNC(=O)c3ccc(-c4c5nc(c(-c6ccccc6)c6ccc([nH]6)c(-c6ccccc6)c6nc(c(-c7ccccc7)c7ccc4[nH]7)C=C6)C=C5)cc3)[C@H](c3ccc4c(c3)OCO4)C2)CC1
REMARK SMILES IDX 15 1 14 2 13 3 11 4 12 5 10 7 8 8 9 9 78 10 68 11 6 12 7 13
REMARK SMILES IDX 5 14 1 15 2 16 3 17 80 18 4 20 79 21 69 22 70 23 74 24 71 25
REMARK SMILES IDX 73 26 72 27 75 28 77 29 76 30 16 31 17 32 18 33 19 35 20 36
REMARK SMILES IDX 21 37 67 38 22 39 66 40 23 41 24 42 25 43 60 44 26 45 65 46
REMARK SMILES IDX 59 47 61 48 27 49 64 50 58 51 57 52 28 54 50 55 35 56 49 57
REMARK SMILES IDX 36 58 39 59 48 60 62 61 37 62 38 63 47 65 63 66 40 67 29 68
REMARK SMILES IDX 30 69 34 70 31 71 33 72 32 73 51 74 52 75 56 76 53 77 55 78
REMARK SMILES IDX 54 79 41 80 42 81 46 82 43 83 45 84 44 85
REMARK H PARENT 13 6 2 19 17 34 61 53 39 64
REMARK Flexibility Score: inf
ROOT
ATOM      1  C   UNL A   1      37.954  20.136  24.947  1.00  0.00     0.042 C 
ENDROOT
BRANCH   1   2
ATOM      2  C   UNL A   1      36.946  21.257  24.799  1.00  0.00     0.117 C 
BRANCH   2   3
ATOM      3  N   UNL A   1      36.077  21.422  25.950  1.00  0.00    -0.356 N 
ATOM      4  C   UNL A   1      34.723  21.576  25.990  1.00  0.00     0.225 C 
ATOM      5  O   UNL A   1      34.161  21.506  27.082  1.00  0.00    -0.275 OA
ATOM      6  H   UNL A   1      36.528  21.421  26.825  1.00  0.00     0.163 HD
BRANCH   4   7
ATOM      7  C   UNL A   1      33.967  21.842  24.711  1.00  0.00     0.107 C 
ATOM      8  N   UNL A   1      32.772  23.369  23.480  1.00  0.00    -0.341 N 
ATOM      9  C   UNL A   1      33.755  23.330  24.536  1.00  0.00     0.133 C 
ATOM     10  C   UNL A   1      31.812  22.284  23.691  1.00  0.00     0.128 C 
ATOM     11  C   UNL A   1      32.512  21.310  24.679  1.00  0.00     0.053 C 
BRANCH   8  12
ATOM     12  C   UNL A   1      32.640  24.227  22.420  1.00  0.00     0.226 C 
ATOM     13  O   UNL A   1      33.333  24.058  21.408  1.00  0.00    -0.275 OA
BRANCH  12  14
ATOM     14  C   UNL A   1      31.888  25.560  22.564  1.00  0.00     0.090 C 
ATOM     15  C   UNL A   1      30.610  29.422  23.964  1.00  0.00     0.332 C 
ATOM     16  N   UNL A   1      31.144  28.064  23.859  1.00  0.00    -0.337 N 
ATOM     17  C   UNL A   1      32.296  28.030  22.951  1.00  0.00     0.262 C 
ATOM     18  C   UNL A   1      30.102  27.123  23.418  1.00  0.00     0.262 C 
ATOM     19  H   UNL A   1      31.458  27.775  24.786  1.00  0.00     0.347 HD
ATOM     20  C   UNL A   1      32.920  26.637  22.932  1.00  0.00     0.075 C 
ATOM     21  C   UNL A   1      30.656  25.694  23.456  1.00  0.00     0.075 C 
ENDBRANCH  12  14
ENDBRANCH   8  12
BRANCH  11  22
ATOM     22  C   UNL A   1      32.496  19.821  24.370  1.00  0.00    -0.038 A 
ATOM     23  C   UNL A   1      32.526  19.312  23.050  1.00  0.00     0.008 A 
ATOM     24  C   UNL A   1      32.657  18.924  25.446  1.00  0.00     0.054 A 
ATOM     25  C   UNL A   1      32.777  17.955  22.801  1.00  0.00     0.051 A 
ATOM     26  C   UNL A   1      32.961  17.607  25.168  1.00  0.00     0.166 A 
ATOM     27  C   UNL A   1      33.035  17.139  23.879  1.00  0.00     0.165 A 
ATOM     28  O   UNL A   1      33.363  16.680  26.079  1.00  0.00    -0.454 OA
ATOM     29  O   UNL A   1      33.467  15.851  23.822  1.00  0.00    -0.454 OA
ATOM     30  C   UNL A   1      33.847  15.639  25.200  1.00  0.00     0.468 C 
ENDBRANCH  11  22
ENDBRANCH   4   7
ENDBRANCH   2   3
ENDBRANCH   1   2
BRANCH   1  31
ATOM     31  C   UNL A   1      39.082  20.464  25.915  1.00  0.00     0.118 C 
BRANCH  31  32
ATOM     32  N   UNL A   1      40.144  19.459  25.930  1.00  0.00    -0.352 N 
ATOM     33  C   UNL A   1      41.496  19.600  26.127  1.00  0.00     0.251 C 
ATOM     34  H   UNL A   1      39.841  18.535  25.775  1.00  0.00     0.163 HD
ATOM     35  O   UNL A   1      42.255  18.658  25.917  1.00  0.00    -0.269 OA
BRANCH  33  36
ATOM     36  C   UNL A   1      42.039  20.906  26.555  1.00  0.00     0.039 A 
ATOM     37  C   UNL A   1      42.496  21.810  25.593  1.00  0.00     0.014 A 
ATOM     38  C   UNL A   1      42.054  21.250  27.906  1.00  0.00     0.014 A 
ATOM     39  C   UNL A   1      42.860  23.104  25.978  1.00  0.00     0.010 A 
ATOM     40  C   UNL A   1      42.317  22.561  28.274  1.00  0.00     0.010 A 
ATOM     41  C   UNL A   1      42.713  23.506  27.314  1.00  0.00    -0.014 A 
BRANCH  41  42
ATOM     42  C   UNL A   1      42.962  24.896  27.769  1.00  0.00     0.031 A 
ATOM     43  C   UNL A   1      44.339  25.282  28.229  1.00  0.00     0.074 A 
ATOM     44  C   UNL A   1      41.934  25.757  27.909  1.00  0.00     0.049 A 
ATOM     45  N   UNL A   1      44.722  26.334  28.906  1.00  0.00    -0.248 NA
ATOM     46  C   UNL A   1      45.422  24.332  27.927  1.00  0.00     0.031 C 
ATOM     47  C   UNL A   1      40.545  25.502  27.525  1.00  0.00     0.029 A 
ATOM     48  N   UNL A   1      41.902  27.020  28.449  1.00  0.00    -0.354 N 
ATOM     49  C   UNL A   1      46.075  26.143  29.157  1.00  0.00     0.074 A 
ATOM     50  C   UNL A   1      46.438  24.864  28.589  1.00  0.00     0.031 C 
ATOM     51  C   UNL A   1      39.798  26.577  27.831  1.00  0.00     0.029 A 
ATOM     52  C   UNL A   1      40.643  27.571  28.485  1.00  0.00     0.049 A 
ATOM     53  H   UNL A   1      42.704  27.486  28.779  1.00  0.00     0.167 HD
ATOM     54  C   UNL A   1      46.940  26.964  29.798  1.00  0.00     0.031 A 
ATOM     55  C   UNL A   1      40.211  28.733  29.011  1.00  0.00     0.031 A 
ATOM     56  C   UNL A   1      46.586  28.254  30.324  1.00  0.00     0.049 A 
ATOM     57  C   UNL A   1      41.194  29.636  29.703  1.00  0.00     0.074 A 
ATOM     58  C   UNL A   1      47.402  29.189  30.933  1.00  0.00     0.029 A 
ATOM     59  N   UNL A   1      45.310  28.793  30.288  1.00  0.00    -0.354 N 
ATOM     60  N   UNL A   1      42.475  29.456  29.910  1.00  0.00    -0.248 NA
ATOM     61  C   UNL A   1      40.670  30.904  30.234  1.00  0.00     0.031 C 
ATOM     62  C   UNL A   1      46.613  30.285  31.295  1.00  0.00     0.029 A 
ATOM     63  C   UNL A   1      45.315  30.047  30.870  1.00  0.00     0.049 A 
ATOM     64  H   UNL A   1      44.519  28.350  29.906  1.00  0.00     0.167 HD
ATOM     65  C   UNL A   1      42.918  30.600  30.562  1.00  0.00     0.074 A 
ATOM     66  C   UNL A   1      41.768  31.468  30.716  1.00  0.00     0.031 C 
ATOM     67  C   UNL A   1      44.164  30.904  30.992  1.00  0.00     0.031 A 
BRANCH  54  68
ATOM     68  C   UNL A   1      48.352  26.482  29.970  1.00  0.00    -0.014 A 
ATOM     69  C   UNL A   1      49.343  26.770  29.018  1.00  0.00     0.009 A 
ATOM     70  C   UNL A   1      48.702  25.748  31.114  1.00  0.00     0.009 A 
ATOM     71  C   UNL A   1      50.645  26.297  29.188  1.00  0.00     0.001 A 
ATOM     72  C   UNL A   1      50.012  25.302  31.296  1.00  0.00     0.001 A 
ATOM     73  C   UNL A   1      50.979  25.568  30.327  1.00  0.00     0.000 A 
ENDBRANCH  54  68
BRANCH  55  74
ATOM     74  C   UNL A   1      38.780  29.114  28.901  1.00  0.00    -0.014 A 
ATOM     75  C   UNL A   1      37.916  28.933  29.992  1.00  0.00     0.009 A 
ATOM     76  C   UNL A   1      38.269  29.659  27.713  1.00  0.00     0.009 A 
ATOM     77  C   UNL A   1      36.564  29.267  29.888  1.00  0.00     0.001 A 
ATOM     78  C   UNL A   1      36.922  30.017  27.621  1.00  0.00     0.001 A 
ATOM     79  C   UNL A   1      36.069  29.814  28.705  1.00  0.00     0.000 A 
ENDBRANCH  55  74
BRANCH  67  80
ATOM     80  C   UNL A   1      44.374  32.253  31.614  1.00  0.00    -0.014 A 
ATOM     81  C   UNL A   1      44.264  32.442  33.000  1.00  0.00     0.009 A 
ATOM     82  C   UNL A   1      44.761  33.332  30.805  1.00  0.00     0.009 A 
ATOM     83  C   UNL A   1      44.524  33.694  33.561  1.00  0.00     0.001 A 
ATOM     84  C   UNL A   1      45.042  34.576  31.370  1.00  0.00     0.001 A 
ATOM     85  C   UNL A   1      44.919  34.757  32.747  1.00  0.00     0.000 A 
ENDBRANCH  67  80
ENDBRANCH  41  42
ENDBRANCH  33  36
ENDBRANCH  31  32
ENDBRANCH   1  31
TORSDOF 13
ENDMDL
