MODEL 1
REMARK VINA RESULT:     -11.0      0.000      0.000
REMARK SMILES CCCCCCNC(=O)Oc1cccc(-c2ccc([C@@H](C)C(=O)NCCCNC(=O)c3ccc(-c4c5nc(c(-c6ccccc6)c6ccc([nH]6)c(-c6ccccc6)c6nc(c(-c7ccccc7)c7ccc4[nH]7)C=C6)C=C5)cc3)cc2C(F)(F)F)c1
REMARK SMILES IDX 16 1 17 2 18 3 19 4 79 5 80 6 15 7 11 8 12 9 85 10 13 11
REMARK SMILES IDX 14 12 10 13 8 14 7 15 9 17 6 18 5 19 4 20 3 21 2 22 1 23
REMARK SMILES IDX 81 24 82 25 83 26 84 27 20 28 21 29 22 30 23 31 24 32 25 34
REMARK SMILES IDX 26 35 27 36 28 37 29 38 30 40 31 41 32 42 78 43 33 44 77 45
REMARK SMILES IDX 34 46 35 47 36 48 71 49 37 50 76 51 70 52 72 53 38 54 75 55
REMARK SMILES IDX 69 56 68 57 39 59 61 60 46 61 60 62 47 63 50 64 59 65 73 66
REMARK SMILES IDX 48 67 49 68 58 70 74 71 51 72 40 73 41 74 45 75 42 76 44 77
REMARK SMILES IDX 43 78 62 79 63 80 67 81 64 82 66 83 65 84 52 85 53 86 57 87
REMARK SMILES IDX 54 88 56 89 55 90
REMARK H PARENT 7 16 24 33 28 39 72 58 50 69
REMARK Flexibility Score: inf
ROOT
ATOM      1  C   UNL A   1      32.761  23.175  23.540  1.00  0.00    -0.006 A 
ATOM      2  C   UNL A   1      33.653  23.854  22.687  1.00  0.00     0.009 A 
ATOM      3  C   UNL A   1      33.796  25.244  22.714  1.00  0.00     0.005 A 
ATOM      4  C   UNL A   1      32.979  26.031  23.518  1.00  0.00    -0.035 A 
ATOM      5  C   UNL A   1      32.122  25.366  24.407  1.00  0.00     0.018 A 
ATOM      6  C   UNL A   1      32.046  23.951  24.476  1.00  0.00     0.064 A 
ENDROOT
BRANCH   1   7
ATOM      7  C   UNL A   1      32.629  21.708  23.392  1.00  0.00    -0.014 A 
ATOM      8  C   UNL A   1      32.955  19.445  24.219  1.00  0.00     0.133 A 
ATOM      9  C   UNL A   1      32.379  18.907  23.071  1.00  0.00     0.047 A 
ATOM     10  C   UNL A   1      33.060  20.826  24.398  1.00  0.00     0.056 A 
ATOM     11  C   UNL A   1      31.904  19.764  22.085  1.00  0.00     0.004 A 
ATOM     12  C   UNL A   1      32.042  21.147  22.239  1.00  0.00     0.009 A 
BRANCH   8  13
ATOM     13  O   UNL A   1      33.582  18.533  25.088  1.00  0.00    -0.410 OA
BRANCH  13  14
ATOM     14  C   UNL A   1      34.656  17.771  24.654  1.00  0.00     0.412 C 
ATOM     15  N   UNL A   1      35.826  18.479  24.618  1.00  0.00    -0.321 N 
ATOM     16  H   UNL A   1      36.616  18.010  24.262  1.00  0.00     0.167 HD
ATOM     17  O   UNL A   1      34.612  16.593  24.323  1.00  0.00    -0.224 OA
BRANCH  15  18
ATOM     18  C   UNL A   1      36.023  19.850  25.050  1.00  0.00     0.119 C 
BRANCH  18  19
ATOM     19  C   UNL A   1      37.502  20.238  25.073  1.00  0.00     0.021 C 
BRANCH  19  20
ATOM     20  C   UNL A   1      37.788  21.715  24.775  1.00  0.00     0.002 C 
BRANCH  20  21
ATOM     21  C   UNL A   1      36.557  22.583  24.495  1.00  0.00    -0.000 C 
BRANCH  21  22
ATOM     22  C   UNL A   1      36.264  23.663  25.539  1.00  0.00    -0.003 C 
ATOM     23  C   UNL A   1      35.090  23.322  26.443  1.00  0.00     0.004 C 
ENDBRANCH  21  22
ENDBRANCH  20  21
ENDBRANCH  19  20
ENDBRANCH  18  19
ENDBRANCH  15  18
ENDBRANCH  13  14
ENDBRANCH   8  13
ENDBRANCH   1   7
BRANCH   6  24
ATOM     24  C   UNL A   1      31.197  23.377  25.590  1.00  0.00     0.417 C 
ATOM     25  F   UNL A   1      31.961  22.783  26.556  1.00  0.00    -0.166 F 
ATOM     26  F   UNL A   1      30.474  24.332  26.239  1.00  0.00    -0.166 F 
ATOM     27  F   UNL A   1      30.308  22.417  25.219  1.00  0.00    -0.166 F 
ENDBRANCH   6  24
BRANCH   4  28
ATOM     28  C   UNL A   1      32.977  27.550  23.458  1.00  0.00     0.105 C 
ATOM     29  C   UNL A   1      33.924  28.163  22.429  1.00  0.00     0.023 C 
BRANCH  28  30
ATOM     30  C   UNL A   1      31.572  28.174  23.497  1.00  0.00     0.227 C 
ATOM     31  O   UNL A   1      30.783  27.963  22.567  1.00  0.00    -0.274 OA
ATOM     32  N   UNL A   1      31.106  28.959  24.504  1.00  0.00    -0.356 N 
ATOM     33  H   UNL A   1      30.158  29.207  24.411  1.00  0.00     0.163 HD
BRANCH  32  34
ATOM     34  C   UNL A   1      31.739  29.503  25.690  1.00  0.00     0.117 C 
BRANCH  34  35
ATOM     35  C   UNL A   1      32.272  28.405  26.610  1.00  0.00     0.042 C 
BRANCH  35  36
ATOM     36  C   UNL A   1      33.578  28.762  27.307  1.00  0.00     0.118 C 
BRANCH  36  37
ATOM     37  N   UNL A   1      33.614  30.156  27.724  1.00  0.00    -0.352 N 
ATOM     38  C   UNL A   1      34.582  30.867  28.391  1.00  0.00     0.251 C 
ATOM     39  H   UNL A   1      32.812  30.677  27.490  1.00  0.00     0.163 HD
ATOM     40  O   UNL A   1      34.307  31.979  28.836  1.00  0.00    -0.269 OA
BRANCH  38  41
ATOM     41  C   UNL A   1      35.942  30.315  28.594  1.00  0.00     0.039 A 
ATOM     42  C   UNL A   1      36.845  30.342  27.526  1.00  0.00     0.014 A 
ATOM     43  C   UNL A   1      36.318  29.719  29.800  1.00  0.00     0.014 A 
ATOM     44  C   UNL A   1      38.135  29.828  27.685  1.00  0.00     0.010 A 
ATOM     45  C   UNL A   1      37.628  29.281  29.985  1.00  0.00     0.010 A 
ATOM     46  C   UNL A   1      38.548  29.322  28.927  1.00  0.00    -0.014 A 
BRANCH  46  47
ATOM     47  C   UNL A   1      39.929  28.819  29.140  1.00  0.00     0.031 A 
ATOM     48  C   UNL A   1      40.987  29.725  29.710  1.00  0.00     0.074 A 
ATOM     49  C   UNL A   1      40.251  27.568  28.759  1.00  0.00     0.049 A 
ATOM     50  N   UNL A   1      42.263  29.495  29.892  1.00  0.00    -0.248 NA
ATOM     51  C   UNL A   1      40.559  31.076  30.108  1.00  0.00     0.031 C 
ATOM     52  C   UNL A   1      39.328  26.599  28.163  1.00  0.00     0.029 A 
ATOM     53  N   UNL A   1      41.449  26.900  28.806  1.00  0.00    -0.354 N 
ATOM     54  C   UNL A   1      42.791  30.675  30.399  1.00  0.00     0.074 A 
ATOM     55  C   UNL A   1      41.708  31.632  30.457  1.00  0.00     0.031 C 
ATOM     56  C   UNL A   1      39.989  25.454  27.922  1.00  0.00     0.029 A 
ATOM     57  C   UNL A   1      41.387  25.623  28.305  1.00  0.00     0.049 A 
ATOM     58  H   UNL A   1      42.275  27.299  29.166  1.00  0.00     0.167 HD
ATOM     59  C   UNL A   1      44.060  30.936  30.796  1.00  0.00     0.031 A 
ATOM     60  C   UNL A   1      42.350  24.694  28.158  1.00  0.00     0.031 A 
ATOM     61  C   UNL A   1      45.135  29.983  30.751  1.00  0.00     0.049 A 
ATOM     62  C   UNL A   1      43.753  25.013  28.592  1.00  0.00     0.074 A 
ATOM     63  C   UNL A   1      46.441  30.134  31.183  1.00  0.00     0.029 A 
ATOM     64  N   UNL A   1      45.029  28.697  30.242  1.00  0.00    -0.354 N 
ATOM     65  N   UNL A   1      44.224  26.114  29.124  1.00  0.00    -0.248 NA
ATOM     66  C   UNL A   1      44.757  23.955  28.408  1.00  0.00     0.031 C 
ATOM     67  C   UNL A   1      47.137  28.955  30.894  1.00  0.00     0.029 A 
ATOM     68  C   UNL A   1      46.251  28.052  30.329  1.00  0.00     0.049 A 
ATOM     69  H   UNL A   1      44.206  28.302  29.873  1.00  0.00     0.167 HD
ATOM     70  C   UNL A   1      45.570  25.874  29.364  1.00  0.00     0.074 A 
ATOM     71  C   UNL A   1      45.838  24.518  28.932  1.00  0.00     0.031 C 
ATOM     72  C   UNL A   1      46.501  26.703  29.896  1.00  0.00     0.031 A 
BRANCH  59  73
ATOM     73  C   UNL A   1      44.351  32.319  31.309  1.00  0.00    -0.014 A 
ATOM     74  C   UNL A   1      44.752  33.348  30.443  1.00  0.00     0.009 A 
ATOM     75  C   UNL A   1      44.195  32.605  32.675  1.00  0.00     0.009 A 
ATOM     76  C   UNL A   1      45.029  34.623  30.938  1.00  0.00     0.001 A 
ATOM     77  C   UNL A   1      44.446  33.888  33.163  1.00  0.00     0.001 A 
ATOM     78  C   UNL A   1      44.873  34.894  32.296  1.00  0.00     0.000 A 
ENDBRANCH  59  73
BRANCH  60  79
ATOM     79  C   UNL A   1      42.017  23.363  27.588  1.00  0.00    -0.014 A 
ATOM     80  C   UNL A   1      42.201  23.112  26.220  1.00  0.00     0.009 A 
ATOM     81  C   UNL A   1      41.513  22.339  28.405  1.00  0.00     0.009 A 
ATOM     82  C   UNL A   1      41.867  21.869  25.677  1.00  0.00     0.001 A 
ATOM     83  C   UNL A   1      41.206  21.088  27.864  1.00  0.00     0.001 A 
ATOM     84  C   UNL A   1      41.374  20.858  26.500  1.00  0.00     0.000 A 
ENDBRANCH  60  79
BRANCH  72  85
ATOM     85  C   UNL A   1      47.888  26.154  30.071  1.00  0.00    -0.014 A 
ATOM     86  C   UNL A   1      48.794  26.108  29.001  1.00  0.00     0.009 A 
ATOM     87  C   UNL A   1      48.305  25.716  31.338  1.00  0.00     0.009 A 
ATOM     88  C   UNL A   1      50.083  25.606  29.190  1.00  0.00     0.001 A 
ATOM     89  C   UNL A   1      49.603  25.241  31.530  1.00  0.00     0.001 A 
ATOM     90  C   UNL A   1      50.487  25.178  30.454  1.00  0.00     0.000 A 
ENDBRANCH  72  85
ENDBRANCH  46  47
ENDBRANCH  38  41
ENDBRANCH  36  37
ENDBRANCH  35  36
ENDBRANCH  34  35
ENDBRANCH  32  34
ENDBRANCH  28  30
ENDBRANCH   4  28
TORSDOF 20
ENDMDL
MODEL 2
REMARK VINA RESULT:     -10.6      2.209      8.213
REMARK SMILES CCCCCCNC(=O)Oc1cccc(-c2ccc([C@@H](C)C(=O)NCCCNC(=O)c3ccc(-c4c5nc(c(-c6ccccc6)c6ccc([nH]6)c(-c6ccccc6)c6nc(c(-c7ccccc7)c7ccc4[nH]7)C=C6)C=C5)cc3)cc2C(F)(F)F)c1
REMARK SMILES IDX 16 1 17 2 18 3 19 4 79 5 80 6 15 7 11 8 12 9 85 10 13 11
REMARK SMILES IDX 14 12 10 13 8 14 7 15 9 17 6 18 5 19 4 20 3 21 2 22 1 23
REMARK SMILES IDX 81 24 82 25 83 26 84 27 20 28 21 29 22 30 23 31 24 32 25 34
REMARK SMILES IDX 26 35 27 36 28 37 29 38 30 40 31 41 32 42 78 43 33 44 77 45
REMARK SMILES IDX 34 46 35 47 36 48 71 49 37 50 76 51 70 52 72 53 38 54 75 55
REMARK SMILES IDX 69 56 68 57 39 59 61 60 46 61 60 62 47 63 50 64 59 65 73 66
REMARK SMILES IDX 48 67 49 68 58 70 74 71 51 72 40 73 41 74 45 75 42 76 44 77
REMARK SMILES IDX 43 78 62 79 63 80 67 81 64 82 66 83 65 84 52 85 53 86 57 87
REMARK SMILES IDX 54 88 56 89 55 90
REMARK H PARENT 7 16 24 33 28 39 72 58 50 69
REMARK Flexibility Score: inf
ROOT
ATOM      1  C   UNL A   1      32.881  24.511  23.528  1.00  0.00    -0.006 A 
ATOM      2  C   UNL A   1      33.447  23.572  22.644  1.00  0.00     0.009 A 
ATOM      3  C   UNL A   1      33.205  22.201  22.760  1.00  0.00     0.005 A 
ATOM      4  C   UNL A   1      32.473  21.692  23.828  1.00  0.00    -0.035 A 
ATOM      5  C   UNL A   1      31.863  22.619  24.686  1.00  0.00     0.018 A 
ATOM      6  C   UNL A   1      32.002  24.020  24.516  1.00  0.00     0.064 A 
ENDROOT
BRANCH   1   7
ATOM      7  C   UNL A   1      33.249  25.937  23.367  1.00  0.00    -0.014 A 
ATOM      8  C   UNL A   1      33.850  28.100  24.299  1.00  0.00     0.133 A 
ATOM      9  C   UNL A   1      33.931  28.662  23.028  1.00  0.00     0.047 A 
ATOM     10  C   UNL A   1      33.539  26.750  24.476  1.00  0.00     0.056 A 
ATOM     11  C   UNL A   1      33.694  27.862  21.916  1.00  0.00     0.004 A 
ATOM     12  C   UNL A   1      33.342  26.519  22.087  1.00  0.00     0.009 A 
BRANCH   8  13
ATOM     13  O   UNL A   1      33.915  28.996  25.382  1.00  0.00    -0.410 OA
BRANCH  13  14
ATOM     14  C   UNL A   1      33.078  28.840  26.477  1.00  0.00     0.412 C 
ATOM     15  N   UNL A   1      31.835  29.373  26.272  1.00  0.00    -0.321 N 
ATOM     16  H   UNL A   1      31.212  29.348  27.035  1.00  0.00     0.167 HD
ATOM     17  O   UNL A   1      33.375  28.299  27.533  1.00  0.00    -0.224 OA
BRANCH  15  18
ATOM     18  C   UNL A   1      31.340  29.973  25.047  1.00  0.00     0.119 C 
BRANCH  18  19
ATOM     19  C   UNL A   1      30.471  29.005  24.244  1.00  0.00     0.021 C 
BRANCH  19  20
ATOM     20  C   UNL A   1      30.322  29.350  22.757  1.00  0.00     0.002 C 
BRANCH  20  21
ATOM     21  C   UNL A   1      29.268  30.411  22.428  1.00  0.00    -0.000 C 
BRANCH  21  22
ATOM     22  C   UNL A   1      27.950  30.290  23.198  1.00  0.00    -0.003 C 
ATOM     23  C   UNL A   1      27.212  28.988  22.924  1.00  0.00     0.004 C 
ENDBRANCH  21  22
ENDBRANCH  20  21
ENDBRANCH  19  20
ENDBRANCH  18  19
ENDBRANCH  15  18
ENDBRANCH  13  14
ENDBRANCH   8  13
ENDBRANCH   1   7
BRANCH   6  24
ATOM     24  C   UNL A   1      31.160  24.894  25.421  1.00  0.00     0.417 C 
ATOM     25  F   UNL A   1      30.197  24.172  26.069  1.00  0.00    -0.166 F 
ATOM     26  F   UNL A   1      31.894  25.483  26.405  1.00  0.00    -0.166 F 
ATOM     27  F   UNL A   1      30.479  25.897  24.804  1.00  0.00    -0.166 F 
ENDBRANCH   6  24
BRANCH   4  28
ATOM     28  C   UNL A   1      32.325  20.202  24.093  1.00  0.00     0.105 C 
ATOM     29  C   UNL A   1      32.470  19.305  22.866  1.00  0.00     0.023 C 
BRANCH  28  30
ATOM     30  C   UNL A   1      33.074  19.715  25.344  1.00  0.00     0.227 C 
ATOM     31  O   UNL A   1      32.543  18.882  26.090  1.00  0.00    -0.274 OA
ATOM     32  N   UNL A   1      34.314  20.135  25.711  1.00  0.00    -0.356 N 
ATOM     33  H   UNL A   1      34.680  19.662  26.492  1.00  0.00     0.163 HD
BRANCH  32  34
ATOM     34  C   UNL A   1      35.201  21.147  25.170  1.00  0.00     0.117 C 
BRANCH  34  35
ATOM     35  C   UNL A   1      35.275  22.383  26.066  1.00  0.00     0.042 C 
BRANCH  35  36
ATOM     36  C   UNL A   1      36.562  23.180  25.915  1.00  0.00     0.118 C 
BRANCH  36  37
ATOM     37  N   UNL A   1      37.744  22.332  25.981  1.00  0.00    -0.352 N 
ATOM     38  C   UNL A   1      39.055  22.642  26.247  1.00  0.00     0.251 C 
ATOM     39  H   UNL A   1      37.576  21.378  25.805  1.00  0.00     0.163 HD
ATOM     40  O   UNL A   1      39.924  21.800  26.031  1.00  0.00    -0.269 OA
BRANCH  38  41
ATOM     41  C   UNL A   1      39.442  23.971  26.775  1.00  0.00     0.039 A 
ATOM     42  C   UNL A   1      39.116  24.290  28.098  1.00  0.00     0.014 A 
ATOM     43  C   UNL A   1      40.066  24.927  25.969  1.00  0.00     0.014 A 
ATOM     44  C   UNL A   1      39.466  25.536  28.626  1.00  0.00     0.010 A 
ATOM     45  C   UNL A   1      40.487  26.137  26.518  1.00  0.00     0.010 A 
ATOM     46  C   UNL A   1      40.183  26.459  27.849  1.00  0.00    -0.014 A 
BRANCH  46  47
ATOM     47  C   UNL A   1      40.615  27.768  28.400  1.00  0.00     0.031 A 
ATOM     48  C   UNL A   1      42.052  27.993  28.785  1.00  0.00     0.074 A 
ATOM     49  C   UNL A   1      39.703  28.735  28.618  1.00  0.00     0.049 A 
ATOM     50  N   UNL A   1      42.603  29.034  29.357  1.00  0.00    -0.248 NA
ATOM     51  C   UNL A   1      42.991  26.893  28.512  1.00  0.00     0.031 C 
ATOM     52  C   UNL A   1      38.272  28.634  28.321  1.00  0.00     0.029 A 
ATOM     53  N   UNL A   1      39.842  29.991  29.153  1.00  0.00    -0.354 N 
ATOM     54  C   UNL A   1      43.940  28.705  29.534  1.00  0.00     0.074 A 
ATOM     55  C   UNL A   1      44.111  27.354  29.048  1.00  0.00     0.031 C 
ATOM     56  C   UNL A   1      37.671  29.788  28.656  1.00  0.00     0.029 A 
ATOM     57  C   UNL A   1      38.664  30.691  29.230  1.00  0.00     0.049 A 
ATOM     58  H   UNL A   1      40.707  30.356  29.454  1.00  0.00     0.167 HD
ATOM     59  C   UNL A   1      44.942  29.465  30.039  1.00  0.00     0.031 A 
ATOM     60  C   UNL A   1      38.406  31.919  29.719  1.00  0.00     0.031 A 
ATOM     61  C   UNL A   1      44.778  30.813  30.511  1.00  0.00     0.049 A 
ATOM     62  C   UNL A   1      39.531  32.735  30.289  1.00  0.00     0.074 A 
ATOM     63  C   UNL A   1      45.742  31.683  30.990  1.00  0.00     0.029 A 
ATOM     64  N   UNL A   1      43.567  31.487  30.565  1.00  0.00    -0.354 N 
ATOM     65  N   UNL A   1      40.802  32.432  30.395  1.00  0.00    -0.248 NA
ATOM     66  C   UNL A   1      39.185  34.068  30.803  1.00  0.00     0.031 C 
ATOM     67  C   UNL A   1      45.108  32.869  31.375  1.00  0.00     0.029 A 
ATOM     68  C   UNL A   1      43.757  32.755  31.089  1.00  0.00     0.049 A 
ATOM     69  H   UNL A   1      42.702  31.119  30.275  1.00  0.00     0.167 HD
ATOM     70  C   UNL A   1      41.411  33.544  30.961  1.00  0.00     0.074 A 
ATOM     71  C   UNL A   1      40.373  34.533  31.164  1.00  0.00     0.031 C 
ATOM     72  C   UNL A   1      42.714  33.728  31.284  1.00  0.00     0.031 A 
BRANCH  59  73
ATOM     73  C   UNL A   1      46.309  28.842  30.114  1.00  0.00    -0.014 A 
ATOM     74  C   UNL A   1      46.651  27.957  31.148  1.00  0.00     0.009 A 
ATOM     75  C   UNL A   1      47.259  29.124  29.120  1.00  0.00     0.009 A 
ATOM     76  C   UNL A   1      47.929  27.397  31.207  1.00  0.00     0.001 A 
ATOM     77  C   UNL A   1      48.527  28.541  29.166  1.00  0.00     0.001 A 
ATOM     78  C   UNL A   1      48.864  27.686  30.215  1.00  0.00     0.000 A 
ENDBRANCH  59  73
BRANCH  60  79
ATOM     79  C   UNL A   1      37.023  32.460  29.675  1.00  0.00    -0.014 A 
ATOM     80  C   UNL A   1      36.566  33.146  28.540  1.00  0.00     0.009 A 
ATOM     81  C   UNL A   1      36.153  32.294  30.763  1.00  0.00     0.009 A 
ATOM     82  C   UNL A   1      35.275  33.676  28.504  1.00  0.00     0.001 A 
ATOM     83  C   UNL A   1      34.852  32.801  30.714  1.00  0.00     0.001 A 
ATOM     84  C   UNL A   1      34.418  33.499  29.589  1.00  0.00     0.000 A 
ENDBRANCH  60  79
BRANCH  72  85
ATOM     85  C   UNL A   1      43.096  35.062  31.858  1.00  0.00    -0.014 A 
ATOM     86  C   UNL A   1      43.521  36.115  31.034  1.00  0.00     0.009 A 
ATOM     87  C   UNL A   1      42.989  35.278  33.241  1.00  0.00     0.009 A 
ATOM     88  C   UNL A   1      43.859  37.351  31.588  1.00  0.00     0.001 A 
ATOM     89  C   UNL A   1      43.301  36.523  33.789  1.00  0.00     0.001 A 
ATOM     90  C   UNL A   1      43.743  37.555  32.963  1.00  0.00     0.000 A 
ENDBRANCH  72  85
ENDBRANCH  46  47
ENDBRANCH  38  41
ENDBRANCH  36  37
ENDBRANCH  35  36
ENDBRANCH  34  35
ENDBRANCH  32  34
ENDBRANCH  28  30
ENDBRANCH   4  28
TORSDOF 20
ENDMDL
MODEL 3
REMARK VINA RESULT:     -10.5      2.190      8.131
REMARK SMILES CCCCCCNC(=O)Oc1cccc(-c2ccc([C@@H](C)C(=O)NCCCNC(=O)c3ccc(-c4c5nc(c(-c6ccccc6)c6ccc([nH]6)c(-c6ccccc6)c6nc(c(-c7ccccc7)c7ccc4[nH]7)C=C6)C=C5)cc3)cc2C(F)(F)F)c1
REMARK SMILES IDX 16 1 17 2 18 3 19 4 79 5 80 6 15 7 11 8 12 9 85 10 13 11
REMARK SMILES IDX 14 12 10 13 8 14 7 15 9 17 6 18 5 19 4 20 3 21 2 22 1 23
REMARK SMILES IDX 81 24 82 25 83 26 84 27 20 28 21 29 22 30 23 31 24 32 25 34
REMARK SMILES IDX 26 35 27 36 28 37 29 38 30 40 31 41 32 42 78 43 33 44 77 45
REMARK SMILES IDX 34 46 35 47 36 48 71 49 37 50 76 51 70 52 72 53 38 54 75 55
REMARK SMILES IDX 69 56 68 57 39 59 61 60 46 61 60 62 47 63 50 64 59 65 73 66
REMARK SMILES IDX 48 67 49 68 58 70 74 71 51 72 40 73 41 74 45 75 42 76 44 77
REMARK SMILES IDX 43 78 62 79 63 80 67 81 64 82 66 83 65 84 52 85 53 86 57 87
REMARK SMILES IDX 54 88 56 89 55 90
REMARK H PARENT 7 16 24 33 28 39 72 58 50 69
REMARK Flexibility Score: inf
ROOT
ATOM      1  C   UNL A   1      32.925  24.533  23.724  1.00  0.00    -0.006 A 
ATOM      2  C   UNL A   1      33.531  23.619  22.841  1.00  0.00     0.009 A 
ATOM      3  C   UNL A   1      33.293  22.244  22.914  1.00  0.00     0.005 A 
ATOM      4  C   UNL A   1      32.524  21.705  23.940  1.00  0.00    -0.035 A 
ATOM      5  C   UNL A   1      31.875  22.607  24.795  1.00  0.00     0.018 A 
ATOM      6  C   UNL A   1      32.012  24.013  24.665  1.00  0.00     0.064 A 
ENDROOT
BRANCH   1   7
ATOM      7  C   UNL A   1      33.290  25.964  23.613  1.00  0.00    -0.014 A 
ATOM      8  C   UNL A   1      33.841  28.107  24.619  1.00  0.00     0.133 A 
ATOM      9  C   UNL A   1      33.966  28.701  23.366  1.00  0.00     0.047 A 
ATOM     10  C   UNL A   1      33.532  26.752  24.751  1.00  0.00     0.056 A 
ATOM     11  C   UNL A   1      33.776  27.927  22.227  1.00  0.00     0.004 A 
ATOM     12  C   UNL A   1      33.427  26.579  22.351  1.00  0.00     0.009 A 
BRANCH   8  13
ATOM     13  O   UNL A   1      33.859  28.976  25.726  1.00  0.00    -0.410 OA
BRANCH  13  14
ATOM     14  C   UNL A   1      32.893  28.879  26.715  1.00  0.00     0.412 C 
ATOM     15  N   UNL A   1      31.824  29.704  26.494  1.00  0.00    -0.321 N 
ATOM     16  H   UNL A   1      31.130  29.726  27.192  1.00  0.00     0.167 HD
ATOM     17  O   UNL A   1      32.947  28.154  27.699  1.00  0.00    -0.224 OA
BRANCH  15  18
ATOM     18  C   UNL A   1      31.609  30.553  25.336  1.00  0.00     0.119 C 
BRANCH  18  19
ATOM     19  C   UNL A   1      30.391  30.115  24.523  1.00  0.00     0.021 C 
BRANCH  19  20
ATOM     20  C   UNL A   1      30.572  28.811  23.737  1.00  0.00     0.002 C 
BRANCH  20  21
ATOM     21  C   UNL A   1      29.334  28.317  22.981  1.00  0.00    -0.000 C 
BRANCH  21  22
ATOM     22  C   UNL A   1      28.156  29.293  22.943  1.00  0.00    -0.003 C 
ATOM     23  C   UNL A   1      26.821  28.636  23.263  1.00  0.00     0.004 C 
ENDBRANCH  21  22
ENDBRANCH  20  21
ENDBRANCH  19  20
ENDBRANCH  18  19
ENDBRANCH  15  18
ENDBRANCH  13  14
ENDBRANCH   8  13
ENDBRANCH   1   7
BRANCH   6  24
ATOM     24  C   UNL A   1      31.129  24.860  25.558  1.00  0.00     0.417 C 
ATOM     25  F   UNL A   1      30.472  25.827  24.849  1.00  0.00    -0.166 F 
ATOM     26  F   UNL A   1      30.152  24.131  26.166  1.00  0.00    -0.166 F 
ATOM     27  F   UNL A   1      31.769  25.537  26.548  1.00  0.00    -0.166 F 
ENDBRANCH   6  24
BRANCH   4  28
ATOM     28  C   UNL A   1      32.375  20.209  24.163  1.00  0.00     0.105 C 
ATOM     29  C   UNL A   1      32.523  19.346  22.912  1.00  0.00     0.023 C 
BRANCH  28  30
ATOM     30  C   UNL A   1      33.122  19.687  25.401  1.00  0.00     0.227 C 
ATOM     31  O   UNL A   1      32.592  18.830  26.120  1.00  0.00    -0.274 OA
ATOM     32  N   UNL A   1      34.360  20.099  25.783  1.00  0.00    -0.356 N 
ATOM     33  H   UNL A   1      34.726  19.603  26.552  1.00  0.00     0.163 HD
BRANCH  32  34
ATOM     34  C   UNL A   1      35.246  21.128  25.275  1.00  0.00     0.117 C 
BRANCH  34  35
ATOM     35  C   UNL A   1      35.243  22.375  26.158  1.00  0.00     0.042 C 
BRANCH  35  36
ATOM     36  C   UNL A   1      36.518  23.201  26.068  1.00  0.00     0.118 C 
BRANCH  36  37
ATOM     37  N   UNL A   1      37.712  22.367  26.045  1.00  0.00    -0.352 N 
ATOM     38  C   UNL A   1      39.029  22.683  26.265  1.00  0.00     0.251 C 
ATOM     39  H   UNL A   1      37.546  21.419  25.837  1.00  0.00     0.163 HD
ATOM     40  O   UNL A   1      39.897  21.863  25.975  1.00  0.00    -0.269 OA
BRANCH  38  41
ATOM     41  C   UNL A   1      39.425  23.994  26.831  1.00  0.00     0.039 A 
ATOM     42  C   UNL A   1      39.132  24.262  28.173  1.00  0.00     0.014 A 
ATOM     43  C   UNL A   1      40.022  24.982  26.045  1.00  0.00     0.014 A 
ATOM     44  C   UNL A   1      39.490  25.490  28.737  1.00  0.00     0.010 A 
ATOM     45  C   UNL A   1      40.452  26.173  26.626  1.00  0.00     0.010 A 
ATOM     46  C   UNL A   1      40.183  26.445  27.976  1.00  0.00    -0.014 A 
BRANCH  46  47
ATOM     47  C   UNL A   1      40.623  27.735  28.563  1.00  0.00     0.031 A 
ATOM     48  C   UNL A   1      39.635  28.852  28.767  1.00  0.00     0.074 A 
ATOM     49  C   UNL A   1      41.924  27.929  28.853  1.00  0.00     0.049 A 
ATOM     50  N   UNL A   1      39.844  30.075  29.187  1.00  0.00    -0.248 NA
ATOM     51  C   UNL A   1      38.231  28.564  28.434  1.00  0.00     0.031 C 
ATOM     52  C   UNL A   1      42.990  26.940  28.672  1.00  0.00     0.029 A 
ATOM     53  N   UNL A   1      42.575  29.030  29.349  1.00  0.00    -0.354 N 
ATOM     54  C   UNL A   1      38.607  30.705  29.144  1.00  0.00     0.074 A 
ATOM     55  C   UNL A   1      37.661  29.745  28.618  1.00  0.00     0.031 C 
ATOM     56  C   UNL A   1      44.156  27.472  29.074  1.00  0.00     0.029 A 
ATOM     57  C   UNL A   1      43.928  28.850  29.499  1.00  0.00     0.049 A 
ATOM     58  H   UNL A   1      42.115  29.871  29.577  1.00  0.00     0.167 HD
ATOM     59  C   UNL A   1      38.283  31.965  29.523  1.00  0.00     0.031 A 
ATOM     60  C   UNL A   1      44.883  29.701  29.920  1.00  0.00     0.031 A 
ATOM     61  C   UNL A   1      39.218  32.917  30.058  1.00  0.00     0.049 A 
ATOM     62  C   UNL A   1      44.499  31.098  30.319  1.00  0.00     0.074 A 
ATOM     63  C   UNL A   1      38.975  34.198  30.522  1.00  0.00     0.029 A 
ATOM     64  N   UNL A   1      40.579  32.691  30.199  1.00  0.00    -0.354 N 
ATOM     65  N   UNL A   1      43.316  31.660  30.328  1.00  0.00    -0.248 NA
ATOM     66  C   UNL A   1      45.588  31.976  30.773  1.00  0.00     0.031 C 
ATOM     67  C   UNL A   1      40.197  34.764  30.903  1.00  0.00     0.029 A 
ATOM     68  C   UNL A   1      41.192  33.816  30.723  1.00  0.00     0.049 A 
ATOM     69  H   UNL A   1      41.040  31.855  29.961  1.00  0.00     0.167 HD
ATOM     70  C   UNL A   1      43.511  32.946  30.813  1.00  0.00     0.074 A 
ATOM     71  C   UNL A   1      44.924  33.077  31.099  1.00  0.00     0.031 C 
ATOM     72  C   UNL A   1      42.599  33.931  31.003  1.00  0.00     0.031 A 
BRANCH  59  73
ATOM     73  C   UNL A   1      36.848  32.385  29.362  1.00  0.00    -0.014 A 
ATOM     74  C   UNL A   1      35.918  32.215  30.400  1.00  0.00     0.009 A 
ATOM     75  C   UNL A   1      36.426  32.987  28.166  1.00  0.00     0.009 A 
ATOM     76  C   UNL A   1      34.587  32.601  30.229  1.00  0.00     0.001 A 
ATOM     77  C   UNL A   1      35.101  33.398  28.008  1.00  0.00     0.001 A 
ATOM     78  C   UNL A   1      34.181  33.195  29.036  1.00  0.00     0.000 A 
ENDBRANCH  59  73
BRANCH  60  79
ATOM     79  C   UNL A   1      46.296  29.249  30.001  1.00  0.00    -0.014 A 
ATOM     80  C   UNL A   1      47.153  29.402  28.901  1.00  0.00     0.009 A 
ATOM     81  C   UNL A   1      46.795  28.663  31.175  1.00  0.00     0.009 A 
ATOM     82  C   UNL A   1      48.476  28.958  28.967  1.00  0.00     0.001 A 
ATOM     83  C   UNL A   1      48.126  28.245  31.247  1.00  0.00     0.001 A 
ATOM     84  C   UNL A   1      48.961  28.384  30.141  1.00  0.00     0.000 A 
ENDBRANCH  60  79
BRANCH  72  85
ATOM     85  C   UNL A   1      43.098  35.224  31.579  1.00  0.00    -0.014 A 
ATOM     86  C   UNL A   1      43.112  35.448  32.964  1.00  0.00     0.009 A 
ATOM     87  C   UNL A   1      43.601  36.218  30.723  1.00  0.00     0.009 A 
ATOM     88  C   UNL A   1      43.592  36.654  33.479  1.00  0.00     0.001 A 
ATOM     89  C   UNL A   1      44.106  37.410  31.242  1.00  0.00     0.001 A 
ATOM     90  C   UNL A   1      44.093  37.630  32.619  1.00  0.00     0.000 A 
ENDBRANCH  72  85
ENDBRANCH  46  47
ENDBRANCH  38  41
ENDBRANCH  36  37
ENDBRANCH  35  36
ENDBRANCH  34  35
ENDBRANCH  32  34
ENDBRANCH  28  30
ENDBRANCH   4  28
TORSDOF 20
ENDMDL
