MODEL 1
REMARK VINA RESULT:     -11.7      0.000      0.000
REMARK SMILES O=Cc1ccc2c(c1)C=C(C(=O)NCCCNC(=O)c1ccc(-c3c4nc(c(-c5ccccc5)c5ccc([nH]5)c(-c5ccccc5)c5nc(c(-c6ccccc6)c6ccc3[nH]6)C=C5)C=C4)cc1)[C@H](C(F)(F)F)O2
REMARK SMILES IDX 15 1 14 2 13 3 11 4 12 5 10 7 3 8 4 9 8 10 5 11 7 12 6 13
REMARK SMILES IDX 9 14 73 15 68 16 2 17 1 18 69 19 70 20 71 21 72 22 16 23
REMARK SMILES IDX 17 24 18 25 19 27 20 28 21 29 67 30 22 31 66 32 23 33 24 34
REMARK SMILES IDX 25 35 60 36 26 37 65 38 59 39 61 40 27 41 64 42 58 43 57 44
REMARK SMILES IDX 28 46 50 47 35 48 49 49 36 50 39 51 48 52 62 53 37 54 38 55
REMARK SMILES IDX 47 57 63 58 40 59 29 60 30 61 34 62 31 63 33 64 32 65 51 66
REMARK SMILES IDX 52 67 56 68 53 69 55 70 54 71 41 72 42 73 46 74 43 75 45 76
REMARK SMILES IDX 44 77
REMARK H PARENT 13 6 17 26 61 45 39 56
REMARK Flexibility Score: inf
ROOT
ATOM      1  C   UNL A   1      33.925  28.452  25.813  1.00  0.00     0.042 C 
ENDROOT
BRANCH   1   2
ATOM      2  C   UNL A   1      33.742  27.008  25.333  1.00  0.00     0.118 C 
BRANCH   2   3
ATOM      3  N   UNL A   1      34.014  26.899  23.908  1.00  0.00    -0.352 N 
ATOM      4  C   UNL A   1      33.238  27.042  22.803  1.00  0.00     0.251 C 
ATOM      5  O   UNL A   1      33.730  26.775  21.710  1.00  0.00    -0.270 OA
ATOM      6  H   UNL A   1      34.951  26.677  23.703  1.00  0.00     0.163 HD
BRANCH   4   7
ATOM      7  C   UNL A   1      31.847  27.565  22.853  1.00  0.00     0.067 C 
ATOM      8  C   UNL A   1      28.430  30.886  22.078  1.00  0.00     0.015 A 
ATOM      9  C   UNL A   1      27.459  30.017  22.580  1.00  0.00     0.015 A 
ATOM     10  C   UNL A   1      29.773  30.502  22.043  1.00  0.00     0.023 A 
ATOM     11  C   UNL A   1      27.834  28.752  23.035  1.00  0.00     0.048 A 
ATOM     12  C   UNL A   1      30.145  29.233  22.504  1.00  0.00     0.018 A 
ATOM     13  C   UNL A   1      29.174  28.362  22.995  1.00  0.00     0.128 A 
ATOM     14  C   UNL A   1      31.527  28.792  22.418  1.00  0.00     0.025 C 
ATOM     15  O   UNL A   1      29.445  27.092  23.403  1.00  0.00    -0.475 OA
ATOM     16  C   UNL A   1      30.835  26.691  23.589  1.00  0.00     0.314 C 
BRANCH   8  17
ATOM     17  C   UNL A   1      28.046  32.214  21.559  1.00  0.00     0.260 C 
ATOM     18  O   UNL A   1      28.268  33.245  22.180  1.00  0.00    -0.298 OA
ENDBRANCH   8  17
BRANCH  16  19
ATOM     19  C   UNL A   1      30.916  25.178  23.286  1.00  0.00     0.429 C 
ATOM     20  F   UNL A   1      31.732  24.515  24.135  1.00  0.00    -0.167 F 
ATOM     21  F   UNL A   1      29.698  24.586  23.412  1.00  0.00    -0.167 F 
ATOM     22  F   UNL A   1      31.339  24.933  22.024  1.00  0.00    -0.167 F 
ENDBRANCH  16  19
ENDBRANCH   4   7
ENDBRANCH   2   3
ENDBRANCH   1   2
BRANCH   1  23
ATOM     23  C   UNL A   1      33.645  28.646  27.303  1.00  0.00     0.118 C 
BRANCH  23  24
ATOM     24  N   UNL A   1      33.618  30.050  27.673  1.00  0.00    -0.352 N 
ATOM     25  C   UNL A   1      34.551  30.812  28.330  1.00  0.00     0.251 C 
ATOM     26  H   UNL A   1      32.800  30.532  27.411  1.00  0.00     0.163 HD
ATOM     27  O   UNL A   1      34.232  31.929  28.731  1.00  0.00    -0.269 OA
BRANCH  25  28
ATOM     28  C   UNL A   1      35.925  30.316  28.574  1.00  0.00     0.039 A 
ATOM     29  C   UNL A   1      36.848  30.381  27.525  1.00  0.00     0.014 A 
ATOM     30  C   UNL A   1      36.294  29.722  29.784  1.00  0.00     0.014 A 
ATOM     31  C   UNL A   1      38.146  29.891  27.700  1.00  0.00     0.010 A 
ATOM     32  C   UNL A   1      37.606  29.284  29.978  1.00  0.00     0.010 A 
ATOM     33  C   UNL A   1      38.543  29.358  28.936  1.00  0.00    -0.014 A 
BRANCH  33  34
ATOM     34  C   UNL A   1      39.935  28.887  29.146  1.00  0.00     0.031 A 
ATOM     35  C   UNL A   1      40.969  29.786  29.765  1.00  0.00     0.074 A 
ATOM     36  C   UNL A   1      40.282  27.650  28.740  1.00  0.00     0.049 A 
ATOM     37  N   UNL A   1      42.232  29.543  30.015  1.00  0.00    -0.248 NA
ATOM     38  C   UNL A   1      40.534  31.142  30.136  1.00  0.00     0.031 C 
ATOM     39  C   UNL A   1      39.386  26.690  28.091  1.00  0.00     0.029 A 
ATOM     40  N   UNL A   1      41.482  26.988  28.813  1.00  0.00    -0.354 N 
ATOM     41  C   UNL A   1      42.744  30.715  30.556  1.00  0.00     0.074 A 
ATOM     42  C   UNL A   1      41.667  31.681  30.563  1.00  0.00     0.031 C 
ATOM     43  C   UNL A   1      40.060  25.555  27.849  1.00  0.00     0.029 A 
ATOM     44  C   UNL A   1      41.440  25.716  28.297  1.00  0.00     0.049 A 
ATOM     45  H   UNL A   1      42.295  27.387  29.198  1.00  0.00     0.167 HD
ATOM     46  C   UNL A   1      43.993  30.961  31.019  1.00  0.00     0.031 A 
ATOM     47  C   UNL A   1      42.402  24.780  28.198  1.00  0.00     0.031 A 
ATOM     48  C   UNL A   1      45.065  30.000  31.024  1.00  0.00     0.049 A 
ATOM     49  C   UNL A   1      43.778  25.076  28.721  1.00  0.00     0.074 A 
ATOM     50  C   UNL A   1      46.347  30.140  31.527  1.00  0.00     0.029 A 
ATOM     51  N   UNL A   1      44.979  28.721  30.497  1.00  0.00    -0.354 N 
ATOM     52  N   UNL A   1      44.226  26.167  29.292  1.00  0.00    -0.248 NA
ATOM     53  C   UNL A   1      44.777  24.005  28.596  1.00  0.00     0.031 C 
ATOM     54  C   UNL A   1      47.051  28.958  31.267  1.00  0.00     0.029 A 
ATOM     55  C   UNL A   1      46.192  28.068  30.643  1.00  0.00     0.049 A 
ATOM     56  H   UNL A   1      44.176  28.334  30.081  1.00  0.00     0.167 HD
ATOM     57  C   UNL A   1      45.552  25.908  29.613  1.00  0.00     0.074 A 
ATOM     58  C   UNL A   1      45.830  24.552  29.189  1.00  0.00     0.031 C 
ATOM     59  C   UNL A   1      46.457  26.722  30.208  1.00  0.00     0.031 A 
BRANCH  46  60
ATOM     60  C   UNL A   1      44.272  32.338  31.554  1.00  0.00    -0.014 A 
ATOM     61  C   UNL A   1      44.084  32.640  32.913  1.00  0.00     0.009 A 
ATOM     62  C   UNL A   1      44.765  33.334  30.698  1.00  0.00     0.009 A 
ATOM     63  C   UNL A   1      44.350  33.924  33.395  1.00  0.00     0.001 A 
ATOM     64  C   UNL A   1      45.054  34.611  31.188  1.00  0.00     0.001 A 
ATOM     65  C   UNL A   1      44.837  34.906  32.533  1.00  0.00     0.000 A 
ENDBRANCH  46  60
BRANCH  47  66
ATOM     66  C   UNL A   1      42.088  23.460  27.595  1.00  0.00    -0.014 A 
ATOM     67  C   UNL A   1      41.487  22.453  28.365  1.00  0.00     0.009 A 
ATOM     68  C   UNL A   1      42.381  23.203  26.247  1.00  0.00     0.009 A 
ATOM     69  C   UNL A   1      41.203  21.208  27.802  1.00  0.00     0.001 A 
ATOM     70  C   UNL A   1      42.073  21.964  25.680  1.00  0.00     0.001 A 
ATOM     71  C   UNL A   1      41.491  20.966  26.460  1.00  0.00     0.000 A 
ENDBRANCH  47  66
BRANCH  59  72
ATOM     72  C   UNL A   1      47.826  26.157  30.452  1.00  0.00    -0.014 A 
ATOM     73  C   UNL A   1      48.777  26.089  29.422  1.00  0.00     0.009 A 
ATOM     74  C   UNL A   1      48.178  25.711  31.736  1.00  0.00     0.009 A 
ATOM     75  C   UNL A   1      50.045  25.558  29.667  1.00  0.00     0.001 A 
ATOM     76  C   UNL A   1      49.453  25.202  31.983  1.00  0.00     0.001 A 
ATOM     77  C   UNL A   1      50.383  25.119  30.947  1.00  0.00     0.000 A 
ENDBRANCH  59  72
ENDBRANCH  33  34
ENDBRANCH  25  28
ENDBRANCH  23  24
ENDBRANCH   1  23
TORSDOF 12
ENDMDL
MODEL 2
REMARK VINA RESULT:     -11.6      2.511      4.383
REMARK SMILES O=Cc1ccc2c(c1)C=C(C(=O)NCCCNC(=O)c1ccc(-c3c4nc(c(-c5ccccc5)c5ccc([nH]5)c(-c5ccccc5)c5nc(c(-c6ccccc6)c6ccc3[nH]6)C=C5)C=C4)cc1)[C@H](C(F)(F)F)O2
REMARK SMILES IDX 15 1 14 2 13 3 11 4 12 5 10 7 3 8 4 9 8 10 5 11 7 12 6 13
REMARK SMILES IDX 9 14 73 15 68 16 2 17 1 18 69 19 70 20 71 21 72 22 16 23
REMARK SMILES IDX 17 24 18 25 19 27 20 28 21 29 67 30 22 31 66 32 23 33 24 34
REMARK SMILES IDX 25 35 60 36 26 37 65 38 59 39 61 40 27 41 64 42 58 43 57 44
REMARK SMILES IDX 28 46 50 47 35 48 49 49 36 50 39 51 48 52 62 53 37 54 38 55
REMARK SMILES IDX 47 57 63 58 40 59 29 60 30 61 34 62 31 63 33 64 32 65 51 66
REMARK SMILES IDX 52 67 56 68 53 69 55 70 54 71 41 72 42 73 46 74 43 75 45 76
REMARK SMILES IDX 44 77
REMARK H PARENT 13 6 17 26 61 45 39 56
REMARK Flexibility Score: inf
ROOT
ATOM      1  C   UNL A   1      33.116  27.831  26.866  1.00  0.00     0.042 C 
ENDROOT
BRANCH   1   2
ATOM      2  C   UNL A   1      31.718  27.569  26.294  1.00  0.00     0.118 C 
BRANCH   2   3
ATOM      3  N   UNL A   1      31.162  26.337  26.833  1.00  0.00    -0.352 N 
ATOM      4  C   UNL A   1      31.415  25.024  26.594  1.00  0.00     0.251 C 
ATOM      5  O   UNL A   1      30.694  24.188  27.131  1.00  0.00    -0.270 OA
ATOM      6  H   UNL A   1      30.460  26.485  27.507  1.00  0.00     0.163 HD
BRANCH   4   7
ATOM      7  C   UNL A   1      32.560  24.558  25.768  1.00  0.00     0.067 C 
ATOM      8  C   UNL A   1      36.950  22.659  25.113  1.00  0.00     0.015 A 
ATOM      9  C   UNL A   1      36.780  22.719  23.729  1.00  0.00     0.015 A 
ATOM     10  C   UNL A   1      35.950  23.126  25.971  1.00  0.00     0.023 A 
ATOM     11  C   UNL A   1      35.596  23.236  23.201  1.00  0.00     0.048 A 
ATOM     12  C   UNL A   1      34.765  23.647  25.436  1.00  0.00     0.018 A 
ATOM     13  C   UNL A   1      34.591  23.697  24.054  1.00  0.00     0.128 A 
ATOM     14  C   UNL A   1      33.688  24.080  26.311  1.00  0.00     0.025 C 
ATOM     15  O   UNL A   1      33.446  24.131  23.459  1.00  0.00    -0.475 OA
ATOM     16  C   UNL A   1      32.446  24.818  24.268  1.00  0.00     0.314 C 
BRANCH   8  17
ATOM     17  C   UNL A   1      38.182  22.083  25.689  1.00  0.00     0.260 C 
ATOM     18  O   UNL A   1      38.555  20.948  25.421  1.00  0.00    -0.298 OA
ENDBRANCH   8  17
BRANCH  16  19
ATOM     19  C   UNL A   1      31.066  24.514  23.642  1.00  0.00     0.429 C 
ATOM     20  F   UNL A   1      30.111  25.391  24.022  1.00  0.00    -0.167 F 
ATOM     21  F   UNL A   1      31.116  24.591  22.285  1.00  0.00    -0.167 F 
ATOM     22  F   UNL A   1      30.632  23.268  23.946  1.00  0.00    -0.167 F 
ENDBRANCH  16  19
ENDBRANCH   4   7
ENDBRANCH   2   3
ENDBRANCH   1   2
BRANCH   1  23
ATOM     23  C   UNL A   1      33.908  28.888  26.097  1.00  0.00     0.118 C 
BRANCH  23  24
ATOM     24  N   UNL A   1      33.735  30.214  26.663  1.00  0.00    -0.352 N 
ATOM     25  C   UNL A   1      34.455  30.866  27.632  1.00  0.00     0.251 C 
ATOM     26  H   UNL A   1      32.980  30.727  26.292  1.00  0.00     0.163 HD
ATOM     27  O   UNL A   1      34.004  31.903  28.114  1.00  0.00    -0.269 OA
BRANCH  25  28
ATOM     28  C   UNL A   1      35.755  30.345  28.115  1.00  0.00     0.039 A 
ATOM     29  C   UNL A   1      36.860  30.429  27.262  1.00  0.00     0.014 A 
ATOM     30  C   UNL A   1      35.884  29.710  29.354  1.00  0.00     0.014 A 
ATOM     31  C   UNL A   1      38.097  29.917  27.662  1.00  0.00     0.010 A 
ATOM     32  C   UNL A   1      37.132  29.249  29.777  1.00  0.00     0.010 A 
ATOM     33  C   UNL A   1      38.250  29.342  28.934  1.00  0.00    -0.014 A 
BRANCH  33  34
ATOM     34  C   UNL A   1      39.574  28.846  29.387  1.00  0.00     0.031 A 
ATOM     35  C   UNL A   1      40.428  29.666  30.314  1.00  0.00     0.074 A 
ATOM     36  C   UNL A   1      40.029  27.663  28.929  1.00  0.00     0.049 A 
ATOM     37  N   UNL A   1      41.612  29.392  30.804  1.00  0.00    -0.248 NA
ATOM     38  C   UNL A   1      39.893  30.971  30.732  1.00  0.00     0.031 C 
ATOM     39  C   UNL A   1      39.316  26.788  27.996  1.00  0.00     0.029 A 
ATOM     40  N   UNL A   1      41.199  26.995  29.187  1.00  0.00    -0.354 N 
ATOM     41  C   UNL A   1      41.968  30.492  31.573  1.00  0.00     0.074 A 
ATOM     42  C   UNL A   1      40.894  31.454  31.454  1.00  0.00     0.031 C 
ATOM     43  C   UNL A   1      40.053  25.686  27.780  1.00  0.00     0.029 A 
ATOM     44  C   UNL A   1      41.299  25.791  28.533  1.00  0.00     0.049 A 
ATOM     45  H   UNL A   1      41.900  27.345  29.782  1.00  0.00     0.167 HD
ATOM     46  C   UNL A   1      43.081  30.681  32.321  1.00  0.00     0.031 A 
ATOM     47  C   UNL A   1      42.281  24.870  28.541  1.00  0.00     0.031 A 
ATOM     48  C   UNL A   1      44.148  29.722  32.451  1.00  0.00     0.049 A 
ATOM     49  C   UNL A   1      43.503  25.100  29.381  1.00  0.00     0.074 A 
ATOM     50  C   UNL A   1      45.287  29.801  33.235  1.00  0.00     0.029 A 
ATOM     51  N   UNL A   1      44.208  28.514  31.777  1.00  0.00    -0.354 N 
ATOM     52  N   UNL A   1      43.792  26.117  30.156  1.00  0.00    -0.248 NA
ATOM     53  C   UNL A   1      44.530  24.049  29.356  1.00  0.00     0.031 C 
ATOM     54  C   UNL A   1      46.057  28.655  33.002  1.00  0.00     0.029 A 
ATOM     55  C   UNL A   1      45.375  27.845  32.109  1.00  0.00     0.049 A 
ATOM     56  H   UNL A   1      43.522  28.179  31.155  1.00  0.00     0.167 HD
ATOM     57  C   UNL A   1      45.022  25.820  30.726  1.00  0.00     0.074 A 
ATOM     58  C   UNL A   1      45.417  24.521  30.223  1.00  0.00     0.031 C 
ATOM     59  C   UNL A   1      45.759  26.557  31.593  1.00  0.00     0.031 A 
BRANCH  46  60
ATOM     60  C   UNL A   1      43.206  31.986  33.057  1.00  0.00    -0.014 A 
ATOM     61  C   UNL A   1      42.711  32.133  34.363  1.00  0.00     0.009 A 
ATOM     62  C   UNL A   1      43.860  33.070  32.452  1.00  0.00     0.009 A 
ATOM     63  C   UNL A   1      42.838  33.352  35.034  1.00  0.00     0.001 A 
ATOM     64  C   UNL A   1      44.007  34.280  33.134  1.00  0.00     0.001 A 
ATOM     65  C   UNL A   1      43.487  34.422  34.420  1.00  0.00     0.000 A 
ENDBRANCH  46  60
BRANCH  47  66
ATOM     66  C   UNL A   1      42.135  23.630  27.739  1.00  0.00    -0.014 A 
ATOM     67  C   UNL A   1      41.528  22.493  28.294  1.00  0.00     0.009 A 
ATOM     68  C   UNL A   1      42.595  23.577  26.414  1.00  0.00     0.009 A 
ATOM     69  C   UNL A   1      41.403  21.322  27.544  1.00  0.00     0.001 A 
ATOM     70  C   UNL A   1      42.445  22.412  25.658  1.00  0.00     0.001 A 
ATOM     71  C   UNL A   1      41.856  21.284  26.227  1.00  0.00     0.000 A 
ENDBRANCH  47  66
BRANCH  59  72
ATOM     72  C   UNL A   1      47.055  25.965  32.064  1.00  0.00    -0.014 A 
ATOM     73  C   UNL A   1      47.127  25.240  33.264  1.00  0.00     0.009 A 
ATOM     74  C   UNL A   1      48.213  26.111  31.284  1.00  0.00     0.009 A 
ATOM     75  C   UNL A   1      48.342  24.699  33.688  1.00  0.00     0.001 A 
ATOM     76  C   UNL A   1      49.420  25.549  31.699  1.00  0.00     0.001 A 
ATOM     77  C   UNL A   1      49.486  24.850  32.904  1.00  0.00     0.000 A 
ENDBRANCH  59  72
ENDBRANCH  33  34
ENDBRANCH  25  28
ENDBRANCH  23  24
ENDBRANCH   1  23
TORSDOF 12
ENDMDL
MODEL 3
REMARK VINA RESULT:     -11.5      0.297      6.030
REMARK SMILES O=Cc1ccc2c(c1)C=C(C(=O)NCCCNC(=O)c1ccc(-c3c4nc(c(-c5ccccc5)c5ccc([nH]5)c(-c5ccccc5)c5nc(c(-c6ccccc6)c6ccc3[nH]6)C=C5)C=C4)cc1)[C@H](C(F)(F)F)O2
REMARK SMILES IDX 15 1 14 2 13 3 11 4 12 5 10 7 3 8 4 9 8 10 5 11 7 12 6 13
REMARK SMILES IDX 9 14 73 15 68 16 2 17 1 18 69 19 70 20 71 21 72 22 16 23
REMARK SMILES IDX 17 24 18 25 19 27 20 28 21 29 67 30 22 31 66 32 23 33 24 34
REMARK SMILES IDX 25 35 60 36 26 37 65 38 59 39 61 40 27 41 64 42 58 43 57 44
REMARK SMILES IDX 28 46 50 47 35 48 49 49 36 50 39 51 48 52 62 53 37 54 38 55
REMARK SMILES IDX 47 57 63 58 40 59 29 60 30 61 34 62 31 63 33 64 32 65 51 66
REMARK SMILES IDX 52 67 56 68 53 69 55 70 54 71 41 72 42 73 46 74 43 75 45 76
REMARK SMILES IDX 44 77
REMARK H PARENT 13 6 17 26 61 45 39 56
REMARK Flexibility Score: inf
ROOT
ATOM      1  C   UNL A   1      33.926  28.375  25.778  1.00  0.00     0.042 C 
ENDROOT
BRANCH   1   2
ATOM      2  C   UNL A   1      33.735  26.935  25.289  1.00  0.00     0.118 C 
BRANCH   2   3
ATOM      3  N   UNL A   1      34.007  26.833  23.863  1.00  0.00    -0.352 N 
ATOM      4  C   UNL A   1      33.233  26.999  22.758  1.00  0.00     0.251 C 
ATOM      5  O   UNL A   1      33.722  26.733  21.664  1.00  0.00    -0.270 OA
ATOM      6  H   UNL A   1      34.940  26.596  23.657  1.00  0.00     0.163 HD
BRANCH   4   7
ATOM      7  C   UNL A   1      31.853  27.547  22.813  1.00  0.00     0.067 C 
ATOM      8  C   UNL A   1      28.484  30.911  22.006  1.00  0.00     0.015 A 
ATOM      9  C   UNL A   1      27.504  30.069  22.535  1.00  0.00     0.015 A 
ATOM     10  C   UNL A   1      29.820  30.503  21.965  1.00  0.00     0.023 A 
ATOM     11  C   UNL A   1      27.862  28.807  23.012  1.00  0.00     0.048 A 
ATOM     12  C   UNL A   1      30.175  29.237  22.448  1.00  0.00     0.018 A 
ATOM     13  C   UNL A   1      29.195  28.393  22.967  1.00  0.00     0.128 A 
ATOM     14  C   UNL A   1      31.548  28.771  22.357  1.00  0.00     0.025 C 
ATOM     15  O   UNL A   1      29.448  27.127  23.398  1.00  0.00    -0.475 OA
ATOM     16  C   UNL A   1      30.833  26.706  23.577  1.00  0.00     0.314 C 
BRANCH   8  17
ATOM     17  C   UNL A   1      28.117  32.234  21.464  1.00  0.00     0.260 C 
ATOM     18  O   UNL A   1      28.136  33.247  22.152  1.00  0.00    -0.298 OA
ENDBRANCH   8  17
BRANCH  16  19
ATOM     19  C   UNL A   1      30.886  25.186  23.303  1.00  0.00     0.429 C 
ATOM     20  F   UNL A   1      31.658  24.519  24.190  1.00  0.00    -0.167 F 
ATOM     21  F   UNL A   1      29.650  24.627  23.401  1.00  0.00    -0.167 F 
ATOM     22  F   UNL A   1      31.342  24.907  22.060  1.00  0.00    -0.167 F 
ENDBRANCH  16  19
ENDBRANCH   4   7
ENDBRANCH   2   3
ENDBRANCH   1   2
BRANCH   1  23
ATOM     23  C   UNL A   1      33.649  28.561  27.269  1.00  0.00     0.118 C 
BRANCH  23  24
ATOM     24  N   UNL A   1      33.608  29.963  27.644  1.00  0.00    -0.352 N 
ATOM     25  C   UNL A   1      34.538  30.735  28.296  1.00  0.00     0.251 C 
ATOM     26  H   UNL A   1      32.782  30.436  27.390  1.00  0.00     0.163 HD
ATOM     27  O   UNL A   1      34.208  31.846  28.704  1.00  0.00    -0.269 OA
BRANCH  25  28
ATOM     28  C   UNL A   1      35.919  30.254  28.528  1.00  0.00     0.039 A 
ATOM     29  C   UNL A   1      36.837  30.346  27.477  1.00  0.00     0.014 A 
ATOM     30  C   UNL A   1      36.301  29.648  29.729  1.00  0.00     0.014 A 
ATOM     31  C   UNL A   1      38.142  29.871  27.639  1.00  0.00     0.010 A 
ATOM     32  C   UNL A   1      37.619  29.225  29.911  1.00  0.00     0.010 A 
ATOM     33  C   UNL A   1      38.551  29.327  28.867  1.00  0.00    -0.014 A 
BRANCH  33  34
ATOM     34  C   UNL A   1      39.950  28.872  29.064  1.00  0.00     0.031 A 
ATOM     35  C   UNL A   1      40.373  27.484  28.669  1.00  0.00     0.074 A 
ATOM     36  C   UNL A   1      40.841  29.704  29.639  1.00  0.00     0.049 A 
ATOM     37  N   UNL A   1      41.550  26.918  28.777  1.00  0.00    -0.248 NA
ATOM     38  C   UNL A   1      39.337  26.611  28.097  1.00  0.00     0.031 C 
ATOM     39  C   UNL A   1      40.551  31.063  30.102  1.00  0.00     0.029 A 
ATOM     40  N   UNL A   1      42.170  29.528  29.931  1.00  0.00    -0.354 N 
ATOM     41  C   UNL A   1      41.392  25.622  28.301  1.00  0.00     0.074 A 
ATOM     42  C   UNL A   1      39.999  25.473  27.940  1.00  0.00     0.031 C 
ATOM     43  C   UNL A   1      41.675  31.606  30.597  1.00  0.00     0.029 A 
ATOM     44  C   UNL A   1      42.755  30.627  30.513  1.00  0.00     0.049 A 
ATOM     45  H   UNL A   1      42.658  28.694  29.743  1.00  0.00     0.167 HD
ATOM     46  C   UNL A   1      42.324  24.649  28.163  1.00  0.00     0.031 A 
ATOM     47  C   UNL A   1      44.018  30.827  30.930  1.00  0.00     0.031 A 
ATOM     48  C   UNL A   1      43.713  24.796  28.509  1.00  0.00     0.049 A 
ATOM     49  C   UNL A   1      45.034  29.734  30.763  1.00  0.00     0.074 A 
ATOM     50  C   UNL A   1      44.744  23.886  28.349  1.00  0.00     0.029 A 
ATOM     51  N   UNL A   1      44.265  25.926  29.091  1.00  0.00    -0.354 N 
ATOM     52  N   UNL A   1      44.882  28.539  30.248  1.00  0.00    -0.248 NA
ATOM     53  C   UNL A   1      46.399  30.024  31.225  1.00  0.00     0.031 C 
ATOM     54  C   UNL A   1      45.913  24.450  28.872  1.00  0.00     0.029 A 
ATOM     55  C   UNL A   1      45.618  25.729  29.316  1.00  0.00     0.049 A 
ATOM     56  H   UNL A   1      43.770  26.748  29.311  1.00  0.00     0.167 HD
ATOM     57  C   UNL A   1      46.134  27.941  30.304  1.00  0.00     0.074 A 
ATOM     58  C   UNL A   1      47.037  28.911  30.888  1.00  0.00     0.031 C 
ATOM     59  C   UNL A   1      46.502  26.700  29.906  1.00  0.00     0.031 A 
BRANCH  46  60
ATOM     60  C   UNL A   1      41.865  23.326  27.615  1.00  0.00    -0.014 A 
ATOM     61  C   UNL A   1      41.785  23.101  26.232  1.00  0.00     0.009 A 
ATOM     62  C   UNL A   1      41.546  22.279  28.494  1.00  0.00     0.009 A 
ATOM     63  C   UNL A   1      41.359  21.865  25.740  1.00  0.00     0.001 A 
ATOM     64  C   UNL A   1      41.145  21.036  27.999  1.00  0.00     0.001 A 
ATOM     65  C   UNL A   1      41.042  20.834  26.624  1.00  0.00     0.000 A 
ENDBRANCH  46  60
BRANCH  47  66
ATOM     66  C   UNL A   1      44.399  32.131  31.528  1.00  0.00    -0.014 A 
ATOM     67  C   UNL A   1      44.870  33.174  30.716  1.00  0.00     0.009 A 
ATOM     68  C   UNL A   1      44.289  32.342  32.911  1.00  0.00     0.009 A 
ATOM     69  C   UNL A   1      45.241  34.396  31.279  1.00  0.00     0.001 A 
ATOM     70  C   UNL A   1      44.637  33.575  33.469  1.00  0.00     0.001 A 
ATOM     71  C   UNL A   1      45.119  34.597  32.653  1.00  0.00     0.000 A 
ENDBRANCH  47  66
BRANCH  59  72
ATOM     72  C   UNL A   1      47.948  26.330  30.071  1.00  0.00    -0.014 A 
ATOM     73  C   UNL A   1      48.417  25.748  31.259  1.00  0.00     0.009 A 
ATOM     74  C   UNL A   1      48.847  26.544  29.014  1.00  0.00     0.009 A 
ATOM     75  C   UNL A   1      49.766  25.415  31.395  1.00  0.00     0.001 A 
ATOM     76  C   UNL A   1      50.189  26.187  29.145  1.00  0.00     0.001 A 
ATOM     77  C   UNL A   1      50.649  25.630  30.338  1.00  0.00     0.000 A 
ENDBRANCH  59  72
ENDBRANCH  33  34
ENDBRANCH  25  28
ENDBRANCH  23  24
ENDBRANCH   1  23
TORSDOF 12
ENDMDL
