MODEL 1
REMARK VINA RESULT:     -12.5      0.000      0.000
REMARK SMILES O=C(NCCCNC(=O)[C@H](c1ccccc1)N1C(=O)/C(=C/c2ccc(-c3nc4ccccc4s3)o2)SC1=S)c1ccc(-c2c3nc(c(-c4ccccc4)c4ccc([nH]4)c(-c4ccccc4)c4nc(c(-c5ccccc5)c5ccc2[nH]5)C=C4)C=C3)cc1
REMARK SMILES IDX 5 1 4 2 3 3 1 4 2 5 39 7 40 8 86 9 41 10 85 11 42 12 43 13
REMARK SMILES IDX 44 14 79 15 45 16 84 17 78 18 80 19 46 20 83 21 77 22 76 23
REMARK SMILES IDX 47 25 69 26 54 27 68 28 55 29 58 30 67 31 81 32 56 33 57 34
REMARK SMILES IDX 66 36 82 37 59 38 48 39 49 40 53 41 50 42 52 43 51 44 70 45
REMARK SMILES IDX 71 46 75 47 72 48 74 49 73 50 60 51 61 52 65 53 62 54 64 55
REMARK SMILES IDX 63 56 6 57 7 58 8 59 9 61 10 62 17 63 18 64 37 65 19 66
REMARK SMILES IDX 20 67 36 68 38 69 21 70 22 71 23 72 35 73 24 74 25 75 26 76
REMARK SMILES IDX 27 77 34 78 28 79 33 80 29 81 32 82 30 83 31 84 11 85 12 86
REMARK SMILES IDX 16 87 13 88 15 89 14 90
REMARK H PARENT 3 6 80 24 58 35 7 60
REMARK Flexibility Score: inf
ROOT
ATOM      1  C   UNL A   1      38.642  20.120  24.999  1.00  0.00     0.042 C 
ENDROOT
BRANCH   1   2
ATOM      2  C   UNL A   1      39.344  19.519  26.208  1.00  0.00     0.118 C 
BRANCH   2   3
ATOM      3  N   UNL A   1      40.583  18.828  25.868  1.00  0.00    -0.352 N 
ATOM      4  O   UNL A   1      42.754  18.548  25.347  1.00  0.00    -0.269 OA
ATOM      5  C   UNL A   1      41.882  19.277  25.812  1.00  0.00     0.251 C 
ATOM      6  H   UNL A   1      40.471  17.877  25.640  1.00  0.00     0.163 HD
BRANCH   5   7
ATOM      7  C   UNL A   1      42.237  20.634  26.282  1.00  0.00     0.039 A 
ATOM      8  C   UNL A   1      42.473  21.666  25.376  1.00  0.00     0.014 A 
ATOM      9  C   UNL A   1      42.304  20.891  27.657  1.00  0.00     0.014 A 
ATOM     10  C   UNL A   1      42.958  22.886  25.828  1.00  0.00     0.010 A 
ATOM     11  C   UNL A   1      42.674  22.160  28.115  1.00  0.00     0.010 A 
ATOM     12  C   UNL A   1      43.040  23.159  27.203  1.00  0.00    -0.014 A 
BRANCH  12  13
ATOM     13  C   UNL A   1      43.433  24.528  27.628  1.00  0.00     0.031 A 
ATOM     14  C   UNL A   1      44.849  25.017  27.499  1.00  0.00     0.074 A 
ATOM     15  C   UNL A   1      42.467  25.361  28.064  1.00  0.00     0.049 A 
ATOM     16  N   UNL A   1      45.325  26.214  27.740  1.00  0.00    -0.248 NA
ATOM     17  C   UNL A   1      45.862  24.049  27.053  1.00  0.00     0.031 C 
ATOM     18  C   UNL A   1      41.058  24.995  28.244  1.00  0.00     0.029 A 
ATOM     19  N   UNL A   1      42.505  26.690  28.388  1.00  0.00    -0.354 N 
ATOM     20  C   UNL A   1      46.690  26.139  27.491  1.00  0.00     0.074 A 
ATOM     21  C   UNL A   1      46.972  24.775  27.101  1.00  0.00     0.031 C 
ATOM     22  C   UNL A   1      40.356  26.090  28.564  1.00  0.00     0.029 A 
ATOM     23  C   UNL A   1      41.270  27.217  28.684  1.00  0.00     0.049 A 
ATOM     24  H   UNL A   1      43.336  27.219  28.407  1.00  0.00     0.167 HD
ATOM     25  C   UNL A   1      47.620  27.120  27.576  1.00  0.00     0.031 A 
ATOM     26  C   UNL A   1      40.909  28.467  29.024  1.00  0.00     0.031 A 
ATOM     27  C   UNL A   1      47.338  28.479  27.961  1.00  0.00     0.049 A 
ATOM     28  C   UNL A   1      41.963  29.527  29.116  1.00  0.00     0.074 A 
ATOM     29  C   UNL A   1      48.215  29.546  28.066  1.00  0.00     0.029 A 
ATOM     30  N   UNL A   1      46.084  28.960  28.301  1.00  0.00    -0.354 N 
ATOM     31  N   UNL A   1      43.246  29.437  28.862  1.00  0.00    -0.248 NA
ATOM     32  C   UNL A   1      41.521  30.858  29.549  1.00  0.00     0.031 C 
ATOM     33  C   UNL A   1      47.498  30.662  28.509  1.00  0.00     0.029 A 
ATOM     34  C   UNL A   1      46.165  30.301  28.634  1.00  0.00     0.049 A 
ATOM     35  H   UNL A   1      45.257  28.426  28.306  1.00  0.00     0.167 HD
ATOM     36  C   UNL A   1      43.765  30.700  29.103  1.00  0.00     0.074 A 
ATOM     37  C   UNL A   1      42.652  31.546  29.488  1.00  0.00     0.031 C 
ATOM     38  C   UNL A   1      45.051  31.121  29.028  1.00  0.00     0.031 A 
BRANCH  25  39
ATOM     39  C   UNL A   1      49.046  26.760  27.263  1.00  0.00    -0.014 A 
ATOM     40  C   UNL A   1      49.926  26.335  28.271  1.00  0.00     0.009 A 
ATOM     41  C   UNL A   1      49.495  26.780  25.933  1.00  0.00     0.009 A 
ATOM     42  C   UNL A   1      51.233  25.957  27.954  1.00  0.00     0.001 A 
ATOM     43  C   UNL A   1      50.795  26.381  25.617  1.00  0.00     0.001 A 
ATOM     44  C   UNL A   1      51.665  25.974  26.628  1.00  0.00     0.000 A 
ENDBRANCH  25  39
BRANCH  26  45
ATOM     45  C   UNL A   1      39.487  28.771  29.326  1.00  0.00    -0.014 A 
ATOM     46  C   UNL A   1      38.996  28.682  30.637  1.00  0.00     0.009 A 
ATOM     47  C   UNL A   1      38.613  29.159  28.298  1.00  0.00     0.009 A 
ATOM     48  C   UNL A   1      37.653  28.953  30.908  1.00  0.00     0.001 A 
ATOM     49  C   UNL A   1      37.280  29.460  28.576  1.00  0.00     0.001 A 
ATOM     50  C   UNL A   1      36.798  29.347  29.878  1.00  0.00     0.000 A 
ENDBRANCH  26  45
BRANCH  38  51
ATOM     51  C   UNL A   1      45.306  32.562  29.362  1.00  0.00    -0.014 A 
ATOM     52  C   UNL A   1      45.613  32.954  30.674  1.00  0.00     0.009 A 
ATOM     53  C   UNL A   1      45.238  33.535  28.354  1.00  0.00     0.009 A 
ATOM     54  C   UNL A   1      45.807  34.302  30.977  1.00  0.00     0.001 A 
ATOM     55  C   UNL A   1      45.459  34.879  28.656  1.00  0.00     0.001 A 
ATOM     56  C   UNL A   1      45.732  35.262  29.969  1.00  0.00     0.000 A 
ENDBRANCH  38  51
ENDBRANCH  12  13
ENDBRANCH   5   7
ENDBRANCH   2   3
ENDBRANCH   1   2
BRANCH   1  57
ATOM     57  C   UNL A   1      37.956  21.443  25.288  1.00  0.00     0.117 C 
BRANCH  57  58
ATOM     58  N   UNL A   1      37.392  22.065  24.106  1.00  0.00    -0.354 N 
ATOM     59  C   UNL A   1      36.201  22.628  23.779  1.00  0.00     0.247 C 
ATOM     60  H   UNL A   1      38.031  22.086  23.357  1.00  0.00     0.163 HD
ATOM     61  O   UNL A   1      36.178  23.102  22.632  1.00  0.00    -0.272 OA
BRANCH  59  62
ATOM     62  C   UNL A   1      34.886  22.547  24.612  1.00  0.00     0.211 C 
BRANCH  62  63
ATOM     63  N   UNL A   1      34.118  23.750  24.968  1.00  0.00    -0.276 N 
ATOM     64  C   UNL A   1      33.911  24.744  24.022  1.00  0.00     0.267 C 
ATOM     65  C   UNL A   1      33.480  23.926  26.181  1.00  0.00     0.149 C 
ATOM     66  O   UNL A   1      34.365  24.779  22.892  1.00  0.00    -0.268 OA
ATOM     67  C   UNL A   1      33.191  25.893  24.634  1.00  0.00     0.084 C 
ATOM     68  S   UNL A   1      32.664  25.482  26.212  1.00  0.00    -0.054 SA
ATOM     69  S   UNL A   1      33.428  22.913  27.507  1.00  0.00    -0.052 S 
ATOM     70  C   UNL A   1      33.103  27.066  23.998  1.00  0.00     0.068 C 
BRANCH  70  71
ATOM     71  C   UNL A   1      32.566  28.245  24.581  1.00  0.00     0.129 A 
ATOM     72  C   UNL A   1      31.284  28.773  24.510  1.00  0.00     0.051 A 
ATOM     73  O   UNL A   1      33.305  29.058  25.404  1.00  0.00    -0.454 OA
ATOM     74  C   UNL A   1      31.260  29.947  25.291  1.00  0.00     0.054 A 
ATOM     75  C   UNL A   1      32.527  30.107  25.819  1.00  0.00     0.163 A 
BRANCH  75  76
ATOM     76  C   UNL A   1      32.993  31.179  26.650  1.00  0.00     0.160 A 
ATOM     77  N   UNL A   1      34.125  31.098  27.316  1.00  0.00    -0.233 NA
ATOM     78  S   UNL A   1      32.087  32.614  26.882  1.00  0.00    -0.111 S 
ATOM     79  C   UNL A   1      34.293  32.231  28.090  1.00  0.00     0.082 A 
ATOM     80  C   UNL A   1      33.264  33.171  28.009  1.00  0.00     0.055 A 
ATOM     81  C   UNL A   1      35.387  32.493  28.939  1.00  0.00     0.030 A 
ATOM     82  C   UNL A   1      33.277  34.352  28.768  1.00  0.00     0.021 A 
ATOM     83  C   UNL A   1      35.412  33.667  29.698  1.00  0.00     0.002 A 
ATOM     84  C   UNL A   1      34.366  34.581  29.616  1.00  0.00     0.002 A 
ENDBRANCH  75  76
ENDBRANCH  70  71
ENDBRANCH  62  63
BRANCH  62  85
ATOM     85  C   UNL A   1      33.962  21.419  24.132  1.00  0.00    -0.016 A 
ATOM     86  C   UNL A   1      32.997  21.634  23.134  1.00  0.00     0.006 A 
ATOM     87  C   UNL A   1      34.074  20.129  24.680  1.00  0.00     0.006 A 
ATOM     88  C   UNL A   1      32.149  20.604  22.722  1.00  0.00     0.000 A 
ATOM     89  C   UNL A   1      33.238  19.095  24.251  1.00  0.00     0.000 A 
ATOM     90  C   UNL A   1      32.270  19.336  23.281  1.00  0.00     0.000 A 
ENDBRANCH  62  85
ENDBRANCH  59  62
ENDBRANCH  57  58
ENDBRANCH   1  57
TORSDOF 14
ENDMDL
MODEL 2
REMARK VINA RESULT:     -12.0      2.776      4.558
REMARK SMILES O=C(NCCCNC(=O)[C@H](c1ccccc1)N1C(=O)/C(=C/c2ccc(-c3nc4ccccc4s3)o2)SC1=S)c1ccc(-c2c3nc(c(-c4ccccc4)c4ccc([nH]4)c(-c4ccccc4)c4nc(c(-c5ccccc5)c5ccc2[nH]5)C=C4)C=C3)cc1
REMARK SMILES IDX 5 1 4 2 3 3 1 4 2 5 39 7 40 8 86 9 41 10 85 11 42 12 43 13
REMARK SMILES IDX 44 14 79 15 45 16 84 17 78 18 80 19 46 20 83 21 77 22 76 23
REMARK SMILES IDX 47 25 69 26 54 27 68 28 55 29 58 30 67 31 81 32 56 33 57 34
REMARK SMILES IDX 66 36 82 37 59 38 48 39 49 40 53 41 50 42 52 43 51 44 70 45
REMARK SMILES IDX 71 46 75 47 72 48 74 49 73 50 60 51 61 52 65 53 62 54 64 55
REMARK SMILES IDX 63 56 6 57 7 58 8 59 9 61 10 62 17 63 18 64 37 65 19 66
REMARK SMILES IDX 20 67 36 68 38 69 21 70 22 71 23 72 35 73 24 74 25 75 26 76
REMARK SMILES IDX 27 77 34 78 28 79 33 80 29 81 32 82 30 83 31 84 11 85 12 86
REMARK SMILES IDX 16 87 13 88 15 89 14 90
REMARK H PARENT 3 6 80 24 58 35 7 60
REMARK Flexibility Score: inf
ROOT
ATOM      1  C   UNL A   1      38.593  24.553  26.442  1.00  0.00     0.042 C 
ENDROOT
BRANCH   1   2
ATOM      2  C   UNL A   1      40.101  24.749  26.461  1.00  0.00     0.118 C 
BRANCH   2   3
ATOM      3  N   UNL A   1      40.844  23.510  26.256  1.00  0.00    -0.352 N 
ATOM      4  O   UNL A   1      42.573  22.159  25.757  1.00  0.00    -0.269 OA
ATOM      5  C   UNL A   1      42.187  23.283  26.067  1.00  0.00     0.251 C 
ATOM      6  H   UNL A   1      40.289  22.697  26.252  1.00  0.00     0.163 HD
BRANCH   5   7
ATOM      7  C   UNL A   1      43.170  24.380  26.208  1.00  0.00     0.039 A 
ATOM      8  C   UNL A   1      43.613  25.090  25.094  1.00  0.00     0.014 A 
ATOM      9  C   UNL A   1      43.634  24.729  27.481  1.00  0.00     0.014 A 
ATOM     10  C   UNL A   1      44.649  26.005  25.225  1.00  0.00     0.010 A 
ATOM     11  C   UNL A   1      44.591  25.741  27.626  1.00  0.00     0.010 A 
ATOM     12  C   UNL A   1      45.134  26.363  26.493  1.00  0.00    -0.014 A 
BRANCH  12  13
ATOM     13  C   UNL A   1      46.145  27.447  26.583  1.00  0.00     0.031 A 
ATOM     14  C   UNL A   1      47.614  27.171  26.426  1.00  0.00     0.074 A 
ATOM     15  C   UNL A   1      45.707  28.714  26.730  1.00  0.00     0.049 A 
ATOM     16  N   UNL A   1      48.608  28.025  26.386  1.00  0.00    -0.248 NA
ATOM     17  C   UNL A   1      48.029  25.765  26.305  1.00  0.00     0.031 C 
ATOM     18  C   UNL A   1      44.305  29.106  26.906  1.00  0.00     0.029 A 
ATOM     19  N   UNL A   1      46.381  29.906  26.709  1.00  0.00    -0.354 N 
ATOM     20  C   UNL A   1      49.762  27.263  26.253  1.00  0.00     0.074 A 
ATOM     21  C   UNL A   1      49.351  25.876  26.240  1.00  0.00     0.031 C 
ATOM     22  C   UNL A   1      44.215  30.442  26.893  1.00  0.00     0.029 A 
ATOM     23  C   UNL A   1      45.555  31.002  26.782  1.00  0.00     0.049 A 
ATOM     24  H   UNL A   1      47.362  29.972  26.648  1.00  0.00     0.167 HD
ATOM     25  C   UNL A   1      51.045  27.683  26.146  1.00  0.00     0.031 A 
ATOM     26  C   UNL A   1      45.840  32.317  26.770  1.00  0.00     0.031 A 
ATOM     27  C   UNL A   1      51.453  29.065  26.156  1.00  0.00     0.049 A 
ATOM     28  C   UNL A   1      47.270  32.748  26.659  1.00  0.00     0.074 A 
ATOM     29  C   UNL A   1      52.731  29.587  26.044  1.00  0.00     0.029 A 
ATOM     30  N   UNL A   1      50.592  30.142  26.281  1.00  0.00    -0.354 N 
ATOM     31  N   UNL A   1      48.344  32.011  26.519  1.00  0.00    -0.248 NA
ATOM     32  C   UNL A   1      47.527  34.193  26.711  1.00  0.00     0.031 C 
ATOM     33  C   UNL A   1      52.645  30.980  26.143  1.00  0.00     0.029 A 
ATOM     34  C   UNL A   1      51.309  31.326  26.268  1.00  0.00     0.049 A 
ATOM     35  H   UNL A   1      49.613  30.076  26.368  1.00  0.00     0.167 HD
ATOM     36  C   UNL A   1      49.406  32.901  26.465  1.00  0.00     0.074 A 
ATOM     37  C   UNL A   1      48.842  34.234  26.551  1.00  0.00     0.031 C 
ATOM     38  C   UNL A   1      50.732  32.640  26.369  1.00  0.00     0.031 A 
BRANCH  25  39
ATOM     39  C   UNL A   1      52.116  26.635  26.027  1.00  0.00    -0.014 A 
ATOM     40  C   UNL A   1      52.447  26.073  24.784  1.00  0.00     0.009 A 
ATOM     41  C   UNL A   1      52.849  26.254  27.162  1.00  0.00     0.009 A 
ATOM     42  C   UNL A   1      53.479  25.137  24.685  1.00  0.00     0.001 A 
ATOM     43  C   UNL A   1      53.894  25.334  27.056  1.00  0.00     0.001 A 
ATOM     44  C   UNL A   1      54.206  24.772  25.819  1.00  0.00     0.000 A 
ENDBRANCH  25  39
BRANCH  26  45
ATOM     45  C   UNL A   1      44.745  33.314  26.893  1.00  0.00    -0.014 A 
ATOM     46  C   UNL A   1      44.171  33.893  25.752  1.00  0.00     0.009 A 
ATOM     47  C   UNL A   1      44.267  33.686  28.159  1.00  0.00     0.009 A 
ATOM     48  C   UNL A   1      43.155  34.842  25.879  1.00  0.00     0.001 A 
ATOM     49  C   UNL A   1      43.230  34.611  28.281  1.00  0.00     0.001 A 
ATOM     50  C   UNL A   1      42.682  35.196  27.142  1.00  0.00     0.000 A 
ENDBRANCH  26  45
BRANCH  38  51
ATOM     51  C   UNL A   1      51.649  33.828  26.343  1.00  0.00    -0.014 A 
ATOM     52  C   UNL A   1      51.988  34.451  25.132  1.00  0.00     0.009 A 
ATOM     53  C   UNL A   1      52.179  34.327  27.542  1.00  0.00     0.009 A 
ATOM     54  C   UNL A   1      52.875  35.528  25.119  1.00  0.00     0.001 A 
ATOM     55  C   UNL A   1      53.044  35.422  27.528  1.00  0.00     0.001 A 
ATOM     56  C   UNL A   1      53.400  36.014  26.317  1.00  0.00     0.000 A 
ENDBRANCH  38  51
ENDBRANCH  12  13
ENDBRANCH   5   7
ENDBRANCH   2   3
ENDBRANCH   1   2
BRANCH   1  57
ATOM     57  C   UNL A   1      38.167  23.104  26.288  1.00  0.00     0.117 C 
BRANCH  57  58
ATOM     58  N   UNL A   1      37.705  22.782  24.953  1.00  0.00    -0.354 N 
ATOM     59  C   UNL A   1      36.497  22.637  24.350  1.00  0.00     0.247 C 
ATOM     60  H   UNL A   1      38.451  22.632  24.328  1.00  0.00     0.163 HD
ATOM     61  O   UNL A   1      36.577  22.405  23.134  1.00  0.00    -0.272 OA
BRANCH  59  62
ATOM     62  C   UNL A   1      35.116  22.548  25.069  1.00  0.00     0.211 C 
BRANCH  62  63
ATOM     63  N   UNL A   1      34.299  23.743  25.330  1.00  0.00    -0.276 N 
ATOM     64  C   UNL A   1      34.234  24.756  24.385  1.00  0.00     0.267 C 
ATOM     65  C   UNL A   1      33.485  23.893  26.437  1.00  0.00     0.149 C 
ATOM     66  O   UNL A   1      34.853  24.816  23.337  1.00  0.00    -0.268 OA
ATOM     67  C   UNL A   1      33.425  25.892  24.905  1.00  0.00     0.084 C 
ATOM     68  S   UNL A   1      32.668  25.448  26.376  1.00  0.00    -0.054 SA
ATOM     69  S   UNL A   1      33.238  22.853  27.718  1.00  0.00    -0.052 S 
ATOM     70  C   UNL A   1      33.430  27.078  24.286  1.00  0.00     0.068 C 
BRANCH  70  71
ATOM     71  C   UNL A   1      32.807  28.244  24.807  1.00  0.00     0.129 A 
ATOM     72  C   UNL A   1      31.503  28.699  24.665  1.00  0.00     0.051 A 
ATOM     73  O   UNL A   1      33.466  29.123  25.630  1.00  0.00    -0.454 OA
ATOM     74  C   UNL A   1      31.383  29.894  25.404  1.00  0.00     0.054 A 
ATOM     75  C   UNL A   1      32.617  30.141  25.977  1.00  0.00     0.163 A 
BRANCH  75  76
ATOM     76  C   UNL A   1      32.990  31.263  26.788  1.00  0.00     0.160 A 
ATOM     77  N   UNL A   1      34.042  31.228  27.578  1.00  0.00    -0.233 NA
ATOM     78  S   UNL A   1      32.065  32.703  26.833  1.00  0.00    -0.111 S 
ATOM     79  C   UNL A   1      34.125  32.406  28.296  1.00  0.00     0.082 A 
ATOM     80  C   UNL A   1      33.111  33.333  28.047  1.00  0.00     0.055 A 
ATOM     81  C   UNL A   1      35.119  32.724  29.243  1.00  0.00     0.030 A 
ATOM     82  C   UNL A   1      33.042  34.558  28.732  1.00  0.00     0.021 A 
ATOM     83  C   UNL A   1      35.062  33.941  29.929  1.00  0.00     0.002 A 
ATOM     84  C   UNL A   1      34.031  34.842  29.678  1.00  0.00     0.002 A 
ENDBRANCH  75  76
ENDBRANCH  70  71
ENDBRANCH  62  63
BRANCH  62  85
ATOM     85  C   UNL A   1      34.257  21.392  24.537  1.00  0.00    -0.016 A 
ATOM     86  C   UNL A   1      33.162  21.620  23.689  1.00  0.00     0.006 A 
ATOM     87  C   UNL A   1      34.563  20.064  24.884  1.00  0.00     0.006 A 
ATOM     88  C   UNL A   1      32.377  20.561  23.230  1.00  0.00     0.000 A 
ATOM     89  C   UNL A   1      33.788  19.004  24.408  1.00  0.00     0.000 A 
ATOM     90  C   UNL A   1      32.690  19.253  23.590  1.00  0.00     0.000 A 
ENDBRANCH  62  85
ENDBRANCH  59  62
ENDBRANCH  57  58
ENDBRANCH   1  57
TORSDOF 14
ENDMDL
MODEL 3
REMARK VINA RESULT:     -11.7      3.487      9.702
REMARK SMILES O=C(NCCCNC(=O)[C@H](c1ccccc1)N1C(=O)/C(=C/c2ccc(-c3nc4ccccc4s3)o2)SC1=S)c1ccc(-c2c3nc(c(-c4ccccc4)c4ccc([nH]4)c(-c4ccccc4)c4nc(c(-c5ccccc5)c5ccc2[nH]5)C=C4)C=C3)cc1
REMARK SMILES IDX 5 1 4 2 3 3 1 4 2 5 39 7 40 8 86 9 41 10 85 11 42 12 43 13
REMARK SMILES IDX 44 14 79 15 45 16 84 17 78 18 80 19 46 20 83 21 77 22 76 23
REMARK SMILES IDX 47 25 69 26 54 27 68 28 55 29 58 30 67 31 81 32 56 33 57 34
REMARK SMILES IDX 66 36 82 37 59 38 48 39 49 40 53 41 50 42 52 43 51 44 70 45
REMARK SMILES IDX 71 46 75 47 72 48 74 49 73 50 60 51 61 52 65 53 62 54 64 55
REMARK SMILES IDX 63 56 6 57 7 58 8 59 9 61 10 62 17 63 18 64 37 65 19 66
REMARK SMILES IDX 20 67 36 68 38 69 21 70 22 71 23 72 35 73 24 74 25 75 26 76
REMARK SMILES IDX 27 77 34 78 28 79 33 80 29 81 32 82 30 83 31 84 11 85 12 86
REMARK SMILES IDX 16 87 13 88 15 89 14 90
REMARK H PARENT 3 6 80 24 58 35 7 60
REMARK Flexibility Score: inf
ROOT
ATOM      1  C   UNL A   1      34.917  29.936  27.677  1.00  0.00     0.042 C 
ENDROOT
BRANCH   1   2
ATOM      2  C   UNL A   1      34.913  31.458  27.691  1.00  0.00     0.118 C 
BRANCH   2   3
ATOM      3  N   UNL A   1      34.472  32.020  28.963  1.00  0.00    -0.352 N 
ATOM      4  O   UNL A   1      34.418  32.407  31.179  1.00  0.00    -0.269 OA
ATOM      5  C   UNL A   1      35.051  31.996  30.210  1.00  0.00     0.251 C 
ATOM      6  H   UNL A   1      33.612  32.497  28.922  1.00  0.00     0.163 HD
BRANCH   5   7
ATOM      7  C   UNL A   1      36.417  31.461  30.403  1.00  0.00     0.039 A 
ATOM      8  C   UNL A   1      37.519  32.088  29.826  1.00  0.00     0.014 A 
ATOM      9  C   UNL A   1      36.605  30.328  31.202  1.00  0.00     0.014 A 
ATOM     10  C   UNL A   1      38.768  31.485  29.885  1.00  0.00     0.010 A 
ATOM     11  C   UNL A   1      37.887  29.790  31.364  1.00  0.00     0.010 A 
ATOM     12  C   UNL A   1      38.975  30.344  30.676  1.00  0.00    -0.014 A 
BRANCH  12  13
ATOM     13  C   UNL A   1      40.360  29.822  30.813  1.00  0.00     0.031 A 
ATOM     14  C   UNL A   1      41.323  30.396  31.814  1.00  0.00     0.074 A 
ATOM     15  C   UNL A   1      40.714  28.756  30.067  1.00  0.00     0.049 A 
ATOM     16  N   UNL A   1      42.532  29.986  32.115  1.00  0.00    -0.248 NA
ATOM     17  C   UNL A   1      40.889  31.580  32.570  1.00  0.00     0.031 C 
ATOM     18  C   UNL A   1      39.868  28.120  29.052  1.00  0.00     0.029 A 
ATOM     19  N   UNL A   1      41.850  27.991  30.075  1.00  0.00    -0.354 N 
ATOM     20  C   UNL A   1      43.006  30.867  33.078  1.00  0.00     0.074 A 
ATOM     21  C   UNL A   1      41.966  31.849  33.299  1.00  0.00     0.031 C 
ATOM     22  C   UNL A   1      40.479  27.018  28.598  1.00  0.00     0.029 A 
ATOM     23  C   UNL A   1      41.785  26.908  29.231  1.00  0.00     0.049 A 
ATOM     24  H   UNL A   1      42.637  28.197  30.632  1.00  0.00     0.167 HD
ATOM     25  C   UNL A   1      44.197  30.855  33.722  1.00  0.00     0.031 A 
ATOM     26  C   UNL A   1      42.680  25.935  28.985  1.00  0.00     0.031 A 
ATOM     27  C   UNL A   1      45.231  29.876  33.504  1.00  0.00     0.049 A 
ATOM     28  C   UNL A   1      43.992  25.955  29.708  1.00  0.00     0.074 A 
ATOM     29  C   UNL A   1      46.469  29.777  34.117  1.00  0.00     0.029 A 
ATOM     30  N   UNL A   1      45.147  28.825  32.606  1.00  0.00    -0.354 N 
ATOM     31  N   UNL A   1      44.413  26.789  30.627  1.00  0.00    -0.248 NA
ATOM     32  C   UNL A   1      44.953  24.902  29.356  1.00  0.00     0.031 C 
ATOM     33  C   UNL A   1      47.150  28.690  33.560  1.00  0.00     0.029 A 
ATOM     34  C   UNL A   1      46.316  28.083  32.634  1.00  0.00     0.049 A 
ATOM     35  H   UNL A   1      44.370  28.633  32.031  1.00  0.00     0.167 HD
ATOM     36  C   UNL A   1      45.689  26.363  30.963  1.00  0.00     0.074 A 
ATOM     37  C   UNL A   1      45.957  25.175  30.177  1.00  0.00     0.031 C 
ATOM     38  C   UNL A   1      46.568  26.914  31.834  1.00  0.00     0.031 A 
BRANCH  25  39
ATOM     39  C   UNL A   1      44.464  31.948  34.719  1.00  0.00    -0.014 A 
ATOM     40  C   UNL A   1      45.025  33.172  34.322  1.00  0.00     0.009 A 
ATOM     41  C   UNL A   1      44.085  31.778  36.060  1.00  0.00     0.009 A 
ATOM     42  C   UNL A   1      45.220  34.195  35.253  1.00  0.00     0.001 A 
ATOM     43  C   UNL A   1      44.261  32.810  36.984  1.00  0.00     0.001 A 
ATOM     44  C   UNL A   1      44.833  34.016  36.581  1.00  0.00     0.000 A 
ENDBRANCH  25  39
BRANCH  26  45
ATOM     45  C   UNL A   1      42.370  24.878  27.988  1.00  0.00    -0.014 A 
ATOM     46  C   UNL A   1      42.749  25.024  26.645  1.00  0.00     0.009 A 
ATOM     47  C   UNL A   1      41.695  23.712  28.382  1.00  0.00     0.009 A 
ATOM     48  C   UNL A   1      42.437  24.032  25.713  1.00  0.00     0.001 A 
ATOM     49  C   UNL A   1      41.413  22.708  27.454  1.00  0.00     0.001 A 
ATOM     50  C   UNL A   1      41.774  22.873  26.119  1.00  0.00     0.000 A 
ENDBRANCH  26  45
BRANCH  38  51
ATOM     51  C   UNL A   1      47.892  26.222  31.979  1.00  0.00    -0.014 A 
ATOM     52  C   UNL A   1      48.138  25.353  33.054  1.00  0.00     0.009 A 
ATOM     53  C   UNL A   1      48.902  26.441  31.031  1.00  0.00     0.009 A 
ATOM     54  C   UNL A   1      49.388  24.749  33.198  1.00  0.00     0.001 A 
ATOM     55  C   UNL A   1      50.142  25.814  31.164  1.00  0.00     0.001 A 
ATOM     56  C   UNL A   1      50.387  24.978  32.252  1.00  0.00     0.000 A 
ENDBRANCH  38  51
ENDBRANCH  12  13
ENDBRANCH   5   7
ENDBRANCH   2   3
ENDBRANCH   1   2
BRANCH   1  57
ATOM     57  C   UNL A   1      34.096  29.334  26.551  1.00  0.00     0.117 C 
BRANCH  57  58
ATOM     58  N   UNL A   1      32.933  30.125  26.204  1.00  0.00    -0.354 N 
ATOM     59  C   UNL A   1      31.880  29.986  25.357  1.00  0.00     0.247 C 
ATOM     60  H   UNL A   1      32.896  30.971  26.706  1.00  0.00     0.163 HD
ATOM     61  O   UNL A   1      31.063  30.917  25.430  1.00  0.00    -0.272 OA
BRANCH  59  62
ATOM     62  C   UNL A   1      31.740  28.915  24.233  1.00  0.00     0.211 C 
BRANCH  62  63
ATOM     63  N   UNL A   1      32.076  27.501  24.463  1.00  0.00    -0.276 N 
ATOM     64  C   UNL A   1      31.596  26.851  25.590  1.00  0.00     0.267 C 
ATOM     65  C   UNL A   1      32.773  26.718  23.562  1.00  0.00     0.149 C 
ATOM     66  O   UNL A   1      30.951  27.346  26.497  1.00  0.00    -0.268 OA
ATOM     67  C   UNL A   1      32.137  25.466  25.653  1.00  0.00     0.084 C 
ATOM     68  S   UNL A   1      32.959  25.090  24.197  1.00  0.00    -0.054 SA
ATOM     69  S   UNL A   1      33.414  27.129  22.077  1.00  0.00    -0.052 S 
ATOM     70  C   UNL A   1      32.025  24.734  26.768  1.00  0.00     0.068 C 
BRANCH  70  71
ATOM     71  C   UNL A   1      32.646  23.470  26.950  1.00  0.00     0.129 A 
ATOM     72  C   UNL A   1      33.462  23.016  27.978  1.00  0.00     0.051 A 
ATOM     73  O   UNL A   1      32.462  22.429  26.075  1.00  0.00    -0.454 OA
ATOM     74  C   UNL A   1      33.794  21.674  27.700  1.00  0.00     0.054 A 
ATOM     75  C   UNL A   1      33.176  21.342  26.509  1.00  0.00     0.163 A 
BRANCH  75  76
ATOM     76  C   UNL A   1      33.252  20.094  25.807  1.00  0.00     0.160 A 
ATOM     77  N   UNL A   1      32.692  18.999  26.276  1.00  0.00    -0.233 NA
ATOM     78  S   UNL A   1      34.126  19.923  24.344  1.00  0.00    -0.111 S 
ATOM     79  C   UNL A   1      32.983  17.934  25.444  1.00  0.00     0.082 A 
ATOM     80  C   UNL A   1      33.784  18.235  24.342  1.00  0.00     0.055 A 
ATOM     81  C   UNL A   1      32.555  16.604  25.631  1.00  0.00     0.030 A 
ATOM     82  C   UNL A   1      34.196  17.247  23.432  1.00  0.00     0.021 A 
ATOM     83  C   UNL A   1      32.956  15.613  24.730  1.00  0.00     0.002 A 
ATOM     84  C   UNL A   1      33.771  15.932  23.648  1.00  0.00     0.002 A 
ENDBRANCH  75  76
ENDBRANCH  70  71
ENDBRANCH  62  63
BRANCH  62  85
ATOM     85  C   UNL A   1      30.423  29.054  23.457  1.00  0.00    -0.016 A 
ATOM     86  C   UNL A   1      29.295  28.283  23.779  1.00  0.00     0.006 A 
ATOM     87  C   UNL A   1      30.316  29.979  22.403  1.00  0.00     0.006 A 
ATOM     88  C   UNL A   1      28.110  28.405  23.052  1.00  0.00     0.000 A 
ATOM     89  C   UNL A   1      29.123  30.114  21.689  1.00  0.00     0.000 A 
ATOM     90  C   UNL A   1      28.024  29.320  22.007  1.00  0.00     0.000 A 
ENDBRANCH  62  85
ENDBRANCH  59  62
ENDBRANCH  57  58
ENDBRANCH   1  57
TORSDOF 14
ENDMDL
