MODEL 1
REMARK VINA RESULT:     -10.8      0.000      0.000
REMARK SMILES O=C(Cc1csc(Sc2ncnc3c2CCCC3)n1)NCCCNC(=O)c1ccc(-c2c3nc(c(-c4ccccc4)c4ccc([nH]4)c(-c4ccccc4)c4nc(c(-c5ccccc5)c5ccc2[nH]5)C=C4)C=C3)cc1
REMARK SMILES IDX 21 1 20 2 1 3 2 4 3 6 4 7 5 8 19 9 6 10 7 11 8 12 9 13 10 14
REMARK SMILES IDX 14 15 11 16 13 17 15 18 12 19 18 20 16 21 17 22 22 23 23 24
REMARK SMILES IDX 24 25 25 26 26 28 27 29 28 30 74 31 29 32 73 33 30 34 31 35
REMARK SMILES IDX 32 36 67 37 33 38 72 39 66 40 68 41 34 42 71 43 65 44 64 45
REMARK SMILES IDX 35 47 57 48 42 49 56 50 43 51 46 52 55 53 69 54 44 55 45 56
REMARK SMILES IDX 54 58 70 59 47 60 36 61 37 62 41 63 38 64 40 65 39 66 58 67
REMARK SMILES IDX 59 68 63 69 60 70 62 71 61 72 48 73 49 74 53 75 50 76 52 77
REMARK SMILES IDX 51 78
REMARK H PARENT 20 5 24 27 68 46 46 57
REMARK Flexibility Score: inf
ROOT
ATOM      1  C   UNL A   1      31.995  29.330  25.239  1.00  0.00     0.117 C 
ENDROOT
BRANCH   1   2
ATOM      2  N   UNL A   1      32.072  28.586  23.995  1.00  0.00    -0.356 N 
ATOM      3  O   UNL A   1      34.349  28.764  23.760  1.00  0.00    -0.275 OA
ATOM      4  C   UNL A   1      33.280  28.294  23.385  1.00  0.00     0.226 C 
ATOM      5  H   UNL A   1      31.238  28.279  23.572  1.00  0.00     0.163 HD
BRANCH   4   6
ATOM      6  C   UNL A   1      33.170  27.323  22.218  1.00  0.00     0.157 C 
BRANCH   6   7
ATOM      7  C   UNL A   1      33.032  25.895  22.663  1.00  0.00     0.062 A 
ATOM      8  C   UNL A   1      32.870  24.773  21.871  1.00  0.00     0.092 A 
ATOM      9  N   UNL A   1      33.102  25.615  24.028  1.00  0.00    -0.234 NA
ATOM     10  S   UNL A   1      32.736  23.369  22.833  1.00  0.00    -0.116 S 
ATOM     11  C   UNL A   1      32.891  24.335  24.248  1.00  0.00     0.156 A 
BRANCH  11  12
ATOM     12  S   UNL A   1      32.758  23.581  25.819  1.00  0.00    -0.039 SA
BRANCH  12  13
ATOM     13  C   UNL A   1      33.759  22.121  25.607  1.00  0.00     0.110 A 
ATOM     14  N   UNL A   1      33.083  21.004  25.271  1.00  0.00    -0.229 NA
ATOM     15  C   UNL A   1      35.152  22.194  25.607  1.00  0.00     0.006 A 
ATOM     16  C   UNL A   1      33.821  19.937  24.960  1.00  0.00     0.223 A 
ATOM     17  C   UNL A   1      35.809  21.036  25.208  1.00  0.00     0.048 A 
ATOM     18  C   UNL A   1      35.909  23.460  25.911  1.00  0.00     0.040 C 
ATOM     19  N   UNL A   1      35.157  19.894  24.904  1.00  0.00    -0.241 NA
ATOM     20  C   UNL A   1      37.313  20.971  25.104  1.00  0.00     0.056 C 
ATOM     21  C   UNL A   1      37.407  23.246  26.122  1.00  0.00     0.005 C 
ATOM     22  C   UNL A   1      37.972  22.345  25.034  1.00  0.00     0.007 C 
ENDBRANCH  12  13
ENDBRANCH  11  12
ENDBRANCH   6   7
ENDBRANCH   4   6
ENDBRANCH   1   2
BRANCH   1  23
ATOM     23  C   UNL A   1      32.244  28.460  26.464  1.00  0.00     0.042 C 
BRANCH  23  24
ATOM     24  C   UNL A   1      33.503  28.805  27.251  1.00  0.00     0.118 C 
BRANCH  24  25
ATOM     25  N   UNL A   1      33.546  30.187  27.707  1.00  0.00    -0.352 N 
ATOM     26  C   UNL A   1      34.565  30.876  28.318  1.00  0.00     0.251 C 
ATOM     27  H   UNL A   1      32.722  30.704  27.555  1.00  0.00     0.163 HD
ATOM     28  O   UNL A   1      34.367  32.014  28.738  1.00  0.00    -0.269 OA
BRANCH  26  29
ATOM     29  C   UNL A   1      35.893  30.249  28.504  1.00  0.00     0.039 A 
ATOM     30  C   UNL A   1      36.792  30.250  27.434  1.00  0.00     0.014 A 
ATOM     31  C   UNL A   1      36.252  29.655  29.717  1.00  0.00     0.014 A 
ATOM     32  C   UNL A   1      38.075  29.724  27.602  1.00  0.00     0.010 A 
ATOM     33  C   UNL A   1      37.552  29.194  29.905  1.00  0.00     0.010 A 
ATOM     34  C   UNL A   1      38.478  29.224  28.852  1.00  0.00    -0.014 A 
BRANCH  34  35
ATOM     35  C   UNL A   1      39.859  28.732  29.081  1.00  0.00     0.031 A 
ATOM     36  C   UNL A   1      40.895  29.642  29.680  1.00  0.00     0.074 A 
ATOM     37  C   UNL A   1      40.200  27.487  28.696  1.00  0.00     0.049 A 
ATOM     38  N   UNL A   1      42.173  29.428  29.866  1.00  0.00    -0.248 NA
ATOM     39  C   UNL A   1      40.438  30.973  30.111  1.00  0.00     0.031 C 
ATOM     40  C   UNL A   1      39.291  26.505  28.100  1.00  0.00     0.029 A 
ATOM     41  N   UNL A   1      41.407  26.835  28.743  1.00  0.00    -0.354 N 
ATOM     42  C   UNL A   1      42.673  30.597  30.428  1.00  0.00     0.074 A 
ATOM     43  C   UNL A   1      41.573  31.532  30.505  1.00  0.00     0.031 C 
ATOM     44  C   UNL A   1      39.967  25.370  27.861  1.00  0.00     0.029 A 
ATOM     45  C   UNL A   1      41.365  25.558  28.239  1.00  0.00     0.049 A 
ATOM     46  H   UNL A   1      42.227  27.244  29.104  1.00  0.00     0.167 HD
ATOM     47  C   UNL A   1      43.929  30.859  30.858  1.00  0.00     0.031 A 
ATOM     48  C   UNL A   1      42.341  24.644  28.085  1.00  0.00     0.031 A 
ATOM     49  C   UNL A   1      45.025  29.929  30.778  1.00  0.00     0.049 A 
ATOM     50  C   UNL A   1      43.743  24.984  28.512  1.00  0.00     0.074 A 
ATOM     51  C   UNL A   1      46.330  30.100  31.208  1.00  0.00     0.029 A 
ATOM     52  N   UNL A   1      44.945  28.657  30.235  1.00  0.00    -0.354 N 
ATOM     53  N   UNL A   1      44.194  26.084  29.064  1.00  0.00    -0.248 NA
ATOM     54  C   UNL A   1      44.766  23.951  28.304  1.00  0.00     0.031 C 
ATOM     55  C   UNL A   1      47.053  28.951  30.872  1.00  0.00     0.029 A 
ATOM     56  C   UNL A   1      46.183  28.039  30.297  1.00  0.00     0.049 A 
ATOM     57  H   UNL A   1      44.129  28.252  29.860  1.00  0.00     0.167 HD
ATOM     58  C   UNL A   1      45.546  25.866  29.293  1.00  0.00     0.074 A 
ATOM     59  C   UNL A   1      45.837  24.522  28.837  1.00  0.00     0.031 C 
ATOM     60  C   UNL A   1      46.463  26.704  29.836  1.00  0.00     0.031 A 
BRANCH  47  61
ATOM     61  C   UNL A   1      44.192  32.215  31.455  1.00  0.00    -0.014 A 
ATOM     62  C   UNL A   1      44.577  33.299  30.650  1.00  0.00     0.009 A 
ATOM     63  C   UNL A   1      43.993  32.427  32.828  1.00  0.00     0.009 A 
ATOM     64  C   UNL A   1      44.782  34.560  31.211  1.00  0.00     0.001 A 
ATOM     65  C   UNL A   1      44.168  33.696  33.382  1.00  0.00     0.001 A 
ATOM     66  C   UNL A   1      44.569  34.760  32.575  1.00  0.00     0.000 A 
ENDBRANCH  47  61
BRANCH  48  67
ATOM     67  C   UNL A   1      42.024  23.308  27.513  1.00  0.00    -0.014 A 
ATOM     68  C   UNL A   1      42.314  23.025  26.170  1.00  0.00     0.009 A 
ATOM     69  C   UNL A   1      41.444  22.305  28.307  1.00  0.00     0.009 A 
ATOM     70  C   UNL A   1      42.013  21.772  25.628  1.00  0.00     0.001 A 
ATOM     71  C   UNL A   1      41.174  21.044  27.771  1.00  0.00     0.001 A 
ATOM     72  C   UNL A   1      41.451  20.781  26.432  1.00  0.00     0.000 A 
ENDBRANCH  48  67
BRANCH  60  73
ATOM     73  C   UNL A   1      47.867  26.186  29.996  1.00  0.00    -0.014 A 
ATOM     74  C   UNL A   1      48.775  26.194  28.927  1.00  0.00     0.009 A 
ATOM     75  C   UNL A   1      48.299  25.733  31.253  1.00  0.00     0.009 A 
ATOM     76  C   UNL A   1      50.081  25.729  29.106  1.00  0.00     0.001 A 
ATOM     77  C   UNL A   1      49.613  25.300  31.437  1.00  0.00     0.001 A 
ATOM     78  C   UNL A   1      50.499  25.289  30.362  1.00  0.00     0.000 A 
ENDBRANCH  60  73
ENDBRANCH  34  35
ENDBRANCH  26  29
ENDBRANCH  24  25
ENDBRANCH  23  24
ENDBRANCH   1  23
TORSDOF 13
ENDMDL
MODEL 2
REMARK VINA RESULT:     -10.7      2.097      7.787
REMARK SMILES O=C(Cc1csc(Sc2ncnc3c2CCCC3)n1)NCCCNC(=O)c1ccc(-c2c3nc(c(-c4ccccc4)c4ccc([nH]4)c(-c4ccccc4)c4nc(c(-c5ccccc5)c5ccc2[nH]5)C=C4)C=C3)cc1
REMARK SMILES IDX 21 1 20 2 1 3 2 4 3 6 4 7 5 8 19 9 6 10 7 11 8 12 9 13 10 14
REMARK SMILES IDX 14 15 11 16 13 17 15 18 12 19 18 20 16 21 17 22 22 23 23 24
REMARK SMILES IDX 24 25 25 26 26 28 27 29 28 30 74 31 29 32 73 33 30 34 31 35
REMARK SMILES IDX 32 36 67 37 33 38 72 39 66 40 68 41 34 42 71 43 65 44 64 45
REMARK SMILES IDX 35 47 57 48 42 49 56 50 43 51 46 52 55 53 69 54 44 55 45 56
REMARK SMILES IDX 54 58 70 59 47 60 36 61 37 62 41 63 38 64 40 65 39 66 58 67
REMARK SMILES IDX 59 68 63 69 60 70 62 71 61 72 48 73 49 74 53 75 50 76 52 77
REMARK SMILES IDX 51 78
REMARK H PARENT 20 5 24 27 68 46 46 57
REMARK Flexibility Score: inf
ROOT
ATOM      1  C   UNL A   1      37.349  21.269  24.589  1.00  0.00     0.117 C 
ENDROOT
BRANCH   1   2
ATOM      2  N   UNL A   1      36.297  21.535  25.555  1.00  0.00    -0.356 N 
ATOM      3  O   UNL A   1      36.332  23.818  25.308  1.00  0.00    -0.275 OA
ATOM      4  C   UNL A   1      35.814  22.812  25.782  1.00  0.00     0.226 C 
ATOM      5  H   UNL A   1      35.916  20.784  26.063  1.00  0.00     0.163 HD
BRANCH   4   6
ATOM      6  C   UNL A   1      34.572  22.860  26.660  1.00  0.00     0.157 C 
BRANCH   6   7
ATOM      7  C   UNL A   1      33.324  23.171  25.882  1.00  0.00     0.062 A 
ATOM      8  C   UNL A   1      32.983  22.730  24.617  1.00  0.00     0.092 A 
ATOM      9  N   UNL A   1      32.352  23.972  26.481  1.00  0.00    -0.234 NA
ATOM     10  S   UNL A   1      31.473  23.368  24.141  1.00  0.00    -0.116 S 
ATOM     11  C   UNL A   1      31.365  24.204  25.642  1.00  0.00     0.156 A 
BRANCH  11  12
ATOM     12  S   UNL A   1      30.008  25.265  25.935  1.00  0.00    -0.039 SA
BRANCH  12  13
ATOM     13  C   UNL A   1      30.497  26.734  25.054  1.00  0.00     0.110 A 
ATOM     14  N   UNL A   1      29.907  26.909  23.854  1.00  0.00    -0.229 NA
ATOM     15  C   UNL A   1      31.287  27.711  25.660  1.00  0.00     0.006 A 
ATOM     16  C   UNL A   1      30.141  28.071  23.243  1.00  0.00     0.223 A 
ATOM     17  C   UNL A   1      31.408  28.902  24.953  1.00  0.00     0.048 A 
ATOM     18  C   UNL A   1      31.888  27.548  27.031  1.00  0.00     0.040 C 
ATOM     19  N   UNL A   1      30.859  29.088  23.734  1.00  0.00    -0.241 NA
ATOM     20  C   UNL A   1      32.185  30.075  25.500  1.00  0.00     0.056 C 
ATOM     21  C   UNL A   1      32.929  28.612  27.378  1.00  0.00     0.005 C 
ATOM     22  C   UNL A   1      32.417  29.996  27.006  1.00  0.00     0.007 C 
ENDBRANCH  12  13
ENDBRANCH  11  12
ENDBRANCH   6   7
ENDBRANCH   4   6
ENDBRANCH   1   2
BRANCH   1  23
ATOM     23  C   UNL A   1      38.117  19.989  24.892  1.00  0.00     0.042 C 
BRANCH  23  24
ATOM     24  C   UNL A   1      39.111  20.092  26.044  1.00  0.00     0.118 C 
BRANCH  24  25
ATOM     25  N   UNL A   1      40.282  19.244  25.880  1.00  0.00    -0.352 N 
ATOM     26  C   UNL A   1      41.612  19.545  26.053  1.00  0.00     0.251 C 
ATOM     27  H   UNL A   1      40.095  18.318  25.606  1.00  0.00     0.163 HD
ATOM     28  O   UNL A   1      42.470  18.718  25.750  1.00  0.00    -0.269 OA
BRANCH  26  29
ATOM     29  C   UNL A   1      42.023  20.870  26.570  1.00  0.00     0.039 A 
ATOM     30  C   UNL A   1      42.403  21.859  25.658  1.00  0.00     0.014 A 
ATOM     31  C   UNL A   1      42.044  21.139  27.941  1.00  0.00     0.014 A 
ATOM     32  C   UNL A   1      42.732  23.137  26.115  1.00  0.00     0.010 A 
ATOM     33  C   UNL A   1      42.304  22.432  28.390  1.00  0.00     0.010 A 
ATOM     34  C   UNL A   1      42.650  23.444  27.482  1.00  0.00    -0.014 A 
BRANCH  34  35
ATOM     35  C   UNL A   1      42.916  24.814  27.987  1.00  0.00     0.031 A 
ATOM     36  C   UNL A   1      44.309  25.214  28.387  1.00  0.00     0.074 A 
ATOM     37  C   UNL A   1      41.896  25.680  28.146  1.00  0.00     0.049 A 
ATOM     38  N   UNL A   1      44.722  26.326  28.939  1.00  0.00    -0.248 NA
ATOM     39  C   UNL A   1      45.375  24.228  28.148  1.00  0.00     0.031 C 
ATOM     40  C   UNL A   1      40.498  25.417  27.801  1.00  0.00     0.029 A 
ATOM     41  N   UNL A   1      41.879  26.959  28.645  1.00  0.00    -0.354 N 
ATOM     42  C   UNL A   1      46.091  26.172  29.121  1.00  0.00     0.074 A 
ATOM     43  C   UNL A   1      46.430  24.841  28.666  1.00  0.00     0.031 C 
ATOM     44  C   UNL A   1      39.765  26.508  28.074  1.00  0.00     0.029 A 
ATOM     45  C   UNL A   1      40.628  27.528  28.660  1.00  0.00     0.049 A 
ATOM     46  H   UNL A   1      42.687  27.425  28.963  1.00  0.00     0.167 HD
ATOM     47  C   UNL A   1      46.988  27.063  29.603  1.00  0.00     0.031 A 
ATOM     48  C   UNL A   1      40.219  28.731  29.106  1.00  0.00     0.031 A 
ATOM     49  C   UNL A   1      46.651  28.387  30.058  1.00  0.00     0.049 A 
ATOM     50  C   UNL A   1      41.225  29.680  29.697  1.00  0.00     0.074 A 
ATOM     51  C   UNL A   1      47.495  29.369  30.545  1.00  0.00     0.029 A 
ATOM     52  N   UNL A   1      45.369  28.913  30.082  1.00  0.00    -0.354 N 
ATOM     53  N   UNL A   1      42.519  29.528  29.838  1.00  0.00    -0.248 NA
ATOM     54  C   UNL A   1      40.714  30.970  30.180  1.00  0.00     0.031 C 
ATOM     55  C   UNL A   1      46.717  30.470  30.916  1.00  0.00     0.029 A 
ATOM     56  C   UNL A   1      45.396  30.199  30.597  1.00  0.00     0.049 A 
ATOM     57  H   UNL A   1      44.559  28.443  29.778  1.00  0.00     0.167 HD
ATOM     58  C   UNL A   1      42.981  30.711  30.401  1.00  0.00     0.074 A 
ATOM     59  C   UNL A   1      41.830  31.577  30.558  1.00  0.00     0.031 C 
ATOM     60  C   UNL A   1      44.245  31.049  30.753  1.00  0.00     0.031 A 
BRANCH  47  61
ATOM     61  C   UNL A   1      48.429  26.638  29.668  1.00  0.00    -0.014 A 
ATOM     62  C   UNL A   1      49.292  26.832  28.577  1.00  0.00     0.009 A 
ATOM     63  C   UNL A   1      48.946  26.093  30.854  1.00  0.00     0.009 A 
ATOM     64  C   UNL A   1      50.636  26.468  28.665  1.00  0.00     0.001 A 
ATOM     65  C   UNL A   1      50.298  25.758  30.949  1.00  0.00     0.001 A 
ATOM     66  C   UNL A   1      51.140  25.939  29.853  1.00  0.00     0.000 A 
ENDBRANCH  47  61
BRANCH  48  67
ATOM     67  C   UNL A   1      38.786  29.115  28.994  1.00  0.00    -0.014 A 
ATOM     68  C   UNL A   1      38.283  29.632  27.790  1.00  0.00     0.009 A 
ATOM     69  C   UNL A   1      37.912  28.955  30.081  1.00  0.00     0.009 A 
ATOM     70  C   UNL A   1      36.938  29.997  27.683  1.00  0.00     0.001 A 
ATOM     71  C   UNL A   1      36.562  29.291  29.960  1.00  0.00     0.001 A 
ATOM     72  C   UNL A   1      36.078  29.818  28.765  1.00  0.00     0.000 A 
ENDBRANCH  48  67
BRANCH  60  73
ATOM     73  C   UNL A   1      44.463  32.428  31.317  1.00  0.00    -0.014 A 
ATOM     74  C   UNL A   1      44.711  33.528  30.483  1.00  0.00     0.009 A 
ATOM     75  C   UNL A   1      44.363  32.633  32.703  1.00  0.00     0.009 A 
ATOM     76  C   UNL A   1      44.887  34.802  31.029  1.00  0.00     0.001 A 
ATOM     77  C   UNL A   1      44.506  33.912  33.242  1.00  0.00     0.001 A 
ATOM     78  C   UNL A   1      44.778  34.994  32.406  1.00  0.00     0.000 A 
ENDBRANCH  60  73
ENDBRANCH  34  35
ENDBRANCH  26  29
ENDBRANCH  24  25
ENDBRANCH  23  24
ENDBRANCH   1  23
TORSDOF 13
ENDMDL
MODEL 3
REMARK VINA RESULT:     -10.7      2.726      7.048
REMARK SMILES O=C(Cc1csc(Sc2ncnc3c2CCCC3)n1)NCCCNC(=O)c1ccc(-c2c3nc(c(-c4ccccc4)c4ccc([nH]4)c(-c4ccccc4)c4nc(c(-c5ccccc5)c5ccc2[nH]5)C=C4)C=C3)cc1
REMARK SMILES IDX 21 1 20 2 1 3 2 4 3 6 4 7 5 8 19 9 6 10 7 11 8 12 9 13 10 14
REMARK SMILES IDX 14 15 11 16 13 17 15 18 12 19 18 20 16 21 17 22 22 23 23 24
REMARK SMILES IDX 24 25 25 26 26 28 27 29 28 30 74 31 29 32 73 33 30 34 31 35
REMARK SMILES IDX 32 36 67 37 33 38 72 39 66 40 68 41 34 42 71 43 65 44 64 45
REMARK SMILES IDX 35 47 57 48 42 49 56 50 43 51 46 52 55 53 69 54 44 55 45 56
REMARK SMILES IDX 54 58 70 59 47 60 36 61 37 62 41 63 38 64 40 65 39 66 58 67
REMARK SMILES IDX 59 68 63 69 60 70 62 71 61 72 48 73 49 74 53 75 50 76 52 77
REMARK SMILES IDX 51 78
REMARK H PARENT 20 5 24 27 68 46 46 57
REMARK Flexibility Score: inf
ROOT
ATOM      1  C   UNL A   1      31.765  30.220  26.376  1.00  0.00     0.117 C 
ENDROOT
BRANCH   1   2
ATOM      2  N   UNL A   1      32.133  29.804  25.034  1.00  0.00    -0.356 N 
ATOM      3  O   UNL A   1      33.991  28.610  25.665  1.00  0.00    -0.275 OA
ATOM      4  C   UNL A   1      33.197  28.951  24.794  1.00  0.00     0.226 C 
ATOM      5  H   UNL A   1      31.608  30.138  24.272  1.00  0.00     0.163 HD
BRANCH   4   6
ATOM      6  C   UNL A   1      33.287  28.458  23.357  1.00  0.00     0.157 C 
BRANCH   6   7
ATOM      7  C   UNL A   1      32.635  27.119  23.161  1.00  0.00     0.062 A 
ATOM      8  C   UNL A   1      31.376  26.723  23.573  1.00  0.00     0.092 A 
ATOM      9  N   UNL A   1      33.333  26.138  22.458  1.00  0.00    -0.234 NA
ATOM     10  S   UNL A   1      31.084  25.097  23.141  1.00  0.00    -0.116 S 
ATOM     11  C   UNL A   1      32.653  25.011  22.441  1.00  0.00     0.156 A 
BRANCH  11  12
ATOM     12  S   UNL A   1      33.217  23.492  21.785  1.00  0.00    -0.039 SA
BRANCH  12  13
ATOM     13  C   UNL A   1      33.427  22.515  23.261  1.00  0.00     0.110 A 
ATOM     14  N   UNL A   1      32.393  21.706  23.567  1.00  0.00    -0.229 NA
ATOM     15  C   UNL A   1      34.652  22.465  23.926  1.00  0.00     0.006 A 
ATOM     16  C   UNL A   1      32.585  20.856  24.578  1.00  0.00     0.223 A 
ATOM     17  C   UNL A   1      34.752  21.498  24.920  1.00  0.00     0.048 A 
ATOM     18  C   UNL A   1      35.833  23.315  23.538  1.00  0.00     0.040 C 
ATOM     19  N   UNL A   1      33.719  20.703  25.271  1.00  0.00    -0.241 NA
ATOM     20  C   UNL A   1      36.028  21.282  25.694  1.00  0.00     0.056 C 
ATOM     21  C   UNL A   1      36.967  23.297  24.562  1.00  0.00     0.005 C 
ATOM     22  C   UNL A   1      37.257  21.871  25.006  1.00  0.00     0.007 C 
ENDBRANCH  12  13
ENDBRANCH  11  12
ENDBRANCH   6   7
ENDBRANCH   4   6
ENDBRANCH   1   2
BRANCH   1  23
ATOM     23  C   UNL A   1      31.630  31.731  26.509  1.00  0.00     0.042 C 
BRANCH  23  24
ATOM     24  C   UNL A   1      32.831  32.431  27.135  1.00  0.00     0.118 C 
BRANCH  24  25
ATOM     25  N   UNL A   1      32.522  33.746  27.676  1.00  0.00    -0.352 N 
ATOM     26  C   UNL A   1      33.192  34.483  28.623  1.00  0.00     0.251 C 
ATOM     27  H   UNL A   1      31.713  34.171  27.310  1.00  0.00     0.163 HD
ATOM     28  O   UNL A   1      32.705  35.532  29.038  1.00  0.00    -0.269 OA
BRANCH  26  29
ATOM     29  C   UNL A   1      34.482  34.008  29.172  1.00  0.00     0.039 A 
ATOM     30  C   UNL A   1      34.468  33.181  30.300  1.00  0.00     0.014 A 
ATOM     31  C   UNL A   1      35.698  34.376  28.591  1.00  0.00     0.014 A 
ATOM     32  C   UNL A   1      35.666  32.666  30.799  1.00  0.00     0.010 A 
ATOM     33  C   UNL A   1      36.885  33.807  29.046  1.00  0.00     0.010 A 
ATOM     34  C   UNL A   1      36.882  32.945  30.153  1.00  0.00    -0.014 A 
BRANCH  34  35
ATOM     35  C   UNL A   1      38.160  32.347  30.613  1.00  0.00     0.031 A 
ATOM     36  C   UNL A   1      38.642  31.050  30.026  1.00  0.00     0.074 A 
ATOM     37  C   UNL A   1      38.858  32.937  31.604  1.00  0.00     0.049 A 
ATOM     38  N   UNL A   1      39.677  30.324  30.364  1.00  0.00    -0.248 NA
ATOM     39  C   UNL A   1      37.847  30.488  28.923  1.00  0.00     0.031 C 
ATOM     40  C   UNL A   1      38.499  34.195  32.262  1.00  0.00     0.029 A 
ATOM     41  N   UNL A   1      40.015  32.551  32.234  1.00  0.00    -0.354 N 
ATOM     42  C   UNL A   1      39.654  29.218  29.524  1.00  0.00     0.074 A 
ATOM     43  C   UNL A   1      38.475  29.344  28.693  1.00  0.00     0.031 C 
ATOM     44  C   UNL A   1      39.429  34.489  33.184  1.00  0.00     0.029 A 
ATOM     45  C   UNL A   1      40.421  33.419  33.219  1.00  0.00     0.049 A 
ATOM     46  H   UNL A   1      40.507  31.730  32.003  1.00  0.00     0.167 HD
ATOM     47  C   UNL A   1      40.543  28.202  29.436  1.00  0.00     0.031 A 
ATOM     48  C   UNL A   1      41.468  33.357  34.064  1.00  0.00     0.031 A 
ATOM     49  C   UNL A   1      41.714  28.075  30.264  1.00  0.00     0.049 A 
ATOM     50  C   UNL A   1      42.406  32.184  33.990  1.00  0.00     0.074 A 
ATOM     51  C   UNL A   1      42.685  27.089  30.235  1.00  0.00     0.029 A 
ATOM     52  N   UNL A   1      42.073  28.961  31.267  1.00  0.00    -0.354 N 
ATOM     53  N   UNL A   1      42.384  31.159  33.173  1.00  0.00    -0.248 NA
ATOM     54  C   UNL A   1      43.519  32.165  34.949  1.00  0.00     0.031 C 
ATOM     55  C   UNL A   1      43.601  27.348  31.258  1.00  0.00     0.029 A 
ATOM     56  C   UNL A   1      43.239  28.532  31.880  1.00  0.00     0.049 A 
ATOM     57  H   UNL A   1      41.573  29.775  31.509  1.00  0.00     0.167 HD
ATOM     58  C   UNL A   1      43.492  30.388  33.501  1.00  0.00     0.074 A 
ATOM     59  C   UNL A   1      44.174  31.074  34.579  1.00  0.00     0.031 C 
ATOM     60  C   UNL A   1      43.907  29.219  32.955  1.00  0.00     0.031 A 
BRANCH  47  61
ATOM     61  C   UNL A   1      40.284  27.135  28.408  1.00  0.00    -0.014 A 
ATOM     62  C   UNL A   1      40.855  27.210  27.127  1.00  0.00     0.009 A 
ATOM     63  C   UNL A   1      39.513  26.011  28.742  1.00  0.00     0.009 A 
ATOM     64  C   UNL A   1      40.638  26.195  26.195  1.00  0.00     0.001 A 
ATOM     65  C   UNL A   1      39.323  24.982  27.818  1.00  0.00     0.001 A 
ATOM     66  C   UNL A   1      39.879  25.078  26.544  1.00  0.00     0.000 A 
ENDBRANCH  47  61
BRANCH  48  67
ATOM     67  C   UNL A   1      41.695  34.451  35.046  1.00  0.00    -0.014 A 
ATOM     68  C   UNL A   1      42.480  35.562  34.700  1.00  0.00     0.009 A 
ATOM     69  C   UNL A   1      41.119  34.401  36.325  1.00  0.00     0.009 A 
ATOM     70  C   UNL A   1      42.698  36.590  35.620  1.00  0.00     0.001 A 
ATOM     71  C   UNL A   1      41.313  35.445  37.232  1.00  0.00     0.001 A 
ATOM     72  C   UNL A   1      42.108  36.534  36.882  1.00  0.00     0.000 A 
ENDBRANCH  48  67
BRANCH  60  73
ATOM     73  C   UNL A   1      45.177  28.616  33.492  1.00  0.00    -0.014 A 
ATOM     74  C   UNL A   1      45.158  27.699  34.553  1.00  0.00     0.009 A 
ATOM     75  C   UNL A   1      46.404  28.931  32.887  1.00  0.00     0.009 A 
ATOM     76  C   UNL A   1      46.348  27.134  35.020  1.00  0.00     0.001 A 
ATOM     77  C   UNL A   1      47.587  28.341  33.334  1.00  0.00     0.001 A 
ATOM     78  C   UNL A   1      47.559  27.451  34.405  1.00  0.00     0.000 A 
ENDBRANCH  60  73
ENDBRANCH  34  35
ENDBRANCH  26  29
ENDBRANCH  24  25
ENDBRANCH  23  24
ENDBRANCH   1  23
TORSDOF 13
ENDMDL
