MODEL 1
REMARK VINA RESULT:     -10.7      0.000      0.000
REMARK SMILES CC(C)c1cc(OCC(=O)NCCCNC(=O)c2ccc(-c3c4nc(c(-c5ccccc5)c5ccc([nH]5)c(-c5ccccc5)c5nc(c(-c6ccccc6)c6ccc3[nH]6)C=C5)C=C4)cc2)nc(Nc2ccc(F)cc2F)n1
REMARK SMILES IDX 12 1 11 2 9 3 10 4 8 6 7 7 6 8 4 9 5 10 77 11 67 12 66 13
REMARK SMILES IDX 2 14 1 15 3 16 68 17 69 19 70 20 75 21 71 22 74 23 76 24
REMARK SMILES IDX 72 25 73 26 13 27 14 28 15 29 16 30 17 32 18 33 19 34 65 35
REMARK SMILES IDX 20 36 64 37 21 38 22 39 23 40 58 41 24 42 63 43 57 44 59 45
REMARK SMILES IDX 25 46 62 47 56 48 55 49 26 51 48 52 33 53 47 54 34 55 37 56
REMARK SMILES IDX 46 57 60 58 35 59 36 60 45 62 61 63 38 64 27 65 28 66 32 67
REMARK SMILES IDX 29 68 31 69 30 70 49 71 50 72 54 73 51 74 53 75 52 76 39 77
REMARK SMILES IDX 40 78 44 79 41 80 43 81 42 82
REMARK H PARENT 11 5 68 18 15 31 59 50 37 61
REMARK Flexibility Score: inf
ROOT
ATOM      1  C   UNL A   1      44.523  19.841  24.655  1.00  0.00     0.117 C 
ENDROOT
BRANCH   1   2
ATOM      2  N   UNL A   1      44.202  18.621  25.371  1.00  0.00    -0.353 N 
ATOM      3  C   UNL A   1      43.157  18.379  26.211  1.00  0.00     0.258 C 
ATOM      4  O   UNL A   1      43.036  17.251  26.696  1.00  0.00    -0.271 OA
ATOM      5  H   UNL A   1      44.821  17.868  25.231  1.00  0.00     0.163 HD
BRANCH   3   6
ATOM      6  C   UNL A   1      42.154  19.494  26.529  1.00  0.00     0.331 C 
BRANCH   6   7
ATOM      7  O   UNL A   1      40.897  19.411  25.883  1.00  0.00    -0.467 OA
BRANCH   7   8
ATOM      8  C   UNL A   1      40.068  20.498  25.931  1.00  0.00     0.218 A 
ATOM      9  C   UNL A   1      38.122  21.743  25.528  1.00  0.00     0.052 A 
ATOM     10  C   UNL A   1      38.850  20.597  25.297  1.00  0.00     0.092 A 
ATOM     11  N   UNL A   1      38.604  22.725  26.309  1.00  0.00    -0.217 NA
ATOM     12  C   UNL A   1      39.811  22.570  26.870  1.00  0.00     0.230 A 
ATOM     13  N   UNL A   1      40.568  21.481  26.698  1.00  0.00    -0.177 NA
BRANCH   9  14
ATOM     14  C   UNL A   1      36.729  21.972  24.978  1.00  0.00     0.032 C 
ATOM     15  C   UNL A   1      36.673  22.573  23.570  1.00  0.00     0.014 C 
ATOM     16  C   UNL A   1      35.941  20.660  25.022  1.00  0.00     0.014 C 
ENDBRANCH   9  14
BRANCH  12  17
ATOM     17  N   UNL A   1      40.371  23.616  27.598  1.00  0.00    -0.322 N 
ATOM     18  H   UNL A   1      40.799  23.366  28.448  1.00  0.00     0.170 HD
BRANCH  17  19
ATOM     19  C   UNL A   1      40.403  24.976  27.274  1.00  0.00     0.077 A 
ATOM     20  C   UNL A   1      39.721  25.892  28.089  1.00  0.00     0.032 A 
ATOM     21  C   UNL A   1      41.183  25.486  26.219  1.00  0.00     0.149 A 
ATOM     22  C   UNL A   1      39.829  27.266  27.860  1.00  0.00     0.041 A 
ATOM     23  C   UNL A   1      41.282  26.851  25.974  1.00  0.00     0.080 A 
ATOM     24  F   UNL A   1      41.812  24.649  25.378  1.00  0.00    -0.205 F 
ATOM     25  C   UNL A   1      40.609  27.730  26.806  1.00  0.00     0.126 A 
ATOM     26  F   UNL A   1      40.712  29.049  26.595  1.00  0.00    -0.207 F 
ENDBRANCH  17  19
ENDBRANCH  12  17
ENDBRANCH   7   8
ENDBRANCH   6   7
ENDBRANCH   3   6
ENDBRANCH   1   2
BRANCH   1  27
ATOM     27  C   UNL A   1      45.839  20.466  25.109  1.00  0.00     0.042 C 
BRANCH  27  28
ATOM     28  C   UNL A   1      45.720  21.890  25.650  1.00  0.00     0.118 C 
BRANCH  28  29
ATOM     29  N   UNL A   1      44.604  22.064  26.571  1.00  0.00    -0.352 N 
ATOM     30  C   UNL A   1      44.173  23.164  27.268  1.00  0.00     0.251 C 
ATOM     31  H   UNL A   1      44.065  21.252  26.717  1.00  0.00     0.163 HD
ATOM     32  O   UNL A   1      43.290  23.034  28.114  1.00  0.00    -0.269 OA
BRANCH  30  33
ATOM     33  C   UNL A   1      44.769  24.499  27.041  1.00  0.00     0.039 A 
ATOM     34  C   UNL A   1      45.263  25.207  28.142  1.00  0.00     0.014 A 
ATOM     35  C   UNL A   1      44.818  25.073  25.769  1.00  0.00     0.014 A 
ATOM     36  C   UNL A   1      45.885  26.444  27.956  1.00  0.00     0.010 A 
ATOM     37  C   UNL A   1      45.495  26.277  25.574  1.00  0.00     0.010 A 
ATOM     38  C   UNL A   1      46.049  26.966  26.664  1.00  0.00    -0.014 A 
BRANCH  38  39
ATOM     39  C   UNL A   1      46.845  28.198  26.426  1.00  0.00     0.031 A 
ATOM     40  C   UNL A   1      48.327  28.125  26.195  1.00  0.00     0.074 A 
ATOM     41  C   UNL A   1      46.236  29.397  26.500  1.00  0.00     0.049 A 
ATOM     42  N   UNL A   1      49.190  29.102  26.058  1.00  0.00    -0.248 NA
ATOM     43  C   UNL A   1      48.923  26.782  26.123  1.00  0.00     0.031 C 
ATOM     44  C   UNL A   1      44.808  29.610  26.751  1.00  0.00     0.029 A 
ATOM     45  N   UNL A   1      46.745  30.667  26.387  1.00  0.00    -0.354 N 
ATOM     46  C   UNL A   1      50.429  28.493  25.903  1.00  0.00     0.074 A 
ATOM     47  C   UNL A   1      50.212  27.065  25.997  1.00  0.00     0.031 C 
ATOM     48  C   UNL A   1      44.554  30.928  26.756  1.00  0.00     0.029 A 
ATOM     49  C   UNL A   1      45.803  31.654  26.556  1.00  0.00     0.049 A 
ATOM     50  H   UNL A   1      47.694  30.854  26.202  1.00  0.00     0.167 HD
ATOM     51  C   UNL A   1      51.636  29.071  25.691  1.00  0.00     0.031 A 
ATOM     52  C   UNL A   1      45.930  32.993  26.569  1.00  0.00     0.031 A 
ATOM     53  C   UNL A   1      51.854  30.491  25.598  1.00  0.00     0.049 A 
ATOM     54  C   UNL A   1      47.286  33.609  26.369  1.00  0.00     0.074 A 
ATOM     55  C   UNL A   1      53.033  31.165  25.327  1.00  0.00     0.029 A 
ATOM     56  N   UNL A   1      50.876  31.455  25.783  1.00  0.00    -0.354 N 
ATOM     57  N   UNL A   1      48.437  33.018  26.159  1.00  0.00    -0.248 NA
ATOM     58  C   UNL A   1      47.357  35.076  26.405  1.00  0.00     0.031 C 
ATOM     59  C   UNL A   1      52.778  32.539  25.399  1.00  0.00     0.029 A 
ATOM     60  C   UNL A   1      51.430  32.719  25.663  1.00  0.00     0.049 A 
ATOM     61  H   UNL A   1      49.927  31.269  25.971  1.00  0.00     0.167 HD
ATOM     62  C   UNL A   1      49.367  34.040  26.020  1.00  0.00     0.074 A 
ATOM     63  C   UNL A   1      48.641  35.287  26.149  1.00  0.00     0.031 C 
ATOM     64  C   UNL A   1      50.701  33.953  25.805  1.00  0.00     0.031 A 
BRANCH  51  65
ATOM     65  C   UNL A   1      52.825  28.161  25.557  1.00  0.00    -0.014 A 
ATOM     66  C   UNL A   1      53.579  27.781  26.680  1.00  0.00     0.009 A 
ATOM     67  C   UNL A   1      53.169  27.640  24.300  1.00  0.00     0.009 A 
ATOM     68  C   UNL A   1      54.675  26.926  26.539  1.00  0.00     0.001 A 
ATOM     69  C   UNL A   1      54.248  26.765  24.167  1.00  0.00     0.001 A 
ATOM     70  C   UNL A   1      55.005  26.416  25.283  1.00  0.00     0.000 A 
ENDBRANCH  51  65
BRANCH  52  71
ATOM     71  C   UNL A   1      44.736  33.851  26.786  1.00  0.00    -0.014 A 
ATOM     72  C   UNL A   1      44.010  34.346  25.693  1.00  0.00     0.009 A 
ATOM     73  C   UNL A   1      44.320  34.179  28.086  1.00  0.00     0.009 A 
ATOM     74  C   UNL A   1      42.902  35.173  25.898  1.00  0.00     0.001 A 
ATOM     75  C   UNL A   1      43.197  34.984  28.287  1.00  0.00     0.001 A 
ATOM     76  C   UNL A   1      42.494  35.487  27.193  1.00  0.00     0.000 A 
ENDBRANCH  52  71
BRANCH  64  77
ATOM     77  C   UNL A   1      51.459  35.243  25.677  1.00  0.00    -0.014 A 
ATOM     78  C   UNL A   1      51.623  35.868  24.430  1.00  0.00     0.009 A 
ATOM     79  C   UNL A   1      51.991  35.856  26.821  1.00  0.00     0.009 A 
ATOM     80  C   UNL A   1      52.333  37.066  24.331  1.00  0.00     0.001 A 
ATOM     81  C   UNL A   1      52.677  37.068  26.722  1.00  0.00     0.001 A 
ATOM     82  C   UNL A   1      52.855  37.667  25.476  1.00  0.00     0.000 A 
ENDBRANCH  64  77
ENDBRANCH  38  39
ENDBRANCH  30  33
ENDBRANCH  28  29
ENDBRANCH  27  28
ENDBRANCH   1  27
TORSDOF 15
ENDMDL
MODEL 2
REMARK VINA RESULT:     -10.6      3.913      9.207
REMARK SMILES CC(C)c1cc(OCC(=O)NCCCNC(=O)c2ccc(-c3c4nc(c(-c5ccccc5)c5ccc([nH]5)c(-c5ccccc5)c5nc(c(-c6ccccc6)c6ccc3[nH]6)C=C5)C=C4)cc2)nc(Nc2ccc(F)cc2F)n1
REMARK SMILES IDX 12 1 11 2 9 3 10 4 8 6 7 7 6 8 4 9 5 10 77 11 67 12 66 13
REMARK SMILES IDX 2 14 1 15 3 16 68 17 69 19 70 20 75 21 71 22 74 23 76 24
REMARK SMILES IDX 72 25 73 26 13 27 14 28 15 29 16 30 17 32 18 33 19 34 65 35
REMARK SMILES IDX 20 36 64 37 21 38 22 39 23 40 58 41 24 42 63 43 57 44 59 45
REMARK SMILES IDX 25 46 62 47 56 48 55 49 26 51 48 52 33 53 47 54 34 55 37 56
REMARK SMILES IDX 46 57 60 58 35 59 36 60 45 62 61 63 38 64 27 65 28 66 32 67
REMARK SMILES IDX 29 68 31 69 30 70 49 71 50 72 54 73 51 74 53 75 52 76 39 77
REMARK SMILES IDX 40 78 44 79 41 80 43 81 42 82
REMARK H PARENT 11 5 68 18 15 31 59 50 37 61
REMARK Flexibility Score: inf
ROOT
ATOM      1  C   UNL A   1      36.660  20.661  24.943  1.00  0.00     0.117 C 
ENDROOT
BRANCH   1   2
ATOM      2  N   UNL A   1      36.919  21.832  25.759  1.00  0.00    -0.353 N 
ATOM      3  C   UNL A   1      37.084  23.125  25.360  1.00  0.00     0.258 C 
ATOM      4  O   UNL A   1      37.258  23.991  26.221  1.00  0.00    -0.271 OA
ATOM      5  H   UNL A   1      36.984  21.672  26.728  1.00  0.00     0.163 HD
BRANCH   3   6
ATOM      6  C   UNL A   1      37.040  23.480  23.870  1.00  0.00     0.331 C 
BRANCH   6   7
ATOM      7  O   UNL A   1      35.755  23.556  23.279  1.00  0.00    -0.467 OA
BRANCH   7   8
ATOM      8  C   UNL A   1      34.671  23.703  24.099  1.00  0.00     0.218 A 
ATOM      9  C   UNL A   1      33.160  24.833  25.492  1.00  0.00     0.052 A 
ATOM     10  C   UNL A   1      34.336  24.855  24.774  1.00  0.00     0.092 A 
ATOM     11  N   UNL A   1      32.403  23.724  25.550  1.00  0.00    -0.217 NA
ATOM     12  C   UNL A   1      32.808  22.631  24.889  1.00  0.00     0.230 A 
ATOM     13  N   UNL A   1      33.932  22.583  24.165  1.00  0.00    -0.177 NA
BRANCH   9  14
ATOM     14  C   UNL A   1      32.604  26.041  26.220  1.00  0.00     0.032 C 
ATOM     15  C   UNL A   1      33.510  27.276  26.222  1.00  0.00     0.014 C 
ATOM     16  C   UNL A   1      31.231  26.395  25.644  1.00  0.00     0.014 C 
ENDBRANCH   9  14
BRANCH  12  17
ATOM     17  N   UNL A   1      32.094  21.444  25.019  1.00  0.00    -0.322 N 
ATOM     18  H   UNL A   1      31.229  21.513  25.484  1.00  0.00     0.170 HD
BRANCH  17  19
ATOM     19  C   UNL A   1      32.447  20.167  24.573  1.00  0.00     0.077 A 
ATOM     20  C   UNL A   1      32.947  19.233  25.492  1.00  0.00     0.032 A 
ATOM     21  C   UNL A   1      32.224  19.737  23.251  1.00  0.00     0.149 A 
ATOM     22  C   UNL A   1      33.200  17.914  25.101  1.00  0.00     0.041 A 
ATOM     23  C   UNL A   1      32.489  18.433  22.850  1.00  0.00     0.080 A 
ATOM     24  F   UNL A   1      31.798  20.606  22.321  1.00  0.00    -0.205 F 
ATOM     25  C   UNL A   1      32.968  17.529  23.785  1.00  0.00     0.126 A 
ATOM     26  F   UNL A   1      33.208  16.264  23.418  1.00  0.00    -0.207 F 
ENDBRANCH  17  19
ENDBRANCH  12  17
ENDBRANCH   7   8
ENDBRANCH   6   7
ENDBRANCH   3   6
ENDBRANCH   1   2
BRANCH   1  27
ATOM     27  C   UNL A   1      37.810  19.659  24.963  1.00  0.00     0.042 C 
BRANCH  27  28
ATOM     28  C   UNL A   1      39.069  20.141  25.682  1.00  0.00     0.118 C 
BRANCH  28  29
ATOM     29  N   UNL A   1      40.097  19.114  25.793  1.00  0.00    -0.352 N 
ATOM     30  C   UNL A   1      41.433  19.204  26.091  1.00  0.00     0.251 C 
ATOM     31  H   UNL A   1      39.777  18.197  25.628  1.00  0.00     0.163 HD
ATOM     32  O   UNL A   1      42.144  18.207  25.975  1.00  0.00    -0.269 OA
BRANCH  30  33
ATOM     33  C   UNL A   1      42.040  20.482  26.523  1.00  0.00     0.039 A 
ATOM     34  C   UNL A   1      42.628  21.304  25.555  1.00  0.00     0.014 A 
ATOM     35  C   UNL A   1      42.065  20.864  27.865  1.00  0.00     0.014 A 
ATOM     36  C   UNL A   1      43.158  22.544  25.919  1.00  0.00     0.010 A 
ATOM     37  C   UNL A   1      42.535  22.129  28.220  1.00  0.00     0.010 A 
ATOM     38  C   UNL A   1      43.071  22.987  27.248  1.00  0.00    -0.014 A 
BRANCH  38  39
ATOM     39  C   UNL A   1      43.481  24.364  27.630  1.00  0.00     0.031 A 
ATOM     40  C   UNL A   1      42.456  25.405  27.975  1.00  0.00     0.074 A 
ATOM     41  C   UNL A   1      44.786  24.696  27.584  1.00  0.00     0.049 A 
ATOM     42  N   UNL A   1      42.629  26.676  28.244  1.00  0.00    -0.248 NA
ATOM     43  C   UNL A   1      41.051  24.969  28.008  1.00  0.00     0.031 C 
ATOM     44  C   UNL A   1      45.881  23.788  27.233  1.00  0.00     0.029 A 
ATOM     45  N   UNL A   1      45.413  25.894  27.821  1.00  0.00    -0.354 N 
ATOM     46  C   UNL A   1      41.358  27.194  28.460  1.00  0.00     0.074 A 
ATOM     47  C   UNL A   1      40.422  26.109  28.256  1.00  0.00     0.031 C 
ATOM     48  C   UNL A   1      47.043  24.457  27.292  1.00  0.00     0.029 A 
ATOM     49  C   UNL A   1      46.774  25.848  27.640  1.00  0.00     0.049 A 
ATOM     50  H   UNL A   1      44.933  26.709  28.094  1.00  0.00     0.167 HD
ATOM     51  C   UNL A   1      41.005  28.454  28.806  1.00  0.00     0.031 A 
ATOM     52  C   UNL A   1      47.702  26.818  27.724  1.00  0.00     0.031 A 
ATOM     53  C   UNL A   1      41.935  29.534  29.009  1.00  0.00     0.049 A 
ATOM     54  C   UNL A   1      47.280  28.217  28.074  1.00  0.00     0.074 A 
ATOM     55  C   UNL A   1      41.673  30.831  29.418  1.00  0.00     0.029 A 
ATOM     56  N   UNL A   1      43.303  29.448  28.808  1.00  0.00    -0.354 N 
ATOM     57  N   UNL A   1      46.080  28.674  28.337  1.00  0.00    -0.248 NA
ATOM     58  C   UNL A   1      48.342  29.231  28.139  1.00  0.00     0.031 C 
ATOM     59  C   UNL A   1      42.878  31.543  29.414  1.00  0.00     0.029 A 
ATOM     60  C   UNL A   1      43.895  30.676  29.055  1.00  0.00     0.049 A 
ATOM     61  H   UNL A   1      43.783  28.633  28.532  1.00  0.00     0.167 HD
ATOM     62  C   UNL A   1      46.244  30.024  28.618  1.00  0.00     0.074 A 
ATOM     63  C   UNL A   1      47.661  30.306  28.512  1.00  0.00     0.031 C 
ATOM     64  C   UNL A   1      45.305  30.947  28.934  1.00  0.00     0.031 A 
BRANCH  51  65
ATOM     65  C   UNL A   1      39.539  28.740  28.977  1.00  0.00    -0.014 A 
ATOM     66  C   UNL A   1      38.897  28.536  30.209  1.00  0.00     0.009 A 
ATOM     67  C   UNL A   1      38.799  29.263  27.904  1.00  0.00     0.009 A 
ATOM     68  C   UNL A   1      37.537  28.817  30.353  1.00  0.00     0.001 A 
ATOM     69  C   UNL A   1      37.446  29.568  28.059  1.00  0.00     0.001 A 
ATOM     70  C   UNL A   1      36.813  29.337  29.279  1.00  0.00     0.000 A 
ENDBRANCH  51  65
BRANCH  52  71
ATOM     71  C   UNL A   1      49.132  26.503  27.467  1.00  0.00    -0.014 A 
ATOM     72  C   UNL A   1      49.966  26.085  28.514  1.00  0.00     0.009 A 
ATOM     73  C   UNL A   1      49.668  26.621  26.175  1.00  0.00     0.009 A 
ATOM     74  C   UNL A   1      51.316  25.814  28.276  1.00  0.00     0.001 A 
ATOM     75  C   UNL A   1      51.010  26.323  25.936  1.00  0.00     0.001 A 
ATOM     76  C   UNL A   1      51.836  25.928  26.988  1.00  0.00     0.000 A 
ENDBRANCH  52  71
BRANCH  64  77
ATOM     77  C   UNL A   1      45.783  32.344  29.207  1.00  0.00    -0.014 A 
ATOM     78  C   UNL A   1      46.191  32.735  30.493  1.00  0.00     0.009 A 
ATOM     79  C   UNL A   1      45.854  33.275  28.159  1.00  0.00     0.009 A 
ATOM     80  C   UNL A   1      46.630  34.038  30.728  1.00  0.00     0.001 A 
ATOM     81  C   UNL A   1      46.320  34.570  28.392  1.00  0.00     0.001 A 
ATOM     82  C   UNL A   1      46.699  34.953  29.677  1.00  0.00     0.000 A 
ENDBRANCH  64  77
ENDBRANCH  38  39
ENDBRANCH  30  33
ENDBRANCH  28  29
ENDBRANCH  27  28
ENDBRANCH   1  27
TORSDOF 15
ENDMDL
MODEL 3
REMARK VINA RESULT:     -10.6      5.387     10.701
REMARK SMILES CC(C)c1cc(OCC(=O)NCCCNC(=O)c2ccc(-c3c4nc(c(-c5ccccc5)c5ccc([nH]5)c(-c5ccccc5)c5nc(c(-c6ccccc6)c6ccc3[nH]6)C=C5)C=C4)cc2)nc(Nc2ccc(F)cc2F)n1
REMARK SMILES IDX 12 1 11 2 9 3 10 4 8 6 7 7 6 8 4 9 5 10 77 11 67 12 66 13
REMARK SMILES IDX 2 14 1 15 3 16 68 17 69 19 70 20 75 21 71 22 74 23 76 24
REMARK SMILES IDX 72 25 73 26 13 27 14 28 15 29 16 30 17 32 18 33 19 34 65 35
REMARK SMILES IDX 20 36 64 37 21 38 22 39 23 40 58 41 24 42 63 43 57 44 59 45
REMARK SMILES IDX 25 46 62 47 56 48 55 49 26 51 48 52 33 53 47 54 34 55 37 56
REMARK SMILES IDX 46 57 60 58 35 59 36 60 45 62 61 63 38 64 27 65 28 66 32 67
REMARK SMILES IDX 29 68 31 69 30 70 49 71 50 72 54 73 51 74 53 75 52 76 39 77
REMARK SMILES IDX 40 78 44 79 41 80 43 81 42 82
REMARK H PARENT 11 5 68 18 15 31 59 50 37 61
REMARK Flexibility Score: inf
ROOT
ATOM      1  C   UNL A   1      32.212  27.754  27.481  1.00  0.00     0.117 C 
ENDROOT
BRANCH   1   2
ATOM      2  N   UNL A   1      30.998  27.089  27.047  1.00  0.00    -0.353 N 
ATOM      3  C   UNL A   1      30.857  26.097  26.124  1.00  0.00     0.258 C 
ATOM      4  O   UNL A   1      29.732  25.632  25.924  1.00  0.00    -0.271 OA
ATOM      5  H   UNL A   1      30.167  27.395  27.478  1.00  0.00     0.163 HD
BRANCH   3   6
ATOM      6  C   UNL A   1      32.082  25.573  25.367  1.00  0.00     0.331 C 
BRANCH   6   7
ATOM      7  O   UNL A   1      33.081  24.941  26.147  1.00  0.00    -0.467 OA
BRANCH   7   8
ATOM      8  C   UNL A   1      33.799  23.924  25.584  1.00  0.00     0.218 A 
ATOM      9  C   UNL A   1      35.716  22.707  24.996  1.00  0.00     0.052 A 
ATOM     10  C   UNL A   1      35.173  23.851  25.537  1.00  0.00     0.092 A 
ATOM     11  N   UNL A   1      34.931  21.730  24.508  1.00  0.00    -0.217 NA
ATOM     12  C   UNL A   1      33.601  21.883  24.562  1.00  0.00     0.230 A 
ATOM     13  N   UNL A   1      33.005  22.962  25.083  1.00  0.00    -0.177 NA
BRANCH   9  14
ATOM     14  C   UNL A   1      37.205  22.431  24.948  1.00  0.00     0.032 C 
ATOM     15  C   UNL A   1      38.036  23.139  26.023  1.00  0.00     0.014 C 
ATOM     16  C   UNL A   1      37.447  20.920  25.005  1.00  0.00     0.014 C 
ENDBRANCH   9  14
BRANCH  12  17
ATOM     17  N   UNL A   1      32.774  20.932  23.972  1.00  0.00    -0.322 N 
ATOM     18  H   UNL A   1      32.094  21.281  23.353  1.00  0.00     0.170 HD
BRANCH  17  19
ATOM     19  C   UNL A   1      32.789  19.545  24.146  1.00  0.00     0.077 A 
ATOM     20  C   UNL A   1      32.771  18.712  23.018  1.00  0.00     0.032 A 
ATOM     21  C   UNL A   1      32.928  18.941  25.410  1.00  0.00     0.149 A 
ATOM     22  C   UNL A   1      32.901  17.327  23.153  1.00  0.00     0.041 A 
ATOM     23  C   UNL A   1      33.041  17.562  25.555  1.00  0.00     0.080 A 
ATOM     24  F   UNL A   1      32.897  19.689  26.524  1.00  0.00    -0.205 F 
ATOM     25  C   UNL A   1      33.036  16.768  24.420  1.00  0.00     0.126 A 
ATOM     26  F   UNL A   1      33.165  15.440  24.543  1.00  0.00    -0.207 F 
ENDBRANCH  17  19
ENDBRANCH  12  17
ENDBRANCH   7   8
ENDBRANCH   6   7
ENDBRANCH   3   6
ENDBRANCH   1   2
BRANCH   1  27
ATOM     27  C   UNL A   1      32.289  29.207  27.021  1.00  0.00     0.042 C 
BRANCH  27  28
ATOM     28  C   UNL A   1      33.686  29.824  27.071  1.00  0.00     0.118 C 
BRANCH  28  29
ATOM     29  N   UNL A   1      33.770  30.985  27.947  1.00  0.00    -0.352 N 
ATOM     30  C   UNL A   1      34.743  31.379  28.831  1.00  0.00     0.251 C 
ATOM     31  H   UNL A   1      32.997  31.593  27.894  1.00  0.00     0.163 HD
ATOM     32  O   UNL A   1      34.524  32.327  29.584  1.00  0.00    -0.269 OA
BRANCH  30  33
ATOM     33  C   UNL A   1      36.038  30.669  28.915  1.00  0.00     0.039 A 
ATOM     34  C   UNL A   1      36.879  30.676  27.796  1.00  0.00     0.014 A 
ATOM     35  C   UNL A   1      36.419  29.975  30.065  1.00  0.00     0.014 A 
ATOM     36  C   UNL A   1      38.134  30.067  27.861  1.00  0.00     0.010 A 
ATOM     37  C   UNL A   1      37.697  29.422  30.152  1.00  0.00     0.010 A 
ATOM     38  C   UNL A   1      38.573  29.477  29.056  1.00  0.00    -0.014 A 
BRANCH  38  39
ATOM     39  C   UNL A   1      39.960  28.965  29.200  1.00  0.00     0.031 A 
ATOM     40  C   UNL A   1      41.072  29.869  29.650  1.00  0.00     0.074 A 
ATOM     41  C   UNL A   1      40.231  27.695  28.841  1.00  0.00     0.049 A 
ATOM     42  N   UNL A   1      42.354  29.614  29.745  1.00  0.00    -0.248 NA
ATOM     43  C   UNL A   1      40.701  31.241  30.027  1.00  0.00     0.031 C 
ATOM     44  C   UNL A   1      39.249  26.722  28.357  1.00  0.00     0.029 A 
ATOM     45  N   UNL A   1      41.419  27.007  28.814  1.00  0.00    -0.354 N 
ATOM     46  C   UNL A   1      42.944  30.796  30.174  1.00  0.00     0.074 A 
ATOM     47  C   UNL A   1      41.885  31.778  30.288  1.00  0.00     0.031 C 
ATOM     48  C   UNL A   1      39.870  25.561  28.097  1.00  0.00     0.029 A 
ATOM     49  C   UNL A   1      41.298  25.719  28.351  1.00  0.00     0.049 A 
ATOM     50  H   UNL A   1      42.276  27.399  29.100  1.00  0.00     0.167 HD
ATOM     51  C   UNL A   1      44.245  31.040  30.459  1.00  0.00     0.031 A 
ATOM     52  C   UNL A   1      42.232  24.775  28.135  1.00  0.00     0.031 A 
ATOM     53  C   UNL A   1      45.299  30.065  30.346  1.00  0.00     0.049 A 
ATOM     54  C   UNL A   1      43.674  25.082  28.423  1.00  0.00     0.074 A 
ATOM     55  C   UNL A   1      46.639  30.205  30.668  1.00  0.00     0.029 A 
ATOM     56  N   UNL A   1      45.136  28.776  29.866  1.00  0.00    -0.354 N 
ATOM     57  N   UNL A   1      44.205  26.185  28.890  1.00  0.00    -0.248 NA
ATOM     58  C   UNL A   1      44.643  24.010  28.155  1.00  0.00     0.031 C 
ATOM     59  C   UNL A   1      47.296  29.015  30.333  1.00  0.00     0.029 A 
ATOM     60  C   UNL A   1      46.356  28.119  29.853  1.00  0.00     0.049 A 
ATOM     61  H   UNL A   1      44.280  28.385  29.577  1.00  0.00     0.167 HD
ATOM     62  C   UNL A   1      45.567  25.936  28.990  1.00  0.00     0.074 A 
ATOM     63  C   UNL A   1      45.777  24.570  28.554  1.00  0.00     0.031 C 
ATOM     64  C   UNL A   1      46.555  26.764  29.406  1.00  0.00     0.031 A 
BRANCH  51  65
ATOM     65  C   UNL A   1      44.608  32.427  30.910  1.00  0.00    -0.014 A 
ATOM     66  C   UNL A   1      44.618  32.768  32.273  1.00  0.00     0.009 A 
ATOM     67  C   UNL A   1      44.988  33.393  29.965  1.00  0.00     0.009 A 
ATOM     68  C   UNL A   1      44.968  34.059  32.676  1.00  0.00     0.001 A 
ATOM     69  C   UNL A   1      45.363  34.674  30.373  1.00  0.00     0.001 A 
ATOM     70  C   UNL A   1      45.345  35.009  31.726  1.00  0.00     0.000 A 
ENDBRANCH  51  65
BRANCH  52  71
ATOM     71  C   UNL A   1      41.833  23.443  27.610  1.00  0.00    -0.014 A 
ATOM     72  C   UNL A   1      41.365  22.447  28.481  1.00  0.00     0.009 A 
ATOM     73  C   UNL A   1      41.922  23.161  26.238  1.00  0.00     0.009 A 
ATOM     74  C   UNL A   1      41.015  21.187  27.990  1.00  0.00     0.001 A 
ATOM     75  C   UNL A   1      41.545  21.909  25.747  1.00  0.00     0.001 A 
ATOM     76  C   UNL A   1      41.101  20.920  26.624  1.00  0.00     0.000 A 
ENDBRANCH  52  71
BRANCH  64  77
ATOM     77  C   UNL A   1      47.950  26.209  29.426  1.00  0.00    -0.014 A 
ATOM     78  C   UNL A   1      48.734  26.172  28.262  1.00  0.00     0.009 A 
ATOM     79  C   UNL A   1      48.498  25.744  30.632  1.00  0.00     0.009 A 
ATOM     80  C   UNL A   1      50.029  25.651  28.301  1.00  0.00     0.001 A 
ATOM     81  C   UNL A   1      49.802  25.248  30.672  1.00  0.00     0.001 A 
ATOM     82  C   UNL A   1      50.563  25.194  29.505  1.00  0.00     0.000 A 
ENDBRANCH  64  77
ENDBRANCH  38  39
ENDBRANCH  30  33
ENDBRANCH  28  29
ENDBRANCH  27  28
ENDBRANCH   1  27
TORSDOF 15
ENDMDL
