MODEL 1
REMARK VINA RESULT:      -9.2      0.000      0.000
REMARK SMILES NS(=O)(=O)c1ccc(N2N=C(C(=O)NCCCNC(=O)c3ccc(-c4c5nc(c(-c6ccccc6)c6ccc([nH]6)c(-c6ccccc6)c6nc(c(-c7ccccc7)c7ccc4[nH]7)C=C6)C=C5)cc3)C[C@H]2c2ccco2)cc1
REMARK SMILES IDX 15 1 14 2 12 3 13 4 11 6 9 7 10 8 70 9 69 10 8 11 5 12 6 13
REMARK SMILES IDX 77 14 7 15 76 16 2 17 3 18 4 19 1 20 71 23 72 24 75 25 73 26
REMARK SMILES IDX 74 27 16 28 17 29 18 30 19 31 20 33 21 34 22 35 68 36 23 37
REMARK SMILES IDX 67 38 24 39 25 40 26 41 61 42 27 43 66 44 60 45 62 46 28 47
REMARK SMILES IDX 65 48 59 49 58 50 29 52 51 53 36 54 50 55 37 56 40 57 49 58
REMARK SMILES IDX 63 59 38 60 39 61 48 63 64 64 41 65 30 66 31 67 35 68 32 69
REMARK SMILES IDX 34 70 33 71 52 72 53 73 57 74 54 75 56 76 55 77 42 78 43 79
REMARK SMILES IDX 47 80 44 81 46 82 45 83
REMARK H PARENT 14 5 1 21 1 22 18 32 62 51 40 62
REMARK Flexibility Score: inf
ROOT
ATOM      1  C   UNL A   1      35.186  33.515  30.231  1.00  0.00     0.118 C 
ENDROOT
BRANCH   1   2
ATOM      2  N   UNL A   1      34.277  33.455  31.362  1.00  0.00    -0.351 N 
ATOM      3  C   UNL A   1      34.410  33.158  32.695  1.00  0.00     0.267 C 
ATOM      4  O   UNL A   1      33.378  33.078  33.358  1.00  0.00    -0.268 OA
ATOM      5  H   UNL A   1      33.351  33.681  31.116  1.00  0.00     0.163 HD
BRANCH   3   6
ATOM      6  C   UNL A   1      35.744  32.974  33.399  1.00  0.00     0.128 C 
ATOM      7  N   UNL A   1      37.473  31.958  34.126  1.00  0.00    -0.254 N 
ATOM      8  N   UNL A   1      36.430  31.880  33.257  1.00  0.00    -0.171 NA
ATOM      9  C   UNL A   1      37.627  33.277  34.746  1.00  0.00     0.180 C 
ATOM     10  C   UNL A   1      36.343  33.990  34.308  1.00  0.00     0.099 C 
BRANCH   7  11
ATOM     11  C   UNL A   1      38.530  31.058  34.028  1.00  0.00     0.060 A 
ATOM     12  C   UNL A   1      40.700  29.287  33.826  1.00  0.00     0.082 A 
ATOM     13  C   UNL A   1      39.473  28.949  33.249  1.00  0.00     0.024 A 
ATOM     14  C   UNL A   1      40.847  30.480  34.530  1.00  0.00     0.024 A 
ATOM     15  C   UNL A   1      38.394  29.833  33.360  1.00  0.00     0.029 A 
ATOM     16  C   UNL A   1      39.763  31.352  34.627  1.00  0.00     0.029 A 
BRANCH  12  17
ATOM     17  S   UNL A   1      42.061  28.170  33.702  1.00  0.00     0.238 S 
ATOM     18  O   UNL A   1      41.718  26.929  34.353  1.00  0.00    -0.207 OA
ATOM     19  O   UNL A   1      43.292  28.877  33.973  1.00  0.00    -0.207 OA
BRANCH  17  20
ATOM     20  N   UNL A   1      42.099  27.839  32.054  1.00  0.00    -0.225 NA
ATOM     21  H   UNL A   1      41.328  28.322  31.593  1.00  0.00     0.137 HD
ATOM     22  H   UNL A   1      42.008  26.834  31.908  1.00  0.00     0.137 HD
ENDBRANCH  17  20
ENDBRANCH  12  17
ENDBRANCH   7  11
BRANCH   9  23
ATOM     23  C   UNL A   1      37.826  33.334  36.235  1.00  0.00     0.128 A 
ATOM     24  C   UNL A   1      38.690  34.051  37.041  1.00  0.00     0.048 A 
ATOM     25  O   UNL A   1      37.025  32.550  37.020  1.00  0.00    -0.467 OA
ATOM     26  C   UNL A   1      38.414  33.668  38.376  1.00  0.00     0.042 A 
ATOM     27  C   UNL A   1      37.381  32.765  38.309  1.00  0.00     0.195 A 
ENDBRANCH   9  23
ENDBRANCH   3   6
ENDBRANCH   1   2
BRANCH   1  28
ATOM     28  C   UNL A   1      34.508  34.121  29.009  1.00  0.00     0.042 C 
BRANCH  28  29
ATOM     29  C   UNL A   1      34.662  33.264  27.759  1.00  0.00     0.118 C 
BRANCH  29  30
ATOM     30  N   UNL A   1      33.791  32.094  27.790  1.00  0.00    -0.352 N 
ATOM     31  C   UNL A   1      34.098  30.759  27.864  1.00  0.00     0.251 C 
ATOM     32  H   UNL A   1      32.829  32.295  27.750  1.00  0.00     0.163 HD
ATOM     33  O   UNL A   1      33.231  29.924  27.627  1.00  0.00    -0.269 OA
BRANCH  31  34
ATOM     34  C   UNL A   1      35.464  30.320  28.218  1.00  0.00     0.039 A 
ATOM     35  C   UNL A   1      36.470  30.389  27.250  1.00  0.00     0.014 A 
ATOM     36  C   UNL A   1      35.748  29.805  29.484  1.00  0.00     0.014 A 
ATOM     37  C   UNL A   1      37.772  30.000  27.574  1.00  0.00     0.010 A 
ATOM     38  C   UNL A   1      37.061  29.503  29.833  1.00  0.00     0.010 A 
ATOM     39  C   UNL A   1      38.085  29.588  28.879  1.00  0.00    -0.014 A 
BRANCH  39  40
ATOM     40  C   UNL A   1      39.473  29.234  29.268  1.00  0.00     0.031 A 
ATOM     41  C   UNL A   1      40.328  30.231  30.002  1.00  0.00     0.074 A 
ATOM     42  C   UNL A   1      39.987  28.045  28.894  1.00  0.00     0.049 A 
ATOM     43  N   UNL A   1      41.586  30.139  30.350  1.00  0.00    -0.248 NA
ATOM     44  C   UNL A   1      39.697  31.510  30.367  1.00  0.00     0.031 C 
ATOM     45  C   UNL A   1      39.275  27.010  28.140  1.00  0.00     0.029 A 
ATOM     46  N   UNL A   1      41.235  27.512  29.090  1.00  0.00    -0.354 N 
ATOM     47  C   UNL A   1      41.902  31.353  30.950  1.00  0.00     0.074 A 
ATOM     48  C   UNL A   1      40.719  32.181  30.880  1.00  0.00     0.031 C 
ATOM     49  C   UNL A   1      40.091  25.960  27.958  1.00  0.00     0.029 A 
ATOM     50  C   UNL A   1      41.393  26.262  28.543  1.00  0.00     0.049 A 
ATOM     51  H   UNL A   1      41.952  27.981  29.577  1.00  0.00     0.167 HD
ATOM     52  C   UNL A   1      43.066  31.736  31.523  1.00  0.00     0.031 A 
ATOM     53  C   UNL A   1      42.469  25.453  28.506  1.00  0.00     0.031 A 
ATOM     54  C   UNL A   1      44.234  30.902  31.617  1.00  0.00     0.049 A 
ATOM     55  C   UNL A   1      43.747  25.904  29.156  1.00  0.00     0.074 A 
ATOM     56  C   UNL A   1      45.438  31.176  32.242  1.00  0.00     0.029 A 
ATOM     57  N   UNL A   1      44.342  29.633  31.074  1.00  0.00    -0.354 N 
ATOM     58  N   UNL A   1      44.004  27.026  29.784  1.00  0.00    -0.248 NA
ATOM     59  C   UNL A   1      44.881  24.971  29.102  1.00  0.00     0.031 C 
ATOM     60  C   UNL A   1      46.293  30.090  32.034  1.00  0.00     0.029 A 
ATOM     61  C   UNL A   1      45.602  29.119  31.329  1.00  0.00     0.049 A 
ATOM     62  H   UNL A   1      43.631  29.166  30.580  1.00  0.00     0.167 HD
ATOM     63  C   UNL A   1      45.316  26.919  30.225  1.00  0.00     0.074 A 
ATOM     64  C   UNL A   1      45.796  25.618  29.809  1.00  0.00     0.031 C 
ATOM     65  C   UNL A   1      46.059  27.819  30.914  1.00  0.00     0.031 A 
BRANCH  52  66
ATOM     66  C   UNL A   1      43.140  33.124  32.097  1.00  0.00    -0.014 A 
ATOM     67  C   UNL A   1      43.495  34.223  31.299  1.00  0.00     0.009 A 
ATOM     68  C   UNL A   1      42.791  33.343  33.439  1.00  0.00     0.009 A 
ATOM     69  C   UNL A   1      43.524  35.510  31.841  1.00  0.00     0.001 A 
ATOM     70  C   UNL A   1      42.794  34.634  33.970  1.00  0.00     0.001 A 
ATOM     71  C   UNL A   1      43.167  35.714  33.173  1.00  0.00     0.000 A 
ENDBRANCH  52  66
BRANCH  53  72
ATOM     72  C   UNL A   1      42.390  24.129  27.833  1.00  0.00    -0.014 A 
ATOM     73  C   UNL A   1      42.018  22.985  28.555  1.00  0.00     0.009 A 
ATOM     74  C   UNL A   1      42.713  23.999  26.473  1.00  0.00     0.009 A 
ATOM     75  C   UNL A   1      42.008  21.731  27.938  1.00  0.00     0.001 A 
ATOM     76  C   UNL A   1      42.670  22.749  25.852  1.00  0.00     0.001 A 
ATOM     77  C   UNL A   1      42.331  21.615  26.586  1.00  0.00     0.000 A 
ENDBRANCH  53  72
BRANCH  65  78
ATOM     78  C   UNL A   1      47.453  27.410  31.297  1.00  0.00    -0.014 A 
ATOM     79  C   UNL A   1      48.552  27.707  30.477  1.00  0.00     0.009 A 
ATOM     80  C   UNL A   1      47.670  26.753  32.518  1.00  0.00     0.009 A 
ATOM     81  C   UNL A   1      49.839  27.323  30.857  1.00  0.00     0.001 A 
ATOM     82  C   UNL A   1      48.961  26.397  32.910  1.00  0.00     0.001 A 
ATOM     83  C   UNL A   1      50.042  26.673  32.075  1.00  0.00     0.000 A 
ENDBRANCH  65  78
ENDBRANCH  39  40
ENDBRANCH  31  34
ENDBRANCH  29  30
ENDBRANCH  28  29
ENDBRANCH   1  28
TORSDOF 14
ENDMDL
MODEL 2
REMARK VINA RESULT:      -9.1      4.843     10.731
REMARK SMILES NS(=O)(=O)c1ccc(N2N=C(C(=O)NCCCNC(=O)c3ccc(-c4c5nc(c(-c6ccccc6)c6ccc([nH]6)c(-c6ccccc6)c6nc(c(-c7ccccc7)c7ccc4[nH]7)C=C6)C=C5)cc3)C[C@H]2c2ccco2)cc1
REMARK SMILES IDX 15 1 14 2 12 3 13 4 11 6 9 7 10 8 70 9 69 10 8 11 5 12 6 13
REMARK SMILES IDX 77 14 7 15 76 16 2 17 3 18 4 19 1 20 71 23 72 24 75 25 73 26
REMARK SMILES IDX 74 27 16 28 17 29 18 30 19 31 20 33 21 34 22 35 68 36 23 37
REMARK SMILES IDX 67 38 24 39 25 40 26 41 61 42 27 43 66 44 60 45 62 46 28 47
REMARK SMILES IDX 65 48 59 49 58 50 29 52 51 53 36 54 50 55 37 56 40 57 49 58
REMARK SMILES IDX 63 59 38 60 39 61 48 63 64 64 41 65 30 66 31 67 35 68 32 69
REMARK SMILES IDX 34 70 33 71 52 72 53 73 57 74 54 75 56 76 55 77 42 78 43 79
REMARK SMILES IDX 47 80 44 81 46 82 45 83
REMARK H PARENT 14 5 1 21 1 22 18 32 62 51 40 62
REMARK Flexibility Score: inf
ROOT
ATOM      1  C   UNL A   1      34.858  22.450  24.940  1.00  0.00     0.118 C 
ENDROOT
BRANCH   1   2
ATOM      2  N   UNL A   1      33.762  22.136  24.042  1.00  0.00    -0.351 N 
ATOM      3  C   UNL A   1      32.560  22.725  23.738  1.00  0.00     0.267 C 
ATOM      4  O   UNL A   1      31.798  22.101  23.003  1.00  0.00    -0.268 OA
ATOM      5  H   UNL A   1      33.916  21.308  23.532  1.00  0.00     0.163 HD
BRANCH   3   6
ATOM      6  C   UNL A   1      32.145  24.108  24.211  1.00  0.00     0.128 C 
ATOM      7  N   UNL A   1      31.488  26.133  24.067  1.00  0.00    -0.254 N 
ATOM      8  N   UNL A   1      31.588  24.954  23.397  1.00  0.00    -0.171 NA
ATOM      9  C   UNL A   1      31.800  26.027  25.496  1.00  0.00     0.180 C 
ATOM     10  C   UNL A   1      32.362  24.605  25.597  1.00  0.00     0.099 C 
BRANCH   7  11
ATOM     11  C   UNL A   1      30.703  27.162  23.556  1.00  0.00     0.060 A 
ATOM     12  C   UNL A   1      29.159  29.277  22.541  1.00  0.00     0.082 A 
ATOM     13  C   UNL A   1      28.528  28.182  23.139  1.00  0.00     0.024 A 
ATOM     14  C   UNL A   1      30.545  29.312  22.413  1.00  0.00     0.024 A 
ATOM     15  C   UNL A   1      29.303  27.128  23.636  1.00  0.00     0.029 A 
ATOM     16  C   UNL A   1      31.304  28.256  22.919  1.00  0.00     0.029 A 
BRANCH  12  17
ATOM     17  S   UNL A   1      28.186  30.602  21.899  1.00  0.00     0.238 S 
ATOM     18  O   UNL A   1      27.172  30.958  22.862  1.00  0.00    -0.207 OA
ATOM     19  O   UNL A   1      27.883  30.348  20.508  1.00  0.00    -0.207 OA
BRANCH  17  20
ATOM     20  N   UNL A   1      29.285  31.873  21.883  1.00  0.00    -0.225 NA
ATOM     21  H   UNL A   1      30.098  31.613  21.325  1.00  0.00     0.137 HD
ATOM     22  H   UNL A   1      29.579  32.079  22.838  1.00  0.00     0.137 HD
ENDBRANCH  17  20
ENDBRANCH  12  17
ENDBRANCH   7  11
BRANCH   9  23
ATOM     23  C   UNL A   1      32.732  27.047  26.089  1.00  0.00     0.128 A 
ATOM     24  C   UNL A   1      34.011  27.454  25.759  1.00  0.00     0.048 A 
ATOM     25  O   UNL A   1      32.298  27.760  27.172  1.00  0.00    -0.467 OA
ATOM     26  C   UNL A   1      34.377  28.447  26.700  1.00  0.00     0.042 A 
ATOM     27  C   UNL A   1      33.292  28.608  27.528  1.00  0.00     0.195 A 
ENDBRANCH   9  23
ENDBRANCH   3   6
ENDBRANCH   1   2
BRANCH   1  28
ATOM     28  C   UNL A   1      36.065  22.977  24.176  1.00  0.00     0.042 C 
BRANCH  28  29
ATOM     29  C   UNL A   1      37.095  23.643  25.080  1.00  0.00     0.118 C 
BRANCH  29  30
ATOM     30  N   UNL A   1      38.160  22.723  25.463  1.00  0.00    -0.352 N 
ATOM     31  C   UNL A   1      39.346  22.957  26.111  1.00  0.00     0.251 C 
ATOM     32  H   UNL A   1      38.003  21.783  25.218  1.00  0.00     0.163 HD
ATOM     33  O   UNL A   1      40.214  22.090  26.118  1.00  0.00    -0.269 OA
BRANCH  31  34
ATOM     34  C   UNL A   1      39.590  24.247  26.792  1.00  0.00     0.039 A 
ATOM     35  C   UNL A   1      39.079  24.440  28.079  1.00  0.00     0.014 A 
ATOM     36  C   UNL A   1      40.285  25.276  26.154  1.00  0.00     0.014 A 
ATOM     37  C   UNL A   1      39.320  25.643  28.746  1.00  0.00     0.010 A 
ATOM     38  C   UNL A   1      40.600  26.438  26.853  1.00  0.00     0.010 A 
ATOM     39  C   UNL A   1      40.113  26.638  28.152  1.00  0.00    -0.014 A 
BRANCH  39  40
ATOM     40  C   UNL A   1      40.441  27.897  28.866  1.00  0.00     0.031 A 
ATOM     41  C   UNL A   1      41.757  28.038  29.581  1.00  0.00     0.074 A 
ATOM     42  C   UNL A   1      39.524  28.883  28.932  1.00  0.00     0.049 A 
ATOM     43  N   UNL A   1      42.188  29.023  30.328  1.00  0.00    -0.248 NA
ATOM     44  C   UNL A   1      42.702  26.915  29.468  1.00  0.00     0.031 C 
ATOM     45  C   UNL A   1      38.193  28.850  28.320  1.00  0.00     0.029 A 
ATOM     46  N   UNL A   1      39.570  30.103  29.558  1.00  0.00    -0.354 N 
ATOM     47  C   UNL A   1      43.437  28.627  30.792  1.00  0.00     0.074 A 
ATOM     48  C   UNL A   1      43.677  27.296  30.280  1.00  0.00     0.031 C 
ATOM     49  C   UNL A   1      37.560  30.004  28.582  1.00  0.00     0.029 A 
ATOM     50  C   UNL A   1      38.419  30.840  29.414  1.00  0.00     0.049 A 
ATOM     51  H   UNL A   1      40.352  30.420  30.065  1.00  0.00     0.167 HD
ATOM     52  C   UNL A   1      44.312  29.317  31.560  1.00  0.00     0.031 A 
ATOM     53  C   UNL A   1      38.088  32.049  29.905  1.00  0.00     0.031 A 
ATOM     54  C   UNL A   1      44.084  30.651  32.046  1.00  0.00     0.049 A 
ATOM     55  C   UNL A   1      39.084  32.794  30.750  1.00  0.00     0.074 A 
ATOM     56  C   UNL A   1      44.941  31.459  32.772  1.00  0.00     0.029 A 
ATOM     57  N   UNL A   1      42.918  31.372  31.853  1.00  0.00    -0.354 N 
ATOM     58  N   UNL A   1      40.291  32.435  31.116  1.00  0.00    -0.248 NA
ATOM     59  C   UNL A   1      38.675  34.117  31.242  1.00  0.00     0.031 C 
ATOM     60  C   UNL A   1      44.273  32.652  33.061  1.00  0.00     0.029 A 
ATOM     61  C   UNL A   1      43.023  32.608  32.467  1.00  0.00     0.049 A 
ATOM     62  H   UNL A   1      42.131  31.053  31.355  1.00  0.00     0.167 HD
ATOM     63  C   UNL A   1      40.794  33.498  31.853  1.00  0.00     0.074 A 
ATOM     64  C   UNL A   1      39.771  34.523  31.866  1.00  0.00     0.031 C 
ATOM     65  C   UNL A   1      41.997  33.618  32.463  1.00  0.00     0.031 A 
BRANCH  52  66
ATOM     66  C   UNL A   1      45.605  28.641  31.926  1.00  0.00    -0.014 A 
ATOM     67  C   UNL A   1      45.694  27.805  33.050  1.00  0.00     0.009 A 
ATOM     68  C   UNL A   1      46.730  28.795  31.102  1.00  0.00     0.009 A 
ATOM     69  C   UNL A   1      46.894  27.158  33.355  1.00  0.00     0.001 A 
ATOM     70  C   UNL A   1      47.919  28.126  31.394  1.00  0.00     0.001 A 
ATOM     71  C   UNL A   1      48.002  27.314  32.524  1.00  0.00     0.000 A 
ENDBRANCH  52  66
BRANCH  53  72
ATOM     72  C   UNL A   1      36.756  32.640  29.610  1.00  0.00    -0.014 A 
ATOM     73  C   UNL A   1      36.536  33.338  28.413  1.00  0.00     0.009 A 
ATOM     74  C   UNL A   1      35.707  32.533  30.536  1.00  0.00     0.009 A 
ATOM     75  C   UNL A   1      35.304  33.949  28.166  1.00  0.00     0.001 A 
ATOM     76  C   UNL A   1      34.466  33.117  30.272  1.00  0.00     0.001 A 
ATOM     77  C   UNL A   1      34.269  33.836  29.094  1.00  0.00     0.000 A 
ENDBRANCH  53  72
BRANCH  65  78
ATOM     78  C   UNL A   1      42.288  34.916  33.161  1.00  0.00    -0.014 A 
ATOM     79  C   UNL A   1      41.806  35.174  34.454  1.00  0.00     0.009 A 
ATOM     80  C   UNL A   1      43.092  35.876  32.528  1.00  0.00     0.009 A 
ATOM     81  C   UNL A   1      42.096  36.385  35.084  1.00  0.00     0.001 A 
ATOM     82  C   UNL A   1      43.405  37.074  33.173  1.00  0.00     0.001 A 
ATOM     83  C   UNL A   1      42.898  37.330  34.446  1.00  0.00     0.000 A 
ENDBRANCH  65  78
ENDBRANCH  39  40
ENDBRANCH  31  34
ENDBRANCH  29  30
ENDBRANCH  28  29
ENDBRANCH   1  28
TORSDOF 14
ENDMDL
MODEL 3
REMARK VINA RESULT:      -8.9      0.549      1.266
REMARK SMILES NS(=O)(=O)c1ccc(N2N=C(C(=O)NCCCNC(=O)c3ccc(-c4c5nc(c(-c6ccccc6)c6ccc([nH]6)c(-c6ccccc6)c6nc(c(-c7ccccc7)c7ccc4[nH]7)C=C6)C=C5)cc3)C[C@H]2c2ccco2)cc1
REMARK SMILES IDX 15 1 14 2 12 3 13 4 11 6 9 7 10 8 70 9 69 10 8 11 5 12 6 13
REMARK SMILES IDX 77 14 7 15 76 16 2 17 3 18 4 19 1 20 71 23 72 24 75 25 73 26
REMARK SMILES IDX 74 27 16 28 17 29 18 30 19 31 20 33 21 34 22 35 68 36 23 37
REMARK SMILES IDX 67 38 24 39 25 40 26 41 61 42 27 43 66 44 60 45 62 46 28 47
REMARK SMILES IDX 65 48 59 49 58 50 29 52 51 53 36 54 50 55 37 56 40 57 49 58
REMARK SMILES IDX 63 59 38 60 39 61 48 63 64 64 41 65 30 66 31 67 35 68 32 69
REMARK SMILES IDX 34 70 33 71 52 72 53 73 57 74 54 75 56 76 55 77 42 78 43 79
REMARK SMILES IDX 47 80 44 81 46 82 45 83
REMARK H PARENT 14 5 1 21 1 22 18 32 62 51 40 62
REMARK Flexibility Score: inf
ROOT
ATOM      1  C   UNL A   1      34.977  33.364  30.082  1.00  0.00     0.118 C 
ENDROOT
BRANCH   1   2
ATOM      2  N   UNL A   1      34.161  33.353  31.282  1.00  0.00    -0.351 N 
ATOM      3  C   UNL A   1      34.404  33.140  32.616  1.00  0.00     0.267 C 
ATOM      4  O   UNL A   1      33.428  33.078  33.362  1.00  0.00    -0.268 OA
ATOM      5  H   UNL A   1      33.212  33.545  31.097  1.00  0.00     0.163 HD
BRANCH   3   6
ATOM      6  C   UNL A   1      35.792  33.025  33.222  1.00  0.00     0.128 C 
ATOM      7  N   UNL A   1      37.572  32.082  33.925  1.00  0.00    -0.254 N 
ATOM      8  N   UNL A   1      36.457  31.911  33.166  1.00  0.00    -0.171 NA
ATOM      9  C   UNL A   1      37.786  33.468  34.353  1.00  0.00     0.180 C 
ATOM     10  C   UNL A   1      36.474  34.140  33.937  1.00  0.00     0.099 C 
BRANCH   7  11
ATOM     11  C   UNL A   1      38.611  31.159  33.857  1.00  0.00     0.060 A 
ATOM     12  C   UNL A   1      40.746  29.341  33.706  1.00  0.00     0.082 A 
ATOM     13  C   UNL A   1      39.485  28.971  33.230  1.00  0.00     0.024 A 
ATOM     14  C   UNL A   1      40.945  30.591  34.285  1.00  0.00     0.024 A 
ATOM     15  C   UNL A   1      38.423  29.879  33.316  1.00  0.00     0.029 A 
ATOM     16  C   UNL A   1      39.878  31.487  34.357  1.00  0.00     0.029 A 
BRANCH  12  17
ATOM     17  S   UNL A   1      42.084  28.193  33.615  1.00  0.00     0.238 S 
ATOM     18  O   UNL A   1      41.757  27.020  34.388  1.00  0.00    -0.207 OA
ATOM     19  O   UNL A   1      43.336  28.900  33.764  1.00  0.00    -0.207 OA
BRANCH  17  20
ATOM     20  N   UNL A   1      42.037  27.721  32.003  1.00  0.00    -0.225 NA
ATOM     21  H   UNL A   1      42.053  26.702  31.947  1.00  0.00     0.137 HD
ATOM     22  H   UNL A   1      42.848  28.101  31.514  1.00  0.00     0.137 HD
ENDBRANCH  17  20
ENDBRANCH  12  17
ENDBRANCH   7  11
BRANCH   9  23
ATOM     23  C   UNL A   1      38.114  33.713  35.799  1.00  0.00     0.128 A 
ATOM     24  C   UNL A   1      37.549  33.268  36.979  1.00  0.00     0.048 A 
ATOM     25  O   UNL A   1      39.174  34.528  36.088  1.00  0.00    -0.467 OA
ATOM     26  C   UNL A   1      38.289  33.857  38.033  1.00  0.00     0.042 A 
ATOM     27  C   UNL A   1      39.278  34.601  37.437  1.00  0.00     0.195 A 
ENDBRANCH   9  23
ENDBRANCH   3   6
ENDBRANCH   1   2
BRANCH   1  28
ATOM     28  C   UNL A   1      34.163  33.782  28.864  1.00  0.00     0.042 C 
BRANCH  28  29
ATOM     29  C   UNL A   1      34.420  32.900  27.648  1.00  0.00     0.118 C 
BRANCH  29  30
ATOM     30  N   UNL A   1      33.677  31.647  27.716  1.00  0.00    -0.352 N 
ATOM     31  C   UNL A   1      34.122  30.354  27.828  1.00  0.00     0.251 C 
ATOM     32  H   UNL A   1      32.699  31.744  27.676  1.00  0.00     0.163 HD
ATOM     33  O   UNL A   1      33.347  29.426  27.619  1.00  0.00    -0.269 OA
BRANCH  31  34
ATOM     34  C   UNL A   1      35.528  30.071  28.188  1.00  0.00     0.039 A 
ATOM     35  C   UNL A   1      35.831  29.715  29.506  1.00  0.00     0.014 A 
ATOM     36  C   UNL A   1      36.551  30.194  27.246  1.00  0.00     0.014 A 
ATOM     37  C   UNL A   1      37.150  29.421  29.859  1.00  0.00     0.010 A 
ATOM     38  C   UNL A   1      37.848  29.815  27.576  1.00  0.00     0.010 A 
ATOM     39  C   UNL A   1      38.163  29.434  28.888  1.00  0.00    -0.014 A 
BRANCH  39  40
ATOM     40  C   UNL A   1      39.560  29.060  29.221  1.00  0.00     0.031 A 
ATOM     41  C   UNL A   1      40.466  30.052  29.898  1.00  0.00     0.074 A 
ATOM     42  C   UNL A   1      40.034  27.855  28.846  1.00  0.00     0.049 A 
ATOM     43  N   UNL A   1      41.737  29.942  30.191  1.00  0.00    -0.248 NA
ATOM     44  C   UNL A   1      39.877  31.350  30.268  1.00  0.00     0.031 C 
ATOM     45  C   UNL A   1      39.271  26.821  28.143  1.00  0.00     0.029 A 
ATOM     46  N   UNL A   1      41.280  27.301  28.996  1.00  0.00    -0.354 N 
ATOM     47  C   UNL A   1      42.103  31.159  30.754  1.00  0.00     0.074 A 
ATOM     48  C   UNL A   1      40.933  32.009  30.722  1.00  0.00     0.031 C 
ATOM     49  C   UNL A   1      40.058  25.753  27.943  1.00  0.00     0.029 A 
ATOM     50  C   UNL A   1      41.390  26.039  28.464  1.00  0.00     0.049 A 
ATOM     51  H   UNL A   1      42.027  27.764  29.441  1.00  0.00     0.167 HD
ATOM     52  C   UNL A   1      43.299  31.529  31.268  1.00  0.00     0.031 A 
ATOM     53  C   UNL A   1      42.447  25.208  28.394  1.00  0.00     0.031 A 
ATOM     54  C   UNL A   1      44.453  30.674  31.325  1.00  0.00     0.049 A 
ATOM     55  C   UNL A   1      43.762  25.645  28.978  1.00  0.00     0.074 A 
ATOM     56  C   UNL A   1      45.689  30.935  31.891  1.00  0.00     0.029 A 
ATOM     57  N   UNL A   1      44.513  29.394  30.800  1.00  0.00    -0.354 N 
ATOM     58  N   UNL A   1      44.068  26.772  29.574  1.00  0.00    -0.248 NA
ATOM     59  C   UNL A   1      44.875  24.689  28.890  1.00  0.00     0.031 C 
ATOM     60  C   UNL A   1      46.514  29.829  31.664  1.00  0.00     0.029 A 
ATOM     61  C   UNL A   1      45.773  28.860  31.008  1.00  0.00     0.049 A 
ATOM     62  H   UNL A   1      43.771  28.932  30.347  1.00  0.00     0.167 HD
ATOM     63  C   UNL A   1      45.396  26.647  29.958  1.00  0.00     0.074 A 
ATOM     64  C   UNL A   1      45.832  25.330  29.544  1.00  0.00     0.031 C 
ATOM     65  C   UNL A   1      46.186  27.544  30.597  1.00  0.00     0.031 A 
BRANCH  52  66
ATOM     66  C   UNL A   1      43.424  32.925  31.813  1.00  0.00    -0.014 A 
ATOM     67  C   UNL A   1      43.202  33.196  33.173  1.00  0.00     0.009 A 
ATOM     68  C   UNL A   1      43.829  33.969  30.968  1.00  0.00     0.009 A 
ATOM     69  C   UNL A   1      43.358  34.494  33.668  1.00  0.00     0.001 A 
ATOM     70  C   UNL A   1      44.010  35.258  31.472  1.00  0.00     0.001 A 
ATOM     71  C   UNL A   1      43.768  35.520  32.819  1.00  0.00     0.000 A 
ENDBRANCH  52  66
BRANCH  53  72
ATOM     72  C   UNL A   1      42.313  23.875  27.749  1.00  0.00    -0.014 A 
ATOM     73  C   UNL A   1      42.523  23.726  26.370  1.00  0.00     0.009 A 
ATOM     74  C   UNL A   1      41.946  22.751  28.505  1.00  0.00     0.009 A 
ATOM     75  C   UNL A   1      42.333  22.486  25.754  1.00  0.00     0.001 A 
ATOM     76  C   UNL A   1      41.788  21.506  27.892  1.00  0.00     0.001 A 
ATOM     77  C   UNL A   1      41.968  21.377  26.516  1.00  0.00     0.000 A 
ENDBRANCH  53  72
BRANCH  65  78
ATOM     78  C   UNL A   1      47.588  27.114  30.924  1.00  0.00    -0.014 A 
ATOM     79  C   UNL A   1      47.880  26.415  32.105  1.00  0.00     0.009 A 
ATOM     80  C   UNL A   1      48.623  27.380  30.015  1.00  0.00     0.009 A 
ATOM     81  C   UNL A   1      49.190  26.020  32.384  1.00  0.00     0.001 A 
ATOM     82  C   UNL A   1      49.926  26.957  30.282  1.00  0.00     0.001 A 
ATOM     83  C   UNL A   1      50.209  26.287  31.471  1.00  0.00     0.000 A 
ENDBRANCH  65  78
ENDBRANCH  39  40
ENDBRANCH  31  34
ENDBRANCH  29  30
ENDBRANCH  28  29
ENDBRANCH   1  28
TORSDOF 14
ENDMDL
