MODEL 1
REMARK VINA RESULT:     -11.6      0.000      0.000
REMARK SMILES C[C@H]1SC[C@H](C(=O)NCCCNC(=O)c2ccc(-c3c4nc(c(-c5ccccc5)c5ccc([nH]5)c(-c5ccccc5)c5nc(c(-c6ccccc6)c6ccc3[nH]6)C=C5)C=C4)cc2)N1C(=O)[C@@H]1CSc2ccccc21
REMARK SMILES IDX 10 1 9 2 8 3 6 4 7 5 5 7 1 8 2 9 3 10 63 11 4 12 64 13 65 14
REMARK SMILES IDX 66 15 67 16 74 17 68 18 69 19 73 20 70 21 72 22 71 23 11 24
REMARK SMILES IDX 12 25 13 26 14 28 15 29 16 30 62 31 17 32 61 33 18 34 19 35
REMARK SMILES IDX 20 36 55 37 21 38 60 39 54 40 56 41 22 42 59 43 53 44 52 45
REMARK SMILES IDX 23 47 45 48 30 49 44 50 31 51 34 52 43 53 57 54 32 55 33 56
REMARK SMILES IDX 42 58 58 59 35 60 24 61 25 62 29 63 26 64 28 65 27 66 46 67
REMARK SMILES IDX 47 68 51 69 48 70 50 71 49 72 36 73 37 74 41 75 38 76 40 77
REMARK SMILES IDX 39 78
REMARK H PARENT 8 6 12 27 56 46 34 57
REMARK Flexibility Score: inf
ROOT
ATOM      1  C   UNL A   1      32.523  28.237  27.603  1.00  0.00     0.042 C 
ENDROOT
BRANCH   1   2
ATOM      2  C   UNL A   1      31.449  27.930  26.575  1.00  0.00     0.117 C 
BRANCH   2   3
ATOM      3  N   UNL A   1      30.747  26.697  26.861  1.00  0.00    -0.354 N 
ATOM      4  C   UNL A   1      30.473  25.635  26.053  1.00  0.00     0.243 C 
ATOM      5  O   UNL A   1      29.665  24.802  26.480  1.00  0.00    -0.273 OA
ATOM      6  H   UNL A   1      30.414  26.614  27.784  1.00  0.00     0.163 HD
BRANCH   4   7
ATOM      7  C   UNL A   1      30.945  25.577  24.590  1.00  0.00     0.185 C 
ATOM      8  C   UNL A   1      32.496  25.012  21.911  1.00  0.00     0.043 C 
ATOM      9  C   UNL A   1      32.620  26.143  22.935  1.00  0.00     0.141 C 
ATOM     10  S   UNL A   1      31.315  27.348  22.581  1.00  0.00    -0.135 SA
ATOM     11  N   UNL A   1      32.389  25.688  24.298  1.00  0.00    -0.318 N 
ATOM     12  C   UNL A   1      30.212  26.720  23.868  1.00  0.00     0.107 C 
BRANCH  11  13
ATOM     13  C   UNL A   1      33.294  24.965  25.064  1.00  0.00     0.232 C 
ATOM     14  O   UNL A   1      34.157  25.563  25.717  1.00  0.00    -0.274 OA
BRANCH  13  15
ATOM     15  C   UNL A   1      33.345  23.422  25.062  1.00  0.00     0.120 C 
ATOM     16  C   UNL A   1      32.847  22.747  26.348  1.00  0.00     0.093 C 
ATOM     17  C   UNL A   1      34.689  22.849  24.716  1.00  0.00    -0.021 A 
ATOM     18  S   UNL A   1      34.242  21.872  27.135  1.00  0.00    -0.125 SA
ATOM     19  C   UNL A   1      35.303  22.135  25.746  1.00  0.00     0.011 A 
ATOM     20  C   UNL A   1      35.344  23.049  23.504  1.00  0.00     0.006 A 
ATOM     21  C   UNL A   1      36.629  21.749  25.646  1.00  0.00     0.015 A 
ATOM     22  C   UNL A   1      36.667  22.626  23.381  1.00  0.00     0.000 A 
ATOM     23  C   UNL A   1      37.317  22.016  24.460  1.00  0.00     0.001 A 
ENDBRANCH  13  15
ENDBRANCH  11  13
ENDBRANCH   4   7
ENDBRANCH   2   3
ENDBRANCH   1   2
BRANCH   1  24
ATOM     24  C   UNL A   1      33.643  29.119  27.078  1.00  0.00     0.118 C 
BRANCH  24  25
ATOM     25  N   UNL A   1      33.674  30.432  27.707  1.00  0.00    -0.352 N 
ATOM     26  C   UNL A   1      34.651  31.009  28.480  1.00  0.00     0.251 C 
ATOM     27  H   UNL A   1      32.876  30.989  27.554  1.00  0.00     0.163 HD
ATOM     28  O   UNL A   1      34.427  32.064  29.066  1.00  0.00    -0.269 OA
BRANCH  26  29
ATOM     29  C   UNL A   1      35.962  30.341  28.633  1.00  0.00     0.039 A 
ATOM     30  C   UNL A   1      36.865  30.372  27.567  1.00  0.00     0.014 A 
ATOM     31  C   UNL A   1      36.308  29.704  29.826  1.00  0.00     0.014 A 
ATOM     32  C   UNL A   1      38.141  29.829  27.727  1.00  0.00     0.010 A 
ATOM     33  C   UNL A   1      37.610  29.256  30.018  1.00  0.00     0.010 A 
ATOM     34  C   UNL A   1      38.540  29.308  28.970  1.00  0.00    -0.014 A 
BRANCH  34  35
ATOM     35  C   UNL A   1      39.921  28.809  29.193  1.00  0.00     0.031 A 
ATOM     36  C   UNL A   1      40.960  29.708  29.805  1.00  0.00     0.074 A 
ATOM     37  C   UNL A   1      40.258  27.570  28.782  1.00  0.00     0.049 A 
ATOM     38  N   UNL A   1      42.230  29.475  30.020  1.00  0.00    -0.248 NA
ATOM     39  C   UNL A   1      40.523  31.055  30.205  1.00  0.00     0.031 C 
ATOM     40  C   UNL A   1      39.357  26.613  28.137  1.00  0.00     0.029 A 
ATOM     41  N   UNL A   1      41.457  26.904  28.844  1.00  0.00    -0.354 N 
ATOM     42  C   UNL A   1      42.743  30.648  30.558  1.00  0.00     0.074 A 
ATOM     43  C   UNL A   1      41.663  31.609  30.586  1.00  0.00     0.031 C 
ATOM     44  C   UNL A   1      40.026  25.475  27.892  1.00  0.00     0.029 A 
ATOM     45  C   UNL A   1      41.411  25.636  28.318  1.00  0.00     0.049 A 
ATOM     46  H   UNL A   1      42.274  27.299  29.229  1.00  0.00     0.167 HD
ATOM     47  C   UNL A   1      43.995  30.899  31.011  1.00  0.00     0.031 A 
ATOM     48  C   UNL A   1      42.379  24.708  28.183  1.00  0.00     0.031 A 
ATOM     49  C   UNL A   1      45.067  29.940  30.991  1.00  0.00     0.049 A 
ATOM     50  C   UNL A   1      43.766  25.019  28.673  1.00  0.00     0.074 A 
ATOM     51  C   UNL A   1      46.354  30.080  31.478  1.00  0.00     0.029 A 
ATOM     52  N   UNL A   1      44.976  28.667  30.454  1.00  0.00    -0.354 N 
ATOM     53  N   UNL A   1      44.216  26.109  29.246  1.00  0.00    -0.248 NA
ATOM     54  C   UNL A   1      44.777  23.965  28.508  1.00  0.00     0.031 C 
ATOM     55  C   UNL A   1      47.062  28.912  31.180  1.00  0.00     0.029 A 
ATOM     56  C   UNL A   1      46.195  28.019  30.571  1.00  0.00     0.049 A 
ATOM     57  H   UNL A   1      44.167  28.279  30.049  1.00  0.00     0.167 HD
ATOM     58  C   UNL A   1      45.551  25.860  29.539  1.00  0.00     0.074 A 
ATOM     59  C   UNL A   1      45.833  24.511  29.094  1.00  0.00     0.031 C 
ATOM     60  C   UNL A   1      46.460  26.675  30.127  1.00  0.00     0.031 A 
BRANCH  47  61
ATOM     61  C   UNL A   1      44.273  32.272  31.558  1.00  0.00    -0.014 A 
ATOM     62  C   UNL A   1      44.081  32.569  32.918  1.00  0.00     0.009 A 
ATOM     63  C   UNL A   1      44.769  33.275  30.710  1.00  0.00     0.009 A 
ATOM     64  C   UNL A   1      44.342  33.851  33.407  1.00  0.00     0.001 A 
ATOM     65  C   UNL A   1      45.061  34.546  31.209  1.00  0.00     0.001 A 
ATOM     66  C   UNL A   1      44.837  34.836  32.553  1.00  0.00     0.000 A 
ENDBRANCH  47  61
BRANCH  48  67
ATOM     67  C   UNL A   1      42.069  23.390  27.569  1.00  0.00    -0.014 A 
ATOM     68  C   UNL A   1      41.478  22.369  28.331  1.00  0.00     0.009 A 
ATOM     69  C   UNL A   1      42.372  23.140  26.222  1.00  0.00     0.009 A 
ATOM     70  C   UNL A   1      41.227  21.117  27.765  1.00  0.00     0.001 A 
ATOM     71  C   UNL A   1      42.090  21.897  25.650  1.00  0.00     0.001 A 
ATOM     72  C   UNL A   1      41.529  20.884  26.424  1.00  0.00     0.000 A 
ENDBRANCH  48  67
BRANCH  60  73
ATOM     73  C   UNL A   1      47.835  26.115  30.369  1.00  0.00    -0.014 A 
ATOM     74  C   UNL A   1      48.779  26.013  29.336  1.00  0.00     0.009 A 
ATOM     75  C   UNL A   1      48.204  25.729  31.668  1.00  0.00     0.009 A 
ATOM     76  C   UNL A   1      50.054  25.504  29.593  1.00  0.00     0.001 A 
ATOM     77  C   UNL A   1      49.489  25.252  31.927  1.00  0.00     0.001 A 
ATOM     78  C   UNL A   1      50.409  25.130  30.888  1.00  0.00     0.000 A 
ENDBRANCH  60  73
ENDBRANCH  34  35
ENDBRANCH  26  29
ENDBRANCH  24  25
ENDBRANCH   1  24
TORSDOF 12
ENDMDL
MODEL 2
REMARK VINA RESULT:     -11.3      0.255      5.996
REMARK SMILES C[C@H]1SC[C@H](C(=O)NCCCNC(=O)c2ccc(-c3c4nc(c(-c5ccccc5)c5ccc([nH]5)c(-c5ccccc5)c5nc(c(-c6ccccc6)c6ccc3[nH]6)C=C5)C=C4)cc2)N1C(=O)[C@@H]1CSc2ccccc21
REMARK SMILES IDX 10 1 9 2 8 3 6 4 7 5 5 7 1 8 2 9 3 10 63 11 4 12 64 13 65 14
REMARK SMILES IDX 66 15 67 16 74 17 68 18 69 19 73 20 70 21 72 22 71 23 11 24
REMARK SMILES IDX 12 25 13 26 14 28 15 29 16 30 62 31 17 32 61 33 18 34 19 35
REMARK SMILES IDX 20 36 55 37 21 38 60 39 54 40 56 41 22 42 59 43 53 44 52 45
REMARK SMILES IDX 23 47 45 48 30 49 44 50 31 51 34 52 43 53 57 54 32 55 33 56
REMARK SMILES IDX 42 58 58 59 35 60 24 61 25 62 29 63 26 64 28 65 27 66 46 67
REMARK SMILES IDX 47 68 51 69 48 70 50 71 49 72 36 73 37 74 41 75 38 76 40 77
REMARK SMILES IDX 39 78
REMARK H PARENT 8 6 12 27 56 46 34 57
REMARK Flexibility Score: inf
ROOT
ATOM      1  C   UNL A   1      32.419  28.239  27.675  1.00  0.00     0.042 C 
ENDROOT
BRANCH   1   2
ATOM      2  C   UNL A   1      31.535  27.820  26.513  1.00  0.00     0.117 C 
BRANCH   2   3
ATOM      3  N   UNL A   1      30.782  26.618  26.797  1.00  0.00    -0.354 N 
ATOM      4  C   UNL A   1      30.480  25.561  25.993  1.00  0.00     0.243 C 
ATOM      5  O   UNL A   1      29.634  24.763  26.413  1.00  0.00    -0.273 OA
ATOM      6  H   UNL A   1      30.431  26.555  27.715  1.00  0.00     0.163 HD
BRANCH   4   7
ATOM      7  C   UNL A   1      30.973  25.473  24.538  1.00  0.00     0.185 C 
ATOM      8  C   UNL A   1      32.557  24.849  21.892  1.00  0.00     0.043 C 
ATOM      9  C   UNL A   1      32.676  25.996  22.897  1.00  0.00     0.141 C 
ATOM     10  S   UNL A   1      31.386  27.205  22.504  1.00  0.00    -0.135 SA
ATOM     11  N   UNL A   1      32.422  25.567  24.265  1.00  0.00    -0.318 N 
ATOM     12  C   UNL A   1      30.260  26.609  23.785  1.00  0.00     0.107 C 
BRANCH  11  13
ATOM     13  C   UNL A   1      33.310  24.850  25.056  1.00  0.00     0.232 C 
ATOM     14  O   UNL A   1      34.137  25.454  25.748  1.00  0.00    -0.274 OA
BRANCH  13  15
ATOM     15  C   UNL A   1      33.386  23.308  25.039  1.00  0.00     0.120 C 
ATOM     16  C   UNL A   1      32.867  22.611  26.305  1.00  0.00     0.093 C 
ATOM     17  C   UNL A   1      34.748  22.761  24.722  1.00  0.00    -0.021 A 
ATOM     18  S   UNL A   1      34.256  21.750  27.118  1.00  0.00    -0.125 SA
ATOM     19  C   UNL A   1      35.348  22.046  25.759  1.00  0.00     0.011 A 
ATOM     20  C   UNL A   1      35.430  22.984  23.529  1.00  0.00     0.006 A 
ATOM     21  C   UNL A   1      36.681  21.683  25.689  1.00  0.00     0.015 A 
ATOM     22  C   UNL A   1      36.762  22.585  23.435  1.00  0.00     0.000 A 
ATOM     23  C   UNL A   1      37.395  21.974  24.524  1.00  0.00     0.001 A 
ENDBRANCH  13  15
ENDBRANCH  11  13
ENDBRANCH   4   7
ENDBRANCH   2   3
ENDBRANCH   1   2
BRANCH   1  24
ATOM     24  C   UNL A   1      33.661  29.007  27.258  1.00  0.00     0.118 C 
BRANCH  24  25
ATOM     25  N   UNL A   1      33.696  30.362  27.789  1.00  0.00    -0.352 N 
ATOM     26  C   UNL A   1      34.700  31.011  28.465  1.00  0.00     0.251 C 
ATOM     27  H   UNL A   1      32.879  30.892  27.641  1.00  0.00     0.163 HD
ATOM     28  O   UNL A   1      34.484  32.102  28.986  1.00  0.00    -0.269 OA
BRANCH  26  29
ATOM     29  C   UNL A   1      36.031  30.381  28.594  1.00  0.00     0.039 A 
ATOM     30  C   UNL A   1      36.928  30.472  27.527  1.00  0.00     0.014 A 
ATOM     31  C   UNL A   1      36.402  29.718  29.766  1.00  0.00     0.014 A 
ATOM     32  C   UNL A   1      38.222  29.965  27.667  1.00  0.00     0.010 A 
ATOM     33  C   UNL A   1      37.718  29.306  29.941  1.00  0.00     0.010 A 
ATOM     34  C   UNL A   1      38.641  29.419  28.892  1.00  0.00    -0.014 A 
BRANCH  34  35
ATOM     35  C   UNL A   1      40.038  28.956  29.096  1.00  0.00     0.031 A 
ATOM     36  C   UNL A   1      40.443  27.568  28.682  1.00  0.00     0.074 A 
ATOM     37  C   UNL A   1      40.924  29.760  29.718  1.00  0.00     0.049 A 
ATOM     38  N   UNL A   1      41.594  26.964  28.836  1.00  0.00    -0.248 NA
ATOM     39  C   UNL A   1      39.414  26.740  28.033  1.00  0.00     0.031 C 
ATOM     40  C   UNL A   1      40.647  31.113  30.207  1.00  0.00     0.029 A 
ATOM     41  N   UNL A   1      42.240  29.553  30.048  1.00  0.00    -0.354 N 
ATOM     42  C   UNL A   1      41.420  25.685  28.323  1.00  0.00     0.074 A 
ATOM     43  C   UNL A   1      40.040  25.580  27.905  1.00  0.00     0.031 C 
ATOM     44  C   UNL A   1      41.766  31.624  30.745  1.00  0.00     0.029 A 
ATOM     45  C   UNL A   1      42.824  30.622  30.683  1.00  0.00     0.049 A 
ATOM     46  H   UNL A   1      42.720  28.716  29.850  1.00  0.00     0.167 HD
ATOM     47  C   UNL A   1      42.331  24.691  28.190  1.00  0.00     0.031 A 
ATOM     48  C   UNL A   1      44.070  30.776  31.170  1.00  0.00     0.031 A 
ATOM     49  C   UNL A   1      43.707  24.798  28.598  1.00  0.00     0.049 A 
ATOM     50  C   UNL A   1      45.058  29.650  31.030  1.00  0.00     0.074 A 
ATOM     51  C   UNL A   1      44.721  23.869  28.454  1.00  0.00     0.029 A 
ATOM     52  N   UNL A   1      44.258  25.900  29.232  1.00  0.00    -0.354 N 
ATOM     53  N   UNL A   1      44.896  28.473  30.477  1.00  0.00    -0.248 NA
ATOM     54  C   UNL A   1      46.404  29.881  31.573  1.00  0.00     0.031 C 
ATOM     55  C   UNL A   1      45.873  24.383  29.057  1.00  0.00     0.029 A 
ATOM     56  C   UNL A   1      45.593  25.661  29.512  1.00  0.00     0.049 A 
ATOM     57  H   UNL A   1      43.773  26.728  29.451  1.00  0.00     0.167 HD
ATOM     58  C   UNL A   1      46.126  27.836  30.575  1.00  0.00     0.074 A 
ATOM     59  C   UNL A   1      47.028  28.763  31.227  1.00  0.00     0.031 C 
ATOM     60  C   UNL A   1      46.479  26.595  30.159  1.00  0.00     0.031 A 
BRANCH  47  61
ATOM     61  C   UNL A   1      41.863  23.396  27.584  1.00  0.00    -0.014 A 
ATOM     62  C   UNL A   1      42.011  23.137  26.212  1.00  0.00     0.009 A 
ATOM     63  C   UNL A   1      41.299  22.406  28.403  1.00  0.00     0.009 A 
ATOM     64  C   UNL A   1      41.568  21.929  25.667  1.00  0.00     0.001 A 
ATOM     65  C   UNL A   1      40.888  21.187  27.862  1.00  0.00     0.001 A 
ATOM     66  C   UNL A   1      41.012  20.954  26.494  1.00  0.00     0.000 A 
ENDBRANCH  47  61
BRANCH  48  67
ATOM     67  C   UNL A   1      44.463  32.052  31.825  1.00  0.00    -0.014 A 
ATOM     68  C   UNL A   1      44.985  33.112  31.067  1.00  0.00     0.009 A 
ATOM     69  C   UNL A   1      44.331  32.214  33.213  1.00  0.00     0.009 A 
ATOM     70  C   UNL A   1      45.393  34.295  31.689  1.00  0.00     0.001 A 
ATOM     71  C   UNL A   1      44.710  33.409  33.827  1.00  0.00     0.001 A 
ATOM     72  C   UNL A   1      45.251  34.444  33.067  1.00  0.00     0.000 A 
ENDBRANCH  48  67
BRANCH  60  73
ATOM     73  C   UNL A   1      47.912  26.183  30.351  1.00  0.00    -0.014 A 
ATOM     74  C   UNL A   1      48.369  25.660  31.570  1.00  0.00     0.009 A 
ATOM     75  C   UNL A   1      48.808  26.278  29.273  1.00  0.00     0.009 A 
ATOM     76  C   UNL A   1      49.703  25.270  31.715  1.00  0.00     0.001 A 
ATOM     77  C   UNL A   1      50.131  25.857  29.412  1.00  0.00     0.001 A 
ATOM     78  C   UNL A   1      50.580  25.364  30.635  1.00  0.00     0.000 A 
ENDBRANCH  60  73
ENDBRANCH  34  35
ENDBRANCH  26  29
ENDBRANCH  24  25
ENDBRANCH   1  24
TORSDOF 12
ENDMDL
MODEL 3
REMARK VINA RESULT:     -11.2      2.243      7.460
REMARK SMILES C[C@H]1SC[C@H](C(=O)NCCCNC(=O)c2ccc(-c3c4nc(c(-c5ccccc5)c5ccc([nH]5)c(-c5ccccc5)c5nc(c(-c6ccccc6)c6ccc3[nH]6)C=C5)C=C4)cc2)N1C(=O)[C@@H]1CSc2ccccc21
REMARK SMILES IDX 10 1 9 2 8 3 6 4 7 5 5 7 1 8 2 9 3 10 63 11 4 12 64 13 65 14
REMARK SMILES IDX 66 15 67 16 74 17 68 18 69 19 73 20 70 21 72 22 71 23 11 24
REMARK SMILES IDX 12 25 13 26 14 28 15 29 16 30 62 31 17 32 61 33 18 34 19 35
REMARK SMILES IDX 20 36 55 37 21 38 60 39 54 40 56 41 22 42 59 43 53 44 52 45
REMARK SMILES IDX 23 47 45 48 30 49 44 50 31 51 34 52 43 53 57 54 32 55 33 56
REMARK SMILES IDX 42 58 58 59 35 60 24 61 25 62 29 63 26 64 28 65 27 66 46 67
REMARK SMILES IDX 47 68 51 69 48 70 50 71 49 72 36 73 37 74 41 75 38 76 40 77
REMARK SMILES IDX 39 78
REMARK H PARENT 8 6 12 27 56 46 34 57
REMARK Flexibility Score: inf
ROOT
ATOM      1  C   UNL A   1      37.963  20.007  24.948  1.00  0.00     0.042 C 
ENDROOT
BRANCH   1   2
ATOM      2  C   UNL A   1      36.931  21.116  24.841  1.00  0.00     0.117 C 
BRANCH   2   3
ATOM      3  N   UNL A   1      35.794  20.899  25.709  1.00  0.00    -0.354 N 
ATOM      4  C   UNL A   1      34.482  21.219  25.533  1.00  0.00     0.243 C 
ATOM      5  O   UNL A   1      33.746  21.124  26.522  1.00  0.00    -0.273 OA
ATOM      6  H   UNL A   1      36.002  20.452  26.561  1.00  0.00     0.163 HD
BRANCH   4   7
ATOM      7  C   UNL A   1      33.969  21.892  24.248  1.00  0.00     0.185 C 
ATOM      8  C   UNL A   1      33.227  23.922  21.961  1.00  0.00     0.043 C 
ATOM      9  C   UNL A   1      32.457  23.468  23.203  1.00  0.00     0.141 C 
ATOM     10  S   UNL A   1      31.677  21.880  22.815  1.00  0.00    -0.135 SA
ATOM     11  N   UNL A   1      33.329  23.221  24.341  1.00  0.00    -0.318 N 
ATOM     12  C   UNL A   1      32.960  20.907  23.634  1.00  0.00     0.107 C 
BRANCH  11  13
ATOM     13  C   UNL A   1      33.916  24.203  25.127  1.00  0.00     0.232 C 
ATOM     14  O   UNL A   1      35.148  24.319  25.141  1.00  0.00    -0.274 OA
BRANCH  13  15
ATOM     15  C   UNL A   1      33.105  25.108  26.080  1.00  0.00     0.120 C 
ATOM     16  C   UNL A   1      31.786  24.508  26.590  1.00  0.00     0.093 C 
ATOM     17  C   UNL A   1      32.823  26.479  25.537  1.00  0.00    -0.021 A 
ATOM     18  S   UNL A   1      30.398  25.504  25.952  1.00  0.00    -0.125 SA
ATOM     19  C   UNL A   1      31.473  26.754  25.314  1.00  0.00     0.011 A 
ATOM     20  C   UNL A   1      33.801  27.411  25.200  1.00  0.00     0.006 A 
ATOM     21  C   UNL A   1      31.089  27.883  24.611  1.00  0.00     0.015 A 
ATOM     22  C   UNL A   1      33.417  28.569  24.528  1.00  0.00     0.000 A 
ATOM     23  C   UNL A   1      32.073  28.785  24.200  1.00  0.00     0.001 A 
ENDBRANCH  13  15
ENDBRANCH  11  13
ENDBRANCH   4   7
ENDBRANCH   2   3
ENDBRANCH   1   2
BRANCH   1  24
ATOM     24  C   UNL A   1      39.050  20.274  25.974  1.00  0.00     0.118 C 
BRANCH  24  25
ATOM     25  N   UNL A   1      40.179  19.363  25.857  1.00  0.00    -0.352 N 
ATOM     26  C   UNL A   1      41.520  19.607  26.024  1.00  0.00     0.251 C 
ATOM     27  H   UNL A   1      39.947  18.435  25.622  1.00  0.00     0.163 HD
ATOM     28  O   UNL A   1      42.343  18.748  25.716  1.00  0.00    -0.269 OA
BRANCH  26  29
ATOM     29  C   UNL A   1      41.974  20.913  26.545  1.00  0.00     0.039 A 
ATOM     30  C   UNL A   1      42.371  21.901  25.641  1.00  0.00     0.014 A 
ATOM     31  C   UNL A   1      41.992  21.172  27.917  1.00  0.00     0.014 A 
ATOM     32  C   UNL A   1      42.713  23.171  26.111  1.00  0.00     0.010 A 
ATOM     33  C   UNL A   1      42.233  22.463  28.375  1.00  0.00     0.010 A 
ATOM     34  C   UNL A   1      42.602  23.475  27.478  1.00  0.00    -0.014 A 
BRANCH  34  35
ATOM     35  C   UNL A   1      42.870  24.843  27.991  1.00  0.00     0.031 A 
ATOM     36  C   UNL A   1      44.264  25.238  28.399  1.00  0.00     0.074 A 
ATOM     37  C   UNL A   1      41.849  25.707  28.156  1.00  0.00     0.049 A 
ATOM     38  N   UNL A   1      44.682  26.360  28.927  1.00  0.00    -0.248 NA
ATOM     39  C   UNL A   1      45.322  24.232  28.213  1.00  0.00     0.031 C 
ATOM     40  C   UNL A   1      40.445  25.435  27.840  1.00  0.00     0.029 A 
ATOM     41  N   UNL A   1      41.836  26.993  28.637  1.00  0.00    -0.354 N 
ATOM     42  C   UNL A   1      46.042  26.186  29.153  1.00  0.00     0.074 A 
ATOM     43  C   UNL A   1      46.368  24.834  28.758  1.00  0.00     0.031 C 
ATOM     44  C   UNL A   1      39.714  26.529  28.105  1.00  0.00     0.029 A 
ATOM     45  C   UNL A   1      40.586  27.562  28.653  1.00  0.00     0.049 A 
ATOM     46  H   UNL A   1      42.646  27.463  28.943  1.00  0.00     0.167 HD
ATOM     47  C   UNL A   1      46.945  27.078  29.626  1.00  0.00     0.031 A 
ATOM     48  C   UNL A   1      40.182  28.778  29.071  1.00  0.00     0.031 A 
ATOM     49  C   UNL A   1      46.623  28.426  30.011  1.00  0.00     0.049 A 
ATOM     50  C   UNL A   1      41.201  29.742  29.614  1.00  0.00     0.074 A 
ATOM     51  C   UNL A   1      47.476  29.422  30.449  1.00  0.00     0.029 A 
ATOM     52  N   UNL A   1      45.346  28.963  30.008  1.00  0.00    -0.354 N 
ATOM     53  N   UNL A   1      42.495  29.586  29.754  1.00  0.00    -0.248 NA
ATOM     54  C   UNL A   1      40.703  31.056  30.046  1.00  0.00     0.031 C 
ATOM     55  C   UNL A   1      46.708  30.545  30.769  1.00  0.00     0.029 A 
ATOM     56  C   UNL A   1      45.385  30.271  30.463  1.00  0.00     0.049 A 
ATOM     57  H   UNL A   1      44.532  28.487  29.724  1.00  0.00     0.167 HD
ATOM     58  C   UNL A   1      42.970  30.790  30.257  1.00  0.00     0.074 A 
ATOM     59  C   UNL A   1      41.828  31.671  30.384  1.00  0.00     0.031 C 
ATOM     60  C   UNL A   1      44.240  31.136  30.581  1.00  0.00     0.031 A 
BRANCH  47  61
ATOM     61  C   UNL A   1      48.370  26.616  29.762  1.00  0.00    -0.014 A 
ATOM     62  C   UNL A   1      49.306  26.826  28.736  1.00  0.00     0.009 A 
ATOM     63  C   UNL A   1      48.794  25.995  30.948  1.00  0.00     0.009 A 
ATOM     64  C   UNL A   1      50.625  26.388  28.879  1.00  0.00     0.001 A 
ATOM     65  C   UNL A   1      50.120  25.589  31.101  1.00  0.00     0.001 A 
ATOM     66  C   UNL A   1      51.032  25.775  30.063  1.00  0.00     0.000 A 
ENDBRANCH  47  61
BRANCH  48  67
ATOM     67  C   UNL A   1      38.748  29.161  28.982  1.00  0.00    -0.014 A 
ATOM     68  C   UNL A   1      37.902  29.020  30.093  1.00  0.00     0.009 A 
ATOM     69  C   UNL A   1      38.214  29.658  27.783  1.00  0.00     0.009 A 
ATOM     70  C   UNL A   1      36.546  29.340  29.996  1.00  0.00     0.001 A 
ATOM     71  C   UNL A   1      36.865  30.007  27.698  1.00  0.00     0.001 A 
ATOM     72  C   UNL A   1      36.029  29.837  28.801  1.00  0.00     0.000 A 
ENDBRANCH  48  67
BRANCH  60  73
ATOM     73  C   UNL A   1      44.472  32.543  31.061  1.00  0.00    -0.014 A 
ATOM     74  C   UNL A   1      44.724  33.593  30.165  1.00  0.00     0.009 A 
ATOM     75  C   UNL A   1      44.387  32.826  32.434  1.00  0.00     0.009 A 
ATOM     76  C   UNL A   1      44.920  34.892  30.638  1.00  0.00     0.001 A 
ATOM     77  C   UNL A   1      44.550  34.131  32.900  1.00  0.00     0.001 A 
ATOM     78  C   UNL A   1      44.827  35.161  32.003  1.00  0.00     0.000 A 
ENDBRANCH  60  73
ENDBRANCH  34  35
ENDBRANCH  26  29
ENDBRANCH  24  25
ENDBRANCH   1  24
TORSDOF 12
ENDMDL
