MODEL 1
REMARK VINA RESULT:     -10.4      0.000      0.000
REMARK SMILES CC[NH2+][C@]1(C(=O)NCCCNC(=O)c2ccc(-c3c4nc(c(-c5ccccc5)c5ccc([nH]5)c(-c5ccccc5)c5nc(c(-c6ccccc6)c6ccc3[nH]6)C=C5)C=C4)cc2)CCC[C@H]1CCSc1ccc(Cl)cc1
REMARK SMILES IDX 8 1 7 2 5 3 6 4 4 6 62 7 65 8 63 9 64 10 3 11 2 14 1 15
REMARK SMILES IDX 66 16 67 17 68 18 69 19 70 20 75 21 71 22 74 23 72 24 73 25
REMARK SMILES IDX 9 26 10 27 11 28 12 29 13 31 14 32 15 33 61 34 16 35 60 36
REMARK SMILES IDX 17 37 18 38 19 39 54 40 20 41 59 42 53 43 55 44 21 45 58 46
REMARK SMILES IDX 52 47 51 48 22 50 44 51 29 52 43 53 30 54 33 55 42 56 56 57
REMARK SMILES IDX 31 58 32 59 41 61 57 62 34 63 23 64 24 65 28 66 25 67 27 68
REMARK SMILES IDX 26 69 45 70 46 71 50 72 47 73 49 74 48 75 35 76 36 77 40 78
REMARK SMILES IDX 37 79 39 80 38 81
REMARK H PARENT 7 5 3 12 3 13 11 30 55 49 33 60
REMARK Flexibility Score: inf
ROOT
ATOM      1  C   UNL A   1      36.017  20.739  24.708  1.00  0.00     0.118 C 
ENDROOT
BRANCH   1   2
ATOM      2  N   UNL A   1      35.821  21.673  25.793  1.00  0.00    -0.351 N 
ATOM      3  C   UNL A   1      34.749  22.355  26.265  1.00  0.00     0.281 C 
ATOM      4  O   UNL A   1      35.076  23.195  27.114  1.00  0.00    -0.268 OA
ATOM      5  H   UNL A   1      36.644  21.852  26.301  1.00  0.00     0.163 HD
BRANCH   3   6
ATOM      6  C   UNL A   1      33.247  22.014  25.941  1.00  0.00     0.178 C 
ATOM      7  C   UNL A   1      32.170  22.645  26.858  1.00  0.00     0.079 C 
ATOM      8  C   UNL A   1      32.802  22.472  24.504  1.00  0.00     0.061 C 
ATOM      9  C   UNL A   1      30.887  22.654  26.040  1.00  0.00     0.008 C 
ATOM     10  C   UNL A   1      31.372  23.048  24.659  1.00  0.00     0.011 C 
BRANCH   6  11
ATOM     11  N   UNL A   1      32.951  20.547  26.136  1.00  0.00    -0.334 N 
ATOM     12  H   UNL A   1      33.783  20.119  26.544  1.00  0.00     0.347 HD
ATOM     13  H   UNL A   1      32.115  20.529  26.722  1.00  0.00     0.347 HD
BRANCH  11  14
ATOM     14  C   UNL A   1      32.591  19.760  24.960  1.00  0.00     0.257 C 
ATOM     15  C   UNL A   1      33.117  18.338  25.110  1.00  0.00     0.071 C 
ENDBRANCH  11  14
ENDBRANCH   6  11
BRANCH   8  16
ATOM     16  C   UNL A   1      33.668  23.497  23.731  1.00  0.00     0.022 C 
BRANCH  16  17
ATOM     17  C   UNL A   1      33.025  24.126  22.488  1.00  0.00     0.075 C 
BRANCH  17  18
ATOM     18  S   UNL A   1      33.444  25.899  22.264  1.00  0.00    -0.126 SA
BRANCH  18  19
ATOM     19  C   UNL A   1      32.878  26.560  23.815  1.00  0.00     0.007 A 
ATOM     20  C   UNL A   1      31.514  26.624  24.110  1.00  0.00     0.016 A 
ATOM     21  C   UNL A   1      33.812  27.006  24.757  1.00  0.00     0.016 A 
ATOM     22  C   UNL A   1      31.088  27.095  25.355  1.00  0.00     0.021 A 
ATOM     23  C   UNL A   1      33.389  27.451  26.011  1.00  0.00     0.021 A 
ATOM     24  C   UNL A   1      32.028  27.494  26.305  1.00  0.00     0.041 A 
ATOM     25  Cl  UNL A   1      31.509  28.026  27.856  1.00  0.00    -0.084 Cl
ENDBRANCH  18  19
ENDBRANCH  17  18
ENDBRANCH  16  17
ENDBRANCH   8  16
ENDBRANCH   3   6
ENDBRANCH   1   2
BRANCH   1  26
ATOM     26  C   UNL A   1      37.119  19.744  25.049  1.00  0.00     0.042 C 
BRANCH  26  27
ATOM     27  C   UNL A   1      38.429  20.426  25.423  1.00  0.00     0.118 C 
BRANCH  27  28
ATOM     28  N   UNL A   1      39.493  19.459  25.653  1.00  0.00    -0.352 N 
ATOM     29  C   UNL A   1      40.789  19.681  26.026  1.00  0.00     0.251 C 
ATOM     30  H   UNL A   1      39.244  18.515  25.523  1.00  0.00     0.163 HD
ATOM     31  O   UNL A   1      41.634  18.791  25.894  1.00  0.00    -0.269 OA
BRANCH  29  32
ATOM     32  C   UNL A   1      41.176  20.990  26.584  1.00  0.00     0.039 A 
ATOM     33  C   UNL A   1      41.097  21.199  27.962  1.00  0.00     0.014 A 
ATOM     34  C   UNL A   1      41.602  22.016  25.736  1.00  0.00     0.014 A 
ATOM     35  C   UNL A   1      41.490  22.427  28.494  1.00  0.00     0.010 A 
ATOM     36  C   UNL A   1      42.081  23.202  26.274  1.00  0.00     0.010 A 
ATOM     37  C   UNL A   1      42.008  23.427  27.655  1.00  0.00    -0.014 A 
BRANCH  37  38
ATOM     38  C   UNL A   1      42.445  24.736  28.195  1.00  0.00     0.031 A 
ATOM     39  C   UNL A   1      41.437  25.832  28.403  1.00  0.00     0.074 A 
ATOM     40  C   UNL A   1      43.750  24.955  28.434  1.00  0.00     0.049 A 
ATOM     41  N   UNL A   1      41.625  27.059  28.818  1.00  0.00    -0.248 NA
ATOM     42  C   UNL A   1      40.037  25.518  28.073  1.00  0.00     0.031 C 
ATOM     43  C   UNL A   1      44.826  23.983  28.231  1.00  0.00     0.029 A 
ATOM     44  N   UNL A   1      44.393  26.073  28.900  1.00  0.00    -0.354 N 
ATOM     45  C   UNL A   1      40.376  27.665  28.774  1.00  0.00     0.074 A 
ATOM     46  C   UNL A   1      39.451  26.691  28.238  1.00  0.00     0.031 C 
ATOM     47  C   UNL A   1      45.990  24.534  28.609  1.00  0.00     0.029 A 
ATOM     48  C   UNL A   1      45.748  25.906  29.041  1.00  0.00     0.049 A 
ATOM     49  H   UNL A   1      43.928  26.914  29.113  1.00  0.00     0.167 HD
ATOM     50  C   UNL A   1      40.023  28.911  29.166  1.00  0.00     0.031 A 
ATOM     51  C   UNL A   1      46.690  26.765  29.473  1.00  0.00     0.031 A 
ATOM     52  C   UNL A   1      40.946  29.872  29.708  1.00  0.00     0.049 A 
ATOM     53  C   UNL A   1      46.280  28.148  29.893  1.00  0.00     0.074 A 
ATOM     54  C   UNL A   1      40.686  31.141  30.194  1.00  0.00     0.029 A 
ATOM     55  N   UNL A   1      42.312  29.667  29.831  1.00  0.00    -0.354 N 
ATOM     56  N   UNL A   1      45.084  28.685  29.912  1.00  0.00    -0.248 NA
ATOM     57  C   UNL A   1      47.351  29.038  30.360  1.00  0.00     0.031 C 
ATOM     58  C   UNL A   1      41.904  31.723  30.563  1.00  0.00     0.029 A 
ATOM     59  C   UNL A   1      42.914  30.795  30.360  1.00  0.00     0.049 A 
ATOM     60  H   UNL A   1      42.784  28.840  29.579  1.00  0.00     0.167 HD
ATOM     61  C   UNL A   1      45.254  29.967  30.417  1.00  0.00     0.074 A 
ATOM     62  C   UNL A   1      46.666  30.121  30.703  1.00  0.00     0.031 C 
ATOM     63  C   UNL A   1      44.322  30.930  30.628  1.00  0.00     0.031 A 
BRANCH  50  64
ATOM     64  C   UNL A   1      38.579  29.300  29.002  1.00  0.00    -0.014 A 
ATOM     65  C   UNL A   1      38.087  29.782  27.777  1.00  0.00     0.009 A 
ATOM     66  C   UNL A   1      37.698  29.191  30.089  1.00  0.00     0.009 A 
ATOM     67  C   UNL A   1      36.758  30.197  27.660  1.00  0.00     0.001 A 
ATOM     68  C   UNL A   1      36.362  29.575  29.960  1.00  0.00     0.001 A 
ATOM     69  C   UNL A   1      35.897  30.091  28.750  1.00  0.00     0.000 A 
ENDBRANCH  50  64
BRANCH  51  70
ATOM     70  C   UNL A   1      48.104  26.321  29.570  1.00  0.00    -0.014 A 
ATOM     71  C   UNL A   1      48.969  26.479  28.478  1.00  0.00     0.009 A 
ATOM     72  C   UNL A   1      48.603  25.763  30.758  1.00  0.00     0.009 A 
ATOM     73  C   UNL A   1      50.303  26.075  28.566  1.00  0.00     0.001 A 
ATOM     74  C   UNL A   1      49.943  25.383  30.852  1.00  0.00     0.001 A 
ATOM     75  C   UNL A   1      50.790  25.534  29.755  1.00  0.00     0.000 A 
ENDBRANCH  51  70
BRANCH  63  76
ATOM     76  C   UNL A   1      44.801  32.224  31.225  1.00  0.00    -0.014 A 
ATOM     77  C   UNL A   1      44.862  32.406  32.615  1.00  0.00     0.009 A 
ATOM     78  C   UNL A   1      45.235  33.258  30.381  1.00  0.00     0.009 A 
ATOM     79  C   UNL A   1      45.318  33.613  33.148  1.00  0.00     0.001 A 
ATOM     80  C   UNL A   1      45.718  34.452  30.917  1.00  0.00     0.001 A 
ATOM     81  C   UNL A   1      45.751  34.632  32.299  1.00  0.00     0.000 A 
ENDBRANCH  63  76
ENDBRANCH  37  38
ENDBRANCH  29  32
ENDBRANCH  27  28
ENDBRANCH  26  27
ENDBRANCH   1  26
TORSDOF 16
ENDMDL
MODEL 2
REMARK VINA RESULT:     -10.4      0.385      5.944
REMARK SMILES CC[NH2+][C@]1(C(=O)NCCCNC(=O)c2ccc(-c3c4nc(c(-c5ccccc5)c5ccc([nH]5)c(-c5ccccc5)c5nc(c(-c6ccccc6)c6ccc3[nH]6)C=C5)C=C4)cc2)CCC[C@H]1CCSc1ccc(Cl)cc1
REMARK SMILES IDX 8 1 7 2 5 3 6 4 4 6 62 7 65 8 63 9 64 10 3 11 2 14 1 15
REMARK SMILES IDX 66 16 67 17 68 18 69 19 70 20 75 21 71 22 74 23 72 24 73 25
REMARK SMILES IDX 9 26 10 27 11 28 12 29 13 31 14 32 15 33 61 34 16 35 60 36
REMARK SMILES IDX 17 37 18 38 19 39 54 40 20 41 59 42 53 43 55 44 21 45 58 46
REMARK SMILES IDX 52 47 51 48 22 50 44 51 29 52 43 53 30 54 33 55 42 56 56 57
REMARK SMILES IDX 31 58 32 59 41 61 57 62 34 63 23 64 24 65 28 66 25 67 27 68
REMARK SMILES IDX 26 69 45 70 46 71 50 72 47 73 49 74 48 75 35 76 36 77 40 78
REMARK SMILES IDX 37 79 39 80 38 81
REMARK H PARENT 7 5 3 12 3 13 11 30 55 49 33 60
REMARK Flexibility Score: inf
ROOT
ATOM      1  C   UNL A   1      36.398  20.682  24.568  1.00  0.00     0.118 C 
ENDROOT
BRANCH   1   2
ATOM      2  N   UNL A   1      36.167  21.661  25.605  1.00  0.00    -0.351 N 
ATOM      3  C   UNL A   1      35.062  22.282  26.083  1.00  0.00     0.281 C 
ATOM      4  O   UNL A   1      35.350  23.196  26.867  1.00  0.00    -0.268 OA
ATOM      5  H   UNL A   1      36.992  21.936  26.066  1.00  0.00     0.163 HD
BRANCH   3   6
ATOM      6  C   UNL A   1      33.582  21.801  25.845  1.00  0.00     0.178 C 
ATOM      7  C   UNL A   1      32.487  22.429  26.742  1.00  0.00     0.079 C 
ATOM      8  C   UNL A   1      33.060  22.094  24.391  1.00  0.00     0.061 C 
ATOM      9  C   UNL A   1      31.183  22.269  25.973  1.00  0.00     0.008 C 
ATOM     10  C   UNL A   1      31.594  22.573  24.547  1.00  0.00     0.011 C 
BRANCH   6  11
ATOM     11  N   UNL A   1      33.407  20.339  26.178  1.00  0.00    -0.334 N 
ATOM     12  H   UNL A   1      34.209  20.057  26.741  1.00  0.00     0.347 HD
ATOM     13  H   UNL A   1      32.501  20.289  26.646  1.00  0.00     0.347 HD
BRANCH  11  14
ATOM     14  C   UNL A   1      33.300  19.395  25.070  1.00  0.00     0.257 C 
ATOM     15  C   UNL A   1      32.591  18.129  25.538  1.00  0.00     0.071 C 
ENDBRANCH  11  14
ENDBRANCH   6  11
BRANCH   8  16
ATOM     16  C   UNL A   1      33.820  23.107  23.500  1.00  0.00     0.022 C 
BRANCH  16  17
ATOM     17  C   UNL A   1      32.968  23.914  22.511  1.00  0.00     0.075 C 
BRANCH  17  18
ATOM     18  S   UNL A   1      33.471  25.673  22.374  1.00  0.00    -0.126 SA
BRANCH  18  19
ATOM     19  C   UNL A   1      32.940  26.283  23.957  1.00  0.00     0.007 A 
ATOM     20  C   UNL A   1      33.838  26.924  24.814  1.00  0.00     0.016 A 
ATOM     21  C   UNL A   1      31.603  26.134  24.341  1.00  0.00     0.016 A 
ATOM     22  C   UNL A   1      33.392  27.448  26.032  1.00  0.00     0.021 A 
ATOM     23  C   UNL A   1      31.151  26.680  25.544  1.00  0.00     0.021 A 
ATOM     24  C   UNL A   1      32.048  27.335  26.385  1.00  0.00     0.041 A 
ATOM     25  Cl  UNL A   1      31.486  28.022  27.858  1.00  0.00    -0.084 Cl
ENDBRANCH  18  19
ENDBRANCH  17  18
ENDBRANCH  16  17
ENDBRANCH   8  16
ENDBRANCH   3   6
ENDBRANCH   1   2
BRANCH   1  26
ATOM     26  C   UNL A   1      37.476  19.693  24.994  1.00  0.00     0.042 C 
BRANCH  26  27
ATOM     27  C   UNL A   1      38.714  20.381  25.555  1.00  0.00     0.118 C 
BRANCH  27  28
ATOM     28  N   UNL A   1      39.803  19.437  25.769  1.00  0.00    -0.352 N 
ATOM     29  C   UNL A   1      41.104  19.690  26.103  1.00  0.00     0.251 C 
ATOM     30  H   UNL A   1      39.569  18.487  25.660  1.00  0.00     0.163 HD
ATOM     31  O   UNL A   1      41.962  18.814  25.960  1.00  0.00    -0.269 OA
BRANCH  29  32
ATOM     32  C   UNL A   1      41.480  21.014  26.630  1.00  0.00     0.039 A 
ATOM     33  C   UNL A   1      41.979  21.984  25.758  1.00  0.00     0.014 A 
ATOM     34  C   UNL A   1      41.352  21.288  27.995  1.00  0.00     0.014 A 
ATOM     35  C   UNL A   1      42.307  23.246  26.251  1.00  0.00     0.010 A 
ATOM     36  C   UNL A   1      41.590  22.572  28.466  1.00  0.00     0.010 A 
ATOM     37  C   UNL A   1      42.091  23.555  27.603  1.00  0.00    -0.014 A 
BRANCH  37  38
ATOM     38  C   UNL A   1      42.419  24.892  28.150  1.00  0.00     0.031 A 
ATOM     39  C   UNL A   1      43.831  25.204  28.565  1.00  0.00     0.074 A 
ATOM     40  C   UNL A   1      41.439  25.796  28.333  1.00  0.00     0.049 A 
ATOM     41  N   UNL A   1      44.311  26.294  29.109  1.00  0.00    -0.248 NA
ATOM     42  C   UNL A   1      44.829  24.140  28.371  1.00  0.00     0.031 C 
ATOM     43  C   UNL A   1      40.027  25.593  28.008  1.00  0.00     0.029 A 
ATOM     44  N   UNL A   1      41.487  27.070  28.840  1.00  0.00    -0.354 N 
ATOM     45  C   UNL A   1      45.655  26.036  29.342  1.00  0.00     0.074 A 
ATOM     46  C   UNL A   1      45.901  24.670  28.937  1.00  0.00     0.031 C 
ATOM     47  C   UNL A   1      39.349  26.718  28.286  1.00  0.00     0.029 A 
ATOM     48  C   UNL A   1      40.270  27.702  28.845  1.00  0.00     0.049 A 
ATOM     49  H   UNL A   1      42.315  27.489  29.169  1.00  0.00     0.167 HD
ATOM     50  C   UNL A   1      46.606  26.867  29.828  1.00  0.00     0.031 A 
ATOM     51  C   UNL A   1      39.934  28.940  29.252  1.00  0.00     0.031 A 
ATOM     52  C   UNL A   1      46.358  28.228  30.221  1.00  0.00     0.049 A 
ATOM     53  C   UNL A   1      41.003  29.843  29.800  1.00  0.00     0.074 A 
ATOM     54  C   UNL A   1      47.260  29.176  30.668  1.00  0.00     0.029 A 
ATOM     55  N   UNL A   1      45.109  28.831  30.215  1.00  0.00    -0.354 N 
ATOM     56  N   UNL A   1      42.284  29.610  29.950  1.00  0.00    -0.248 NA
ATOM     57  C   UNL A   1      40.577  31.184  30.224  1.00  0.00     0.031 C 
ATOM     58  C   UNL A   1      46.547  30.339  30.983  1.00  0.00     0.029 A 
ATOM     59  C   UNL A   1      45.211  30.132  30.676  1.00  0.00     0.049 A 
ATOM     60  H   UNL A   1      44.274  28.398  29.925  1.00  0.00     0.167 HD
ATOM     61  C   UNL A   1      42.824  30.782  30.462  1.00  0.00     0.074 A 
ATOM     62  C   UNL A   1      41.733  31.728  30.583  1.00  0.00     0.031 C 
ATOM     63  C   UNL A   1      44.110  31.053  30.798  1.00  0.00     0.031 A 
BRANCH  50  64
ATOM     64  C   UNL A   1      47.996  26.308  29.973  1.00  0.00    -0.014 A 
ATOM     65  C   UNL A   1      48.885  26.272  28.885  1.00  0.00     0.009 A 
ATOM     66  C   UNL A   1      48.421  25.803  31.210  1.00  0.00     0.009 A 
ATOM     67  C   UNL A   1      50.149  25.693  29.021  1.00  0.00     0.001 A 
ATOM     68  C   UNL A   1      49.697  25.255  31.353  1.00  0.00     0.001 A 
ATOM     69  C   UNL A   1      50.554  25.188  30.255  1.00  0.00     0.000 A 
ENDBRANCH  50  64
BRANCH  51  70
ATOM     70  C   UNL A   1      38.531  29.407  29.114  1.00  0.00    -0.014 A 
ATOM     71  C   UNL A   1      38.084  29.946  27.899  1.00  0.00     0.009 A 
ATOM     72  C   UNL A   1      37.627  29.294  30.181  1.00  0.00     0.009 A 
ATOM     73  C   UNL A   1      36.763  30.377  27.757  1.00  0.00     0.001 A 
ATOM     74  C   UNL A   1      36.300  29.701  30.030  1.00  0.00     0.001 A 
ATOM     75  C   UNL A   1      35.871  30.247  28.821  1.00  0.00     0.000 A 
ENDBRANCH  51  70
BRANCH  63  76
ATOM     76  C   UNL A   1      44.407  32.438  31.300  1.00  0.00    -0.014 A 
ATOM     77  C   UNL A   1      44.378  32.737  32.671  1.00  0.00     0.009 A 
ATOM     78  C   UNL A   1      44.760  33.445  30.389  1.00  0.00     0.009 A 
ATOM     79  C   UNL A   1      44.666  34.029  33.116  1.00  0.00     0.001 A 
ATOM     80  C   UNL A   1      45.076  34.727  30.840  1.00  0.00     0.001 A 
ATOM     81  C   UNL A   1      45.020  35.021  32.202  1.00  0.00     0.000 A 
ENDBRANCH  63  76
ENDBRANCH  37  38
ENDBRANCH  29  32
ENDBRANCH  27  28
ENDBRANCH  26  27
ENDBRANCH   1  26
TORSDOF 16
ENDMDL
MODEL 3
REMARK VINA RESULT:     -10.3      3.051      7.444
REMARK SMILES CC[NH2+][C@]1(C(=O)NCCCNC(=O)c2ccc(-c3c4nc(c(-c5ccccc5)c5ccc([nH]5)c(-c5ccccc5)c5nc(c(-c6ccccc6)c6ccc3[nH]6)C=C5)C=C4)cc2)CCC[C@H]1CCSc1ccc(Cl)cc1
REMARK SMILES IDX 8 1 7 2 5 3 6 4 4 6 62 7 65 8 63 9 64 10 3 11 2 14 1 15
REMARK SMILES IDX 66 16 67 17 68 18 69 19 70 20 75 21 71 22 74 23 72 24 73 25
REMARK SMILES IDX 9 26 10 27 11 28 12 29 13 31 14 32 15 33 61 34 16 35 60 36
REMARK SMILES IDX 17 37 18 38 19 39 54 40 20 41 59 42 53 43 55 44 21 45 58 46
REMARK SMILES IDX 52 47 51 48 22 50 44 51 29 52 43 53 30 54 33 55 42 56 56 57
REMARK SMILES IDX 31 58 32 59 41 61 57 62 34 63 23 64 24 65 28 66 25 67 27 68
REMARK SMILES IDX 26 69 45 70 46 71 50 72 47 73 49 74 48 75 35 76 36 77 40 78
REMARK SMILES IDX 37 79 39 80 38 81
REMARK H PARENT 7 5 3 12 3 13 11 30 55 49 33 60
REMARK Flexibility Score: inf
ROOT
ATOM      1  C   UNL A   1      31.978  26.664  26.486  1.00  0.00     0.118 C 
ENDROOT
BRANCH   1   2
ATOM      2  N   UNL A   1      30.741  26.559  25.746  1.00  0.00    -0.351 N 
ATOM      3  C   UNL A   1      30.422  26.634  24.431  1.00  0.00     0.281 C 
ATOM      4  O   UNL A   1      29.197  26.667  24.256  1.00  0.00    -0.268 OA
ATOM      5  H   UNL A   1      29.960  26.396  26.322  1.00  0.00     0.163 HD
BRANCH   3   6
ATOM      6  C   UNL A   1      31.448  26.500  23.245  1.00  0.00     0.178 C 
ATOM      7  C   UNL A   1      32.940  26.757  23.574  1.00  0.00     0.079 C 
ATOM      8  C   UNL A   1      31.469  25.066  22.601  1.00  0.00     0.061 C 
ATOM      9  C   UNL A   1      33.730  26.031  22.494  1.00  0.00     0.008 C 
ATOM     10  C   UNL A   1      32.957  24.739  22.323  1.00  0.00     0.011 C 
BRANCH   6  11
ATOM     11  N   UNL A   1      31.217  27.547  22.182  1.00  0.00    -0.334 N 
ATOM     12  H   UNL A   1      31.936  27.421  21.469  1.00  0.00     0.347 HD
ATOM     13  H   UNL A   1      30.258  27.390  21.870  1.00  0.00     0.347 HD
BRANCH  11  14
ATOM     14  C   UNL A   1      31.247  28.949  22.587  1.00  0.00     0.257 C 
ATOM     15  C   UNL A   1      29.934  29.624  22.207  1.00  0.00     0.071 C 
ENDBRANCH  11  14
ENDBRANCH   6  11
BRANCH   8  16
ATOM     16  C   UNL A   1      30.836  23.880  23.368  1.00  0.00     0.022 C 
BRANCH  16  17
ATOM     17  C   UNL A   1      31.808  22.816  23.894  1.00  0.00     0.075 C 
BRANCH  17  18
ATOM     18  S   UNL A   1      32.034  22.865  25.714  1.00  0.00    -0.126 SA
BRANCH  18  19
ATOM     19  C   UNL A   1      33.809  22.832  25.818  1.00  0.00     0.007 A 
ATOM     20  C   UNL A   1      34.500  21.619  25.872  1.00  0.00     0.016 A 
ATOM     21  C   UNL A   1      34.522  24.036  25.829  1.00  0.00     0.016 A 
ATOM     22  C   UNL A   1      35.898  21.609  25.897  1.00  0.00     0.021 A 
ATOM     23  C   UNL A   1      35.918  24.028  25.826  1.00  0.00     0.021 A 
ATOM     24  C   UNL A   1      36.600  22.813  25.861  1.00  0.00     0.041 A 
ATOM     25  Cl  UNL A   1      38.320  22.804  25.840  1.00  0.00    -0.084 Cl
ENDBRANCH  18  19
ENDBRANCH  17  18
ENDBRANCH  16  17
ENDBRANCH   8  16
ENDBRANCH   3   6
ENDBRANCH   1   2
BRANCH   1  26
ATOM     26  C   UNL A   1      32.012  27.955  27.294  1.00  0.00     0.042 C 
BRANCH  26  27
ATOM     27  C   UNL A   1      33.413  28.544  27.399  1.00  0.00     0.118 C 
BRANCH  27  28
ATOM     28  N   UNL A   1      33.388  30.000  27.381  1.00  0.00    -0.352 N 
ATOM     29  C   UNL A   1      34.279  30.880  27.929  1.00  0.00     0.251 C 
ATOM     30  H   UNL A   1      32.624  30.405  26.909  1.00  0.00     0.163 HD
ATOM     31  O   UNL A   1      33.965  32.064  28.081  1.00  0.00    -0.269 OA
BRANCH  29  32
ATOM     32  C   UNL A   1      35.613  30.409  28.341  1.00  0.00     0.039 A 
ATOM     33  C   UNL A   1      35.778  29.826  29.598  1.00  0.00     0.014 A 
ATOM     34  C   UNL A   1      36.706  30.562  27.483  1.00  0.00     0.014 A 
ATOM     35  C   UNL A   1      37.034  29.353  29.977  1.00  0.00     0.010 A 
ATOM     36  C   UNL A   1      37.933  30.007  27.822  1.00  0.00     0.010 A 
ATOM     37  C   UNL A   1      38.113  29.419  29.081  1.00  0.00    -0.014 A 
BRANCH  37  38
ATOM     38  C   UNL A   1      39.455  28.914  29.453  1.00  0.00     0.031 A 
ATOM     39  C   UNL A   1      40.362  29.758  30.304  1.00  0.00     0.074 A 
ATOM     40  C   UNL A   1      39.878  27.730  28.971  1.00  0.00     0.049 A 
ATOM     41  N   UNL A   1      41.588  29.517  30.697  1.00  0.00    -0.248 NA
ATOM     42  C   UNL A   1      39.834  31.058  30.749  1.00  0.00     0.031 C 
ATOM     43  C   UNL A   1      39.104  26.842  28.102  1.00  0.00     0.029 A 
ATOM     44  N   UNL A   1      41.069  27.073  29.148  1.00  0.00    -0.354 N 
ATOM     45  C   UNL A   1      41.981  30.642  31.410  1.00  0.00     0.074 A 
ATOM     46  C   UNL A   1      40.889  31.588  31.347  1.00  0.00     0.031 C 
ATOM     47  C   UNL A   1      39.825  25.737  27.854  1.00  0.00     0.029 A 
ATOM     48  C   UNL A   1      41.122  25.859  28.511  1.00  0.00     0.049 A 
ATOM     49  H   UNL A   1      41.813  27.437  29.678  1.00  0.00     0.167 HD
ATOM     50  C   UNL A   1      43.137  30.861  32.079  1.00  0.00     0.031 A 
ATOM     51  C   UNL A   1      42.107  24.943  28.465  1.00  0.00     0.031 A 
ATOM     52  C   UNL A   1      44.216  29.913  32.147  1.00  0.00     0.049 A 
ATOM     53  C   UNL A   1      43.388  25.211  29.204  1.00  0.00     0.074 A 
ATOM     54  C   UNL A   1      45.406  30.008  32.846  1.00  0.00     0.029 A 
ATOM     55  N   UNL A   1      44.234  28.695  31.485  1.00  0.00    -0.354 N 
ATOM     56  N   UNL A   1      43.720  26.249  29.932  1.00  0.00    -0.248 NA
ATOM     57  C   UNL A   1      44.425  24.173  29.121  1.00  0.00     0.031 C 
ATOM     58  C   UNL A   1      46.167  28.867  32.564  1.00  0.00     0.029 A 
ATOM     59  C   UNL A   1      45.426  28.038  31.737  1.00  0.00     0.049 A 
ATOM     60  H   UNL A   1      43.506  28.349  30.919  1.00  0.00     0.167 HD
ATOM     61  C   UNL A   1      44.992  25.980  30.416  1.00  0.00     0.074 A 
ATOM     62  C   UNL A   1      45.366  24.675  29.909  1.00  0.00     0.031 C 
ATOM     63  C   UNL A   1      45.781  26.744  31.213  1.00  0.00     0.031 A 
BRANCH  50  64
ATOM     64  C   UNL A   1      43.288  32.189  32.771  1.00  0.00    -0.014 A 
ATOM     65  C   UNL A   1      43.009  32.333  34.141  1.00  0.00     0.009 A 
ATOM     66  C   UNL A   1      43.706  33.313  32.044  1.00  0.00     0.009 A 
ATOM     67  C   UNL A   1      43.094  33.586  34.754  1.00  0.00     0.001 A 
ATOM     68  C   UNL A   1      43.822  34.558  32.666  1.00  0.00     0.001 A 
ATOM     69  C   UNL A   1      43.502  34.695  34.017  1.00  0.00     0.000 A 
ENDBRANCH  50  64
BRANCH  51  70
ATOM     70  C   UNL A   1      41.899  23.671  27.727  1.00  0.00    -0.014 A 
ATOM     71  C   UNL A   1      42.294  23.562  26.385  1.00  0.00     0.009 A 
ATOM     72  C   UNL A   1      41.332  22.555  28.361  1.00  0.00     0.009 A 
ATOM     73  C   UNL A   1      42.112  22.366  25.688  1.00  0.00     0.001 A 
ATOM     74  C   UNL A   1      41.174  21.352  27.670  1.00  0.00     0.001 A 
ATOM     75  C   UNL A   1      41.559  21.261  26.333  1.00  0.00     0.000 A 
ENDBRANCH  51  70
BRANCH  63  76
ATOM     76  C   UNL A   1      47.113  26.170  31.608  1.00  0.00    -0.014 A 
ATOM     77  C   UNL A   1      48.238  26.306  30.780  1.00  0.00     0.009 A 
ATOM     78  C   UNL A   1      47.249  25.520  32.844  1.00  0.00     0.009 A 
ATOM     79  C   UNL A   1      49.468  25.772  31.170  1.00  0.00     0.001 A 
ATOM     80  C   UNL A   1      48.486  25.014  33.244  1.00  0.00     0.001 A 
ATOM     81  C   UNL A   1      49.592  25.132  32.403  1.00  0.00     0.000 A 
ENDBRANCH  63  76
ENDBRANCH  37  38
ENDBRANCH  29  32
ENDBRANCH  27  28
ENDBRANCH  26  27
ENDBRANCH   1  26
TORSDOF 16
ENDMDL
