MODEL 1
REMARK VINA RESULT:     -12.4      0.000      0.000
REMARK SMILES C[N@H+]1CCO[C@H](c2noc(-c3ccccc3C(=O)NCCCNC(=O)c3ccc(-c4c5nc(c(-c6ccccc6)c6ccc([nH]6)c(-c6ccccc6)c6nc(c(-c7ccccc7)c7ccc4[nH]7)C=C6)C=C5)cc3)n2)C1
REMARK SMILES IDX 21 1 20 2 19 3 17 4 18 5 16 7 11 8 12 9 13 10 15 11 14 12
REMARK SMILES IDX 10 13 7 14 8 15 74 16 9 17 6 18 1 19 2 20 3 21 75 22 4 24
REMARK SMILES IDX 5 25 22 26 23 27 24 28 25 30 26 31 27 32 73 33 28 34 72 35
REMARK SMILES IDX 29 36 30 37 31 38 66 39 32 40 71 41 65 42 67 43 33 44 70 45
REMARK SMILES IDX 64 46 63 47 34 49 56 50 41 51 55 52 42 53 45 54 54 55 68 56
REMARK SMILES IDX 43 57 44 58 53 60 69 61 46 62 35 63 36 64 40 65 37 66 39 67
REMARK SMILES IDX 38 68 57 69 58 70 62 71 59 72 61 73 60 74 47 75 48 76 52 77
REMARK SMILES IDX 49 78 51 79 50 80
REMARK H PARENT 19 6 2 23 23 29 67 48 45 59
REMARK Flexibility Score: inf
ROOT
ATOM      1  C   UNL A   1      32.172  29.617  27.209  1.00  0.00     0.042 C 
ENDROOT
BRANCH   1   2
ATOM      2  C   UNL A   1      32.118  28.193  27.750  1.00  0.00     0.118 C 
BRANCH   2   3
ATOM      3  N   UNL A   1      31.043  27.367  27.242  1.00  0.00    -0.352 N 
ATOM      4  C   UNL A   1      31.072  26.204  26.515  1.00  0.00     0.252 C 
ATOM      5  O   UNL A   1      30.016  25.593  26.343  1.00  0.00    -0.269 OA
ATOM      6  H   UNL A   1      30.138  27.695  27.451  1.00  0.00     0.163 HD
BRANCH   4   7
ATOM      7  C   UNL A   1      32.279  25.727  25.794  1.00  0.00     0.052 A 
ATOM      8  C   UNL A   1      32.855  26.298  24.647  1.00  0.00     0.053 A 
ATOM      9  C   UNL A   1      34.021  25.693  24.120  1.00  0.00     0.015 A 
ATOM     10  C   UNL A   1      34.607  24.574  24.716  1.00  0.00     0.001 A 
ATOM     11  C   UNL A   1      32.896  24.610  26.401  1.00  0.00     0.014 A 
ATOM     12  C   UNL A   1      34.046  24.034  25.863  1.00  0.00     0.001 A 
BRANCH   8  13
ATOM     13  C   UNL A   1      32.318  27.457  23.943  1.00  0.00     0.258 A 
ATOM     14  C   UNL A   1      31.265  28.994  22.963  1.00  0.00     0.206 A 
ATOM     15  N   UNL A   1      32.451  28.987  22.339  1.00  0.00    -0.059 NA
ATOM     16  N   UNL A   1      31.150  28.061  23.978  1.00  0.00    -0.189 NA
ATOM     17  O   UNL A   1      33.148  27.972  22.980  1.00  0.00    -0.334 OA
BRANCH  14  18
ATOM     18  C   UNL A   1      30.187  29.962  22.561  1.00  0.00     0.245 C 
ATOM     19  C   UNL A   1      28.903  32.807  22.926  1.00  0.00     0.332 C 
ATOM     20  N   UNL A   1      28.385  31.543  23.444  1.00  0.00    -0.333 N 
ATOM     21  C   UNL A   1      27.483  30.887  22.477  1.00  0.00     0.290 C 
ATOM     22  C   UNL A   1      29.471  30.588  23.785  1.00  0.00     0.303 C 
ATOM     23  H   UNL A   1      27.871  31.784  24.291  1.00  0.00     0.348 HD
ATOM     24  C   UNL A   1      28.224  30.294  21.271  1.00  0.00     0.222 C 
ATOM     25  O   UNL A   1      29.220  29.343  21.674  1.00  0.00    -0.358 OA
ENDBRANCH  14  18
ENDBRANCH   8  13
ENDBRANCH   4   7
ENDBRANCH   2   3
ENDBRANCH   1   2
BRANCH   1  26
ATOM     26  C   UNL A   1      33.558  30.200  26.958  1.00  0.00     0.118 C 
BRANCH  26  27
ATOM     27  N   UNL A   1      33.977  31.163  27.954  1.00  0.00    -0.352 N 
ATOM     28  C   UNL A   1      35.012  31.146  28.846  1.00  0.00     0.251 C 
ATOM     29  H   UNL A   1      33.418  31.973  27.996  1.00  0.00     0.163 HD
ATOM     30  O   UNL A   1      35.011  31.951  29.774  1.00  0.00    -0.269 OA
BRANCH  28  31
ATOM     31  C   UNL A   1      36.157  30.221  28.718  1.00  0.00     0.039 A 
ATOM     32  C   UNL A   1      36.524  29.492  29.852  1.00  0.00     0.014 A 
ATOM     33  C   UNL A   1      37.009  30.247  27.615  1.00  0.00     0.014 A 
ATOM     34  C   UNL A   1      37.771  28.872  29.935  1.00  0.00     0.010 A 
ATOM     35  C   UNL A   1      38.227  29.560  27.666  1.00  0.00     0.010 A 
ATOM     36  C   UNL A   1      38.645  28.912  28.844  1.00  0.00    -0.014 A 
BRANCH  36  37
ATOM     37  C   UNL A   1      40.032  28.380  28.937  1.00  0.00     0.031 A 
ATOM     38  C   UNL A   1      41.157  29.321  29.282  1.00  0.00     0.074 A 
ATOM     39  C   UNL A   1      40.305  27.087  28.676  1.00  0.00     0.049 A 
ATOM     40  N   UNL A   1      42.442  29.184  29.089  1.00  0.00    -0.248 NA
ATOM     41  C   UNL A   1      40.773  30.603  29.896  1.00  0.00     0.031 C 
ATOM     42  C   UNL A   1      39.319  26.044  28.393  1.00  0.00     0.029 A 
ATOM     43  N   UNL A   1      41.512  26.438  28.586  1.00  0.00    -0.354 N 
ATOM     44  C   UNL A   1      43.009  30.399  29.458  1.00  0.00     0.074 A 
ATOM     45  C   UNL A   1      41.930  31.248  29.918  1.00  0.00     0.031 C 
ATOM     46  C   UNL A   1      39.958  24.887  28.161  1.00  0.00     0.029 A 
ATOM     47  C   UNL A   1      41.397  25.127  28.196  1.00  0.00     0.049 A 
ATOM     48  H   UNL A   1      42.375  26.870  28.782  1.00  0.00     0.167 HD
ATOM     49  C   UNL A   1      44.308  30.777  29.390  1.00  0.00     0.031 A 
ATOM     50  C   UNL A   1      42.339  24.231  27.845  1.00  0.00     0.031 A 
ATOM     51  C   UNL A   1      45.381  29.898  29.005  1.00  0.00     0.049 A 
ATOM     52  C   UNL A   1      43.780  24.652  27.828  1.00  0.00     0.074 A 
ATOM     53  C   UNL A   1      46.736  30.166  28.927  1.00  0.00     0.029 A 
ATOM     54  N   UNL A   1      45.216  28.563  28.667  1.00  0.00    -0.354 N 
ATOM     55  N   UNL A   1      44.299  25.829  28.089  1.00  0.00    -0.248 NA
ATOM     56  C   UNL A   1      44.763  23.628  27.454  1.00  0.00     0.031 C 
ATOM     57  C   UNL A   1      47.391  28.997  28.520  1.00  0.00     0.029 A 
ATOM     58  C   UNL A   1      46.445  27.994  28.383  1.00  0.00     0.049 A 
ATOM     59  H   UNL A   1      44.354  28.091  28.634  1.00  0.00     0.167 HD
ATOM     60  C   UNL A   1      45.668  25.684  27.911  1.00  0.00     0.074 A 
ATOM     61  C   UNL A   1      45.901  24.301  27.550  1.00  0.00     0.031 C 
ATOM     62  C   UNL A   1      46.647  26.616  28.023  1.00  0.00     0.031 A 
BRANCH  49  63
ATOM     63  C   UNL A   1      44.633  32.216  29.679  1.00  0.00    -0.014 A 
ATOM     64  C   UNL A   1      44.903  32.673  30.977  1.00  0.00     0.009 A 
ATOM     65  C   UNL A   1      44.699  33.128  28.611  1.00  0.00     0.009 A 
ATOM     66  C   UNL A   1      45.198  34.021  31.203  1.00  0.00     0.001 A 
ATOM     67  C   UNL A   1      45.019  34.467  28.836  1.00  0.00     0.001 A 
ATOM     68  C   UNL A   1      45.260  34.915  30.134  1.00  0.00     0.000 A 
ENDBRANCH  49  63
BRANCH  50  69
ATOM     69  C   UNL A   1      41.939  22.865  27.420  1.00  0.00    -0.014 A 
ATOM     70  C   UNL A   1      41.647  21.879  28.371  1.00  0.00     0.009 A 
ATOM     71  C   UNL A   1      41.831  22.549  26.056  1.00  0.00     0.009 A 
ATOM     72  C   UNL A   1      41.267  20.597  27.965  1.00  0.00     0.001 A 
ATOM     73  C   UNL A   1      41.424  21.276  25.653  1.00  0.00     0.001 A 
ATOM     74  C   UNL A   1      41.148  20.299  26.609  1.00  0.00     0.000 A 
ENDBRANCH  50  69
BRANCH  62  75
ATOM     75  C   UNL A   1      48.050  26.149  27.776  1.00  0.00    -0.014 A 
ATOM     76  C   UNL A   1      48.634  26.257  26.504  1.00  0.00     0.009 A 
ATOM     77  C   UNL A   1      48.797  25.601  28.829  1.00  0.00     0.009 A 
ATOM     78  C   UNL A   1      49.930  25.791  26.285  1.00  0.00     0.001 A 
ATOM     79  C   UNL A   1      50.100  25.155  28.611  1.00  0.00     0.001 A 
ATOM     80  C   UNL A   1      50.662  25.242  27.337  1.00  0.00     0.000 A 
ENDBRANCH  62  75
ENDBRANCH  36  37
ENDBRANCH  28  31
ENDBRANCH  26  27
ENDBRANCH   1  26
TORSDOF 12
ENDMDL
MODEL 2
REMARK VINA RESULT:     -12.2      1.469      4.074
REMARK SMILES C[N@H+]1CCO[C@H](c2noc(-c3ccccc3C(=O)NCCCNC(=O)c3ccc(-c4c5nc(c(-c6ccccc6)c6ccc([nH]6)c(-c6ccccc6)c6nc(c(-c7ccccc7)c7ccc4[nH]7)C=C6)C=C5)cc3)n2)C1
REMARK SMILES IDX 21 1 20 2 19 3 17 4 18 5 16 7 11 8 12 9 13 10 15 11 14 12
REMARK SMILES IDX 10 13 7 14 8 15 74 16 9 17 6 18 1 19 2 20 3 21 75 22 4 24
REMARK SMILES IDX 5 25 22 26 23 27 24 28 25 30 26 31 27 32 73 33 28 34 72 35
REMARK SMILES IDX 29 36 30 37 31 38 66 39 32 40 71 41 65 42 67 43 33 44 70 45
REMARK SMILES IDX 64 46 63 47 34 49 56 50 41 51 55 52 42 53 45 54 54 55 68 56
REMARK SMILES IDX 43 57 44 58 53 60 69 61 46 62 35 63 36 64 40 65 37 66 39 67
REMARK SMILES IDX 38 68 57 69 58 70 62 71 59 72 61 73 60 74 47 75 48 76 52 77
REMARK SMILES IDX 49 78 51 79 50 80
REMARK H PARENT 19 6 2 23 23 29 67 48 45 59
REMARK Flexibility Score: inf
ROOT
ATOM      1  C   UNL A   1      32.022  30.102  27.096  1.00  0.00     0.042 C 
ENDROOT
BRANCH   1   2
ATOM      2  C   UNL A   1      31.529  30.415  25.688  1.00  0.00     0.118 C 
BRANCH   2   3
ATOM      3  N   UNL A   1      32.191  29.702  24.616  1.00  0.00    -0.352 N 
ATOM      4  C   UNL A   1      31.678  29.028  23.537  1.00  0.00     0.252 C 
ATOM      5  O   UNL A   1      32.456  28.642  22.663  1.00  0.00    -0.269 OA
ATOM      6  H   UNL A   1      33.174  29.698  24.671  1.00  0.00     0.163 HD
BRANCH   4   7
ATOM      7  C   UNL A   1      30.258  28.603  23.444  1.00  0.00     0.052 A 
ATOM      8  C   UNL A   1      29.703  27.409  23.933  1.00  0.00     0.053 A 
ATOM      9  C   UNL A   1      28.315  27.202  23.753  1.00  0.00     0.015 A 
ATOM     10  C   UNL A   1      27.501  28.149  23.126  1.00  0.00     0.001 A 
ATOM     11  C   UNL A   1      29.419  29.563  22.835  1.00  0.00     0.014 A 
ATOM     12  C   UNL A   1      28.054  29.336  22.671  1.00  0.00     0.001 A 
BRANCH   8  13
ATOM     13  C   UNL A   1      30.464  26.353  24.591  1.00  0.00     0.258 A 
ATOM     14  C   UNL A   1      31.521  24.666  25.277  1.00  0.00     0.206 A 
ATOM     15  N   UNL A   1      30.971  25.163  26.396  1.00  0.00    -0.059 NA
ATOM     16  N   UNL A   1      31.235  25.391  24.134  1.00  0.00    -0.189 NA
ATOM     17  O   UNL A   1      30.271  26.273  25.946  1.00  0.00    -0.334 OA
BRANCH  14  18
ATOM     18  C   UNL A   1      32.374  23.430  25.319  1.00  0.00     0.245 C 
ATOM     19  C   UNL A   1      32.583  20.332  24.836  1.00  0.00     0.332 C 
ATOM     20  N   UNL A   1      32.478  21.008  26.126  1.00  0.00    -0.333 N 
ATOM     21  C   UNL A   1      33.806  21.356  26.669  1.00  0.00     0.290 C 
ATOM     22  C   UNL A   1      31.672  22.254  26.044  1.00  0.00     0.303 C 
ATOM     23  H   UNL A   1      32.012  20.346  26.746  1.00  0.00     0.348 HD
ATOM     24  C   UNL A   1      34.479  22.512  25.916  1.00  0.00     0.222 C 
ATOM     25  O   UNL A   1      33.666  23.695  25.923  1.00  0.00    -0.358 OA
ENDBRANCH  14  18
ENDBRANCH   8  13
ENDBRANCH   4   7
ENDBRANCH   2   3
ENDBRANCH   1   2
BRANCH   1  26
ATOM     26  C   UNL A   1      33.533  30.060  27.296  1.00  0.00     0.118 C 
BRANCH  26  27
ATOM     27  N   UNL A   1      34.043  31.127  28.131  1.00  0.00    -0.352 N 
ATOM     28  C   UNL A   1      35.151  31.199  28.927  1.00  0.00     0.251 C 
ATOM     29  H   UNL A   1      33.496  31.945  28.124  1.00  0.00     0.163 HD
ATOM     30  O   UNL A   1      35.236  32.108  29.748  1.00  0.00    -0.269 OA
BRANCH  28  31
ATOM     31  C   UNL A   1      36.276  30.246  28.813  1.00  0.00     0.039 A 
ATOM     32  C   UNL A   1      36.727  29.641  29.989  1.00  0.00     0.014 A 
ATOM     33  C   UNL A   1      37.036  30.135  27.650  1.00  0.00     0.014 A 
ATOM     34  C   UNL A   1      37.972  29.014  30.042  1.00  0.00     0.010 A 
ATOM     35  C   UNL A   1      38.249  29.438  27.682  1.00  0.00     0.010 A 
ATOM     36  C   UNL A   1      38.755  28.918  28.888  1.00  0.00    -0.014 A 
BRANCH  36  37
ATOM     37  C   UNL A   1      40.141  28.376  28.929  1.00  0.00     0.031 A 
ATOM     38  C   UNL A   1      41.287  29.314  29.210  1.00  0.00     0.074 A 
ATOM     39  C   UNL A   1      40.394  27.078  28.679  1.00  0.00     0.049 A 
ATOM     40  N   UNL A   1      42.562  29.164  28.964  1.00  0.00    -0.248 NA
ATOM     41  C   UNL A   1      40.939  30.609  29.818  1.00  0.00     0.031 C 
ATOM     42  C   UNL A   1      39.389  26.038  28.456  1.00  0.00     0.029 A 
ATOM     43  N   UNL A   1      41.590  26.418  28.548  1.00  0.00    -0.354 N 
ATOM     44  C   UNL A   1      43.152  30.381  29.288  1.00  0.00     0.074 A 
ATOM     45  C   UNL A   1      42.101  31.245  29.780  1.00  0.00     0.031 C 
ATOM     46  C   UNL A   1      40.009  24.873  28.215  1.00  0.00     0.029 A 
ATOM     47  C   UNL A   1      41.449  25.101  28.184  1.00  0.00     0.049 A 
ATOM     48  H   UNL A   1      42.464  26.846  28.699  1.00  0.00     0.167 HD
ATOM     49  C   UNL A   1      44.450  30.747  29.157  1.00  0.00     0.031 A 
ATOM     50  C   UNL A   1      42.369  24.193  27.808  1.00  0.00     0.031 A 
ATOM     51  C   UNL A   1      45.499  29.853  28.742  1.00  0.00     0.049 A 
ATOM     52  C   UNL A   1      43.811  24.602  27.722  1.00  0.00     0.074 A 
ATOM     53  C   UNL A   1      46.852  30.109  28.601  1.00  0.00     0.029 A 
ATOM     54  N   UNL A   1      45.310  28.515  28.433  1.00  0.00    -0.354 N 
ATOM     55  N   UNL A   1      44.349  25.778  27.940  1.00  0.00    -0.248 NA
ATOM     56  C   UNL A   1      44.770  23.564  27.322  1.00  0.00     0.031 C 
ATOM     57  C   UNL A   1      47.479  28.928  28.186  1.00  0.00     0.029 A 
ATOM     58  C   UNL A   1      46.521  27.931  28.106  1.00  0.00     0.049 A 
ATOM     59  H   UNL A   1      44.444  28.049  28.445  1.00  0.00     0.167 HD
ATOM     60  C   UNL A   1      45.708  25.620  27.706  1.00  0.00     0.074 A 
ATOM     61  C   UNL A   1      45.915  24.230  27.358  1.00  0.00     0.031 C 
ATOM     62  C   UNL A   1      46.697  26.545  27.760  1.00  0.00     0.031 A 
BRANCH  49  63
ATOM     63  C   UNL A   1      44.798  32.187  29.409  1.00  0.00    -0.014 A 
ATOM     64  C   UNL A   1      44.712  33.161  28.404  1.00  0.00     0.009 A 
ATOM     65  C   UNL A   1      45.193  32.578  30.700  1.00  0.00     0.009 A 
ATOM     66  C   UNL A   1      45.048  34.491  28.679  1.00  0.00     0.001 A 
ATOM     67  C   UNL A   1      45.503  33.909  30.979  1.00  0.00     0.001 A 
ATOM     68  C   UNL A   1      45.439  34.864  29.966  1.00  0.00     0.000 A 
ENDBRANCH  49  63
BRANCH  50  69
ATOM     69  C   UNL A   1      41.941  22.823  27.423  1.00  0.00    -0.014 A 
ATOM     70  C   UNL A   1      41.924  21.789  28.368  1.00  0.00     0.009 A 
ATOM     71  C   UNL A   1      41.529  22.551  26.108  1.00  0.00     0.009 A 
ATOM     72  C   UNL A   1      41.516  20.504  28.001  1.00  0.00     0.001 A 
ATOM     73  C   UNL A   1      41.096  21.272  25.751  1.00  0.00     0.001 A 
ATOM     74  C   UNL A   1      41.096  20.249  26.697  1.00  0.00     0.000 A 
ENDBRANCH  50  69
BRANCH  62  75
ATOM     75  C   UNL A   1      48.085  26.064  27.460  1.00  0.00    -0.014 A 
ATOM     76  C   UNL A   1      48.876  25.471  28.456  1.00  0.00     0.009 A 
ATOM     77  C   UNL A   1      48.603  26.201  26.164  1.00  0.00     0.009 A 
ATOM     78  C   UNL A   1      50.177  25.057  28.166  1.00  0.00     0.001 A 
ATOM     79  C   UNL A   1      49.896  25.766  25.872  1.00  0.00     0.001 A 
ATOM     80  C   UNL A   1      50.684  25.203  26.876  1.00  0.00     0.000 A 
ENDBRANCH  62  75
ENDBRANCH  36  37
ENDBRANCH  28  31
ENDBRANCH  26  27
ENDBRANCH   1  26
TORSDOF 12
ENDMDL
MODEL 3
REMARK VINA RESULT:     -12.1      4.858      9.717
REMARK SMILES C[N@H+]1CCO[C@H](c2noc(-c3ccccc3C(=O)NCCCNC(=O)c3ccc(-c4c5nc(c(-c6ccccc6)c6ccc([nH]6)c(-c6ccccc6)c6nc(c(-c7ccccc7)c7ccc4[nH]7)C=C6)C=C5)cc3)n2)C1
REMARK SMILES IDX 21 1 20 2 19 3 17 4 18 5 16 7 11 8 12 9 13 10 15 11 14 12
REMARK SMILES IDX 10 13 7 14 8 15 74 16 9 17 6 18 1 19 2 20 3 21 75 22 4 24
REMARK SMILES IDX 5 25 22 26 23 27 24 28 25 30 26 31 27 32 73 33 28 34 72 35
REMARK SMILES IDX 29 36 30 37 31 38 66 39 32 40 71 41 65 42 67 43 33 44 70 45
REMARK SMILES IDX 64 46 63 47 34 49 56 50 41 51 55 52 42 53 45 54 54 55 68 56
REMARK SMILES IDX 43 57 44 58 53 60 69 61 46 62 35 63 36 64 40 65 37 66 39 67
REMARK SMILES IDX 38 68 57 69 58 70 62 71 59 72 61 73 60 74 47 75 48 76 52 77
REMARK SMILES IDX 49 78 51 79 50 80
REMARK H PARENT 19 6 2 23 23 29 67 48 45 59
REMARK Flexibility Score: inf
ROOT
ATOM      1  C   UNL A   1      36.702  21.824  25.790  1.00  0.00     0.042 C 
ENDROOT
BRANCH   1   2
ATOM      2  C   UNL A   1      35.285  22.382  25.721  1.00  0.00     0.118 C 
BRANCH   2   3
ATOM      3  N   UNL A   1      34.555  22.402  26.972  1.00  0.00    -0.352 N 
ATOM      4  C   UNL A   1      33.243  22.700  27.240  1.00  0.00     0.252 C 
ATOM      5  O   UNL A   1      32.812  22.480  28.373  1.00  0.00    -0.269 OA
ATOM      6  H   UNL A   1      35.089  22.162  27.763  1.00  0.00     0.163 HD
BRANCH   4   7
ATOM      7  C   UNL A   1      32.362  23.419  26.285  1.00  0.00     0.052 A 
ATOM      8  C   UNL A   1      31.770  22.892  25.125  1.00  0.00     0.053 A 
ATOM      9  C   UNL A   1      30.948  23.747  24.355  1.00  0.00     0.015 A 
ATOM     10  C   UNL A   1      30.705  25.072  24.726  1.00  0.00     0.001 A 
ATOM     11  C   UNL A   1      32.088  24.753  26.663  1.00  0.00     0.014 A 
ATOM     12  C   UNL A   1      31.272  25.574  25.887  1.00  0.00     0.001 A 
BRANCH   8  13
ATOM     13  C   UNL A   1      31.967  21.529  24.644  1.00  0.00     0.258 A 
ATOM     14  C   UNL A   1      32.434  19.525  24.199  1.00  0.00     0.206 A 
ATOM     15  N   UNL A   1      32.274  20.081  22.989  1.00  0.00    -0.059 NA
ATOM     16  N   UNL A   1      32.239  20.397  25.255  1.00  0.00    -0.189 NA
ATOM     17  O   UNL A   1      31.969  21.404  23.279  1.00  0.00    -0.334 OA
BRANCH  14  18
ATOM     18  C   UNL A   1      32.788  18.072  24.340  1.00  0.00     0.245 C 
ATOM     19  C   UNL A   1      32.216  15.326  25.758  1.00  0.00     0.332 C 
ATOM     20  N   UNL A   1      33.338  16.225  26.017  1.00  0.00    -0.333 N 
ATOM     21  C   UNL A   1      34.491  15.921  25.145  1.00  0.00     0.290 C 
ATOM     22  C   UNL A   1      32.974  17.651  25.821  1.00  0.00     0.303 C 
ATOM     23  H   UNL A   1      33.592  16.073  26.993  1.00  0.00     0.348 HD
ATOM     24  C   UNL A   1      34.266  16.334  23.685  1.00  0.00     0.222 C 
ATOM     25  O   UNL A   1      33.969  17.734  23.568  1.00  0.00    -0.358 OA
ENDBRANCH  14  18
ENDBRANCH   8  13
ENDBRANCH   4   7
ENDBRANCH   2   3
ENDBRANCH   1   2
BRANCH   1  26
ATOM     26  C   UNL A   1      37.813  22.710  25.239  1.00  0.00     0.118 C 
BRANCH  26  27
ATOM     27  N   UNL A   1      39.132  22.370  25.730  1.00  0.00    -0.352 N 
ATOM     28  C   UNL A   1      40.100  23.133  26.319  1.00  0.00     0.251 C 
ATOM     29  H   UNL A   1      39.374  21.422  25.619  1.00  0.00     0.163 HD
ATOM     30  O   UNL A   1      41.240  22.684  26.406  1.00  0.00    -0.269 OA
BRANCH  28  31
ATOM     31  C   UNL A   1      39.822  24.466  26.893  1.00  0.00     0.039 A 
ATOM     32  C   UNL A   1      40.462  25.563  26.310  1.00  0.00     0.014 A 
ATOM     33  C   UNL A   1      39.169  24.624  28.114  1.00  0.00     0.014 A 
ATOM     34  C   UNL A   1      40.542  26.785  26.976  1.00  0.00     0.010 A 
ATOM     35  C   UNL A   1      39.180  25.871  28.748  1.00  0.00     0.010 A 
ATOM     36  C   UNL A   1      39.911  26.949  28.213  1.00  0.00    -0.014 A 
BRANCH  36  37
ATOM     37  C   UNL A   1      40.082  28.191  29.017  1.00  0.00     0.031 A 
ATOM     38  C   UNL A   1      41.227  28.282  29.991  1.00  0.00     0.074 A 
ATOM     39  C   UNL A   1      39.210  29.212  28.921  1.00  0.00     0.049 A 
ATOM     40  N   UNL A   1      41.384  29.078  31.016  1.00  0.00    -0.248 NA
ATOM     41  C   UNL A   1      42.327  27.321  29.801  1.00  0.00     0.031 C 
ATOM     42  C   UNL A   1      38.093  29.298  27.981  1.00  0.00     0.029 A 
ATOM     43  N   UNL A   1      39.120  30.371  29.652  1.00  0.00    -0.354 N 
ATOM     44  C   UNL A   1      42.541  28.646  31.654  1.00  0.00     0.074 A 
ATOM     45  C   UNL A   1      43.065  27.541  30.880  1.00  0.00     0.031 C 
ATOM     46  C   UNL A   1      37.429  30.446  28.191  1.00  0.00     0.029 A 
ATOM     47  C   UNL A   1      38.024  31.133  29.332  1.00  0.00     0.049 A 
ATOM     48  H   UNL A   1      39.777  30.631  30.338  1.00  0.00     0.167 HD
ATOM     49  C   UNL A   1      43.097  29.114  32.797  1.00  0.00     0.031 A 
ATOM     50  C   UNL A   1      37.515  32.229  29.926  1.00  0.00     0.031 A 
ATOM     51  C   UNL A   1      42.611  30.265  33.514  1.00  0.00     0.049 A 
ATOM     52  C   UNL A   1      38.176  32.767  31.162  1.00  0.00     0.074 A 
ATOM     53  C   UNL A   1      43.112  30.843  34.667  1.00  0.00     0.029 A 
ATOM     54  N   UNL A   1      41.525  31.031  33.119  1.00  0.00    -0.354 N 
ATOM     55  N   UNL A   1      39.216  32.299  31.811  1.00  0.00    -0.248 NA
ATOM     56  C   UNL A   1      37.586  33.973  31.755  1.00  0.00     0.031 C 
ATOM     57  C   UNL A   1      42.315  31.950  34.982  1.00  0.00     0.029 A 
ATOM     58  C   UNL A   1      41.343  32.080  34.003  1.00  0.00     0.049 A 
ATOM     59  H   UNL A   1      40.968  30.856  32.328  1.00  0.00     0.167 HD
ATOM     60  C   UNL A   1      39.404  33.155  32.888  1.00  0.00     0.074 A 
ATOM     61  C   UNL A   1      38.391  34.185  32.787  1.00  0.00     0.031 C 
ATOM     62  C   UNL A   1      40.325  33.089  33.881  1.00  0.00     0.031 A 
BRANCH  49  63
ATOM     63  C   UNL A   1      44.254  28.349  33.376  1.00  0.00    -0.014 A 
ATOM     64  C   UNL A   1      45.585  28.659  33.060  1.00  0.00     0.009 A 
ATOM     65  C   UNL A   1      43.997  27.309  34.286  1.00  0.00     0.009 A 
ATOM     66  C   UNL A   1      46.633  27.919  33.619  1.00  0.00     0.001 A 
ATOM     67  C   UNL A   1      45.045  26.590  34.862  1.00  0.00     0.001 A 
ATOM     68  C   UNL A   1      46.363  26.890  34.521  1.00  0.00     0.000 A 
ENDBRANCH  49  63
BRANCH  50  69
ATOM     69  C   UNL A   1      36.275  32.851  29.393  1.00  0.00    -0.014 A 
ATOM     70  C   UNL A   1      36.343  33.866  28.429  1.00  0.00     0.009 A 
ATOM     71  C   UNL A   1      35.015  32.416  29.836  1.00  0.00     0.009 A 
ATOM     72  C   UNL A   1      35.174  34.444  27.929  1.00  0.00     0.001 A 
ATOM     73  C   UNL A   1      33.848  32.976  29.313  1.00  0.00     0.001 A 
ATOM     74  C   UNL A   1      33.929  33.994  28.365  1.00  0.00     0.000 A 
ENDBRANCH  50  69
BRANCH  62  75
ATOM     75  C   UNL A   1      40.282  34.177  34.911  1.00  0.00    -0.014 A 
ATOM     76  C   UNL A   1      39.523  34.034  36.083  1.00  0.00     0.009 A 
ATOM     77  C   UNL A   1      41.014  35.356  34.708  1.00  0.00     0.009 A 
ATOM     78  C   UNL A   1      39.470  35.069  37.016  1.00  0.00     0.001 A 
ATOM     79  C   UNL A   1      40.975  36.381  35.654  1.00  0.00     0.001 A 
ATOM     80  C   UNL A   1      40.197  36.240  36.802  1.00  0.00     0.000 A 
ENDBRANCH  62  75
ENDBRANCH  36  37
ENDBRANCH  28  31
ENDBRANCH  26  27
ENDBRANCH   1  26
TORSDOF 12
ENDMDL
