MODEL 1
REMARK VINA RESULT:     -10.3      0.000      0.000
REMARK SMILES C[N@@H+]1CC[N@@H+](C)[C@H](C[NH2+]Cc2ccc(C(=O)NCCCNC(=O)c3ccc(-c4c5nc(c(-c6ccccc6)c6ccc([nH]6)c(-c6ccccc6)c6nc(c(-c7ccccc7)c7ccc4[nH]7)C=C6)C=C5)cc3)cn2)C1
REMARK SMILES IDX 18 1 17 2 15 3 16 4 14 6 11 7 12 8 73 9 13 10 72 11 10 12
REMARK SMILES IDX 9 13 8 16 7 17 1 18 2 19 3 20 74 21 4 23 5 24 6 25 19 27
REMARK SMILES IDX 20 28 21 29 22 30 23 32 24 33 25 34 71 35 26 36 70 37 27 38
REMARK SMILES IDX 28 39 29 40 64 41 30 42 69 43 63 44 65 45 31 46 68 47 62 48
REMARK SMILES IDX 61 49 32 51 54 52 39 53 53 54 40 55 43 56 52 57 66 58 41 59
REMARK SMILES IDX 42 60 51 62 67 63 44 64 33 65 34 66 38 67 35 68 37 69 36 70
REMARK SMILES IDX 55 71 56 72 60 73 57 74 59 75 58 76 45 77 46 78 50 79 47 80
REMARK SMILES IDX 49 81 48 82
REMARK H PARENT 17 5 9 14 9 15 2 22 5 26 21 31 65 50 43 61
REMARK Flexibility Score: inf
ROOT
ATOM      1  C   UNL A   1      31.798  30.556  26.579  1.00  0.00     0.118 C 
ENDROOT
BRANCH   1   2
ATOM      2  N   UNL A   1      33.094  30.168  27.103  1.00  0.00    -0.352 N 
ATOM      3  C   UNL A   1      33.956  29.149  26.785  1.00  0.00     0.252 C 
ATOM      4  O   UNL A   1      34.997  29.070  27.436  1.00  0.00    -0.269 OA
ATOM      5  H   UNL A   1      33.418  30.750  27.828  1.00  0.00     0.163 HD
BRANCH   3   6
ATOM      6  C   UNL A   1      33.727  28.199  25.671  1.00  0.00     0.058 A 
ATOM      7  C   UNL A   1      33.586  26.176  23.804  1.00  0.00     0.094 A 
ATOM      8  C   UNL A   1      33.653  27.494  23.368  1.00  0.00     0.030 A 
ATOM      9  N   UNL A   1      33.462  25.850  25.115  1.00  0.00    -0.255 NA
ATOM     10  C   UNL A   1      33.699  28.511  24.315  1.00  0.00     0.017 A 
ATOM     11  C   UNL A   1      33.551  26.862  26.011  1.00  0.00     0.125 A 
BRANCH   7  12
ATOM     12  C   UNL A   1      33.803  25.060  22.810  1.00  0.00     0.318 C 
BRANCH  12  13
ATOM     13  N   UNL A   1      32.745  24.051  22.919  1.00  0.00    -0.336 N 
ATOM     14  H   UNL A   1      32.122  24.303  23.687  1.00  0.00     0.346 HD
ATOM     15  H   UNL A   1      32.234  24.022  22.037  1.00  0.00     0.346 HD
BRANCH  13  16
ATOM     16  C   UNL A   1      33.307  22.712  23.175  1.00  0.00     0.332 C 
BRANCH  16  17
ATOM     17  C   UNL A   1      33.071  22.263  24.653  1.00  0.00     0.295 C 
ATOM     18  C   UNL A   1      30.007  22.764  26.868  1.00  0.00     0.333 C 
ATOM     19  N   UNL A   1      31.357  22.366  26.490  1.00  0.00    -0.328 N 
ATOM     20  C   UNL A   1      32.364  23.011  27.346  1.00  0.00     0.324 C 
ATOM     21  C   UNL A   1      31.649  22.730  25.089  1.00  0.00     0.334 C 
ATOM     22  H   UNL A   1      31.405  21.354  26.604  1.00  0.00     0.348 HD
ATOM     23  C   UNL A   1      33.785  22.532  26.980  1.00  0.00     0.324 C 
ATOM     24  N   UNL A   1      34.159  22.755  25.566  1.00  0.00    -0.321 N 
ATOM     25  C   UNL A   1      35.440  22.089  25.303  1.00  0.00     0.333 C 
ATOM     26  H   UNL A   1      34.269  23.753  25.386  1.00  0.00     0.348 HD
ENDBRANCH  16  17
ENDBRANCH  13  16
ENDBRANCH  12  13
ENDBRANCH   7  12
ENDBRANCH   3   6
ENDBRANCH   1   2
BRANCH   1  27
ATOM     27  C   UNL A   1      31.553  32.050  26.785  1.00  0.00     0.042 C 
BRANCH  27  28
ATOM     28  C   UNL A   1      32.834  32.838  27.028  1.00  0.00     0.118 C 
BRANCH  28  29
ATOM     29  N   UNL A   1      32.584  34.052  27.788  1.00  0.00    -0.352 N 
ATOM     30  C   UNL A   1      33.211  34.529  28.909  1.00  0.00     0.251 C 
ATOM     31  H   UNL A   1      31.854  34.616  27.446  1.00  0.00     0.163 HD
ATOM     32  O   UNL A   1      32.700  35.442  29.548  1.00  0.00    -0.269 OA
BRANCH  30  33
ATOM     33  C   UNL A   1      34.498  33.950  29.357  1.00  0.00     0.039 A 
ATOM     34  C   UNL A   1      35.665  34.304  28.674  1.00  0.00     0.014 A 
ATOM     35  C   UNL A   1      34.552  33.019  30.398  1.00  0.00     0.014 A 
ATOM     36  C   UNL A   1      36.889  33.753  29.058  1.00  0.00     0.010 A 
ATOM     37  C   UNL A   1      35.782  32.526  30.827  1.00  0.00     0.010 A 
ATOM     38  C   UNL A   1      36.959  32.875  30.150  1.00  0.00    -0.014 A 
BRANCH  38  39
ATOM     39  C   UNL A   1      38.253  32.295  30.586  1.00  0.00     0.031 A 
ATOM     40  C   UNL A   1      38.744  31.008  29.983  1.00  0.00     0.074 A 
ATOM     41  C   UNL A   1      38.957  32.898  31.563  1.00  0.00     0.049 A 
ATOM     42  N   UNL A   1      39.818  30.318  30.273  1.00  0.00    -0.248 NA
ATOM     43  C   UNL A   1      37.908  30.404  28.933  1.00  0.00     0.031 C 
ATOM     44  C   UNL A   1      38.568  34.131  32.252  1.00  0.00     0.029 A 
ATOM     45  N   UNL A   1      40.146  32.549  32.150  1.00  0.00    -0.354 N 
ATOM     46  C   UNL A   1      39.774  29.192  29.460  1.00  0.00     0.074 A 
ATOM     47  C   UNL A   1      38.548  29.269  28.697  1.00  0.00     0.031 C 
ATOM     48  C   UNL A   1      39.513  34.449  33.150  1.00  0.00     0.029 A 
ATOM     49  C   UNL A   1      40.553  33.425  33.127  1.00  0.00     0.049 A 
ATOM     50  H   UNL A   1      40.658  31.748  31.897  1.00  0.00     0.167 HD
ATOM     51  C   UNL A   1      40.681  28.193  29.345  1.00  0.00     0.031 A 
ATOM     52  C   UNL A   1      41.642  33.403  33.918  1.00  0.00     0.031 A 
ATOM     53  C   UNL A   1      41.908  28.125  30.093  1.00  0.00     0.049 A 
ATOM     54  C   UNL A   1      42.632  32.283  33.773  1.00  0.00     0.074 A 
ATOM     55  C   UNL A   1      42.919  27.184  30.009  1.00  0.00     0.029 A 
ATOM     56  N   UNL A   1      42.289  29.039  31.062  1.00  0.00    -0.354 N 
ATOM     57  N   UNL A   1      42.605  31.259  32.956  1.00  0.00    -0.248 NA
ATOM     58  C   UNL A   1      43.810  32.326  34.651  1.00  0.00     0.031 C 
ATOM     59  C   UNL A   1      43.893  27.505  30.961  1.00  0.00     0.029 A 
ATOM     60  C   UNL A   1      43.511  28.674  31.599  1.00  0.00     0.049 A 
ATOM     61  H   UNL A   1      41.768  29.830  31.330  1.00  0.00     0.167 HD
ATOM     62  C   UNL A   1      43.773  30.548  33.202  1.00  0.00     0.074 A 
ATOM     63  C   UNL A   1      44.492  31.268  34.233  1.00  0.00     0.031 C 
ATOM     64  C   UNL A   1      44.211  29.403  32.626  1.00  0.00     0.031 A 
BRANCH  51  65
ATOM     65  C   UNL A   1      40.371  27.086  28.375  1.00  0.00    -0.014 A 
ATOM     66  C   UNL A   1      40.896  27.091  27.072  1.00  0.00     0.009 A 
ATOM     67  C   UNL A   1      39.564  26.010  28.777  1.00  0.00     0.009 A 
ATOM     68  C   UNL A   1      40.589  26.060  26.182  1.00  0.00     0.001 A 
ATOM     69  C   UNL A   1      39.282  24.967  27.894  1.00  0.00     0.001 A 
ATOM     70  C   UNL A   1      39.785  24.997  26.594  1.00  0.00     0.000 A 
ENDBRANCH  51  65
BRANCH  52  71
ATOM     71  C   UNL A   1      41.862  34.490  34.907  1.00  0.00    -0.014 A 
ATOM     72  C   UNL A   1      41.376  34.367  36.217  1.00  0.00     0.009 A 
ATOM     73  C   UNL A   1      42.561  35.653  34.547  1.00  0.00     0.009 A 
ATOM     74  C   UNL A   1      41.563  35.397  37.140  1.00  0.00     0.001 A 
ATOM     75  C   UNL A   1      42.769  36.671  35.481  1.00  0.00     0.001 A 
ATOM     76  C   UNL A   1      42.263  36.545  36.773  1.00  0.00     0.000 A 
ENDBRANCH  52  71
BRANCH  64  77
ATOM     77  C   UNL A   1      45.544  28.878  33.076  1.00  0.00    -0.014 A 
ATOM     78  C   UNL A   1      46.732  29.258  32.432  1.00  0.00     0.009 A 
ATOM     79  C   UNL A   1      45.612  28.017  34.183  1.00  0.00     0.009 A 
ATOM     80  C   UNL A   1      47.960  28.759  32.869  1.00  0.00     0.001 A 
ATOM     81  C   UNL A   1      46.845  27.542  34.633  1.00  0.00     0.001 A 
ATOM     82  C   UNL A   1      48.016  27.905  33.971  1.00  0.00     0.000 A 
ENDBRANCH  64  77
ENDBRANCH  38  39
ENDBRANCH  30  33
ENDBRANCH  28  29
ENDBRANCH  27  28
ENDBRANCH   1  27
TORSDOF 14
ENDMDL
MODEL 2
REMARK VINA RESULT:     -10.3      0.486      6.007
REMARK SMILES C[N@@H+]1CC[N@@H+](C)[C@H](C[NH2+]Cc2ccc(C(=O)NCCCNC(=O)c3ccc(-c4c5nc(c(-c6ccccc6)c6ccc([nH]6)c(-c6ccccc6)c6nc(c(-c7ccccc7)c7ccc4[nH]7)C=C6)C=C5)cc3)cn2)C1
REMARK SMILES IDX 18 1 17 2 15 3 16 4 14 6 11 7 12 8 73 9 13 10 72 11 10 12
REMARK SMILES IDX 9 13 8 16 7 17 1 18 2 19 3 20 74 21 4 23 5 24 6 25 19 27
REMARK SMILES IDX 20 28 21 29 22 30 23 32 24 33 25 34 71 35 26 36 70 37 27 38
REMARK SMILES IDX 28 39 29 40 64 41 30 42 69 43 63 44 65 45 31 46 68 47 62 48
REMARK SMILES IDX 61 49 32 51 54 52 39 53 53 54 40 55 43 56 52 57 66 58 41 59
REMARK SMILES IDX 42 60 51 62 67 63 44 64 33 65 34 66 38 67 35 68 37 69 36 70
REMARK SMILES IDX 55 71 56 72 60 73 57 74 59 75 58 76 45 77 46 78 50 79 47 80
REMARK SMILES IDX 49 81 48 82
REMARK H PARENT 17 5 9 14 9 15 2 22 5 26 21 31 65 50 43 61
REMARK Flexibility Score: inf
ROOT
ATOM      1  C   UNL A   1      31.723  30.676  26.572  1.00  0.00     0.118 C 
ENDROOT
BRANCH   1   2
ATOM      2  N   UNL A   1      33.034  30.283  27.056  1.00  0.00    -0.352 N 
ATOM      3  C   UNL A   1      33.886  29.267  26.703  1.00  0.00     0.252 C 
ATOM      4  O   UNL A   1      34.945  29.181  27.324  1.00  0.00    -0.269 OA
ATOM      5  H   UNL A   1      33.379  30.858  27.777  1.00  0.00     0.163 HD
BRANCH   3   6
ATOM      6  C   UNL A   1      33.625  28.328  25.588  1.00  0.00     0.058 A 
ATOM      7  C   UNL A   1      33.431  26.324  23.705  1.00  0.00     0.094 A 
ATOM      8  C   UNL A   1      33.483  27.645  23.281  1.00  0.00     0.030 A 
ATOM      9  N   UNL A   1      33.348  25.984  25.015  1.00  0.00    -0.255 NA
ATOM     10  C   UNL A   1      33.556  28.653  24.236  1.00  0.00     0.017 A 
ATOM     11  C   UNL A   1      33.462  26.987  25.919  1.00  0.00     0.125 A 
BRANCH   7  12
ATOM     12  C   UNL A   1      33.620  25.218  22.693  1.00  0.00     0.318 C 
BRANCH  12  13
ATOM     13  N   UNL A   1      32.572  24.201  22.830  1.00  0.00    -0.336 N 
ATOM     14  H   UNL A   1      31.977  24.441  23.622  1.00  0.00     0.346 HD
ATOM     15  H   UNL A   1      32.030  24.179  21.966  1.00  0.00     0.346 HD
BRANCH  13  16
ATOM     16  C   UNL A   1      33.152  22.863  23.050  1.00  0.00     0.332 C 
BRANCH  16  17
ATOM     17  C   UNL A   1      32.975  22.398  24.531  1.00  0.00     0.295 C 
ATOM     18  C   UNL A   1      29.969  22.796  26.845  1.00  0.00     0.333 C 
ATOM     19  N   UNL A   1      31.318  22.440  26.422  1.00  0.00    -0.328 N 
ATOM     20  C   UNL A   1      32.333  23.108  27.251  1.00  0.00     0.324 C 
ATOM     21  C   UNL A   1      31.555  22.820  25.015  1.00  0.00     0.334 C 
ATOM     22  H   UNL A   1      31.399  21.428  26.527  1.00  0.00     0.348 HD
ATOM     23  C   UNL A   1      33.754  22.673  26.836  1.00  0.00     0.324 C 
ATOM     24  N   UNL A   1      34.077  22.916  25.413  1.00  0.00    -0.321 N 
ATOM     25  C   UNL A   1      35.368  22.289  25.105  1.00  0.00     0.333 C 
ATOM     26  H   UNL A   1      34.152  23.918  25.237  1.00  0.00     0.348 HD
ENDBRANCH  16  17
ENDBRANCH  13  16
ENDBRANCH  12  13
ENDBRANCH   7  12
ENDBRANCH   3   6
ENDBRANCH   1   2
BRANCH   1  27
ATOM     27  C   UNL A   1      31.465  32.157  26.845  1.00  0.00     0.042 C 
BRANCH  27  28
ATOM     28  C   UNL A   1      32.745  32.966  27.017  1.00  0.00     0.118 C 
BRANCH  28  29
ATOM     29  N   UNL A   1      32.537  34.129  27.863  1.00  0.00    -0.352 N 
ATOM     30  C   UNL A   1      33.201  34.517  28.999  1.00  0.00     0.251 C 
ATOM     31  H   UNL A   1      31.811  34.728  27.579  1.00  0.00     0.163 HD
ATOM     32  O   UNL A   1      32.722  35.394  29.710  1.00  0.00    -0.269 OA
BRANCH  30  33
ATOM     33  C   UNL A   1      34.485  33.885  29.373  1.00  0.00     0.039 A 
ATOM     34  C   UNL A   1      35.634  34.226  28.653  1.00  0.00     0.014 A 
ATOM     35  C   UNL A   1      34.553  32.919  30.381  1.00  0.00     0.014 A 
ATOM     36  C   UNL A   1      36.855  33.627  28.968  1.00  0.00     0.010 A 
ATOM     37  C   UNL A   1      35.783  32.376  30.743  1.00  0.00     0.010 A 
ATOM     38  C   UNL A   1      36.942  32.712  30.028  1.00  0.00    -0.014 A 
BRANCH  38  39
ATOM     39  C   UNL A   1      38.234  32.080  30.391  1.00  0.00     0.031 A 
ATOM     40  C   UNL A   1      39.175  32.775  31.336  1.00  0.00     0.074 A 
ATOM     41  C   UNL A   1      38.583  30.908  29.828  1.00  0.00     0.049 A 
ATOM     42  N   UNL A   1      40.369  32.409  31.729  1.00  0.00    -0.248 NA
ATOM     43  C   UNL A   1      38.726  34.060  31.896  1.00  0.00     0.031 C 
ATOM     44  C   UNL A   1      37.773  30.153  28.868  1.00  0.00     0.029 A 
ATOM     45  N   UNL A   1      39.716  30.149  29.976  1.00  0.00    -0.354 N 
ATOM     46  C   UNL A   1      40.821  33.428  32.560  1.00  0.00     0.074 A 
ATOM     47  C   UNL A   1      39.792  34.444  32.582  1.00  0.00     0.031 C 
ATOM     48  C   UNL A   1      38.423  29.028  28.534  1.00  0.00     0.029 A 
ATOM     49  C   UNL A   1      39.709  29.000  29.224  1.00  0.00     0.049 A 
ATOM     50  H   UNL A   1      40.462  30.404  30.564  1.00  0.00     0.167 HD
ATOM     51  C   UNL A   1      41.979  33.501  33.258  1.00  0.00     0.031 A 
ATOM     52  C   UNL A   1      40.637  28.033  29.101  1.00  0.00     0.031 A 
ATOM     53  C   UNL A   1      42.995  32.483  33.248  1.00  0.00     0.049 A 
ATOM     54  C   UNL A   1      41.915  28.139  29.884  1.00  0.00     0.074 A 
ATOM     55  C   UNL A   1      44.179  32.438  33.964  1.00  0.00     0.029 A 
ATOM     56  N   UNL A   1      42.943  31.328  32.484  1.00  0.00    -0.354 N 
ATOM     57  N   UNL A   1      42.299  29.078  30.713  1.00  0.00    -0.248 NA
ATOM     58  C   UNL A   1      42.880  27.043  29.723  1.00  0.00     0.031 C 
ATOM     59  C   UNL A   1      44.865  31.275  33.597  1.00  0.00     0.029 A 
ATOM     60  C   UNL A   1      44.084  30.572  32.694  1.00  0.00     0.049 A 
ATOM     61  H   UNL A   1      42.206  31.082  31.880  1.00  0.00     0.167 HD
ATOM     62  C   UNL A   1      43.539  28.676  31.193  1.00  0.00     0.074 A 
ATOM     63  C   UNL A   1      43.833  27.399  30.574  1.00  0.00     0.031 C 
ATOM     64  C   UNL A   1      44.359  29.305  32.068  1.00  0.00     0.031 A 
BRANCH  51  65
ATOM     65  C   UNL A   1      42.210  34.736  34.086  1.00  0.00    -0.014 A 
ATOM     66  C   UNL A   1      41.836  34.785  35.439  1.00  0.00     0.009 A 
ATOM     67  C   UNL A   1      42.832  35.855  33.513  1.00  0.00     0.009 A 
ATOM     68  C   UNL A   1      42.048  35.943  36.190  1.00  0.00     0.001 A 
ATOM     69  C   UNL A   1      43.069  37.002  34.274  1.00  0.00     0.001 A 
ATOM     70  C   UNL A   1      42.667  37.049  35.608  1.00  0.00     0.000 A 
ENDBRANCH  51  65
BRANCH  52  71
ATOM     71  C   UNL A   1      40.382  26.868  28.215  1.00  0.00    -0.014 A 
ATOM     72  C   UNL A   1      40.862  26.862  26.897  1.00  0.00     0.009 A 
ATOM     73  C   UNL A   1      39.662  25.757  28.682  1.00  0.00     0.009 A 
ATOM     74  C   UNL A   1      40.604  25.777  26.056  1.00  0.00     0.001 A 
ATOM     75  C   UNL A   1      39.429  24.663  27.847  1.00  0.00     0.001 A 
ATOM     76  C   UNL A   1      39.893  24.678  26.533  1.00  0.00     0.000 A 
ENDBRANCH  52  71
BRANCH  64  77
ATOM     77  C   UNL A   1      45.637  28.605  32.431  1.00  0.00    -0.014 A 
ATOM     78  C   UNL A   1      45.684  27.670  33.476  1.00  0.00     0.009 A 
ATOM     79  C   UNL A   1      46.803  28.862  31.691  1.00  0.00     0.009 A 
ATOM     80  C   UNL A   1      46.883  27.029  33.795  1.00  0.00     0.001 A 
ATOM     81  C   UNL A   1      47.993  28.200  31.996  1.00  0.00     0.001 A 
ATOM     82  C   UNL A   1      48.034  27.292  33.052  1.00  0.00     0.000 A 
ENDBRANCH  64  77
ENDBRANCH  38  39
ENDBRANCH  30  33
ENDBRANCH  28  29
ENDBRANCH  27  28
ENDBRANCH   1  27
TORSDOF 14
ENDMDL
MODEL 3
REMARK VINA RESULT:     -10.3      2.554      6.947
REMARK SMILES C[N@@H+]1CC[N@@H+](C)[C@H](C[NH2+]Cc2ccc(C(=O)NCCCNC(=O)c3ccc(-c4c5nc(c(-c6ccccc6)c6ccc([nH]6)c(-c6ccccc6)c6nc(c(-c7ccccc7)c7ccc4[nH]7)C=C6)C=C5)cc3)cn2)C1
REMARK SMILES IDX 18 1 17 2 15 3 16 4 14 6 11 7 12 8 73 9 13 10 72 11 10 12
REMARK SMILES IDX 9 13 8 16 7 17 1 18 2 19 3 20 74 21 4 23 5 24 6 25 19 27
REMARK SMILES IDX 20 28 21 29 22 30 23 32 24 33 25 34 71 35 26 36 70 37 27 38
REMARK SMILES IDX 28 39 29 40 64 41 30 42 69 43 63 44 65 45 31 46 68 47 62 48
REMARK SMILES IDX 61 49 32 51 54 52 39 53 53 54 40 55 43 56 52 57 66 58 41 59
REMARK SMILES IDX 42 60 51 62 67 63 44 64 33 65 34 66 38 67 35 68 37 69 36 70
REMARK SMILES IDX 55 71 56 72 60 73 57 74 59 75 58 76 45 77 46 78 50 79 47 80
REMARK SMILES IDX 49 81 48 82
REMARK H PARENT 17 5 9 14 9 15 2 22 5 26 21 31 65 50 43 61
REMARK Flexibility Score: inf
ROOT
ATOM      1  C   UNL A   1      31.657  27.930  25.901  1.00  0.00     0.118 C 
ENDROOT
BRANCH   1   2
ATOM      2  N   UNL A   1      32.364  28.738  24.925  1.00  0.00    -0.352 N 
ATOM      3  C   UNL A   1      33.195  28.416  23.881  1.00  0.00     0.252 C 
ATOM      4  O   UNL A   1      33.665  29.347  23.229  1.00  0.00    -0.269 OA
ATOM      5  H   UNL A   1      32.219  29.706  25.032  1.00  0.00     0.163 HD
BRANCH   3   6
ATOM      6  C   UNL A   1      33.493  27.024  23.469  1.00  0.00     0.058 A 
ATOM      7  C   UNL A   1      33.673  24.454  22.488  1.00  0.00     0.094 A 
ATOM      8  C   UNL A   1      34.005  24.695  23.815  1.00  0.00     0.030 A 
ATOM      9  N   UNL A   1      33.380  25.455  21.620  1.00  0.00    -0.255 NA
ATOM     10  C   UNL A   1      33.937  25.997  24.297  1.00  0.00     0.017 A 
ATOM     11  C   UNL A   1      33.282  26.705  22.132  1.00  0.00     0.125 A 
BRANCH   7  12
ATOM     12  C   UNL A   1      33.484  23.030  22.022  1.00  0.00     0.318 C 
BRANCH  12  13
ATOM     13  N   UNL A   1      32.170  22.519  22.423  1.00  0.00    -0.336 N 
ATOM     14  H   UNL A   1      31.778  23.132  23.137  1.00  0.00     0.346 HD
ATOM     15  H   UNL A   1      31.568  22.496  21.599  1.00  0.00     0.346 HD
BRANCH  13  16
ATOM     16  C   UNL A   1      32.270  21.151  22.965  1.00  0.00     0.332 C 
BRANCH  16  17
ATOM     17  C   UNL A   1      32.248  21.149  24.526  1.00  0.00     0.295 C 
ATOM     18  C   UNL A   1      30.276  23.374  26.916  1.00  0.00     0.333 C 
ATOM     19  N   UNL A   1      31.223  22.355  26.481  1.00  0.00    -0.328 N 
ATOM     20  C   UNL A   1      32.580  22.640  26.973  1.00  0.00     0.324 C 
ATOM     21  C   UNL A   1      31.279  22.272  25.008  1.00  0.00     0.334 C 
ATOM     22  H   UNL A   1      30.895  21.469  26.867  1.00  0.00     0.348 HD
ATOM     23  C   UNL A   1      33.559  21.521  26.561  1.00  0.00     0.324 C 
ATOM     24  N   UNL A   1      33.630  21.277  25.104  1.00  0.00    -0.321 N 
ATOM     25  C   UNL A   1      34.438  20.075  24.863  1.00  0.00     0.333 C 
ATOM     26  H   UNL A   1      34.076  22.066  24.637  1.00  0.00     0.348 HD
ENDBRANCH  16  17
ENDBRANCH  13  16
ENDBRANCH  12  13
ENDBRANCH   7  12
ENDBRANCH   3   6
ENDBRANCH   1   2
BRANCH   1  27
ATOM     27  C   UNL A   1      32.330  28.019  27.270  1.00  0.00     0.042 C 
BRANCH  27  28
ATOM     28  C   UNL A   1      33.705  28.673  27.219  1.00  0.00     0.118 C 
BRANCH  28  29
ATOM     29  N   UNL A   1      33.647  30.077  27.591  1.00  0.00    -0.352 N 
ATOM     30  C   UNL A   1      34.548  30.836  28.292  1.00  0.00     0.251 C 
ATOM     31  H   UNL A   1      32.839  30.555  27.296  1.00  0.00     0.163 HD
ATOM     32  O   UNL A   1      34.212  31.935  28.719  1.00  0.00    -0.269 OA
BRANCH  30  33
ATOM     33  C   UNL A   1      35.920  30.339  28.540  1.00  0.00     0.039 A 
ATOM     34  C   UNL A   1      36.857  30.418  27.505  1.00  0.00     0.014 A 
ATOM     35  C   UNL A   1      36.269  29.743  29.755  1.00  0.00     0.014 A 
ATOM     36  C   UNL A   1      38.152  29.934  27.702  1.00  0.00     0.010 A 
ATOM     37  C   UNL A   1      37.579  29.326  29.975  1.00  0.00     0.010 A 
ATOM     38  C   UNL A   1      38.527  29.403  28.945  1.00  0.00    -0.014 A 
BRANCH  38  39
ATOM     39  C   UNL A   1      39.903  28.901  29.180  1.00  0.00     0.031 A 
ATOM     40  C   UNL A   1      40.937  29.798  29.806  1.00  0.00     0.074 A 
ATOM     41  C   UNL A   1      40.237  27.660  28.780  1.00  0.00     0.049 A 
ATOM     42  N   UNL A   1      42.202  29.560  30.040  1.00  0.00    -0.248 NA
ATOM     43  C   UNL A   1      40.495  31.146  30.201  1.00  0.00     0.031 C 
ATOM     44  C   UNL A   1      39.335  26.708  28.127  1.00  0.00     0.029 A 
ATOM     45  N   UNL A   1      41.430  26.988  28.857  1.00  0.00    -0.354 N 
ATOM     46  C   UNL A   1      42.711  30.733  30.586  1.00  0.00     0.074 A 
ATOM     47  C   UNL A   1      41.630  31.693  30.609  1.00  0.00     0.031 C 
ATOM     48  C   UNL A   1      40.000  25.567  27.888  1.00  0.00     0.029 A 
ATOM     49  C   UNL A   1      41.381  25.720  28.334  1.00  0.00     0.049 A 
ATOM     50  H   UNL A   1      42.244  27.378  29.250  1.00  0.00     0.167 HD
ATOM     51  C   UNL A   1      43.961  30.981  31.044  1.00  0.00     0.031 A 
ATOM     52  C   UNL A   1      42.343  24.785  28.222  1.00  0.00     0.031 A 
ATOM     53  C   UNL A   1      45.031  30.021  31.035  1.00  0.00     0.049 A 
ATOM     54  C   UNL A   1      43.722  25.086  28.736  1.00  0.00     0.074 A 
ATOM     55  C   UNL A   1      46.318  30.158  31.527  1.00  0.00     0.029 A 
ATOM     56  N   UNL A   1      44.937  28.743  30.508  1.00  0.00    -0.354 N 
ATOM     57  N   UNL A   1      44.170  26.178  29.304  1.00  0.00    -0.248 NA
ATOM     58  C   UNL A   1      44.723  24.019  28.603  1.00  0.00     0.031 C 
ATOM     59  C   UNL A   1      47.015  28.975  31.257  1.00  0.00     0.029 A 
ATOM     60  C   UNL A   1      46.147  28.086  30.644  1.00  0.00     0.049 A 
ATOM     61  H   UNL A   1      44.129  28.359  30.098  1.00  0.00     0.167 HD
ATOM     62  C   UNL A   1      45.498  25.923  29.622  1.00  0.00     0.074 A 
ATOM     63  C   UNL A   1      45.776  24.566  29.196  1.00  0.00     0.031 C 
ATOM     64  C   UNL A   1      46.405  26.736  30.213  1.00  0.00     0.031 A 
BRANCH  51  65
ATOM     65  C   UNL A   1      44.237  32.357  31.587  1.00  0.00    -0.014 A 
ATOM     66  C   UNL A   1      44.057  32.652  32.948  1.00  0.00     0.009 A 
ATOM     67  C   UNL A   1      44.708  33.364  30.732  1.00  0.00     0.009 A 
ATOM     68  C   UNL A   1      44.307  33.937  33.434  1.00  0.00     0.001 A 
ATOM     69  C   UNL A   1      44.985  34.641  31.225  1.00  0.00     0.001 A 
ATOM     70  C   UNL A   1      44.775  34.929  32.573  1.00  0.00     0.000 A 
ENDBRANCH  51  65
BRANCH  52  71
ATOM     71  C   UNL A   1      42.029  23.466  27.614  1.00  0.00    -0.014 A 
ATOM     72  C   UNL A   1      41.437  22.453  28.385  1.00  0.00     0.009 A 
ATOM     73  C   UNL A   1      42.316  23.213  26.264  1.00  0.00     0.009 A 
ATOM     74  C   UNL A   1      41.163  21.205  27.821  1.00  0.00     0.001 A 
ATOM     75  C   UNL A   1      42.016  21.973  25.697  1.00  0.00     0.001 A 
ATOM     76  C   UNL A   1      41.448  20.968  26.478  1.00  0.00     0.000 A 
ENDBRANCH  52  71
BRANCH  64  77
ATOM     77  C   UNL A   1      47.772  26.168  30.463  1.00  0.00    -0.014 A 
ATOM     78  C   UNL A   1      48.740  26.123  29.447  1.00  0.00     0.009 A 
ATOM     79  C   UNL A   1      48.106  25.701  31.745  1.00  0.00     0.009 A 
ATOM     80  C   UNL A   1      50.005  25.592  29.703  1.00  0.00     0.001 A 
ATOM     81  C   UNL A   1      49.380  25.195  32.003  1.00  0.00     0.001 A 
ATOM     82  C   UNL A   1      50.325  25.132  30.980  1.00  0.00     0.000 A 
ENDBRANCH  64  77
ENDBRANCH  38  39
ENDBRANCH  30  33
ENDBRANCH  28  29
ENDBRANCH  27  28
ENDBRANCH   1  27
TORSDOF 14
ENDMDL
