MODEL 1
REMARK VINA RESULT:      -9.4      0.000      0.000
REMARK SMILES C#CCN(CC(=O)NCCCNC(=O)c1ccc(-c2c3nc(c(-c4ccccc4)c4ccc([nH]4)c(-c4ccccc4)c4nc(c(-c5ccccc5)c5ccc2[nH]5)C=C4)C=C3)cc1)C(=O)CCNC(=O)C(C)(C)C
REMARK SMILES IDX 6 1 7 2 8 3 5 5 4 6 3 7 2 8 1 9 63 10 64 11 65 12 66 13
REMARK SMILES IDX 67 14 68 15 69 17 70 18 71 19 72 20 73 21 9 22 10 23 11 24
REMARK SMILES IDX 12 25 13 26 14 28 15 29 16 30 62 31 17 32 61 33 18 34 19 35
REMARK SMILES IDX 20 36 55 37 21 38 60 39 54 40 56 41 22 42 59 43 53 44 52 45
REMARK SMILES IDX 23 47 45 48 30 49 44 50 31 51 34 52 43 53 57 54 32 55 33 56
REMARK SMILES IDX 42 58 58 59 35 60 24 61 25 62 29 63 26 64 28 65 27 66 46 67
REMARK SMILES IDX 47 68 51 69 48 70 50 71 49 72 36 73 37 74 41 75 38 76 40 77
REMARK SMILES IDX 39 78
REMARK H PARENT 8 4 67 16 12 27 56 46 34 57
REMARK Flexibility Score: inf
ROOT
ATOM      1  C   UNL A   1      31.592  26.914  24.126  1.00  0.00     0.239 C 
ATOM      2  O   UNL A   1      30.364  26.814  24.180  1.00  0.00    -0.273 OA
ATOM      3  N   UNL A   1      32.147  28.037  24.652  1.00  0.00    -0.354 N 
ATOM      4  H   UNL A   1      31.509  28.696  25.006  1.00  0.00     0.163 HD
ENDROOT
BRANCH   1   5
ATOM      5  C   UNL A   1      32.462  25.808  23.518  1.00  0.00     0.220 C 
BRANCH   5   6
ATOM      6  N   UNL A   1      32.373  24.489  24.159  1.00  0.00    -0.322 N 
BRANCH   6   7
ATOM      7  C   UNL A   1      32.891  24.379  25.520  1.00  0.00     0.209 C 
BRANCH   7   8
ATOM      8  C   UNL A   1      34.401  24.219  25.591  1.00  0.00    -0.085 C 
ATOM      9  C   UNL A   1      35.696  24.082  25.651  1.00  0.00     0.006 C 
ENDBRANCH   7   8
ENDBRANCH   6   7
BRANCH   6  10
ATOM     10  C   UNL A   1      31.871  23.338  23.563  1.00  0.00     0.225 C 
ATOM     11  O   UNL A   1      30.664  23.206  23.338  1.00  0.00    -0.275 OA
BRANCH  10  12
ATOM     12  C   UNL A   1      32.796  22.194  23.184  1.00  0.00     0.121 C 
BRANCH  12  13
ATOM     13  C   UNL A   1      32.551  20.925  23.997  1.00  0.00     0.125 C 
BRANCH  13  14
ATOM     14  N   UNL A   1      32.156  19.799  23.173  1.00  0.00    -0.355 N 
ATOM     15  C   UNL A   1      32.630  18.530  23.050  1.00  0.00     0.225 C 
ATOM     16  H   UNL A   1      31.391  19.991  22.584  1.00  0.00     0.163 HD
ATOM     17  O   UNL A   1      32.253  17.928  22.037  1.00  0.00    -0.275 OA
BRANCH  15  18
ATOM     18  C   UNL A   1      33.473  17.827  24.136  1.00  0.00     0.041 C 
ATOM     19  C   UNL A   1      34.704  18.598  24.621  1.00  0.00     0.021 C 
ATOM     20  C   UNL A   1      32.545  17.502  25.313  1.00  0.00     0.021 C 
ATOM     21  C   UNL A   1      33.992  16.490  23.552  1.00  0.00     0.021 C 
ENDBRANCH  15  18
ENDBRANCH  13  14
ENDBRANCH  12  13
ENDBRANCH  10  12
ENDBRANCH   6  10
ENDBRANCH   5   6
ENDBRANCH   1   5
BRANCH   3  22
ATOM     22  C   UNL A   1      33.539  28.403  24.769  1.00  0.00     0.117 C 
BRANCH  22  23
ATOM     23  C   UNL A   1      34.099  28.080  26.149  1.00  0.00     0.042 C 
BRANCH  23  24
ATOM     24  C   UNL A   1      33.300  28.682  27.300  1.00  0.00     0.118 C 
BRANCH  24  25
ATOM     25  N   UNL A   1      33.346  30.135  27.307  1.00  0.00    -0.352 N 
ATOM     26  C   UNL A   1      34.244  30.997  27.878  1.00  0.00     0.251 C 
ATOM     27  H   UNL A   1      32.609  30.571  26.822  1.00  0.00     0.163 HD
ATOM     28  O   UNL A   1      33.958  32.187  27.970  1.00  0.00    -0.269 OA
BRANCH  26  29
ATOM     29  C   UNL A   1      35.549  30.514  28.375  1.00  0.00     0.039 A 
ATOM     30  C   UNL A   1      36.692  30.778  27.614  1.00  0.00     0.014 A 
ATOM     31  C   UNL A   1      35.648  29.742  29.536  1.00  0.00     0.014 A 
ATOM     32  C   UNL A   1      37.932  30.294  28.032  1.00  0.00     0.010 A 
ATOM     33  C   UNL A   1      36.895  29.329  29.996  1.00  0.00     0.010 A 
ATOM     34  C   UNL A   1      38.046  29.580  29.236  1.00  0.00    -0.014 A 
BRANCH  34  35
ATOM     35  C   UNL A   1      39.355  29.054  29.689  1.00  0.00     0.031 A 
ATOM     36  C   UNL A   1      40.123  29.770  30.768  1.00  0.00     0.074 A 
ATOM     37  C   UNL A   1      39.867  27.953  29.108  1.00  0.00     0.049 A 
ATOM     38  N   UNL A   1      41.288  29.473  31.285  1.00  0.00    -0.248 NA
ATOM     39  C   UNL A   1      39.515  30.990  31.321  1.00  0.00     0.031 C 
ATOM     40  C   UNL A   1      39.236  27.194  28.026  1.00  0.00     0.029 A 
ATOM     41  N   UNL A   1      41.037  27.279  29.350  1.00  0.00    -0.354 N 
ATOM     42  C   UNL A   1      41.557  30.476  32.208  1.00  0.00     0.074 A 
ATOM     43  C   UNL A   1      40.462  31.417  32.143  1.00  0.00     0.031 C 
ATOM     44  C   UNL A   1      40.011  26.139  27.722  1.00  0.00     0.029 A 
ATOM     45  C   UNL A   1      41.203  26.167  28.563  1.00  0.00     0.049 A 
ATOM     46  H   UNL A   1      41.694  27.566  30.025  1.00  0.00     0.167 HD
ATOM     47  C   UNL A   1      42.611  30.594  33.051  1.00  0.00     0.031 A 
ATOM     48  C   UNL A   1      42.205  25.269  28.524  1.00  0.00     0.031 A 
ATOM     49  C   UNL A   1      43.691  29.649  33.129  1.00  0.00     0.049 A 
ATOM     50  C   UNL A   1      43.362  25.423  29.469  1.00  0.00     0.074 A 
ATOM     51  C   UNL A   1      44.777  29.647  33.987  1.00  0.00     0.029 A 
ATOM     52  N   UNL A   1      43.821  28.535  32.315  1.00  0.00    -0.354 N 
ATOM     53  N   UNL A   1      43.568  26.340  30.382  1.00  0.00    -0.248 NA
ATOM     54  C   UNL A   1      44.421  24.407  29.385  1.00  0.00     0.031 C 
ATOM     55  C   UNL A   1      45.586  28.554  33.663  1.00  0.00     0.029 A 
ATOM     56  C   UNL A   1      44.979  27.848  32.637  1.00  0.00     0.049 A 
ATOM     57  H   UNL A   1      43.184  28.271  31.612  1.00  0.00     0.167 HD
ATOM     58  C   UNL A   1      44.766  26.000  30.998  1.00  0.00     0.074 A 
ATOM     59  C   UNL A   1      45.229  24.781  30.366  1.00  0.00     0.031 C 
ATOM     60  C   UNL A   1      45.424  26.639  31.994  1.00  0.00     0.031 A 
BRANCH  47  61
ATOM     61  C   UNL A   1      42.638  31.792  33.960  1.00  0.00    -0.014 A 
ATOM     62  C   UNL A   1      43.219  33.002  33.547  1.00  0.00     0.009 A 
ATOM     63  C   UNL A   1      42.051  31.720  35.232  1.00  0.00     0.009 A 
ATOM     64  C   UNL A   1      43.244  34.104  34.404  1.00  0.00     0.001 A 
ATOM     65  C   UNL A   1      42.053  32.833  36.076  1.00  0.00     0.001 A 
ATOM     66  C   UNL A   1      42.657  34.020  35.665  1.00  0.00     0.000 A 
ENDBRANCH  47  61
BRANCH  48  67
ATOM     67  C   UNL A   1      42.146  24.128  27.575  1.00  0.00    -0.014 A 
ATOM     68  C   UNL A   1      41.520  22.928  27.946  1.00  0.00     0.009 A 
ATOM     69  C   UNL A   1      42.720  24.228  26.298  1.00  0.00     0.009 A 
ATOM     70  C   UNL A   1      41.494  21.842  27.067  1.00  0.00     0.001 A 
ATOM     71  C   UNL A   1      42.669  23.150  25.412  1.00  0.00     0.001 A 
ATOM     72  C   UNL A   1      42.066  21.955  25.801  1.00  0.00     0.000 A 
ENDBRANCH  48  67
BRANCH  60  73
ATOM     73  C   UNL A   1      46.701  26.015  32.479  1.00  0.00    -0.014 A 
ATOM     74  C   UNL A   1      46.709  25.128  33.565  1.00  0.00     0.009 A 
ATOM     75  C   UNL A   1      47.906  26.296  31.815  1.00  0.00     0.009 A 
ATOM     76  C   UNL A   1      47.908  24.560  34.000  1.00  0.00     0.001 A 
ATOM     77  C   UNL A   1      49.098  25.704  32.235  1.00  0.00     0.001 A 
ATOM     78  C   UNL A   1      49.099  24.844  33.333  1.00  0.00     0.000 A 
ENDBRANCH  60  73
ENDBRANCH  34  35
ENDBRANCH  26  29
ENDBRANCH  24  25
ENDBRANCH  23  24
ENDBRANCH  22  23
ENDBRANCH   3  22
TORSDOF 18
ENDMDL
MODEL 2
REMARK VINA RESULT:      -9.4      1.544      2.193
REMARK SMILES C#CCN(CC(=O)NCCCNC(=O)c1ccc(-c2c3nc(c(-c4ccccc4)c4ccc([nH]4)c(-c4ccccc4)c4nc(c(-c5ccccc5)c5ccc2[nH]5)C=C4)C=C3)cc1)C(=O)CCNC(=O)C(C)(C)C
REMARK SMILES IDX 6 1 7 2 8 3 5 5 4 6 3 7 2 8 1 9 63 10 64 11 65 12 66 13
REMARK SMILES IDX 67 14 68 15 69 17 70 18 71 19 72 20 73 21 9 22 10 23 11 24
REMARK SMILES IDX 12 25 13 26 14 28 15 29 16 30 62 31 17 32 61 33 18 34 19 35
REMARK SMILES IDX 20 36 55 37 21 38 60 39 54 40 56 41 22 42 59 43 53 44 52 45
REMARK SMILES IDX 23 47 45 48 30 49 44 50 31 51 34 52 43 53 57 54 32 55 33 56
REMARK SMILES IDX 42 58 58 59 35 60 24 61 25 62 29 63 26 64 28 65 27 66 46 67
REMARK SMILES IDX 47 68 51 69 48 70 50 71 49 72 36 73 37 74 41 75 38 76 40 77
REMARK SMILES IDX 39 78
REMARK H PARENT 8 4 67 16 12 27 56 46 34 57
REMARK Flexibility Score: inf
ROOT
ATOM      1  C   UNL A   1      33.325  28.804  23.272  1.00  0.00     0.239 C 
ATOM      2  O   UNL A   1      34.386  28.956  22.662  1.00  0.00    -0.273 OA
ATOM      3  N   UNL A   1      33.180  29.477  24.442  1.00  0.00    -0.354 N 
ATOM      4  H   UNL A   1      33.959  30.010  24.721  1.00  0.00     0.163 HD
ENDROOT
BRANCH   1   5
ATOM      5  C   UNL A   1      32.202  27.916  22.722  1.00  0.00     0.220 C 
BRANCH   5   6
ATOM      6  N   UNL A   1      32.281  26.489  23.063  1.00  0.00    -0.322 N 
BRANCH   6   7
ATOM      7  C   UNL A   1      31.018  25.763  23.165  1.00  0.00     0.209 C 
BRANCH   7   8
ATOM      8  C   UNL A   1      30.438  25.736  24.570  1.00  0.00    -0.085 C 
ATOM      9  C   UNL A   1      29.940  25.712  25.775  1.00  0.00     0.006 C 
ENDBRANCH   7   8
ENDBRANCH   6   7
BRANCH   6  10
ATOM     10  C   UNL A   1      33.452  25.790  23.330  1.00  0.00     0.225 C 
ATOM     11  O   UNL A   1      34.042  25.163  22.444  1.00  0.00    -0.275 OA
BRANCH  10  12
ATOM     12  C   UNL A   1      34.037  25.762  24.731  1.00  0.00     0.121 C 
BRANCH  12  13
ATOM     13  C   UNL A   1      33.722  24.476  25.492  1.00  0.00     0.125 C 
BRANCH  13  14
ATOM     14  N   UNL A   1      34.448  23.330  24.981  1.00  0.00    -0.355 N 
ATOM     15  C   UNL A   1      34.071  22.063  24.658  1.00  0.00     0.225 C 
ATOM     16  H   UNL A   1      35.407  23.503  24.838  1.00  0.00     0.163 HD
ATOM     17  O   UNL A   1      35.001  21.257  24.540  1.00  0.00    -0.275 OA
BRANCH  15  18
ATOM     18  C   UNL A   1      32.615  21.664  24.337  1.00  0.00     0.041 C 
ATOM     19  C   UNL A   1      31.569  22.088  25.372  1.00  0.00     0.021 C 
ATOM     20  C   UNL A   1      32.265  22.235  22.957  1.00  0.00     0.021 C 
ATOM     21  C   UNL A   1      32.547  20.120  24.248  1.00  0.00     0.021 C 
ENDBRANCH  15  18
ENDBRANCH  13  14
ENDBRANCH  12  13
ENDBRANCH  10  12
ENDBRANCH   6  10
ENDBRANCH   5   6
ENDBRANCH   1   5
BRANCH   3  22
ATOM     22  C   UNL A   1      32.048  29.527  25.337  1.00  0.00     0.117 C 
BRANCH  22  23
ATOM     23  C   UNL A   1      32.322  28.790  26.643  1.00  0.00     0.042 C 
BRANCH  23  24
ATOM     24  C   UNL A   1      33.597  29.235  27.351  1.00  0.00     0.118 C 
BRANCH  24  25
ATOM     25  N   UNL A   1      33.636  30.671  27.575  1.00  0.00    -0.352 N 
ATOM     26  C   UNL A   1      34.491  31.435  28.324  1.00  0.00     0.251 C 
ATOM     27  H   UNL A   1      32.930  31.178  27.112  1.00  0.00     0.163 HD
ATOM     28  O   UNL A   1      34.195  32.599  28.571  1.00  0.00    -0.269 OA
BRANCH  26  29
ATOM     29  C   UNL A   1      35.764  30.877  28.828  1.00  0.00     0.039 A 
ATOM     30  C   UNL A   1      36.963  31.407  28.343  1.00  0.00     0.014 A 
ATOM     31  C   UNL A   1      35.787  29.793  29.709  1.00  0.00     0.014 A 
ATOM     32  C   UNL A   1      38.180  30.869  28.763  1.00  0.00     0.010 A 
ATOM     33  C   UNL A   1      37.000  29.311  30.191  1.00  0.00     0.010 A 
ATOM     34  C   UNL A   1      38.208  29.828  29.704  1.00  0.00    -0.014 A 
BRANCH  34  35
ATOM     35  C   UNL A   1      39.494  29.243  30.155  1.00  0.00     0.031 A 
ATOM     36  C   UNL A   1      40.186  29.792  31.373  1.00  0.00     0.074 A 
ATOM     37  C   UNL A   1      40.052  28.241  29.450  1.00  0.00     0.049 A 
ATOM     38  N   UNL A   1      41.321  29.424  31.913  1.00  0.00    -0.248 NA
ATOM     39  C   UNL A   1      39.532  30.915  32.062  1.00  0.00     0.031 C 
ATOM     40  C   UNL A   1      39.497  27.651  28.230  1.00  0.00     0.029 A 
ATOM     41  N   UNL A   1      41.212  27.542  29.662  1.00  0.00    -0.354 N 
ATOM     42  C   UNL A   1      41.521  30.279  32.989  1.00  0.00     0.074 A 
ATOM     43  C   UNL A   1      40.422  31.217  32.996  1.00  0.00     0.031 C 
ATOM     44  C   UNL A   1      40.300  26.654  27.822  1.00  0.00     0.029 A 
ATOM     45  C   UNL A   1      41.439  26.560  28.729  1.00  0.00     0.049 A 
ATOM     46  H   UNL A   1      41.824  27.726  30.411  1.00  0.00     0.167 HD
ATOM     47  C   UNL A   1      42.520  30.271  33.904  1.00  0.00     0.031 A 
ATOM     48  C   UNL A   1      42.451  25.679  28.620  1.00  0.00     0.031 A 
ATOM     49  C   UNL A   1      43.605  29.328  33.907  1.00  0.00     0.049 A 
ATOM     50  C   UNL A   1      43.547  25.692  29.648  1.00  0.00     0.074 A 
ATOM     51  C   UNL A   1      44.635  29.200  34.821  1.00  0.00     0.029 A 
ATOM     52  N   UNL A   1      43.796  28.347  32.947  1.00  0.00    -0.354 N 
ATOM     53  N   UNL A   1      43.686  26.464  30.698  1.00  0.00    -0.248 NA
ATOM     54  C   UNL A   1      44.620  24.702  29.480  1.00  0.00     0.031 C 
ATOM     55  C   UNL A   1      45.475  28.169  34.389  1.00  0.00     0.029 A 
ATOM     56  C   UNL A   1      44.940  27.623  33.234  1.00  0.00     0.049 A 
ATOM     57  H   UNL A   1      43.206  28.190  32.174  1.00  0.00     0.167 HD
ATOM     58  C   UNL A   1      44.848  26.039  31.329  1.00  0.00     0.074 A 
ATOM     59  C   UNL A   1      45.362  24.928  30.553  1.00  0.00     0.031 C 
ATOM     60  C   UNL A   1      45.437  26.523  32.449  1.00  0.00     0.031 A 
BRANCH  47  61
ATOM     61  C   UNL A   1      42.479  31.322  34.980  1.00  0.00    -0.014 A 
ATOM     62  C   UNL A   1      43.086  32.574  34.795  1.00  0.00     0.009 A 
ATOM     63  C   UNL A   1      41.800  31.067  36.181  1.00  0.00     0.009 A 
ATOM     64  C   UNL A   1      43.046  33.536  35.806  1.00  0.00     0.001 A 
ATOM     65  C   UNL A   1      41.738  32.042  37.179  1.00  0.00     0.001 A 
ATOM     66  C   UNL A   1      42.369  33.271  36.994  1.00  0.00     0.000 A 
ENDBRANCH  47  61
BRANCH  48  67
ATOM     67  C   UNL A   1      42.463  24.691  27.511  1.00  0.00    -0.014 A 
ATOM     68  C   UNL A   1      41.827  23.449  27.659  1.00  0.00     0.009 A 
ATOM     69  C   UNL A   1      43.114  24.980  26.302  1.00  0.00     0.009 A 
ATOM     70  C   UNL A   1      41.867  22.506  26.629  1.00  0.00     0.001 A 
ATOM     71  C   UNL A   1      43.130  24.046  25.264  1.00  0.00     0.001 A 
ATOM     72  C   UNL A   1      42.515  22.806  25.432  1.00  0.00     0.000 A 
ENDBRANCH  48  67
BRANCH  60  73
ATOM     73  C   UNL A   1      46.688  25.837  32.913  1.00  0.00    -0.014 A 
ATOM     74  C   UNL A   1      46.639  24.787  33.842  1.00  0.00     0.009 A 
ATOM     75  C   UNL A   1      47.931  26.227  32.387  1.00  0.00     0.009 A 
ATOM     76  C   UNL A   1      47.815  24.162  34.261  1.00  0.00     0.001 A 
ATOM     77  C   UNL A   1      49.101  25.582  32.788  1.00  0.00     0.001 A 
ATOM     78  C   UNL A   1      49.043  24.556  33.731  1.00  0.00     0.000 A 
ENDBRANCH  60  73
ENDBRANCH  34  35
ENDBRANCH  26  29
ENDBRANCH  24  25
ENDBRANCH  23  24
ENDBRANCH  22  23
ENDBRANCH   3  22
TORSDOF 18
ENDMDL
MODEL 3
REMARK VINA RESULT:      -9.3      4.595      8.182
REMARK SMILES C#CCN(CC(=O)NCCCNC(=O)c1ccc(-c2c3nc(c(-c4ccccc4)c4ccc([nH]4)c(-c4ccccc4)c4nc(c(-c5ccccc5)c5ccc2[nH]5)C=C4)C=C3)cc1)C(=O)CCNC(=O)C(C)(C)C
REMARK SMILES IDX 6 1 7 2 8 3 5 5 4 6 3 7 2 8 1 9 63 10 64 11 65 12 66 13
REMARK SMILES IDX 67 14 68 15 69 17 70 18 71 19 72 20 73 21 9 22 10 23 11 24
REMARK SMILES IDX 12 25 13 26 14 28 15 29 16 30 62 31 17 32 61 33 18 34 19 35
REMARK SMILES IDX 20 36 55 37 21 38 60 39 54 40 56 41 22 42 59 43 53 44 52 45
REMARK SMILES IDX 23 47 45 48 30 49 44 50 31 51 34 52 43 53 57 54 32 55 33 56
REMARK SMILES IDX 42 58 58 59 35 60 24 61 25 62 29 63 26 64 28 65 27 66 46 67
REMARK SMILES IDX 47 68 51 69 48 70 50 71 49 72 36 73 37 74 41 75 38 76 40 77
REMARK SMILES IDX 39 78
REMARK H PARENT 8 4 67 16 12 27 56 46 34 57
REMARK Flexibility Score: inf
ROOT
ATOM      1  C   UNL A   1      35.503  33.201  33.326  1.00  0.00     0.239 C 
ATOM      2  O   UNL A   1      35.060  33.325  34.470  1.00  0.00    -0.273 OA
ATOM      3  N   UNL A   1      34.970  33.996  32.363  1.00  0.00    -0.354 N 
ATOM      4  H   UNL A   1      34.242  34.588  32.661  1.00  0.00     0.163 HD
ENDROOT
BRANCH   1   5
ATOM      5  C   UNL A   1      36.630  32.211  33.004  1.00  0.00     0.220 C 
BRANCH   5   6
ATOM      6  N   UNL A   1      37.880  32.388  33.758  1.00  0.00    -0.322 N 
BRANCH   6   7
ATOM      7  C   UNL A   1      38.539  33.686  33.652  1.00  0.00     0.209 C 
BRANCH   7   8
ATOM      8  C   UNL A   1      38.810  34.121  32.221  1.00  0.00    -0.085 C 
ATOM      9  C   UNL A   1      39.043  34.494  30.993  1.00  0.00     0.006 C 
ENDBRANCH   7   8
ENDBRANCH   6   7
BRANCH   6  10
ATOM     10  C   UNL A   1      38.497  31.410  34.528  1.00  0.00     0.225 C 
ATOM     11  O   UNL A   1      38.049  31.083  35.631  1.00  0.00    -0.275 OA
BRANCH  10  12
ATOM     12  C   UNL A   1      39.762  30.722  34.042  1.00  0.00     0.121 C 
BRANCH  12  13
ATOM     13  C   UNL A   1      40.915  30.802  35.039  1.00  0.00     0.125 C 
BRANCH  13  14
ATOM     14  N   UNL A   1      40.931  29.690  35.970  1.00  0.00    -0.355 N 
ATOM     15  C   UNL A   1      41.549  28.479  35.954  1.00  0.00     0.225 C 
ATOM     16  H   UNL A   1      40.383  29.842  36.774  1.00  0.00     0.163 HD
ATOM     17  O   UNL A   1      41.103  27.656  36.763  1.00  0.00    -0.275 OA
BRANCH  15  18
ATOM     18  C   UNL A   1      42.793  28.168  35.094  1.00  0.00     0.041 C 
ATOM     19  C   UNL A   1      43.898  29.227  35.123  1.00  0.00     0.021 C 
ATOM     20  C   UNL A   1      43.343  26.807  35.539  1.00  0.00     0.021 C 
ATOM     21  C   UNL A   1      42.339  28.044  33.619  1.00  0.00     0.021 C 
ENDBRANCH  15  18
ENDBRANCH  13  14
ENDBRANCH  12  13
ENDBRANCH  10  12
ENDBRANCH   6  10
ENDBRANCH   5   6
ENDBRANCH   1   5
BRANCH   3  22
ATOM     22  C   UNL A   1      35.315  34.101  30.964  1.00  0.00     0.117 C 
BRANCH  22  23
ATOM     23  C   UNL A   1      34.234  33.512  30.066  1.00  0.00     0.042 C 
BRANCH  23  24
ATOM     24  C   UNL A   1      34.760  32.939  28.754  1.00  0.00     0.118 C 
BRANCH  24  25
ATOM     25  N   UNL A   1      34.041  31.744  28.343  1.00  0.00    -0.352 N 
ATOM     26  C   UNL A   1      34.499  30.493  28.025  1.00  0.00     0.251 C 
ATOM     27  H   UNL A   1      33.065  31.852  28.282  1.00  0.00     0.163 HD
ATOM     28  O   UNL A   1      33.744  29.702  27.467  1.00  0.00    -0.269 OA
BRANCH  26  29
ATOM     29  C   UNL A   1      35.882  30.084  28.351  1.00  0.00     0.039 A 
ATOM     30  C   UNL A   1      36.852  30.152  27.347  1.00  0.00     0.014 A 
ATOM     31  C   UNL A   1      36.212  29.565  29.605  1.00  0.00     0.014 A 
ATOM     32  C   UNL A   1      38.155  29.729  27.611  1.00  0.00     0.010 A 
ATOM     33  C   UNL A   1      37.529  29.220  29.893  1.00  0.00     0.010 A 
ATOM     34  C   UNL A   1      38.508  29.275  28.891  1.00  0.00    -0.014 A 
BRANCH  34  35
ATOM     35  C   UNL A   1      39.886  28.815  29.184  1.00  0.00     0.031 A 
ATOM     36  C   UNL A   1      40.840  29.714  29.924  1.00  0.00     0.074 A 
ATOM     37  C   UNL A   1      40.288  27.604  28.757  1.00  0.00     0.049 A 
ATOM     38  N   UNL A   1      42.087  29.497  30.259  1.00  0.00    -0.248 NA
ATOM     39  C   UNL A   1      40.336  31.040  30.318  1.00  0.00     0.031 C 
ATOM     40  C   UNL A   1      39.469  26.658  27.997  1.00  0.00     0.029 A 
ATOM     41  N   UNL A   1      41.491  26.961  28.904  1.00  0.00    -0.354 N 
ATOM     42  C   UNL A   1      42.517  30.659  30.885  1.00  0.00     0.074 A 
ATOM     43  C   UNL A   1      41.419  31.598  30.838  1.00  0.00     0.031 C 
ATOM     44  C   UNL A   1      40.182  25.541  27.775  1.00  0.00     0.029 A 
ATOM     45  C   UNL A   1      41.514  25.706  28.347  1.00  0.00     0.049 A 
ATOM     46  H   UNL A   1      42.263  27.360  29.366  1.00  0.00     0.167 HD
ATOM     47  C   UNL A   1      43.713  30.917  31.467  1.00  0.00     0.031 A 
ATOM     48  C   UNL A   1      42.500  24.791  28.303  1.00  0.00     0.031 A 
ATOM     49  C   UNL A   1      44.799  29.978  31.530  1.00  0.00     0.049 A 
ATOM     50  C   UNL A   1      43.816  25.101  28.957  1.00  0.00     0.074 A 
ATOM     51  C   UNL A   1      46.030  30.120  32.146  1.00  0.00     0.029 A 
ATOM     52  N   UNL A   1      44.781  28.716  30.955  1.00  0.00    -0.354 N 
ATOM     53  N   UNL A   1      44.184  26.180  29.603  1.00  0.00    -0.248 NA
ATOM     54  C   UNL A   1      44.850  24.059  28.883  1.00  0.00     0.031 C 
ATOM     55  C   UNL A   1      46.774  28.960  31.906  1.00  0.00     0.029 A 
ATOM     56  C   UNL A   1      45.987  28.077  31.184  1.00  0.00     0.049 A 
ATOM     57  H   UNL A   1      44.023  28.333  30.458  1.00  0.00     0.167 HD
ATOM     58  C   UNL A   1      45.482  25.939  30.035  1.00  0.00     0.074 A 
ATOM     59  C   UNL A   1      45.829  24.604  29.592  1.00  0.00     0.031 C 
ATOM     60  C   UNL A   1      46.314  26.750  30.733  1.00  0.00     0.031 A 
BRANCH  47  61
ATOM     61  C   UNL A   1      43.902  32.275  32.085  1.00  0.00    -0.014 A 
ATOM     62  C   UNL A   1      43.629  32.499  33.444  1.00  0.00     0.009 A 
ATOM     63  C   UNL A   1      44.388  33.337  31.307  1.00  0.00     0.009 A 
ATOM     64  C   UNL A   1      43.802  33.767  34.002  1.00  0.00     0.001 A 
ATOM     65  C   UNL A   1      44.587  34.597  31.874  1.00  0.00     0.001 A 
ATOM     66  C   UNL A   1      44.286  34.813  33.218  1.00  0.00     0.000 A 
ENDBRANCH  47  61
BRANCH  48  67
ATOM     67  C   UNL A   1      42.271  23.481  27.641  1.00  0.00    -0.014 A 
ATOM     68  C   UNL A   1      42.660  23.283  26.307  1.00  0.00     0.009 A 
ATOM     69  C   UNL A   1      41.659  22.425  28.334  1.00  0.00     0.009 A 
ATOM     70  C   UNL A   1      42.415  22.063  25.672  1.00  0.00     0.001 A 
ATOM     71  C   UNL A   1      41.439  21.198  27.705  1.00  0.00     0.001 A 
ATOM     72  C   UNL A   1      41.808  21.021  26.372  1.00  0.00     0.000 A 
ENDBRANCH  48  67
BRANCH  60  73
ATOM     73  C   UNL A   1      47.667  26.202  31.081  1.00  0.00    -0.014 A 
ATOM     74  C   UNL A   1      47.920  25.638  32.341  1.00  0.00     0.009 A 
ATOM     75  C   UNL A   1      48.693  26.222  30.123  1.00  0.00     0.009 A 
ATOM     76  C   UNL A   1      49.186  25.134  32.645  1.00  0.00     0.001 A 
ATOM     77  C   UNL A   1      49.948  25.692  30.421  1.00  0.00     0.001 A 
ATOM     78  C   UNL A   1      50.197  25.157  31.685  1.00  0.00     0.000 A 
ENDBRANCH  60  73
ENDBRANCH  34  35
ENDBRANCH  26  29
ENDBRANCH  24  25
ENDBRANCH  23  24
ENDBRANCH  22  23
ENDBRANCH   3  22
TORSDOF 18
ENDMDL
