MODEL 1
REMARK VINA RESULT:     -11.8      0.000      0.000
REMARK SMILES O=C(NCCCNC(=O)c1ccc2nc(C3CCCCC3)[nH]c2c1)c1ccc(-c2c3nc(c(-c4ccccc4)c4ccc([nH]4)c(-c4ccccc4)c4nc(c(-c5ccccc5)c5ccc2[nH]5)C=C4)C=C3)cc1
REMARK SMILES IDX 4 1 3 2 1 3 2 4 25 6 26 7 72 8 27 9 71 10 28 11 29 12 30 13
REMARK SMILES IDX 65 14 31 15 70 16 64 17 66 18 32 19 69 20 63 21 62 22 33 24
REMARK SMILES IDX 55 25 40 26 54 27 41 28 44 29 53 30 67 31 42 32 43 33 52 35
REMARK SMILES IDX 68 36 45 37 34 38 35 39 39 40 36 41 38 42 37 43 56 44 57 45
REMARK SMILES IDX 61 46 58 47 60 48 59 49 46 50 47 51 51 52 48 53 50 54 49 55
REMARK SMILES IDX 5 56 6 57 7 58 8 59 9 61 10 62 11 63 24 64 12 65 23 66 13 67
REMARK SMILES IDX 22 68 14 69 15 70 16 72 17 73 21 74 18 75 20 76 19 77
REMARK H PARENT 3 5 66 23 44 34 7 60 22 71
REMARK Flexibility Score: inf
ROOT
ATOM      1  C   UNL A   1      38.540  20.230  25.546  1.00  0.00     0.118 C 
ENDROOT
BRANCH   1   2
ATOM      2  N   UNL A   1      39.675  19.322  25.652  1.00  0.00    -0.352 N 
ATOM      3  O   UNL A   1      41.825  18.690  25.869  1.00  0.00    -0.269 OA
ATOM      4  C   UNL A   1      40.975  19.565  26.018  1.00  0.00     0.251 C 
ATOM      5  H   UNL A   1      39.476  18.384  25.425  1.00  0.00     0.163 HD
BRANCH   4   6
ATOM      6  C   UNL A   1      41.364  20.879  26.571  1.00  0.00     0.039 A 
ATOM      7  C   UNL A   1      41.236  21.146  27.934  1.00  0.00     0.014 A 
ATOM      8  C   UNL A   1      41.889  21.854  25.717  1.00  0.00     0.014 A 
ATOM      9  C   UNL A   1      41.470  22.427  28.414  1.00  0.00     0.010 A 
ATOM     10  C   UNL A   1      42.231  23.112  26.223  1.00  0.00     0.010 A 
ATOM     11  C   UNL A   1      41.996  23.419  27.571  1.00  0.00    -0.014 A 
BRANCH  11  12
ATOM     12  C   UNL A   1      42.368  24.732  28.152  1.00  0.00     0.031 A 
ATOM     13  C   UNL A   1      43.785  25.045  28.541  1.00  0.00     0.074 A 
ATOM     14  C   UNL A   1      41.405  25.664  28.295  1.00  0.00     0.049 A 
ATOM     15  N   UNL A   1      44.273  26.155  29.037  1.00  0.00    -0.248 NA
ATOM     16  C   UNL A   1      44.785  23.981  28.360  1.00  0.00     0.031 C 
ATOM     17  C   UNL A   1      39.990  25.475  27.956  1.00  0.00     0.029 A 
ATOM     18  N   UNL A   1      41.466  26.960  28.738  1.00  0.00    -0.354 N 
ATOM     19  C   UNL A   1      45.626  25.919  29.245  1.00  0.00     0.074 A 
ATOM     20  C   UNL A   1      45.881  24.551  28.843  1.00  0.00     0.031 C 
ATOM     21  C   UNL A   1      39.332  26.625  28.152  1.00  0.00     0.029 A 
ATOM     22  C   UNL A   1      40.257  27.609  28.698  1.00  0.00     0.049 A 
ATOM     23  H   UNL A   1      42.296  27.384  29.054  1.00  0.00     0.167 HD
ATOM     24  C   UNL A   1      46.568  26.766  29.726  1.00  0.00     0.031 A 
ATOM     25  C   UNL A   1      39.917  28.854  29.081  1.00  0.00     0.031 A 
ATOM     26  C   UNL A   1      46.309  28.126  30.124  1.00  0.00     0.049 A 
ATOM     27  C   UNL A   1      40.976  29.753  29.645  1.00  0.00     0.074 A 
ATOM     28  C   UNL A   1      47.207  29.071  30.592  1.00  0.00     0.029 A 
ATOM     29  N   UNL A   1      45.063  28.732  30.106  1.00  0.00    -0.354 N 
ATOM     30  N   UNL A   1      42.257  29.524  29.797  1.00  0.00    -0.248 NA
ATOM     31  C   UNL A   1      40.541  31.084  30.089  1.00  0.00     0.031 C 
ATOM     32  C   UNL A   1      46.494  30.232  30.910  1.00  0.00     0.029 A 
ATOM     33  C   UNL A   1      45.163  30.030  30.583  1.00  0.00     0.049 A 
ATOM     34  H   UNL A   1      44.230  28.306  29.800  1.00  0.00     0.167 HD
ATOM     35  C   UNL A   1      42.786  30.687  30.338  1.00  0.00     0.074 A 
ATOM     36  C   UNL A   1      41.690  31.627  30.463  1.00  0.00     0.031 C 
ATOM     37  C   UNL A   1      44.064  30.951  30.702  1.00  0.00     0.031 A 
BRANCH  24  38
ATOM     38  C   UNL A   1      47.970  26.244  29.878  1.00  0.00    -0.014 A 
ATOM     39  C   UNL A   1      48.903  26.338  28.834  1.00  0.00     0.009 A 
ATOM     40  C   UNL A   1      48.385  25.718  31.113  1.00  0.00     0.009 A 
ATOM     41  C   UNL A   1      50.216  25.896  29.017  1.00  0.00     0.001 A 
ATOM     42  C   UNL A   1      49.704  25.299  31.301  1.00  0.00     0.001 A 
ATOM     43  C   UNL A   1      50.617  25.384  30.250  1.00  0.00     0.000 A 
ENDBRANCH  24  38
BRANCH  25  44
ATOM     44  C   UNL A   1      38.507  29.307  28.970  1.00  0.00    -0.014 A 
ATOM     45  C   UNL A   1      38.009  29.815  27.761  1.00  0.00     0.009 A 
ATOM     46  C   UNL A   1      37.650  29.238  30.081  1.00  0.00     0.009 A 
ATOM     47  C   UNL A   1      36.691  30.270  27.676  1.00  0.00     0.001 A 
ATOM     48  C   UNL A   1      36.325  29.661  29.984  1.00  0.00     0.001 A 
ATOM     49  C   UNL A   1      35.849  30.189  28.785  1.00  0.00     0.000 A 
ENDBRANCH  25  44
BRANCH  37  50
ATOM     50  C   UNL A   1      44.347  32.326  31.238  1.00  0.00    -0.014 A 
ATOM     51  C   UNL A   1      44.286  32.600  32.612  1.00  0.00     0.009 A 
ATOM     52  C   UNL A   1      44.702  33.355  30.353  1.00  0.00     0.009 A 
ATOM     53  C   UNL A   1      44.537  33.889  33.086  1.00  0.00     0.001 A 
ATOM     54  C   UNL A   1      44.984  34.635  30.831  1.00  0.00     0.001 A 
ATOM     55  C   UNL A   1      44.891  34.903  32.196  1.00  0.00     0.000 A 
ENDBRANCH  37  50
ENDBRANCH  11  12
ENDBRANCH   4   6
ENDBRANCH   1   2
BRANCH   1  56
ATOM     56  C   UNL A   1      37.307  19.570  24.949  1.00  0.00     0.042 C 
BRANCH  56  57
ATOM     57  C   UNL A   1      36.061  20.441  24.989  1.00  0.00     0.118 C 
BRANCH  57  58
ATOM     58  N   UNL A   1      34.843  19.652  25.089  1.00  0.00    -0.352 N 
ATOM     59  C   UNL A   1      33.532  20.053  25.112  1.00  0.00     0.251 C 
ATOM     60  H   UNL A   1      34.981  18.679  25.149  1.00  0.00     0.163 HD
ATOM     61  O   UNL A   1      32.659  19.255  25.438  1.00  0.00    -0.269 OA
BRANCH  59  62
ATOM     62  C   UNL A   1      33.166  21.442  24.761  1.00  0.00     0.042 A 
ATOM     63  C   UNL A   1      32.828  21.784  23.444  1.00  0.00     0.016 A 
ATOM     64  C   UNL A   1      33.108  22.385  25.799  1.00  0.00     0.042 A 
ATOM     65  C   UNL A   1      32.512  23.104  23.105  1.00  0.00     0.031 A 
ATOM     66  C   UNL A   1      32.755  23.685  25.433  1.00  0.00     0.066 A 
ATOM     67  C   UNL A   1      32.475  24.063  24.124  1.00  0.00     0.089 A 
ATOM     68  N   UNL A   1      32.576  24.833  26.159  1.00  0.00    -0.342 N 
ATOM     69  N   UNL A   1      32.166  25.394  24.055  1.00  0.00    -0.233 NA
ATOM     70  C   UNL A   1      32.204  25.835  25.295  1.00  0.00     0.110 A 
ATOM     71  H   UNL A   1      32.694  24.924  27.132  1.00  0.00     0.168 HD
BRANCH  70  72
ATOM     72  C   UNL A   1      31.833  27.214  25.745  1.00  0.00     0.055 C 
ATOM     73  C   UNL A   1      32.823  27.722  26.803  1.00  0.00     0.011 C 
ATOM     74  C   UNL A   1      31.715  28.193  24.569  1.00  0.00     0.011 C 
ATOM     75  C   UNL A   1      32.470  29.130  27.271  1.00  0.00     0.001 C 
ATOM     76  C   UNL A   1      31.365  29.600  25.050  1.00  0.00     0.001 C 
ATOM     77  C   UNL A   1      32.357  30.098  26.097  1.00  0.00     0.000 C 
ENDBRANCH  70  72
ENDBRANCH  59  62
ENDBRANCH  57  58
ENDBRANCH  56  57
ENDBRANCH   1  56
TORSDOF 11
ENDMDL
MODEL 2
REMARK VINA RESULT:     -11.8      0.227      6.056
REMARK SMILES O=C(NCCCNC(=O)c1ccc2nc(C3CCCCC3)[nH]c2c1)c1ccc(-c2c3nc(c(-c4ccccc4)c4ccc([nH]4)c(-c4ccccc4)c4nc(c(-c5ccccc5)c5ccc2[nH]5)C=C4)C=C3)cc1
REMARK SMILES IDX 4 1 3 2 1 3 2 4 25 6 26 7 72 8 27 9 71 10 28 11 29 12 30 13
REMARK SMILES IDX 65 14 31 15 70 16 64 17 66 18 32 19 69 20 63 21 62 22 33 24
REMARK SMILES IDX 55 25 40 26 54 27 41 28 44 29 53 30 67 31 42 32 43 33 52 35
REMARK SMILES IDX 68 36 45 37 34 38 35 39 39 40 36 41 38 42 37 43 56 44 57 45
REMARK SMILES IDX 61 46 58 47 60 48 59 49 46 50 47 51 51 52 48 53 50 54 49 55
REMARK SMILES IDX 5 56 6 57 7 58 8 59 9 61 10 62 11 63 24 64 12 65 23 66 13 67
REMARK SMILES IDX 22 68 14 69 15 70 16 72 17 73 21 74 18 75 20 76 19 77
REMARK H PARENT 3 5 66 23 44 34 7 60 22 71
REMARK Flexibility Score: inf
ROOT
ATOM      1  C   UNL A   1      38.524  20.266  25.369  1.00  0.00     0.118 C 
ENDROOT
BRANCH   1   2
ATOM      2  N   UNL A   1      39.636  19.353  25.599  1.00  0.00    -0.352 N 
ATOM      3  O   UNL A   1      41.756  18.711  26.006  1.00  0.00    -0.269 OA
ATOM      4  C   UNL A   1      40.909  19.600  26.052  1.00  0.00     0.251 C 
ATOM      5  H   UNL A   1      39.444  18.408  25.399  1.00  0.00     0.163 HD
BRANCH   4   6
ATOM      6  C   UNL A   1      41.270  20.934  26.575  1.00  0.00     0.039 A 
ATOM      7  C   UNL A   1      41.728  21.936  25.719  1.00  0.00     0.014 A 
ATOM      8  C   UNL A   1      41.125  21.197  27.941  1.00  0.00     0.014 A 
ATOM      9  C   UNL A   1      42.198  23.133  26.243  1.00  0.00     0.010 A 
ATOM     10  C   UNL A   1      41.493  22.446  28.452  1.00  0.00     0.010 A 
ATOM     11  C   UNL A   1      42.062  23.414  27.611  1.00  0.00    -0.014 A 
BRANCH  11  12
ATOM     12  C   UNL A   1      42.442  24.758  28.110  1.00  0.00     0.031 A 
ATOM     13  C   UNL A   1      41.417  25.839  28.313  1.00  0.00     0.074 A 
ATOM     14  C   UNL A   1      43.735  24.986  28.413  1.00  0.00     0.049 A 
ATOM     15  N   UNL A   1      41.588  27.056  28.766  1.00  0.00    -0.248 NA
ATOM     16  C   UNL A   1      40.024  25.522  27.961  1.00  0.00     0.031 C 
ATOM     17  C   UNL A   1      44.823  24.015  28.253  1.00  0.00     0.029 A 
ATOM     18  N   UNL A   1      44.355  26.090  28.938  1.00  0.00    -0.354 N 
ATOM     19  C   UNL A   1      40.336  27.656  28.734  1.00  0.00     0.074 A 
ATOM     20  C   UNL A   1      39.414  26.676  28.197  1.00  0.00     0.031 C 
ATOM     21  C   UNL A   1      45.961  24.546  28.720  1.00  0.00     0.029 A 
ATOM     22  C   UNL A   1      45.702  25.916  29.142  1.00  0.00     0.049 A 
ATOM     23  H   UNL A   1      43.881  26.927  29.148  1.00  0.00     0.167 HD
ATOM     24  C   UNL A   1      39.987  28.906  29.120  1.00  0.00     0.031 A 
ATOM     25  C   UNL A   1      46.636  26.770  29.598  1.00  0.00     0.031 A 
ATOM     26  C   UNL A   1      40.908  29.877  29.655  1.00  0.00     0.049 A 
ATOM     27  C   UNL A   1      46.224  28.160  29.980  1.00  0.00     0.074 A 
ATOM     28  C   UNL A   1      40.641  31.159  30.105  1.00  0.00     0.029 A 
ATOM     29  N   UNL A   1      42.271  29.675  29.808  1.00  0.00    -0.354 N 
ATOM     30  N   UNL A   1      45.028  28.695  29.979  1.00  0.00    -0.248 NA
ATOM     31  C   UNL A   1      47.293  29.064  30.426  1.00  0.00     0.031 C 
ATOM     32  C   UNL A   1      41.851  31.753  30.478  1.00  0.00     0.029 A 
ATOM     33  C   UNL A   1      42.863  30.820  30.318  1.00  0.00     0.049 A 
ATOM     34  H   UNL A   1      42.747  28.842  29.588  1.00  0.00     0.167 HD
ATOM     35  C   UNL A   1      45.196  29.992  30.442  1.00  0.00     0.074 A 
ATOM     36  C   UNL A   1      46.605  30.153  30.737  1.00  0.00     0.031 C 
ATOM     37  C   UNL A   1      44.266  30.964  30.603  1.00  0.00     0.031 A 
BRANCH  24  38
ATOM     38  C   UNL A   1      38.551  29.319  28.954  1.00  0.00    -0.014 A 
ATOM     39  C   UNL A   1      38.053  29.757  27.717  1.00  0.00     0.009 A 
ATOM     40  C   UNL A   1      37.664  29.195  30.037  1.00  0.00     0.009 A 
ATOM     41  C   UNL A   1      36.701  30.084  27.574  1.00  0.00     0.001 A 
ATOM     42  C   UNL A   1      36.309  29.498  29.884  1.00  0.00     0.001 A 
ATOM     43  C   UNL A   1      35.831  29.948  28.654  1.00  0.00     0.000 A 
ENDBRANCH  24  38
BRANCH  25  44
ATOM     44  C   UNL A   1      48.056  26.340  29.688  1.00  0.00    -0.014 A 
ATOM     45  C   UNL A   1      48.916  26.472  28.588  1.00  0.00     0.009 A 
ATOM     46  C   UNL A   1      48.556  25.789  30.879  1.00  0.00     0.009 A 
ATOM     47  C   UNL A   1      50.240  26.034  28.670  1.00  0.00     0.001 A 
ATOM     48  C   UNL A   1      49.888  25.385  30.970  1.00  0.00     0.001 A 
ATOM     49  C   UNL A   1      50.726  25.496  29.862  1.00  0.00     0.000 A 
ENDBRANCH  25  44
BRANCH  37  50
ATOM     50  C   UNL A   1      44.744  32.276  31.157  1.00  0.00    -0.014 A 
ATOM     51  C   UNL A   1      45.122  33.330  30.311  1.00  0.00     0.009 A 
ATOM     52  C   UNL A   1      44.796  32.465  32.547  1.00  0.00     0.009 A 
ATOM     53  C   UNL A   1      45.578  34.536  30.848  1.00  0.00     0.001 A 
ATOM     54  C   UNL A   1      45.222  33.681  33.081  1.00  0.00     0.001 A 
ATOM     55  C   UNL A   1      45.623  34.712  32.231  1.00  0.00     0.000 A 
ENDBRANCH  37  50
ENDBRANCH  11  12
ENDBRANCH   4   6
ENDBRANCH   1   2
BRANCH   1  56
ATOM     56  C   UNL A   1      37.243  19.549  24.974  1.00  0.00     0.042 C 
BRANCH  56  57
ATOM     57  C   UNL A   1      36.006  20.433  25.010  1.00  0.00     0.118 C 
BRANCH  57  58
ATOM     58  N   UNL A   1      34.778  19.656  25.097  1.00  0.00    -0.352 N 
ATOM     59  C   UNL A   1      33.472  20.071  25.104  1.00  0.00     0.251 C 
ATOM     60  H   UNL A   1      34.906  18.682  25.159  1.00  0.00     0.163 HD
ATOM     61  O   UNL A   1      32.586  19.282  25.421  1.00  0.00    -0.269 OA
BRANCH  59  62
ATOM     62  C   UNL A   1      33.124  21.463  24.748  1.00  0.00     0.042 A 
ATOM     63  C   UNL A   1      32.839  21.814  23.421  1.00  0.00     0.016 A 
ATOM     64  C   UNL A   1      33.028  22.400  25.788  1.00  0.00     0.042 A 
ATOM     65  C   UNL A   1      32.540  23.137  23.078  1.00  0.00     0.031 A 
ATOM     66  C   UNL A   1      32.693  23.703  25.417  1.00  0.00     0.066 A 
ATOM     67  C   UNL A   1      32.466  24.090  24.101  1.00  0.00     0.089 A 
ATOM     68  N   UNL A   1      32.489  24.847  26.143  1.00  0.00    -0.342 N 
ATOM     69  N   UNL A   1      32.164  25.423  24.028  1.00  0.00    -0.233 NA
ATOM     70  C   UNL A   1      32.154  25.856  25.271  1.00  0.00     0.110 A 
ATOM     71  H   UNL A   1      32.569  24.932  27.120  1.00  0.00     0.168 HD
BRANCH  70  72
ATOM     72  C   UNL A   1      31.770  27.233  25.715  1.00  0.00     0.055 C 
ATOM     73  C   UNL A   1      32.745  27.748  26.785  1.00  0.00     0.011 C 
ATOM     74  C   UNL A   1      31.660  28.210  24.537  1.00  0.00     0.011 C 
ATOM     75  C   UNL A   1      32.377  29.155  27.246  1.00  0.00     0.001 C 
ATOM     76  C   UNL A   1      31.296  29.615  25.012  1.00  0.00     0.001 C 
ATOM     77  C   UNL A   1      32.273  30.121  26.070  1.00  0.00     0.000 C 
ENDBRANCH  70  72
ENDBRANCH  59  62
ENDBRANCH  57  58
ENDBRANCH  56  57
ENDBRANCH   1  56
TORSDOF 11
ENDMDL
MODEL 3
REMARK VINA RESULT:     -11.7      3.906      9.154
REMARK SMILES O=C(NCCCNC(=O)c1ccc2nc(C3CCCCC3)[nH]c2c1)c1ccc(-c2c3nc(c(-c4ccccc4)c4ccc([nH]4)c(-c4ccccc4)c4nc(c(-c5ccccc5)c5ccc2[nH]5)C=C4)C=C3)cc1
REMARK SMILES IDX 4 1 3 2 1 3 2 4 25 6 26 7 72 8 27 9 71 10 28 11 29 12 30 13
REMARK SMILES IDX 65 14 31 15 70 16 64 17 66 18 32 19 69 20 63 21 62 22 33 24
REMARK SMILES IDX 55 25 40 26 54 27 41 28 44 29 53 30 67 31 42 32 43 33 52 35
REMARK SMILES IDX 68 36 45 37 34 38 35 39 39 40 36 41 38 42 37 43 56 44 57 45
REMARK SMILES IDX 61 46 58 47 60 48 59 49 46 50 47 51 51 52 48 53 50 54 49 55
REMARK SMILES IDX 5 56 6 57 7 58 8 59 9 61 10 62 11 63 24 64 12 65 23 66 13 67
REMARK SMILES IDX 22 68 14 69 15 70 16 72 17 73 21 74 18 75 20 76 19 77
REMARK H PARENT 3 5 66 23 44 34 7 60 22 71
REMARK Flexibility Score: inf
ROOT
ATOM      1  C   UNL A   1      32.700  32.718  26.905  1.00  0.00     0.118 C 
ENDROOT
BRANCH   1   2
ATOM      2  N   UNL A   1      32.489  33.967  27.626  1.00  0.00    -0.352 N 
ATOM      3  O   UNL A   1      32.713  35.485  29.273  1.00  0.00    -0.269 OA
ATOM      4  C   UNL A   1      33.164  34.499  28.696  1.00  0.00     0.251 C 
ATOM      5  H   UNL A   1      31.744  34.517  27.291  1.00  0.00     0.163 HD
BRANCH   4   6
ATOM      6  C   UNL A   1      34.419  33.880  29.172  1.00  0.00     0.039 A 
ATOM      7  C   UNL A   1      34.401  32.906  30.171  1.00  0.00     0.014 A 
ATOM      8  C   UNL A   1      35.634  34.259  28.591  1.00  0.00     0.014 A 
ATOM      9  C   UNL A   1      35.594  32.440  30.705  1.00  0.00     0.010 A 
ATOM     10  C   UNL A   1      36.831  33.703  29.055  1.00  0.00     0.010 A 
ATOM     11  C   UNL A   1      36.822  32.810  30.137  1.00  0.00    -0.014 A 
BRANCH  11  12
ATOM     12  C   UNL A   1      38.067  32.180  30.641  1.00  0.00     0.031 A 
ATOM     13  C   UNL A   1      38.817  32.750  31.812  1.00  0.00     0.074 A 
ATOM     14  C   UNL A   1      38.501  31.054  30.042  1.00  0.00     0.049 A 
ATOM     15  N   UNL A   1      39.905  32.300  32.387  1.00  0.00    -0.248 NA
ATOM     16  C   UNL A   1      38.288  33.982  32.417  1.00  0.00     0.031 C 
ATOM     17  C   UNL A   1      37.860  30.408  28.892  1.00  0.00     0.029 A 
ATOM     18  N   UNL A   1      39.565  30.238  30.326  1.00  0.00    -0.354 N 
ATOM     19  C   UNL A   1      40.202  33.200  33.402  1.00  0.00     0.074 A 
ATOM     20  C   UNL A   1      39.192  34.237  33.354  1.00  0.00     0.031 C 
ATOM     21  C   UNL A   1      38.510  29.272  28.604  1.00  0.00     0.029 A 
ATOM     22  C   UNL A   1      39.654  29.146  29.497  1.00  0.00     0.049 A 
ATOM     23  H   UNL A   1      40.205  30.417  31.052  1.00  0.00     0.167 HD
ATOM     24  C   UNL A   1      41.222  33.164  34.292  1.00  0.00     0.031 A 
ATOM     25  C   UNL A   1      40.567  28.159  29.442  1.00  0.00     0.031 A 
ATOM     26  C   UNL A   1      42.224  32.129  34.337  1.00  0.00     0.049 A 
ATOM     27  C   UNL A   1      41.705  28.169  30.417  1.00  0.00     0.074 A 
ATOM     28  C   UNL A   1      43.277  31.990  35.225  1.00  0.00     0.029 A 
ATOM     29  N   UNL A   1      42.301  31.064  33.454  1.00  0.00    -0.354 N 
ATOM     30  N   UNL A   1      41.947  29.008  31.395  1.00  0.00    -0.248 NA
ATOM     31  C   UNL A   1      42.698  27.095  30.281  1.00  0.00     0.031 C 
ATOM     32  C   UNL A   1      44.024  30.870  34.845  1.00  0.00     0.029 A 
ATOM     33  C   UNL A   1      43.401  30.278  33.759  1.00  0.00     0.049 A 
ATOM     34  H   UNL A   1      41.668  30.890  32.721  1.00  0.00     0.167 HD
ATOM     35  C   UNL A   1      43.107  28.553  32.003  1.00  0.00     0.074 A 
ATOM     36  C   UNL A   1      43.507  27.351  31.299  1.00  0.00     0.031 C 
ATOM     37  C   UNL A   1      43.785  29.087  33.048  1.00  0.00     0.031 A 
BRANCH  24  38
ATOM     38  C   UNL A   1      41.331  34.290  35.283  1.00  0.00    -0.014 A 
ATOM     39  C   UNL A   1      42.052  35.457  34.988  1.00  0.00     0.009 A 
ATOM     40  C   UNL A   1      40.638  34.210  36.503  1.00  0.00     0.009 A 
ATOM     41  C   UNL A   1      42.094  36.513  35.904  1.00  0.00     0.001 A 
ATOM     42  C   UNL A   1      40.661  35.277  37.405  1.00  0.00     0.001 A 
ATOM     43  C   UNL A   1      41.395  36.424  37.106  1.00  0.00     0.000 A 
ENDBRANCH  24  38
BRANCH  25  44
ATOM     44  C   UNL A   1      40.455  27.100  28.406  1.00  0.00    -0.014 A 
ATOM     45  C   UNL A   1      39.725  25.928  28.653  1.00  0.00     0.009 A 
ATOM     46  C   UNL A   1      41.087  27.256  27.161  1.00  0.00     0.009 A 
ATOM     47  C   UNL A   1      39.653  24.923  27.686  1.00  0.00     0.001 A 
ATOM     48  C   UNL A   1      40.985  26.266  26.184  1.00  0.00     0.001 A 
ATOM     49  C   UNL A   1      40.279  25.095  26.451  1.00  0.00     0.000 A 
ENDBRANCH  25  44
BRANCH  37  50
ATOM     50  C   UNL A   1      45.008  28.348  33.512  1.00  0.00    -0.014 A 
ATOM     51  C   UNL A   1      44.923  27.322  34.465  1.00  0.00     0.009 A 
ATOM     52  C   UNL A   1      46.261  28.671  32.969  1.00  0.00     0.009 A 
ATOM     53  C   UNL A   1      46.075  26.660  34.894  1.00  0.00     0.001 A 
ATOM     54  C   UNL A   1      47.407  27.987  33.374  1.00  0.00     0.001 A 
ATOM     55  C   UNL A   1      47.314  26.989  34.344  1.00  0.00     0.000 A 
ENDBRANCH  37  50
ENDBRANCH  11  12
ENDBRANCH   4   6
ENDBRANCH   1   2
BRANCH   1  56
ATOM     56  C   UNL A   1      31.410  31.951  26.660  1.00  0.00     0.042 C 
BRANCH  56  57
ATOM     57  C   UNL A   1      31.623  30.507  26.235  1.00  0.00     0.118 C 
BRANCH  57  58
ATOM     58  N   UNL A   1      31.091  30.240  24.907  1.00  0.00    -0.352 N 
ATOM     59  C   UNL A   1      31.141  29.099  24.150  1.00  0.00     0.251 C 
ATOM     60  H   UNL A   1      30.621  30.997  24.488  1.00  0.00     0.163 HD
ATOM     61  O   UNL A   1      30.839  29.145  22.962  1.00  0.00    -0.269 OA
BRANCH  59  62
ATOM     62  C   UNL A   1      31.569  27.817  24.752  1.00  0.00     0.042 A 
ATOM     63  C   UNL A   1      30.674  27.043  25.504  1.00  0.00     0.016 A 
ATOM     64  C   UNL A   1      32.875  27.377  24.490  1.00  0.00     0.042 A 
ATOM     65  C   UNL A   1      31.086  25.846  26.099  1.00  0.00     0.031 A 
ATOM     66  C   UNL A   1      33.244  26.162  25.070  1.00  0.00     0.066 A 
ATOM     67  C   UNL A   1      32.396  25.405  25.870  1.00  0.00     0.089 A 
ATOM     68  N   UNL A   1      34.399  25.425  25.015  1.00  0.00    -0.342 N 
ATOM     69  N   UNL A   1      33.019  24.268  26.307  1.00  0.00    -0.233 NA
ATOM     70  C   UNL A   1      34.216  24.283  25.759  1.00  0.00     0.110 A 
ATOM     71  H   UNL A   1      35.218  25.672  24.528  1.00  0.00     0.168 HD
BRANCH  70  72
ATOM     72  C   UNL A   1      35.236  23.192  25.855  1.00  0.00     0.055 C 
ATOM     73  C   UNL A   1      34.864  22.020  24.934  1.00  0.00     0.011 C 
ATOM     74  C   UNL A   1      36.655  23.703  25.570  1.00  0.00     0.011 C 
ATOM     75  C   UNL A   1      35.896  20.900  25.009  1.00  0.00     0.001 C 
ATOM     76  C   UNL A   1      37.678  22.571  25.644  1.00  0.00     0.001 C 
ATOM     77  C   UNL A   1      37.303  21.414  24.722  1.00  0.00     0.000 C 
ENDBRANCH  70  72
ENDBRANCH  59  62
ENDBRANCH  57  58
ENDBRANCH  56  57
ENDBRANCH   1  56
TORSDOF 11
ENDMDL
