MODEL 1
REMARK VINA RESULT:     -11.8      0.000      0.000
REMARK SMILES COc1ccc(S(=O)(=O)N2CCCC[C@@H]2C(=O)NCCCNC(=O)c2ccc(-c3c4nc(c(-c5ccccc5)c5ccc([nH]5)c(-c5ccccc5)c5nc(c(-c6ccccc6)c6ccc3[nH]6)C=C5)C=C4)cc2)cc1C
REMARK SMILES IDX 19 1 18 2 16 3 17 4 15 6 10 7 11 8 12 9 14 10 13 11 7 12
REMARK SMILES IDX 8 13 9 14 6 15 3 16 4 17 74 18 5 19 73 20 75 21 2 22 1 23
REMARK SMILES IDX 20 24 21 25 22 26 23 27 24 29 25 30 26 31 72 32 27 33 71 34
REMARK SMILES IDX 28 35 29 36 30 37 65 38 31 39 70 40 64 41 66 42 32 43 69 44
REMARK SMILES IDX 63 45 62 46 33 48 55 49 40 50 54 51 41 52 44 53 53 54 67 55
REMARK SMILES IDX 42 56 43 57 52 59 68 60 45 61 34 62 35 63 39 64 36 65 38 66
REMARK SMILES IDX 37 67 56 68 57 69 61 70 58 71 60 72 59 73 46 74 47 75 51 76
REMARK SMILES IDX 48 77 50 78 49 79
REMARK H PARENT 18 5 22 28 66 47 44 58
REMARK Flexibility Score: inf
ROOT
ATOM      1  C   UNL A   1      34.983  29.196  27.532  1.00  0.00     0.117 C 
ENDROOT
BRANCH   1   2
ATOM      2  N   UNL A   1      33.621  28.692  27.576  1.00  0.00    -0.355 N 
ATOM      3  C   UNL A   1      32.992  27.798  26.756  1.00  0.00     0.238 C 
ATOM      4  O   UNL A   1      31.792  27.579  26.947  1.00  0.00    -0.273 OA
ATOM      5  H   UNL A   1      33.067  29.048  28.308  1.00  0.00     0.163 HD
BRANCH   3   6
ATOM      6  C   UNL A   1      33.720  27.143  25.574  1.00  0.00     0.162 C 
ATOM      7  N   UNL A   1      32.974  27.244  24.275  1.00  0.00    -0.185 NA
ATOM      8  C   UNL A   1      33.230  26.246  23.205  1.00  0.00     0.103 C 
ATOM      9  C   UNL A   1      33.477  24.850  23.743  1.00  0.00     0.017 C 
ATOM     10  C   UNL A   1      34.107  25.713  25.963  1.00  0.00     0.030 C 
ATOM     11  C   UNL A   1      34.568  24.865  24.795  1.00  0.00     0.004 C 
BRANCH   7  12
ATOM     12  S   UNL A   1      32.617  28.826  23.698  1.00  0.00     0.243 S 
ATOM     13  O   UNL A   1      33.203  28.965  22.371  1.00  0.00    -0.207 OA
ATOM     14  O   UNL A   1      32.944  29.754  24.745  1.00  0.00    -0.207 OA
BRANCH  12  15
ATOM     15  C   UNL A   1      30.850  28.907  23.477  1.00  0.00     0.083 A 
ATOM     16  C   UNL A   1      28.055  28.975  23.281  1.00  0.00     0.121 A 
ATOM     17  C   UNL A   1      28.739  27.753  23.365  1.00  0.00     0.048 A 
ATOM     18  C   UNL A   1      28.768  30.178  23.328  1.00  0.00    -0.008 A 
ATOM     19  C   UNL A   1      30.131  27.712  23.472  1.00  0.00     0.025 A 
ATOM     20  C   UNL A   1      30.168  30.120  23.376  1.00  0.00     0.029 A 
ATOM     21  C   UNL A   1      28.144  31.543  23.376  1.00  0.00     0.048 C 
BRANCH  16  22
ATOM     22  O   UNL A   1      26.691  28.865  23.257  1.00  0.00    -0.496 OA
ATOM     23  C   UNL A   1      26.167  27.680  23.846  1.00  0.00     0.278 C 
ENDBRANCH  16  22
ENDBRANCH  12  15
ENDBRANCH   7  12
ENDBRANCH   3   6
ENDBRANCH   1   2
BRANCH   1  24
ATOM     24  C   UNL A   1      35.016  30.711  27.453  1.00  0.00     0.042 C 
BRANCH  24  25
ATOM     25  C   UNL A   1      35.164  31.370  28.805  1.00  0.00     0.118 C 
BRANCH  25  26
ATOM     26  N   UNL A   1      34.232  32.463  29.032  1.00  0.00    -0.352 N 
ATOM     27  C   UNL A   1      34.323  33.553  29.880  1.00  0.00     0.251 C 
ATOM     28  H   UNL A   1      33.407  32.422  28.496  1.00  0.00     0.163 HD
ATOM     29  O   UNL A   1      33.367  34.319  29.968  1.00  0.00    -0.269 OA
BRANCH  27  30
ATOM     30  C   UNL A   1      35.623  33.921  30.509  1.00  0.00     0.039 A 
ATOM     31  C   UNL A   1      36.639  34.252  29.603  1.00  0.00     0.014 A 
ATOM     32  C   UNL A   1      35.954  33.426  31.758  1.00  0.00     0.014 A 
ATOM     33  C   UNL A   1      37.894  33.698  29.779  1.00  0.00     0.010 A 
ATOM     34  C   UNL A   1      37.107  32.695  31.840  1.00  0.00     0.010 A 
ATOM     35  C   UNL A   1      38.043  32.784  30.808  1.00  0.00    -0.014 A 
BRANCH  35  36
ATOM     36  C   UNL A   1      39.192  31.932  30.998  1.00  0.00     0.031 A 
ATOM     37  C   UNL A   1      39.141  30.633  30.315  1.00  0.00     0.074 A 
ATOM     38  C   UNL A   1      40.296  32.458  31.567  1.00  0.00     0.049 A 
ATOM     39  N   UNL A   1      39.968  29.677  30.517  1.00  0.00    -0.248 NA
ATOM     40  C   UNL A   1      38.084  30.286  29.361  1.00  0.00     0.031 C 
ATOM     41  C   UNL A   1      41.672  31.979  31.510  1.00  0.00     0.029 A 
ATOM     42  N   UNL A   1      40.330  33.473  32.527  1.00  0.00    -0.354 N 
ATOM     43  C   UNL A   1      39.770  28.757  29.514  1.00  0.00     0.074 A 
ATOM     44  C   UNL A   1      38.517  29.110  28.903  1.00  0.00     0.031 C 
ATOM     45  C   UNL A   1      42.352  32.479  32.559  1.00  0.00     0.029 A 
ATOM     46  C   UNL A   1      41.381  33.149  33.411  1.00  0.00     0.049 A 
ATOM     47  H   UNL A   1      39.738  34.257  32.577  1.00  0.00     0.167 HD
ATOM     48  C   UNL A   1      40.789  27.906  29.227  1.00  0.00     0.031 A 
ATOM     49  C   UNL A   1      41.094  32.771  34.695  1.00  0.00     0.031 A 
ATOM     50  C   UNL A   1      41.834  28.023  30.241  1.00  0.00     0.049 A 
ATOM     51  C   UNL A   1      41.478  31.330  34.966  1.00  0.00     0.074 A 
ATOM     52  C   UNL A   1      43.033  28.713  30.278  1.00  0.00     0.029 A 
ATOM     53  N   UNL A   1      41.508  27.722  31.559  1.00  0.00    -0.354 N 
ATOM     54  N   UNL A   1      41.556  30.404  34.047  1.00  0.00    -0.248 NA
ATOM     55  C   UNL A   1      41.843  30.835  36.289  1.00  0.00     0.031 C 
ATOM     56  C   UNL A   1      43.373  28.909  31.648  1.00  0.00     0.029 A 
ATOM     57  C   UNL A   1      42.407  28.300  32.432  1.00  0.00     0.049 A 
ATOM     58  H   UNL A   1      40.739  27.171  31.833  1.00  0.00     0.167 HD
ATOM     59  C   UNL A   1      42.017  29.240  34.606  1.00  0.00     0.074 A 
ATOM     60  C   UNL A   1      42.167  29.559  36.015  1.00  0.00     0.031 C 
ATOM     61  C   UNL A   1      42.251  28.111  33.870  1.00  0.00     0.031 A 
BRANCH  48  62
ATOM     62  C   UNL A   1      40.961  27.170  27.924  1.00  0.00    -0.014 A 
ATOM     63  C   UNL A   1      40.195  26.012  27.701  1.00  0.00     0.009 A 
ATOM     64  C   UNL A   1      41.900  27.485  26.926  1.00  0.00     0.009 A 
ATOM     65  C   UNL A   1      40.378  25.203  26.572  1.00  0.00     0.001 A 
ATOM     66  C   UNL A   1      42.088  26.685  25.790  1.00  0.00     0.001 A 
ATOM     67  C   UNL A   1      41.330  25.538  25.618  1.00  0.00     0.000 A 
ENDBRANCH  48  62
BRANCH  49  68
ATOM     68  C   UNL A   1      39.883  33.472  35.229  1.00  0.00    -0.014 A 
ATOM     69  C   UNL A   1      38.655  32.773  35.164  1.00  0.00     0.009 A 
ATOM     70  C   UNL A   1      40.013  34.497  36.175  1.00  0.00     0.009 A 
ATOM     71  C   UNL A   1      37.681  32.946  36.153  1.00  0.00     0.001 A 
ATOM     72  C   UNL A   1      39.012  34.694  37.139  1.00  0.00     0.001 A 
ATOM     73  C   UNL A   1      37.883  33.874  37.167  1.00  0.00     0.000 A 
ENDBRANCH  49  68
BRANCH  61  74
ATOM     74  C   UNL A   1      42.415  26.705  34.415  1.00  0.00    -0.014 A 
ATOM     75  C   UNL A   1      41.461  26.035  35.188  1.00  0.00     0.009 A 
ATOM     76  C   UNL A   1      43.537  25.940  34.013  1.00  0.00     0.009 A 
ATOM     77  C   UNL A   1      41.638  24.698  35.576  1.00  0.00     0.001 A 
ATOM     78  C   UNL A   1      43.686  24.590  34.339  1.00  0.00     0.001 A 
ATOM     79  C   UNL A   1      42.741  23.973  35.139  1.00  0.00     0.000 A 
ENDBRANCH  61  74
ENDBRANCH  35  36
ENDBRANCH  27  30
ENDBRANCH  25  26
ENDBRANCH  24  25
ENDBRANCH   1  24
TORSDOF 13
ENDMDL
MODEL 2
REMARK VINA RESULT:     -11.8      2.405      4.662
REMARK SMILES COc1ccc(S(=O)(=O)N2CCCC[C@@H]2C(=O)NCCCNC(=O)c2ccc(-c3c4nc(c(-c5ccccc5)c5ccc([nH]5)c(-c5ccccc5)c5nc(c(-c6ccccc6)c6ccc3[nH]6)C=C5)C=C4)cc2)cc1C
REMARK SMILES IDX 19 1 18 2 16 3 17 4 15 6 10 7 11 8 12 9 14 10 13 11 7 12
REMARK SMILES IDX 8 13 9 14 6 15 3 16 4 17 74 18 5 19 73 20 75 21 2 22 1 23
REMARK SMILES IDX 20 24 21 25 22 26 23 27 24 29 25 30 26 31 72 32 27 33 71 34
REMARK SMILES IDX 28 35 29 36 30 37 65 38 31 39 70 40 64 41 66 42 32 43 69 44
REMARK SMILES IDX 63 45 62 46 33 48 55 49 40 50 54 51 41 52 44 53 53 54 67 55
REMARK SMILES IDX 42 56 43 57 52 59 68 60 45 61 34 62 35 63 39 64 36 65 38 66
REMARK SMILES IDX 37 67 56 68 57 69 61 70 58 71 60 72 59 73 46 74 47 75 51 76
REMARK SMILES IDX 48 77 50 78 49 79
REMARK H PARENT 18 5 22 28 66 47 44 58
REMARK Flexibility Score: inf
ROOT
ATOM      1  C   UNL A   1      33.532  28.944  26.925  1.00  0.00     0.117 C 
ENDROOT
BRANCH   1   2
ATOM      2  N   UNL A   1      33.851  28.152  25.750  1.00  0.00    -0.355 N 
ATOM      3  C   UNL A   1      33.040  27.721  24.739  1.00  0.00     0.238 C 
ATOM      4  O   UNL A   1      33.527  26.986  23.875  1.00  0.00    -0.273 OA
ATOM      5  H   UNL A   1      34.796  27.885  25.670  1.00  0.00     0.163 HD
BRANCH   3   6
ATOM      6  C   UNL A   1      31.543  28.062  24.711  1.00  0.00     0.162 C 
ATOM      7  N   UNL A   1      30.649  26.856  24.757  1.00  0.00    -0.185 NA
ATOM      8  C   UNL A   1      29.273  26.943  24.206  1.00  0.00     0.103 C 
ATOM      9  C   UNL A   1      29.187  27.809  22.963  1.00  0.00     0.017 C 
ATOM     10  C   UNL A   1      31.271  28.996  23.527  1.00  0.00     0.030 C 
ATOM     11  C   UNL A   1      29.799  29.172  23.214  1.00  0.00     0.004 C 
BRANCH   7  12
ATOM     12  S   UNL A   1      30.799  25.823  26.127  1.00  0.00     0.243 S 
ATOM     13  O   UNL A   1      29.494  25.233  26.392  1.00  0.00    -0.207 OA
ATOM     14  O   UNL A   1      31.494  26.556  27.149  1.00  0.00    -0.207 OA
BRANCH  12  15
ATOM     15  C   UNL A   1      31.868  24.481  25.645  1.00  0.00     0.083 A 
ATOM     16  C   UNL A   1      33.551  22.432  24.736  1.00  0.00     0.121 A 
ATOM     17  C   UNL A   1      32.225  22.524  24.287  1.00  0.00     0.048 A 
ATOM     18  C   UNL A   1      34.055  23.390  25.623  1.00  0.00    -0.008 A 
ATOM     19  C   UNL A   1      31.384  23.548  24.729  1.00  0.00     0.025 A 
ATOM     20  C   UNL A   1      33.182  24.377  26.102  1.00  0.00     0.029 A 
ATOM     21  C   UNL A   1      35.486  23.473  26.073  1.00  0.00     0.048 C 
BRANCH  16  22
ATOM     22  O   UNL A   1      34.279  21.425  24.161  1.00  0.00    -0.496 OA
ATOM     23  C   UNL A   1      34.541  20.308  25.003  1.00  0.00     0.278 C 
ENDBRANCH  16  22
ENDBRANCH  12  15
ENDBRANCH   7  12
ENDBRANCH   3   6
ENDBRANCH   1   2
BRANCH   1  24
ATOM     24  C   UNL A   1      33.666  30.431  26.650  1.00  0.00     0.042 C 
BRANCH  24  25
ATOM     25  C   UNL A   1      33.619  31.271  27.906  1.00  0.00     0.118 C 
BRANCH  25  26
ATOM     26  N   UNL A   1      34.782  32.125  28.086  1.00  0.00    -0.352 N 
ATOM     27  C   UNL A   1      36.085  31.802  28.418  1.00  0.00     0.251 C 
ATOM     28  H   UNL A   1      34.616  33.086  27.947  1.00  0.00     0.163 HD
ATOM     29  O   UNL A   1      36.896  32.707  28.597  1.00  0.00    -0.269 OA
BRANCH  27  30
ATOM     30  C   UNL A   1      36.560  30.390  28.347  1.00  0.00     0.039 A 
ATOM     31  C   UNL A   1      36.600  29.724  29.579  1.00  0.00     0.014 A 
ATOM     32  C   UNL A   1      37.405  29.992  27.326  1.00  0.00     0.014 A 
ATOM     33  C   UNL A   1      37.731  28.997  29.906  1.00  0.00     0.010 A 
ATOM     34  C   UNL A   1      38.614  29.472  27.699  1.00  0.00     0.010 A 
ATOM     35  C   UNL A   1      38.790  29.040  29.015  1.00  0.00    -0.014 A 
BRANCH  35  36
ATOM     36  C   UNL A   1      40.120  28.553  29.287  1.00  0.00     0.031 A 
ATOM     37  C   UNL A   1      40.421  27.207  28.784  1.00  0.00     0.074 A 
ATOM     38  C   UNL A   1      41.041  29.423  29.753  1.00  0.00     0.049 A 
ATOM     39  N   UNL A   1      41.468  26.538  29.091  1.00  0.00    -0.248 NA
ATOM     40  C   UNL A   1      39.503  26.470  27.912  1.00  0.00     0.031 C 
ATOM     41  C   UNL A   1      42.495  29.319  29.725  1.00  0.00     0.029 A 
ATOM     42  N   UNL A   1      40.796  30.531  30.568  1.00  0.00    -0.354 N 
ATOM     43  C   UNL A   1      41.530  25.472  28.224  1.00  0.00     0.074 A 
ATOM     44  C   UNL A   1      40.235  25.398  27.603  1.00  0.00     0.031 C 
ATOM     45  C   UNL A   1      43.008  30.116  30.681  1.00  0.00     0.029 A 
ATOM     46  C   UNL A   1      41.886  30.617  31.460  1.00  0.00     0.049 A 
ATOM     47  H   UNL A   1      40.018  31.132  30.529  1.00  0.00     0.167 HD
ATOM     48  C   UNL A   1      42.740  24.887  28.026  1.00  0.00     0.031 A 
ATOM     49  C   UNL A   1      41.695  30.353  32.791  1.00  0.00     0.031 A 
ATOM     50  C   UNL A   1      43.707  25.410  28.990  1.00  0.00     0.049 A 
ATOM     51  C   UNL A   1      42.442  29.114  33.241  1.00  0.00     0.074 A 
ATOM     52  C   UNL A   1      44.681  26.389  28.904  1.00  0.00     0.029 A 
ATOM     53  N   UNL A   1      43.458  25.215  30.344  1.00  0.00    -0.354 N 
ATOM     54  N   UNL A   1      42.771  28.125  32.451  1.00  0.00    -0.248 NA
ATOM     55  C   UNL A   1      42.910  28.915  34.608  1.00  0.00     0.031 C 
ATOM     56  C   UNL A   1      44.943  26.851  30.226  1.00  0.00     0.029 A 
ATOM     57  C   UNL A   1      44.164  26.120  31.109  1.00  0.00     0.049 A 
ATOM     58  H   UNL A   1      42.858  24.523  30.708  1.00  0.00     0.167 HD
ATOM     59  C   UNL A   1      43.516  27.209  33.148  1.00  0.00     0.074 A 
ATOM     60  C   UNL A   1      43.562  27.744  34.498  1.00  0.00     0.031 C 
ATOM     61  C   UNL A   1      44.047  26.093  32.563  1.00  0.00     0.031 A 
BRANCH  48  62
ATOM     62  C   UNL A   1      43.115  24.053  26.829  1.00  0.00    -0.014 A 
ATOM     63  C   UNL A   1      42.923  22.662  26.895  1.00  0.00     0.009 A 
ATOM     64  C   UNL A   1      43.733  24.533  25.661  1.00  0.00     0.009 A 
ATOM     65  C   UNL A   1      43.354  21.802  25.876  1.00  0.00     0.001 A 
ATOM     66  C   UNL A   1      44.163  23.681  24.634  1.00  0.00     0.001 A 
ATOM     67  C   UNL A   1      43.979  22.312  24.746  1.00  0.00     0.000 A 
ENDBRANCH  48  62
BRANCH  49  68
ATOM     68  C   UNL A   1      40.336  30.777  33.257  1.00  0.00    -0.014 A 
ATOM     69  C   UNL A   1      39.961  32.118  33.013  1.00  0.00     0.009 A 
ATOM     70  C   UNL A   1      39.322  29.828  33.448  1.00  0.00     0.009 A 
ATOM     71  C   UNL A   1      38.628  32.451  32.749  1.00  0.00     0.001 A 
ATOM     72  C   UNL A   1      37.982  30.180  33.224  1.00  0.00     0.001 A 
ATOM     73  C   UNL A   1      37.646  31.469  32.809  1.00  0.00     0.000 A 
ENDBRANCH  49  68
BRANCH  61  74
ATOM     74  C   UNL A   1      44.569  24.866  33.285  1.00  0.00    -0.014 A 
ATOM     75  C   UNL A   1      43.841  23.688  33.482  1.00  0.00     0.009 A 
ATOM     76  C   UNL A   1      45.931  24.826  33.675  1.00  0.00     0.009 A 
ATOM     77  C   UNL A   1      44.422  22.556  34.075  1.00  0.00     0.001 A 
ATOM     78  C   UNL A   1      46.532  23.681  34.202  1.00  0.00     0.001 A 
ATOM     79  C   UNL A   1      45.768  22.548  34.418  1.00  0.00     0.000 A 
ENDBRANCH  61  74
ENDBRANCH  35  36
ENDBRANCH  27  30
ENDBRANCH  25  26
ENDBRANCH  24  25
ENDBRANCH   1  24
TORSDOF 13
ENDMDL
MODEL 3
REMARK VINA RESULT:     -11.7      2.233      3.947
REMARK SMILES COc1ccc(S(=O)(=O)N2CCCC[C@@H]2C(=O)NCCCNC(=O)c2ccc(-c3c4nc(c(-c5ccccc5)c5ccc([nH]5)c(-c5ccccc5)c5nc(c(-c6ccccc6)c6ccc3[nH]6)C=C5)C=C4)cc2)cc1C
REMARK SMILES IDX 19 1 18 2 16 3 17 4 15 6 10 7 11 8 12 9 14 10 13 11 7 12
REMARK SMILES IDX 8 13 9 14 6 15 3 16 4 17 74 18 5 19 73 20 75 21 2 22 1 23
REMARK SMILES IDX 20 24 21 25 22 26 23 27 24 29 25 30 26 31 72 32 27 33 71 34
REMARK SMILES IDX 28 35 29 36 30 37 65 38 31 39 70 40 64 41 66 42 32 43 69 44
REMARK SMILES IDX 63 45 62 46 33 48 55 49 40 50 54 51 41 52 44 53 53 54 67 55
REMARK SMILES IDX 42 56 43 57 52 59 68 60 45 61 34 62 35 63 39 64 36 65 38 66
REMARK SMILES IDX 37 67 56 68 57 69 61 70 58 71 60 72 59 73 46 74 47 75 51 76
REMARK SMILES IDX 48 77 50 78 49 79
REMARK H PARENT 18 5 22 28 66 47 44 58
REMARK Flexibility Score: inf
ROOT
ATOM      1  C   UNL A   1      33.052  28.215  26.235  1.00  0.00     0.117 C 
ENDROOT
BRANCH   1   2
ATOM      2  N   UNL A   1      32.561  26.995  26.852  1.00  0.00    -0.355 N 
ATOM      3  C   UNL A   1      31.818  25.981  26.317  1.00  0.00     0.238 C 
ATOM      4  O   UNL A   1      31.450  25.071  27.066  1.00  0.00    -0.273 OA
ATOM      5  H   UNL A   1      32.801  26.881  27.800  1.00  0.00     0.163 HD
BRANCH   3   6
ATOM      6  C   UNL A   1      31.372  26.003  24.848  1.00  0.00     0.162 C 
ATOM      7  N   UNL A   1      32.482  26.314  23.886  1.00  0.00    -0.185 NA
ATOM      8  C   UNL A   1      32.159  26.900  22.559  1.00  0.00     0.103 C 
ATOM      9  C   UNL A   1      31.005  27.884  22.612  1.00  0.00     0.017 C 
ATOM     10  C   UNL A   1      30.154  26.923  24.715  1.00  0.00     0.030 C 
ATOM     11  C   UNL A   1      29.797  27.261  23.281  1.00  0.00     0.004 C 
BRANCH   7  12
ATOM     12  S   UNL A   1      33.833  25.247  23.877  1.00  0.00     0.243 S 
ATOM     13  O   UNL A   1      34.732  25.647  24.951  1.00  0.00    -0.207 OA
ATOM     14  O   UNL A   1      34.304  25.154  22.522  1.00  0.00    -0.207 OA
BRANCH  12  15
ATOM     15  C   UNL A   1      33.216  23.633  24.315  1.00  0.00     0.083 A 
ATOM     16  C   UNL A   1      32.338  21.033  24.885  1.00  0.00     0.121 A 
ATOM     17  C   UNL A   1      31.992  21.659  23.677  1.00  0.00     0.048 A 
ATOM     18  C   UNL A   1      33.157  21.697  25.805  1.00  0.00    -0.008 A 
ATOM     19  C   UNL A   1      32.434  22.951  23.384  1.00  0.00     0.025 A 
ATOM     20  C   UNL A   1      33.544  23.014  25.521  1.00  0.00     0.029 A 
ATOM     21  C   UNL A   1      33.698  21.087  27.066  1.00  0.00     0.048 C 
BRANCH  16  22
ATOM     22  O   UNL A   1      31.898  19.742  25.004  1.00  0.00    -0.496 OA
ATOM     23  C   UNL A   1      32.635  18.778  24.261  1.00  0.00     0.278 C 
ENDBRANCH  16  22
ENDBRANCH  12  15
ENDBRANCH   7  12
ENDBRANCH   3   6
ENDBRANCH   1   2
BRANCH   1  24
ATOM     24  C   UNL A   1      34.491  28.499  26.625  1.00  0.00     0.042 C 
BRANCH  24  25
ATOM     25  C   UNL A   1      34.668  29.844  27.292  1.00  0.00     0.118 C 
BRANCH  25  26
ATOM     26  N   UNL A   1      33.581  30.775  27.035  1.00  0.00    -0.352 N 
ATOM     27  C   UNL A   1      33.284  31.988  27.630  1.00  0.00     0.251 C 
ATOM     28  H   UNL A   1      32.958  30.499  26.324  1.00  0.00     0.163 HD
ATOM     29  O   UNL A   1      32.255  32.575  27.304  1.00  0.00    -0.269 OA
BRANCH  27  30
ATOM     30  C   UNL A   1      34.289  32.682  28.484  1.00  0.00     0.039 A 
ATOM     31  C   UNL A   1      35.313  33.325  27.777  1.00  0.00     0.014 A 
ATOM     32  C   UNL A   1      34.518  32.248  29.779  1.00  0.00     0.014 A 
ATOM     33  C   UNL A   1      36.622  33.142  28.188  1.00  0.00     0.010 A 
ATOM     34  C   UNL A   1      35.797  31.870  30.080  1.00  0.00     0.010 A 
ATOM     35  C   UNL A   1      36.838  32.264  29.237  1.00  0.00    -0.014 A 
BRANCH  35  36
ATOM     36  C   UNL A   1      38.129  31.765  29.645  1.00  0.00     0.031 A 
ATOM     37  C   UNL A   1      38.530  30.480  29.058  1.00  0.00     0.074 A 
ATOM     38  C   UNL A   1      38.953  32.591  30.322  1.00  0.00     0.049 A 
ATOM     39  N   UNL A   1      39.539  29.793  29.441  1.00  0.00    -0.248 NA
ATOM     40  C   UNL A   1      37.761  29.828  27.994  1.00  0.00     0.031 C 
ATOM     41  C   UNL A   1      40.400  32.504  30.491  1.00  0.00     0.029 A 
ATOM     42  N   UNL A   1      38.571  33.606  31.201  1.00  0.00    -0.354 N 
ATOM     43  C   UNL A   1      39.748  28.823  28.489  1.00  0.00     0.074 A 
ATOM     44  C   UNL A   1      38.555  28.800  27.686  1.00  0.00     0.031 C 
ATOM     45  C   UNL A   1      40.754  33.204  31.585  1.00  0.00     0.029 A 
ATOM     46  C   UNL A   1      39.522  33.611  32.243  1.00  0.00     0.049 A 
ATOM     47  H   UNL A   1      37.791  34.201  31.112  1.00  0.00     0.167 HD
ATOM     48  C   UNL A   1      40.987  28.274  28.407  1.00  0.00     0.031 A 
ATOM     49  C   UNL A   1      39.153  33.210  33.499  1.00  0.00     0.031 A 
ATOM     50  C   UNL A   1      41.797  28.704  29.546  1.00  0.00     0.049 A 
ATOM     51  C   UNL A   1      39.859  31.939  33.924  1.00  0.00     0.074 A 
ATOM     52  C   UNL A   1      42.750  29.696  29.698  1.00  0.00     0.029 A 
ATOM     53  N   UNL A   1      41.365  28.368  30.824  1.00  0.00    -0.354 N 
ATOM     54  N   UNL A   1      40.320  31.040  33.094  1.00  0.00    -0.248 NA
ATOM     55  C   UNL A   1      40.136  31.605  35.317  1.00  0.00     0.031 C 
ATOM     56  C   UNL A   1      42.813  30.022  31.083  1.00  0.00     0.029 A 
ATOM     57  C   UNL A   1      41.935  29.197  31.768  1.00  0.00     0.049 A 
ATOM     58  H   UNL A   1      40.737  27.637  31.028  1.00  0.00     0.167 HD
ATOM     59  C   UNL A   1      40.982  30.064  33.794  1.00  0.00     0.074 A 
ATOM     60  C   UNL A   1      40.825  30.457  35.184  1.00  0.00     0.031 C 
ATOM     61  C   UNL A   1      41.617  29.020  33.182  1.00  0.00     0.031 A 
BRANCH  48  62
ATOM     62  C   UNL A   1      41.546  27.571  27.198  1.00  0.00    -0.014 A 
ATOM     63  C   UNL A   1      41.233  26.213  27.007  1.00  0.00     0.009 A 
ATOM     64  C   UNL A   1      42.442  28.131  26.269  1.00  0.00     0.009 A 
ATOM     65  C   UNL A   1      41.805  25.455  25.977  1.00  0.00     0.001 A 
ATOM     66  C   UNL A   1      43.015  27.381  25.232  1.00  0.00     0.001 A 
ATOM     67  C   UNL A   1      42.701  26.039  25.091  1.00  0.00     0.000 A 
ENDBRANCH  48  62
BRANCH  49  68
ATOM     68  C   UNL A   1      37.732  33.570  33.809  1.00  0.00    -0.014 A 
ATOM     69  C   UNL A   1      37.301  34.864  33.436  1.00  0.00     0.009 A 
ATOM     70  C   UNL A   1      36.765  32.569  33.974  1.00  0.00     0.009 A 
ATOM     71  C   UNL A   1      35.981  35.087  33.028  1.00  0.00     0.001 A 
ATOM     72  C   UNL A   1      35.434  32.814  33.604  1.00  0.00     0.001 A 
ATOM     73  C   UNL A   1      35.060  34.047  33.069  1.00  0.00     0.000 A 
ENDBRANCH  49  68
BRANCH  61  74
ATOM     74  C   UNL A   1      42.062  27.730  33.843  1.00  0.00    -0.014 A 
ATOM     75  C   UNL A   1      41.243  26.915  34.633  1.00  0.00     0.009 A 
ATOM     76  C   UNL A   1      43.348  27.215  33.547  1.00  0.00     0.009 A 
ATOM     77  C   UNL A   1      41.695  25.685  35.134  1.00  0.00     0.001 A 
ATOM     78  C   UNL A   1      43.779  25.961  33.985  1.00  0.00     0.001 A 
ATOM     79  C   UNL A   1      42.954  25.202  34.797  1.00  0.00     0.000 A 
ENDBRANCH  61  74
ENDBRANCH  35  36
ENDBRANCH  27  30
ENDBRANCH  25  26
ENDBRANCH  24  25
ENDBRANCH   1  24
TORSDOF 13
ENDMDL
