MODEL 1
REMARK VINA RESULT:     -13.3      0.000      0.000
REMARK SMILES Cc1ccc(S(=O)(=O)n2cc(C(=O)C(=O)N[C@@H](Cc3cnc[nH]3)C(=O)NCCCNC(=O)c3ccc(-c4c5nc(c(-c6ccccc6)c6ccc([nH]6)c(-c6ccccc6)c6nc(c(-c7ccccc7)c7ccc4[nH]7)C=C6)C=C5)cc3)c3ccccc32)cc1
REMARK SMILES IDX 24 1 25 2 26 3 17 5 16 6 14 7 15 8 12 10 13 11 11 12 9 13
REMARK SMILES IDX 10 14 86 15 81 16 85 17 82 18 84 19 83 20 6 21 7 22 8 23
REMARK SMILES IDX 5 24 1 25 2 26 3 27 88 28 4 29 87 30 18 31 19 32 20 33 23 34
REMARK SMILES IDX 21 35 22 36 27 38 28 39 29 40 30 41 31 42 32 44 33 45 34 46
REMARK SMILES IDX 80 47 35 48 79 49 36 50 37 51 38 52 73 53 39 54 78 55 72 56
REMARK SMILES IDX 74 57 40 58 77 59 71 60 70 61 41 63 63 64 48 65 62 66 49 67
REMARK SMILES IDX 52 68 61 69 75 70 50 71 51 72 60 74 76 75 53 76 42 77 43 78
REMARK SMILES IDX 47 79 44 80 46 81 45 82 64 83 65 84 69 85 66 86 68 87 67 88
REMARK SMILES IDX 54 89 55 90 59 91 56 92 58 93 57 94
REMARK H PARENT 26 4 16 9 23 37 30 43 74 62 52 73
REMARK Flexibility Score: inf
ROOT
ATOM      1  C   UNL A   1      31.891  28.130  26.959  1.00  0.00     0.242 C 
ATOM      2  O   UNL A   1      31.104  27.446  27.621  1.00  0.00    -0.273 OA
ATOM      3  N   UNL A   1      32.960  28.664  27.630  1.00  0.00    -0.354 N 
ATOM      4  H   UNL A   1      32.826  28.858  28.586  1.00  0.00     0.163 HD
ENDROOT
BRANCH   1   5
ATOM      5  C   UNL A   1      31.706  28.286  25.422  1.00  0.00     0.177 C 
BRANCH   5   6
ATOM      6  N   UNL A   1      30.879  27.202  24.866  1.00  0.00    -0.337 N 
ATOM      7  C   UNL A   1      31.247  26.001  24.280  1.00  0.00     0.293 C 
ATOM      8  O   UNL A   1      30.376  25.148  24.131  1.00  0.00    -0.265 OA
ATOM      9  H   UNL A   1      29.907  27.355  24.920  1.00  0.00     0.164 HD
BRANCH   7  10
ATOM     10  C   UNL A   1      32.697  25.731  23.793  1.00  0.00     0.252 C 
ATOM     11  O   UNL A   1      33.157  26.447  22.909  1.00  0.00    -0.283 OA
BRANCH  10  12
ATOM     12  C   UNL A   1      33.528  24.643  24.341  1.00  0.00     0.054 A 
ATOM     13  N   UNL A   1      35.124  23.108  24.658  1.00  0.00    -0.240 N 
ATOM     14  C   UNL A   1      34.689  24.101  23.813  1.00  0.00     0.117 A 
ATOM     15  C   UNL A   1      34.298  22.981  25.751  1.00  0.00     0.065 A 
ATOM     16  C   UNL A   1      33.267  23.910  25.559  1.00  0.00     0.012 A 
ATOM     17  C   UNL A   1      34.333  22.129  26.873  1.00  0.00     0.028 A 
ATOM     18  C   UNL A   1      32.234  23.969  26.524  1.00  0.00     0.011 A 
ATOM     19  C   UNL A   1      33.288  22.205  27.797  1.00  0.00     0.002 A 
ATOM     20  C   UNL A   1      32.250  23.111  27.626  1.00  0.00     0.001 A 
BRANCH  13  21
ATOM     21  S   UNL A   1      36.495  22.143  24.342  1.00  0.00     0.268 S 
ATOM     22  O   UNL A   1      36.947  22.568  23.015  1.00  0.00    -0.201 OA
ATOM     23  O   UNL A   1      36.106  20.789  24.618  1.00  0.00    -0.201 OA
BRANCH  21  24
ATOM     24  C   UNL A   1      37.768  22.582  25.499  1.00  0.00     0.088 A 
ATOM     25  C   UNL A   1      41.080  23.475  28.098  1.00  0.00     0.044 C 
ATOM     26  C   UNL A   1      39.912  23.164  27.207  1.00  0.00    -0.051 A 
ATOM     27  C   UNL A   1      39.811  21.904  26.607  1.00  0.00     0.005 A 
ATOM     28  C   UNL A   1      38.914  24.117  26.969  1.00  0.00     0.005 A 
ATOM     29  C   UNL A   1      38.747  21.614  25.752  1.00  0.00     0.022 A 
ATOM     30  C   UNL A   1      37.835  23.827  26.126  1.00  0.00     0.022 A 
ENDBRANCH  21  24
ENDBRANCH  13  21
ENDBRANCH  10  12
ENDBRANCH   7  10
ENDBRANCH   5   6
BRANCH   5  31
ATOM     31  C   UNL A   1      31.346  29.709  24.922  1.00  0.00     0.090 C 
BRANCH  31  32
ATOM     32  C   UNL A   1      30.576  29.831  23.648  1.00  0.00     0.037 A 
ATOM     33  C   UNL A   1      30.672  29.182  22.431  1.00  0.00     0.134 A 
ATOM     34  N   UNL A   1      29.503  30.683  23.495  1.00  0.00    -0.348 N 
ATOM     35  N   UNL A   1      29.611  29.504  21.626  1.00  0.00    -0.245 NA
ATOM     36  C   UNL A   1      28.930  30.413  22.283  1.00  0.00     0.196 A 
ATOM     37  H   UNL A   1      29.205  31.364  24.142  1.00  0.00     0.167 HD
ENDBRANCH  31  32
ENDBRANCH   5  31
ENDBRANCH   1   5
BRANCH   3  38
ATOM     38  C   UNL A   1      34.260  28.973  27.086  1.00  0.00     0.117 C 
BRANCH  38  39
ATOM     39  C   UNL A   1      35.259  29.585  28.034  1.00  0.00     0.042 C 
BRANCH  39  40
ATOM     40  C   UNL A   1      35.550  31.024  27.682  1.00  0.00     0.118 C 
BRANCH  40  41
ATOM     41  N   UNL A   1      34.491  31.986  27.994  1.00  0.00    -0.352 N 
ATOM     42  C   UNL A   1      34.445  32.965  28.979  1.00  0.00     0.251 C 
ATOM     43  H   UNL A   1      33.692  31.931  27.420  1.00  0.00     0.163 HD
ATOM     44  O   UNL A   1      33.447  33.674  29.086  1.00  0.00    -0.269 OA
BRANCH  42  45
ATOM     45  C   UNL A   1      35.658  33.284  29.784  1.00  0.00     0.039 A 
ATOM     46  C   UNL A   1      36.744  33.873  29.122  1.00  0.00     0.014 A 
ATOM     47  C   UNL A   1      35.865  32.646  30.991  1.00  0.00     0.014 A 
ATOM     48  C   UNL A   1      38.032  33.495  29.478  1.00  0.00     0.010 A 
ATOM     49  C   UNL A   1      37.087  32.064  31.179  1.00  0.00     0.010 A 
ATOM     50  C   UNL A   1      38.168  32.464  30.393  1.00  0.00    -0.014 A 
BRANCH  50  51
ATOM     51  C   UNL A   1      39.381  31.716  30.659  1.00  0.00     0.031 A 
ATOM     52  C   UNL A   1      39.566  30.449  29.929  1.00  0.00     0.074 A 
ATOM     53  C   UNL A   1      40.375  32.308  31.355  1.00  0.00     0.049 A 
ATOM     54  N   UNL A   1      40.502  29.607  30.175  1.00  0.00    -0.248 NA
ATOM     55  C   UNL A   1      38.674  30.010  28.854  1.00  0.00     0.031 C 
ATOM     56  C   UNL A   1      41.786  31.940  31.406  1.00  0.00     0.029 A 
ATOM     57  N   UNL A   1      40.242  33.280  32.349  1.00  0.00    -0.354 N 
ATOM     58  C   UNL A   1      40.511  28.683  29.158  1.00  0.00     0.074 A 
ATOM     59  C   UNL A   1      39.327  28.947  28.381  1.00  0.00     0.031 C 
ATOM     60  C   UNL A   1      42.330  32.447  32.526  1.00  0.00     0.029 A 
ATOM     61  C   UNL A   1      41.245  33.021  33.305  1.00  0.00     0.049 A 
ATOM     62  H   UNL A   1      39.578  34.006  32.376  1.00  0.00     0.167 HD
ATOM     63  C   UNL A   1      41.593  27.870  29.039  1.00  0.00     0.031 A 
ATOM     64  C   UNL A   1      40.898  32.610  34.563  1.00  0.00     0.031 A 
ATOM     65  C   UNL A   1      42.494  28.056  30.170  1.00  0.00     0.049 A 
ATOM     66  C   UNL A   1      41.349  31.194  34.866  1.00  0.00     0.074 A 
ATOM     67  C   UNL A   1      43.634  28.819  30.357  1.00  0.00     0.029 A 
ATOM     68  N   UNL A   1      42.036  27.707  31.432  1.00  0.00    -0.354 N 
ATOM     69  N   UNL A   1      41.656  30.316  33.949  1.00  0.00    -0.248 NA
ATOM     70  C   UNL A   1      41.507  30.658  36.215  1.00  0.00     0.031 C 
ATOM     71  C   UNL A   1      43.804  29.003  31.758  1.00  0.00     0.029 A 
ATOM     72  C   UNL A   1      42.792  28.319  32.410  1.00  0.00     0.049 A 
ATOM     73  H   UNL A   1      41.275  27.106  31.606  1.00  0.00     0.167 HD
ATOM     74  C   UNL A   1      42.071  29.151  34.540  1.00  0.00     0.074 A 
ATOM     75  C   UNL A   1      41.950  29.412  35.962  1.00  0.00     0.031 C 
ATOM     76  C   UNL A   1      42.484  28.071  33.812  1.00  0.00     0.031 A 
BRANCH  63  77
ATOM     77  C   UNL A   1      41.939  27.075  27.813  1.00  0.00    -0.014 A 
ATOM     78  C   UNL A   1      43.214  26.488  27.728  1.00  0.00     0.009 A 
ATOM     79  C   UNL A   1      41.099  26.896  26.702  1.00  0.00     0.009 A 
ATOM     80  C   UNL A   1      43.644  25.807  26.582  1.00  0.00     0.001 A 
ATOM     81  C   UNL A   1      41.529  26.238  25.542  1.00  0.00     0.001 A 
ATOM     82  C   UNL A   1      42.806  25.695  25.481  1.00  0.00     0.000 A 
ENDBRANCH  63  77
BRANCH  64  83
ATOM     83  C   UNL A   1      39.640  33.265  35.038  1.00  0.00    -0.014 A 
ATOM     84  C   UNL A   1      38.445  32.518  34.927  1.00  0.00     0.009 A 
ATOM     85  C   UNL A   1      39.684  34.311  35.972  1.00  0.00     0.009 A 
ATOM     86  C   UNL A   1      37.400  32.694  35.840  1.00  0.00     0.001 A 
ATOM     87  C   UNL A   1      38.617  34.500  36.866  1.00  0.00     0.001 A 
ATOM     88  C   UNL A   1      37.506  33.658  36.837  1.00  0.00     0.000 A 
ENDBRANCH  64  83
BRANCH  76  89
ATOM     89  C   UNL A   1      42.681  26.661  34.321  1.00  0.00    -0.014 A 
ATOM     90  C   UNL A   1      41.766  25.976  35.126  1.00  0.00     0.009 A 
ATOM     91  C   UNL A   1      43.773  25.907  33.824  1.00  0.00     0.009 A 
ATOM     92  C   UNL A   1      41.943  24.619  35.434  1.00  0.00     0.001 A 
ATOM     93  C   UNL A   1      43.921  24.543  34.079  1.00  0.00     0.001 A 
ATOM     94  C   UNL A   1      43.006  23.899  34.896  1.00  0.00     0.000 A 
ENDBRANCH  76  89
ENDBRANCH  50  51
ENDBRANCH  42  45
ENDBRANCH  40  41
ENDBRANCH  39  40
ENDBRANCH  38  39
ENDBRANCH   3  38
TORSDOF 17
ENDMDL
MODEL 2
REMARK VINA RESULT:     -12.5      1.709      2.533
REMARK SMILES Cc1ccc(S(=O)(=O)n2cc(C(=O)C(=O)N[C@@H](Cc3cnc[nH]3)C(=O)NCCCNC(=O)c3ccc(-c4c5nc(c(-c6ccccc6)c6ccc([nH]6)c(-c6ccccc6)c6nc(c(-c7ccccc7)c7ccc4[nH]7)C=C6)C=C5)cc3)c3ccccc32)cc1
REMARK SMILES IDX 24 1 25 2 26 3 17 5 16 6 14 7 15 8 12 10 13 11 11 12 9 13
REMARK SMILES IDX 10 14 86 15 81 16 85 17 82 18 84 19 83 20 6 21 7 22 8 23
REMARK SMILES IDX 5 24 1 25 2 26 3 27 88 28 4 29 87 30 18 31 19 32 20 33 23 34
REMARK SMILES IDX 21 35 22 36 27 38 28 39 29 40 30 41 31 42 32 44 33 45 34 46
REMARK SMILES IDX 80 47 35 48 79 49 36 50 37 51 38 52 73 53 39 54 78 55 72 56
REMARK SMILES IDX 74 57 40 58 77 59 71 60 70 61 41 63 63 64 48 65 62 66 49 67
REMARK SMILES IDX 52 68 61 69 75 70 50 71 51 72 60 74 76 75 53 76 42 77 43 78
REMARK SMILES IDX 47 79 44 80 46 81 45 82 64 83 65 84 69 85 66 86 68 87 67 88
REMARK SMILES IDX 54 89 55 90 59 91 56 92 58 93 57 94
REMARK H PARENT 26 4 16 9 23 37 30 43 74 62 52 73
REMARK Flexibility Score: inf
ROOT
ATOM      1  C   UNL A   1      31.650  28.378  27.106  1.00  0.00     0.242 C 
ATOM      2  O   UNL A   1      31.028  27.829  28.022  1.00  0.00    -0.273 OA
ATOM      3  N   UNL A   1      32.235  29.584  27.393  1.00  0.00    -0.354 N 
ATOM      4  H   UNL A   1      31.797  30.131  28.085  1.00  0.00     0.163 HD
ENDROOT
BRANCH   1   5
ATOM      5  C   UNL A   1      31.824  27.671  25.731  1.00  0.00     0.177 C 
BRANCH   5   6
ATOM      6  N   UNL A   1      31.119  28.395  24.660  1.00  0.00    -0.337 N 
ATOM      7  C   UNL A   1      30.002  28.042  23.921  1.00  0.00     0.293 C 
ATOM      8  O   UNL A   1      29.448  28.922  23.267  1.00  0.00    -0.265 OA
ATOM      9  H   UNL A   1      31.504  29.274  24.433  1.00  0.00     0.164 HD
BRANCH   7  10
ATOM     10  C   UNL A   1      29.467  26.584  23.881  1.00  0.00     0.252 C 
ATOM     11  O   UNL A   1      28.252  26.410  23.853  1.00  0.00    -0.283 OA
BRANCH  10  12
ATOM     12  C   UNL A   1      30.360  25.411  23.892  1.00  0.00     0.054 A 
ATOM     13  N   UNL A   1      31.822  23.816  23.321  1.00  0.00    -0.240 N 
ATOM     14  C   UNL A   1      31.160  24.932  22.867  1.00  0.00     0.117 A 
ATOM     15  C   UNL A   1      31.504  23.543  24.632  1.00  0.00     0.065 A 
ATOM     16  C   UNL A   1      30.560  24.509  25.004  1.00  0.00     0.012 A 
ATOM     17  C   UNL A   1      31.924  22.532  25.519  1.00  0.00     0.028 A 
ATOM     18  C   UNL A   1      30.015  24.442  26.308  1.00  0.00     0.011 A 
ATOM     19  C   UNL A   1      31.354  22.489  26.794  1.00  0.00     0.002 A 
ATOM     20  C   UNL A   1      30.411  23.429  27.185  1.00  0.00     0.001 A 
BRANCH  13  21
ATOM     21  S   UNL A   1      32.866  22.885  22.346  1.00  0.00     0.268 S 
ATOM     22  O   UNL A   1      33.282  23.794  21.277  1.00  0.00    -0.201 OA
ATOM     23  O   UNL A   1      32.175  21.656  22.075  1.00  0.00    -0.201 OA
BRANCH  21  24
ATOM     24  C   UNL A   1      34.313  22.488  23.294  1.00  0.00     0.088 A 
ATOM     25  C   UNL A   1      37.855  21.868  25.660  1.00  0.00     0.044 C 
ATOM     26  C   UNL A   1      36.624  22.067  24.824  1.00  0.00    -0.051 A 
ATOM     27  C   UNL A   1      36.544  23.160  23.954  1.00  0.00     0.005 A 
ATOM     28  C   UNL A   1      35.550  21.171  24.897  1.00  0.00     0.005 A 
ATOM     29  C   UNL A   1      35.392  23.374  23.196  1.00  0.00     0.022 A 
ATOM     30  C   UNL A   1      34.399  21.370  24.127  1.00  0.00     0.022 A 
ENDBRANCH  21  24
ENDBRANCH  13  21
ENDBRANCH  10  12
ENDBRANCH   7  10
ENDBRANCH   5   6
BRANCH   5  31
ATOM     31  C   UNL A   1      33.264  27.217  25.378  1.00  0.00     0.090 C 
BRANCH  31  32
ATOM     32  C   UNL A   1      33.773  27.502  24.003  1.00  0.00     0.037 A 
ATOM     33  C   UNL A   1      33.777  26.761  22.836  1.00  0.00     0.134 A 
ATOM     34  N   UNL A   1      34.345  28.704  23.646  1.00  0.00    -0.348 N 
ATOM     35  N   UNL A   1      34.186  27.530  21.777  1.00  0.00    -0.245 NA
ATOM     36  C   UNL A   1      34.529  28.687  22.291  1.00  0.00     0.196 A 
ATOM     37  H   UNL A   1      34.579  29.440  24.256  1.00  0.00     0.167 HD
ENDBRANCH  31  32
ENDBRANCH   5  31
ENDBRANCH   1   5
BRANCH   3  38
ATOM     38  C   UNL A   1      33.423  30.138  26.790  1.00  0.00     0.117 C 
BRANCH  38  39
ATOM     39  C   UNL A   1      34.594  30.380  27.708  1.00  0.00     0.042 C 
BRANCH  39  40
ATOM     40  C   UNL A   1      35.006  31.832  27.711  1.00  0.00     0.118 C 
BRANCH  40  41
ATOM     41  N   UNL A   1      34.062  32.764  28.332  1.00  0.00    -0.352 N 
ATOM     42  C   UNL A   1      34.253  33.644  29.391  1.00  0.00     0.251 C 
ATOM     43  H   UNL A   1      33.158  32.769  27.941  1.00  0.00     0.163 HD
ATOM     44  O   UNL A   1      33.319  34.343  29.776  1.00  0.00    -0.269 OA
BRANCH  42  45
ATOM     45  C   UNL A   1      35.617  33.878  29.943  1.00  0.00     0.039 A 
ATOM     46  C   UNL A   1      36.630  34.244  29.046  1.00  0.00     0.014 A 
ATOM     47  C   UNL A   1      35.959  33.346  31.171  1.00  0.00     0.014 A 
ATOM     48  C   UNL A   1      37.909  33.734  29.232  1.00  0.00     0.010 A 
ATOM     49  C   UNL A   1      37.121  32.627  31.229  1.00  0.00     0.010 A 
ATOM     50  C   UNL A   1      38.085  32.794  30.235  1.00  0.00    -0.014 A 
BRANCH  50  51
ATOM     51  C   UNL A   1      39.230  31.921  30.392  1.00  0.00     0.031 A 
ATOM     52  C   UNL A   1      39.086  30.528  29.933  1.00  0.00     0.074 A 
ATOM     53  C   UNL A   1      40.426  32.463  30.713  1.00  0.00     0.049 A 
ATOM     54  N   UNL A   1      39.950  29.606  30.150  1.00  0.00    -0.248 NA
ATOM     55  C   UNL A   1      37.915  30.049  29.195  1.00  0.00     0.031 C 
ATOM     56  C   UNL A   1      41.754  31.885  30.540  1.00  0.00     0.029 A 
ATOM     57  N   UNL A   1      40.651  33.610  31.475  1.00  0.00    -0.354 N 
ATOM     58  C   UNL A   1      39.605  28.520  29.381  1.00  0.00     0.074 A 
ATOM     59  C   UNL A   1      38.307  28.825  28.837  1.00  0.00     0.031 C 
ATOM     60  C   UNL A   1      42.609  32.496  31.380  1.00  0.00     0.029 A 
ATOM     61  C   UNL A   1      41.819  33.373  32.228  1.00  0.00     0.049 A 
ATOM     62  H   UNL A   1      40.101  34.426  31.485  1.00  0.00     0.167 HD
ATOM     63  C   UNL A   1      40.524  27.534  29.213  1.00  0.00     0.031 A 
ATOM     64  C   UNL A   1      41.742  33.264  33.590  1.00  0.00     0.031 A 
ATOM     65  C   UNL A   1      41.688  27.777  30.057  1.00  0.00     0.049 A 
ATOM     66  C   UNL A   1      42.087  31.874  34.091  1.00  0.00     0.074 A 
ATOM     67  C   UNL A   1      42.920  28.366  29.826  1.00  0.00     0.029 A 
ATOM     68  N   UNL A   1      41.513  27.747  31.433  1.00  0.00    -0.354 N 
ATOM     69  N   UNL A   1      42.059  30.803  33.343  1.00  0.00    -0.248 NA
ATOM     70  C   UNL A   1      42.505  31.579  35.458  1.00  0.00     0.031 C 
ATOM     71  C   UNL A   1      43.445  28.776  31.084  1.00  0.00     0.029 A 
ATOM     72  C   UNL A   1      42.549  28.398  32.070  1.00  0.00     0.049 A 
ATOM     73  H   UNL A   1      40.753  27.321  31.892  1.00  0.00     0.167 HD
ATOM     74  C   UNL A   1      42.468  29.716  34.071  1.00  0.00     0.074 A 
ATOM     75  C   UNL A   1      42.726  30.252  35.395  1.00  0.00     0.031 C 
ATOM     76  C   UNL A   1      42.564  28.468  33.524  1.00  0.00     0.031 A 
BRANCH  63  77
ATOM     77  C   UNL A   1      40.468  26.480  28.145  1.00  0.00    -0.014 A 
ATOM     78  C   UNL A   1      41.234  26.661  26.979  1.00  0.00     0.009 A 
ATOM     79  C   UNL A   1      39.671  25.326  28.191  1.00  0.00     0.009 A 
ATOM     80  C   UNL A   1      41.168  25.769  25.902  1.00  0.00     0.001 A 
ATOM     81  C   UNL A   1      39.580  24.441  27.107  1.00  0.00     0.001 A 
ATOM     82  C   UNL A   1      40.328  24.666  25.959  1.00  0.00     0.000 A 
ENDBRANCH  63  77
BRANCH  64  83
ATOM     83  C   UNL A   1      40.721  34.191  34.169  1.00  0.00    -0.014 A 
ATOM     84  C   UNL A   1      39.574  33.604  34.748  1.00  0.00     0.009 A 
ATOM     85  C   UNL A   1      41.075  35.489  34.568  1.00  0.00     0.009 A 
ATOM     86  C   UNL A   1      38.912  34.218  35.816  1.00  0.00     0.001 A 
ATOM     87  C   UNL A   1      40.387  36.112  35.622  1.00  0.00     0.001 A 
ATOM     88  C   UNL A   1      39.347  35.455  36.280  1.00  0.00     0.000 A 
ENDBRANCH  64  83
BRANCH  76  89
ATOM     89  C   UNL A   1      42.715  27.164  34.275  1.00  0.00    -0.014 A 
ATOM     90  C   UNL A   1      41.767  26.649  35.164  1.00  0.00     0.009 A 
ATOM     91  C   UNL A   1      43.796  26.311  33.941  1.00  0.00     0.009 A 
ATOM     92  C   UNL A   1      41.903  25.362  35.706  1.00  0.00     0.001 A 
ATOM     93  C   UNL A   1      43.904  25.009  34.431  1.00  0.00     0.001 A 
ATOM     94  C   UNL A   1      42.957  24.537  35.326  1.00  0.00     0.000 A 
ENDBRANCH  76  89
ENDBRANCH  50  51
ENDBRANCH  42  45
ENDBRANCH  40  41
ENDBRANCH  39  40
ENDBRANCH  38  39
ENDBRANCH   3  38
TORSDOF 17
ENDMDL
MODEL 3
REMARK VINA RESULT:     -12.4      1.548      2.664
REMARK SMILES Cc1ccc(S(=O)(=O)n2cc(C(=O)C(=O)N[C@@H](Cc3cnc[nH]3)C(=O)NCCCNC(=O)c3ccc(-c4c5nc(c(-c6ccccc6)c6ccc([nH]6)c(-c6ccccc6)c6nc(c(-c7ccccc7)c7ccc4[nH]7)C=C6)C=C5)cc3)c3ccccc32)cc1
REMARK SMILES IDX 24 1 25 2 26 3 17 5 16 6 14 7 15 8 12 10 13 11 11 12 9 13
REMARK SMILES IDX 10 14 86 15 81 16 85 17 82 18 84 19 83 20 6 21 7 22 8 23
REMARK SMILES IDX 5 24 1 25 2 26 3 27 88 28 4 29 87 30 18 31 19 32 20 33 23 34
REMARK SMILES IDX 21 35 22 36 27 38 28 39 29 40 30 41 31 42 32 44 33 45 34 46
REMARK SMILES IDX 80 47 35 48 79 49 36 50 37 51 38 52 73 53 39 54 78 55 72 56
REMARK SMILES IDX 74 57 40 58 77 59 71 60 70 61 41 63 63 64 48 65 62 66 49 67
REMARK SMILES IDX 52 68 61 69 75 70 50 71 51 72 60 74 76 75 53 76 42 77 43 78
REMARK SMILES IDX 47 79 44 80 46 81 45 82 64 83 65 84 69 85 66 86 68 87 67 88
REMARK SMILES IDX 54 89 55 90 59 91 56 92 58 93 57 94
REMARK H PARENT 26 4 16 9 23 37 30 43 74 62 52 73
REMARK Flexibility Score: inf
ROOT
ATOM      1  C   UNL A   1      31.503  29.086  25.898  1.00  0.00     0.242 C 
ATOM      2  O   UNL A   1      31.050  27.977  26.200  1.00  0.00    -0.273 OA
ATOM      3  N   UNL A   1      32.212  29.748  26.867  1.00  0.00    -0.354 N 
ATOM      4  H   UNL A   1      31.963  29.557  27.800  1.00  0.00     0.163 HD
ENDROOT
BRANCH   1   5
ATOM      5  C   UNL A   1      31.344  29.642  24.453  1.00  0.00     0.177 C 
BRANCH   5   6
ATOM      6  N   UNL A   1      32.550  29.394  23.646  1.00  0.00    -0.337 N 
ATOM      7  C   UNL A   1      32.867  28.341  22.802  1.00  0.00     0.293 C 
ATOM      8  O   UNL A   1      33.819  28.487  22.040  1.00  0.00    -0.265 OA
ATOM      9  H   UNL A   1      33.245  30.090  23.717  1.00  0.00     0.164 HD
BRANCH   7  10
ATOM     10  C   UNL A   1      32.079  27.003  22.823  1.00  0.00     0.252 C 
ATOM     11  O   UNL A   1      31.082  26.904  22.114  1.00  0.00    -0.283 OA
BRANCH  10  12
ATOM     12  C   UNL A   1      32.476  25.862  23.668  1.00  0.00     0.054 A 
ATOM     13  N   UNL A   1      33.606  24.180  24.618  1.00  0.00    -0.240 N 
ATOM     14  C   UNL A   1      33.676  25.168  23.664  1.00  0.00     0.117 A 
ATOM     15  C   UNL A   1      32.399  24.205  25.279  1.00  0.00     0.065 A 
ATOM     16  C   UNL A   1      31.657  25.230  24.677  1.00  0.00     0.012 A 
ATOM     17  C   UNL A   1      31.872  23.417  26.321  1.00  0.00     0.028 A 
ATOM     18  C   UNL A   1      30.337  25.454  25.134  1.00  0.00     0.011 A 
ATOM     19  C   UNL A   1      30.560  23.658  26.737  1.00  0.00     0.002 A 
ATOM     20  C   UNL A   1      29.800  24.661  26.151  1.00  0.00     0.001 A 
BRANCH  13  21
ATOM     21  S   UNL A   1      34.858  23.055  24.895  1.00  0.00     0.268 S 
ATOM     22  O   UNL A   1      35.118  23.141  26.334  1.00  0.00    -0.201 OA
ATOM     23  O   UNL A   1      35.873  23.334  23.919  1.00  0.00    -0.201 OA
BRANCH  21  24
ATOM     24  C   UNL A   1      34.231  21.428  24.567  1.00  0.00     0.088 A 
ATOM     25  C   UNL A   1      32.625  17.593  23.451  1.00  0.00     0.044 C 
ATOM     26  C   UNL A   1      33.181  18.927  23.860  1.00  0.00    -0.051 A 
ATOM     27  C   UNL A   1      32.529  20.102  23.468  1.00  0.00     0.005 A 
ATOM     28  C   UNL A   1      34.344  19.017  24.635  1.00  0.00     0.005 A 
ATOM     29  C   UNL A   1      33.054  21.348  23.814  1.00  0.00     0.022 A 
ATOM     30  C   UNL A   1      34.866  20.262  25.001  1.00  0.00     0.022 A 
ENDBRANCH  21  24
ENDBRANCH  13  21
ENDBRANCH  10  12
ENDBRANCH   7  10
ENDBRANCH   5   6
BRANCH   5  31
ATOM     31  C   UNL A   1      30.003  29.320  23.745  1.00  0.00     0.090 C 
BRANCH  31  32
ATOM     32  C   UNL A   1      29.214  30.457  23.186  1.00  0.00     0.037 A 
ATOM     33  C   UNL A   1      28.018  31.041  23.562  1.00  0.00     0.134 A 
ATOM     34  N   UNL A   1      29.632  31.206  22.107  1.00  0.00    -0.348 N 
ATOM     35  N   UNL A   1      27.795  32.191  22.850  1.00  0.00    -0.245 NA
ATOM     36  C   UNL A   1      28.773  32.262  21.978  1.00  0.00     0.196 A 
ATOM     37  H   UNL A   1      30.410  31.015  21.533  1.00  0.00     0.167 HD
ENDBRANCH  31  32
ENDBRANCH   5  31
ENDBRANCH   1   5
BRANCH   3  38
ATOM     38  C   UNL A   1      33.284  30.693  26.666  1.00  0.00     0.117 C 
BRANCH  38  39
ATOM     39  C   UNL A   1      34.624  30.325  27.249  1.00  0.00     0.042 C 
BRANCH  39  40
ATOM     40  C   UNL A   1      35.098  31.356  28.245  1.00  0.00     0.118 C 
BRANCH  40  41
ATOM     41  N   UNL A   1      34.136  32.406  28.586  1.00  0.00    -0.352 N 
ATOM     42  C   UNL A   1      34.242  33.438  29.511  1.00  0.00     0.251 C 
ATOM     43  H   UNL A   1      33.287  32.377  28.086  1.00  0.00     0.163 HD
ATOM     44  O   UNL A   1      33.306  34.220  29.659  1.00  0.00    -0.269 OA
BRANCH  42  45
ATOM     45  C   UNL A   1      35.539  33.714  30.191  1.00  0.00     0.039 A 
ATOM     46  C   UNL A   1      36.589  34.219  29.412  1.00  0.00     0.014 A 
ATOM     47  C   UNL A   1      35.822  33.106  31.397  1.00  0.00     0.014 A 
ATOM     48  C   UNL A   1      37.883  33.780  29.664  1.00  0.00     0.010 A 
ATOM     49  C   UNL A   1      37.024  32.461  31.496  1.00  0.00     0.010 A 
ATOM     50  C   UNL A   1      38.047  32.773  30.601  1.00  0.00    -0.014 A 
BRANCH  50  51
ATOM     51  C   UNL A   1      39.237  31.966  30.784  1.00  0.00     0.031 A 
ATOM     52  C   UNL A   1      39.328  30.713  30.015  1.00  0.00     0.074 A 
ATOM     53  C   UNL A   1      40.292  32.497  31.441  1.00  0.00     0.049 A 
ATOM     54  N   UNL A   1      40.237  29.825  30.190  1.00  0.00    -0.248 NA
ATOM     55  C   UNL A   1      38.363  30.342  28.978  1.00  0.00     0.031 C 
ATOM     56  C   UNL A   1      41.685  32.066  31.408  1.00  0.00     0.029 A 
ATOM     57  N   UNL A   1      40.254  33.446  32.464  1.00  0.00    -0.354 N 
ATOM     58  C   UNL A   1      40.152  28.928  29.152  1.00  0.00     0.074 A 
ATOM     59  C   UNL A   1      38.943  29.264  28.445  1.00  0.00     0.031 C 
ATOM     60  C   UNL A   1      42.308  32.519  32.511  1.00  0.00     0.029 A 
ATOM     61  C   UNL A   1      41.292  33.119  33.360  1.00  0.00     0.049 A 
ATOM     62  H   UNL A   1      39.624  34.199  32.544  1.00  0.00     0.167 HD
ATOM     63  C   UNL A   1      41.189  28.073  28.956  1.00  0.00     0.031 A 
ATOM     64  C   UNL A   1      40.992  32.689  34.623  1.00  0.00     0.031 A 
ATOM     65  C   UNL A   1      42.155  28.190  30.042  1.00  0.00     0.049 A 
ATOM     66  C   UNL A   1      41.395  31.247  34.868  1.00  0.00     0.074 A 
ATOM     67  C   UNL A   1      43.336  28.897  30.188  1.00  0.00     0.029 A 
ATOM     68  N   UNL A   1      41.748  27.827  31.318  1.00  0.00    -0.354 N 
ATOM     69  N   UNL A   1      41.614  30.382  33.914  1.00  0.00    -0.248 NA
ATOM     70  C   UNL A   1      41.598  30.669  36.193  1.00  0.00     0.031 C 
ATOM     71  C   UNL A   1      43.586  29.036  31.582  1.00  0.00     0.029 A 
ATOM     72  C   UNL A   1      42.580  28.379  32.270  1.00  0.00     0.049 A 
ATOM     73  H   UNL A   1      40.970  27.255  31.517  1.00  0.00     0.167 HD
ATOM     74  C   UNL A   1      42.007  29.185  34.454  1.00  0.00     0.074 A 
ATOM     75  C   UNL A   1      41.971  29.412  35.887  1.00  0.00     0.031 C 
ATOM     76  C   UNL A   1      42.334  28.108  33.679  1.00  0.00     0.031 A 
BRANCH  63  77
ATOM     77  C   UNL A   1      41.436  27.297  27.695  1.00  0.00    -0.014 A 
ATOM     78  C   UNL A   1      41.243  25.904  27.712  1.00  0.00     0.009 A 
ATOM     79  C   UNL A   1      41.892  27.845  26.485  1.00  0.00     0.009 A 
ATOM     80  C   UNL A   1      41.536  25.100  26.604  1.00  0.00     0.001 A 
ATOM     81  C   UNL A   1      42.211  27.045  25.379  1.00  0.00     0.001 A 
ATOM     82  C   UNL A   1      42.036  25.669  25.441  1.00  0.00     0.000 A 
ENDBRANCH  63  77
BRANCH  64  83
ATOM     83  C   UNL A   1      39.790  33.385  35.181  1.00  0.00    -0.014 A 
ATOM     84  C   UNL A   1      38.557  32.701  35.100  1.00  0.00     0.009 A 
ATOM     85  C   UNL A   1      39.928  34.393  36.146  1.00  0.00     0.009 A 
ATOM     86  C   UNL A   1      37.564  32.892  36.067  1.00  0.00     0.001 A 
ATOM     87  C   UNL A   1      38.914  34.599  37.096  1.00  0.00     0.001 A 
ATOM     88  C   UNL A   1      37.763  33.812  37.090  1.00  0.00     0.000 A 
ENDBRANCH  64  83
BRANCH  76  89
ATOM     89  C   UNL A   1      42.493  26.678  34.143  1.00  0.00    -0.014 A 
ATOM     90  C   UNL A   1      43.621  25.888  33.899  1.00  0.00     0.009 A 
ATOM     91  C   UNL A   1      41.527  26.140  35.029  1.00  0.00     0.009 A 
ATOM     92  C   UNL A   1      43.764  24.624  34.490  1.00  0.00     0.001 A 
ATOM     93  C   UNL A   1      41.693  24.910  35.665  1.00  0.00     0.001 A 
ATOM     94  C   UNL A   1      42.813  24.145  35.386  1.00  0.00     0.000 A 
ENDBRANCH  76  89
ENDBRANCH  50  51
ENDBRANCH  42  45
ENDBRANCH  40  41
ENDBRANCH  39  40
ENDBRANCH  38  39
ENDBRANCH   3  38
TORSDOF 17
ENDMDL
