MODEL 1
REMARK VINA RESULT:     -10.0      0.000      0.000
REMARK SMILES CCN(c1ncc([N+](=O)[O-])cc1Br)[C@@H](C)CC(=O)NCCCNC(=O)c1ccc(-c2c3nc(c(-c4ccccc4)c4ccc([nH]4)c(-c4ccccc4)c4nc(c(-c5ccccc5)c5ccc2[nH]5)C=C4)C=C3)cc1
REMARK SMILES IDX 20 1 19 2 17 3 18 4 16 6 14 7 15 8 3 9 2 10 1 11 4 12 5 13
REMARK SMILES IDX 12 14 6 15 11 16 13 17 7 18 8 19 9 20 10 21 21 22 22 23
REMARK SMILES IDX 23 24 24 25 25 27 26 28 27 29 73 30 28 31 72 32 29 33 30 34
REMARK SMILES IDX 31 35 66 36 32 37 71 38 65 39 67 40 33 41 70 42 64 43 63 44
REMARK SMILES IDX 34 46 56 47 41 48 55 49 42 50 45 51 54 52 68 53 43 54 44 55
REMARK SMILES IDX 53 57 69 58 46 59 35 60 36 61 40 62 37 63 39 64 38 65 57 66
REMARK SMILES IDX 58 67 62 68 59 69 61 70 60 71 47 72 48 73 52 74 49 75 51 76
REMARK SMILES IDX 50 77
REMARK H PARENT 19 5 23 26 67 45 45 56
REMARK Flexibility Score: inf
ROOT
ATOM      1  C   UNL A   1      34.845  22.700  25.959  1.00  0.00     0.117 C 
ENDROOT
BRANCH   1   2
ATOM      2  N   UNL A   1      33.770  23.050  26.871  1.00  0.00    -0.356 N 
ATOM      3  C   UNL A   1      32.464  23.355  26.614  1.00  0.00     0.222 C 
ATOM      4  O   UNL A   1      31.759  23.710  27.564  1.00  0.00    -0.275 OA
ATOM      5  H   UNL A   1      34.023  23.069  27.823  1.00  0.00     0.163 HD
BRANCH   3   6
ATOM      6  C   UNL A   1      31.870  23.187  25.228  1.00  0.00     0.124 C 
BRANCH   6   7
ATOM      7  C   UNL A   1      31.344  24.497  24.623  1.00  0.00     0.090 C 
ATOM      8  C   UNL A   1      30.486  24.269  23.370  1.00  0.00     0.031 C 
BRANCH   7   9
ATOM      9  N   UNL A   1      32.409  25.505  24.351  1.00  0.00    -0.353 N 
BRANCH   9  10
ATOM     10  C   UNL A   1      33.439  25.330  23.316  1.00  0.00     0.115 C 
ATOM     11  C   UNL A   1      33.504  26.323  22.165  1.00  0.00     0.027 C 
ENDBRANCH   9  10
BRANCH   9  12
ATOM     12  C   UNL A   1      32.281  26.713  25.049  1.00  0.00     0.143 A 
ATOM     13  N   UNL A   1      33.080  26.820  26.151  1.00  0.00    -0.231 NA
ATOM     14  C   UNL A   1      31.520  27.846  24.680  1.00  0.00     0.067 A 
ATOM     15  C   UNL A   1      33.243  27.998  26.800  1.00  0.00     0.199 A 
ATOM     16  C   UNL A   1      31.717  29.075  25.339  1.00  0.00     0.107 A 
ATOM     17  Br  UNL A   1      30.114  27.898  23.394  1.00  0.00    -0.047 Br
ATOM     18  C   UNL A   1      32.620  29.150  26.390  1.00  0.00     0.288 A 
BRANCH  18  19
ATOM     19  N   UNL A   1      32.936  30.415  27.027  1.00  0.00     0.064 N 
ATOM     20  O   UNL A   1      34.018  30.501  27.625  1.00  0.00    -0.258 OA
ATOM     21  O   UNL A   1      32.122  31.339  26.900  1.00  0.00    -0.258 OA
ENDBRANCH  18  19
ENDBRANCH   9  12
ENDBRANCH   7   9
ENDBRANCH   6   7
ENDBRANCH   3   6
ENDBRANCH   1   2
BRANCH   1  22
ATOM     22  C   UNL A   1      35.955  23.743  25.958  1.00  0.00     0.042 C 
BRANCH  22  23
ATOM     23  C   UNL A   1      37.028  23.500  24.909  1.00  0.00     0.118 C 
BRANCH  23  24
ATOM     24  N   UNL A   1      38.050  22.591  25.397  1.00  0.00    -0.352 N 
ATOM     25  C   UNL A   1      39.202  22.827  26.109  1.00  0.00     0.251 C 
ATOM     26  H   UNL A   1      37.892  21.644  25.181  1.00  0.00     0.163 HD
ATOM     27  O   UNL A   1      40.043  21.934  26.176  1.00  0.00    -0.269 OA
BRANCH  25  28
ATOM     28  C   UNL A   1      39.464  24.124  26.788  1.00  0.00     0.039 A 
ATOM     29  C   UNL A   1      40.158  25.115  26.081  1.00  0.00     0.014 A 
ATOM     30  C   UNL A   1      39.130  24.357  28.123  1.00  0.00     0.014 A 
ATOM     31  C   UNL A   1      40.485  26.329  26.698  1.00  0.00     0.010 A 
ATOM     32  C   UNL A   1      39.362  25.605  28.705  1.00  0.00     0.010 A 
ATOM     33  C   UNL A   1      40.072  26.596  28.012  1.00  0.00    -0.014 A 
BRANCH  33  34
ATOM     34  C   UNL A   1      40.422  27.872  28.693  1.00  0.00     0.031 A 
ATOM     35  C   UNL A   1      41.791  28.058  29.303  1.00  0.00     0.074 A 
ATOM     36  C   UNL A   1      39.507  28.855  28.806  1.00  0.00     0.049 A 
ATOM     37  N   UNL A   1      42.261  29.068  29.993  1.00  0.00    -0.248 NA
ATOM     38  C   UNL A   1      42.749  26.952  29.136  1.00  0.00     0.031 C 
ATOM     39  C   UNL A   1      38.137  28.802  28.294  1.00  0.00     0.029 A 
ATOM     40  N   UNL A   1      39.594  30.093  29.395  1.00  0.00    -0.354 N 
ATOM     41  C   UNL A   1      43.549  28.702  30.370  1.00  0.00     0.074 A 
ATOM     42  C   UNL A   1      43.772  27.364  29.870  1.00  0.00     0.031 C 
ATOM     43  C   UNL A   1      37.521  29.965  28.567  1.00  0.00     0.029 A 
ATOM     44  C   UNL A   1      38.438  30.827  29.308  1.00  0.00     0.049 A 
ATOM     45  H   UNL A   1      40.410  30.422  29.837  1.00  0.00     0.167 HD
ATOM     46  C   UNL A   1      44.474  29.418  31.053  1.00  0.00     0.031 A 
ATOM     47  C   UNL A   1      38.140  32.053  29.777  1.00  0.00     0.031 A 
ATOM     48  C   UNL A   1      44.273  30.762  31.526  1.00  0.00     0.049 A 
ATOM     49  C   UNL A   1      39.184  32.833  30.527  1.00  0.00     0.074 A 
ATOM     50  C   UNL A   1      45.174  31.594  32.170  1.00  0.00     0.029 A 
ATOM     51  N   UNL A   1      43.090  31.472  31.401  1.00  0.00    -0.354 N 
ATOM     52  N   UNL A   1      40.416  32.494  30.822  1.00  0.00    -0.248 NA
ATOM     53  C   UNL A   1      38.799  34.172  30.998  1.00  0.00     0.031 C 
ATOM     54  C   UNL A   1      44.521  32.793  32.471  1.00  0.00     0.029 A 
ATOM     55  C   UNL A   1      43.231  32.727  31.970  1.00  0.00     0.049 A 
ATOM     56  H   UNL A   1      42.271  31.135  30.971  1.00  0.00     0.167 HD
ATOM     57  C   UNL A   1      40.958  33.585  31.489  1.00  0.00     0.074 A 
ATOM     58  C   UNL A   1      39.928  34.601  31.541  1.00  0.00     0.031 C 
ATOM     59  C   UNL A   1      42.201  33.730  32.011  1.00  0.00     0.031 A 
BRANCH  46  60
ATOM     60  C   UNL A   1      45.795  28.757  31.334  1.00  0.00    -0.014 A 
ATOM     61  C   UNL A   1      46.001  28.006  32.502  1.00  0.00     0.009 A 
ATOM     62  C   UNL A   1      46.841  28.861  30.402  1.00  0.00     0.009 A 
ATOM     63  C   UNL A   1      47.237  27.407  32.751  1.00  0.00     0.001 A 
ATOM     64  C   UNL A   1      48.067  28.237  30.640  1.00  0.00     0.001 A 
ATOM     65  C   UNL A   1      48.268  27.520  31.818  1.00  0.00     0.000 A 
ENDBRANCH  46  60
BRANCH  47  66
ATOM     66  C   UNL A   1      36.795  32.635  29.535  1.00  0.00    -0.014 A 
ATOM     67  C   UNL A   1      36.516  33.305  28.335  1.00  0.00     0.009 A 
ATOM     68  C   UNL A   1      35.784  32.527  30.503  1.00  0.00     0.009 A 
ATOM     69  C   UNL A   1      35.260  33.875  28.117  1.00  0.00     0.001 A 
ATOM     70  C   UNL A   1      34.520  33.075  30.272  1.00  0.00     0.001 A 
ATOM     71  C   UNL A   1      34.263  33.756  29.083  1.00  0.00     0.000 A 
ENDBRANCH  47  66
BRANCH  59  72
ATOM     72  C   UNL A   1      42.528  35.049  32.650  1.00  0.00    -0.014 A 
ATOM     73  C   UNL A   1      42.113  35.348  33.956  1.00  0.00     0.009 A 
ATOM     74  C   UNL A   1      43.301  35.987  31.948  1.00  0.00     0.009 A 
ATOM     75  C   UNL A   1      42.441  36.576  34.535  1.00  0.00     0.001 A 
ATOM     76  C   UNL A   1      43.648  37.202  32.538  1.00  0.00     0.001 A 
ATOM     77  C   UNL A   1      43.212  37.499  33.827  1.00  0.00     0.000 A 
ENDBRANCH  59  72
ENDBRANCH  33  34
ENDBRANCH  25  28
ENDBRANCH  23  24
ENDBRANCH  22  23
ENDBRANCH   1  22
TORSDOF 15
ENDMDL
MODEL 2
REMARK VINA RESULT:      -9.6      2.418      7.066
REMARK SMILES CCN(c1ncc([N+](=O)[O-])cc1Br)[C@@H](C)CC(=O)NCCCNC(=O)c1ccc(-c2c3nc(c(-c4ccccc4)c4ccc([nH]4)c(-c4ccccc4)c4nc(c(-c5ccccc5)c5ccc2[nH]5)C=C4)C=C3)cc1
REMARK SMILES IDX 20 1 19 2 17 3 18 4 16 6 14 7 15 8 3 9 2 10 1 11 4 12 5 13
REMARK SMILES IDX 12 14 6 15 11 16 13 17 7 18 8 19 9 20 10 21 21 22 22 23
REMARK SMILES IDX 23 24 24 25 25 27 26 28 27 29 73 30 28 31 72 32 29 33 30 34
REMARK SMILES IDX 31 35 66 36 32 37 71 38 65 39 67 40 33 41 70 42 64 43 63 44
REMARK SMILES IDX 34 46 56 47 41 48 55 49 42 50 45 51 54 52 68 53 43 54 44 55
REMARK SMILES IDX 53 57 69 58 46 59 35 60 36 61 40 62 37 63 39 64 38 65 57 66
REMARK SMILES IDX 58 67 62 68 59 69 61 70 60 71 47 72 48 73 52 74 49 75 51 76
REMARK SMILES IDX 50 77
REMARK H PARENT 19 5 23 26 67 45 45 56
REMARK Flexibility Score: inf
ROOT
ATOM      1  C   UNL A   1      36.280  20.491  24.987  1.00  0.00     0.117 C 
ENDROOT
BRANCH   1   2
ATOM      2  N   UNL A   1      36.497  21.862  25.417  1.00  0.00    -0.356 N 
ATOM      3  C   UNL A   1      35.617  22.902  25.517  1.00  0.00     0.222 C 
ATOM      4  O   UNL A   1      36.067  24.009  25.826  1.00  0.00    -0.275 OA
ATOM      5  H   UNL A   1      37.423  22.074  25.675  1.00  0.00     0.163 HD
BRANCH   3   6
ATOM      6  C   UNL A   1      34.124  22.695  25.340  1.00  0.00     0.124 C 
BRANCH   6   7
ATOM      7  C   UNL A   1      33.277  23.373  26.428  1.00  0.00     0.090 C 
ATOM      8  C   UNL A   1      33.275  22.591  27.749  1.00  0.00     0.031 C 
BRANCH   7   9
ATOM      9  N   UNL A   1      31.882  23.681  26.002  1.00  0.00    -0.353 N 
BRANCH   9  10
ATOM     10  C   UNL A   1      30.799  22.686  26.004  1.00  0.00     0.115 C 
ATOM     11  C   UNL A   1      29.717  22.778  27.070  1.00  0.00     0.027 C 
ENDBRANCH   9  10
BRANCH   9  12
ATOM     12  C   UNL A   1      31.624  25.032  25.733  1.00  0.00     0.143 A 
ATOM     13  N   UNL A   1      31.402  25.799  26.841  1.00  0.00    -0.231 NA
ATOM     14  C   UNL A   1      31.682  25.689  24.483  1.00  0.00     0.067 A 
ATOM     15  C   UNL A   1      31.363  27.152  26.773  1.00  0.00     0.199 A 
ATOM     16  C   UNL A   1      31.672  27.097  24.423  1.00  0.00     0.107 A 
ATOM     17  Br  UNL A   1      31.677  24.862  22.765  1.00  0.00    -0.047 Br
ATOM     18  C   UNL A   1      31.545  27.829  25.594  1.00  0.00     0.288 A 
BRANCH  18  19
ATOM     19  N   UNL A   1      31.638  29.278  25.593  1.00  0.00     0.064 N 
ATOM     20  O   UNL A   1      31.043  29.890  24.695  1.00  0.00    -0.258 OA
ATOM     21  O   UNL A   1      32.274  29.811  26.512  1.00  0.00    -0.258 OA
ENDBRANCH  18  19
ENDBRANCH   9  12
ENDBRANCH   7   9
ENDBRANCH   6   7
ENDBRANCH   3   6
ENDBRANCH   1   2
BRANCH   1  22
ATOM     22  C   UNL A   1      37.576  19.694  24.946  1.00  0.00     0.042 C 
BRANCH  22  23
ATOM     23  C   UNL A   1      38.733  20.359  25.675  1.00  0.00     0.118 C 
BRANCH  23  24
ATOM     24  N   UNL A   1      39.865  19.458  25.806  1.00  0.00    -0.352 N 
ATOM     25  C   UNL A   1      41.190  19.709  26.074  1.00  0.00     0.251 C 
ATOM     26  H   UNL A   1      39.646  18.507  25.683  1.00  0.00     0.163 HD
ATOM     27  O   UNL A   1      42.007  18.813  25.871  1.00  0.00    -0.269 OA
BRANCH  25  28
ATOM     28  C   UNL A   1      41.663  21.022  26.586  1.00  0.00     0.039 A 
ATOM     29  C   UNL A   1      41.625  21.248  27.968  1.00  0.00     0.014 A 
ATOM     30  C   UNL A   1      42.054  22.063  25.742  1.00  0.00     0.014 A 
ATOM     31  C   UNL A   1      42.000  22.490  28.494  1.00  0.00     0.010 A 
ATOM     32  C   UNL A   1      42.528  23.265  26.272  1.00  0.00     0.010 A 
ATOM     33  C   UNL A   1      42.476  23.508  27.652  1.00  0.00    -0.014 A 
BRANCH  33  34
ATOM     34  C   UNL A   1      42.865  24.841  28.187  1.00  0.00     0.031 A 
ATOM     35  C   UNL A   1      41.816  25.901  28.422  1.00  0.00     0.074 A 
ATOM     36  C   UNL A   1      44.160  25.125  28.428  1.00  0.00     0.049 A 
ATOM     37  N   UNL A   1      41.965  27.142  28.818  1.00  0.00    -0.248 NA
ATOM     38  C   UNL A   1      40.419  25.526  28.151  1.00  0.00     0.031 C 
ATOM     39  C   UNL A   1      45.283  24.210  28.217  1.00  0.00     0.029 A 
ATOM     40  N   UNL A   1      44.750  26.272  28.899  1.00  0.00    -0.354 N 
ATOM     41  C   UNL A   1      40.690  27.699  28.808  1.00  0.00     0.074 A 
ATOM     42  C   UNL A   1      39.787  26.678  28.326  1.00  0.00     0.031 C 
ATOM     43  C   UNL A   1      46.422  24.822  28.584  1.00  0.00     0.029 A 
ATOM     44  C   UNL A   1      46.115  26.183  29.014  1.00  0.00     0.049 A 
ATOM     45  H   UNL A   1      44.242  27.083  29.133  1.00  0.00     0.167 HD
ATOM     46  C   UNL A   1      40.298  28.940  29.182  1.00  0.00     0.031 A 
ATOM     47  C   UNL A   1      47.023  27.093  29.414  1.00  0.00     0.031 A 
ATOM     48  C   UNL A   1      41.184  29.952  29.692  1.00  0.00     0.049 A 
ATOM     49  C   UNL A   1      46.565  28.463  29.832  1.00  0.00     0.074 A 
ATOM     50  C   UNL A   1      40.871  31.217  30.160  1.00  0.00     0.029 A 
ATOM     51  N   UNL A   1      42.558  29.810  29.807  1.00  0.00    -0.354 N 
ATOM     52  N   UNL A   1      45.349  28.951  29.871  1.00  0.00    -0.248 NA
ATOM     53  C   UNL A   1      47.605  29.403  30.271  1.00  0.00     0.031 C 
ATOM     54  C   UNL A   1      42.062  31.856  30.519  1.00  0.00     0.029 A 
ATOM     55  C   UNL A   1      43.109  30.971  30.322  1.00  0.00     0.049 A 
ATOM     56  H   UNL A   1      43.066  29.004  29.559  1.00  0.00     0.167 HD
ATOM     57  C   UNL A   1      45.476  30.243  30.363  1.00  0.00     0.074 A 
ATOM     58  C   UNL A   1      46.885  30.458  30.622  1.00  0.00     0.031 C 
ATOM     59  C   UNL A   1      44.511  31.169  30.580  1.00  0.00     0.031 A 
BRANCH  46  60
ATOM     60  C   UNL A   1      38.838  29.275  29.050  1.00  0.00    -0.014 A 
ATOM     61  C   UNL A   1      38.295  29.700  27.827  1.00  0.00     0.009 A 
ATOM     62  C   UNL A   1      37.986  29.136  30.158  1.00  0.00     0.009 A 
ATOM     63  C   UNL A   1      36.939  30.017  27.725  1.00  0.00     0.001 A 
ATOM     64  C   UNL A   1      36.625  29.426  30.046  1.00  0.00     0.001 A 
ATOM     65  C   UNL A   1      36.104  29.877  28.834  1.00  0.00     0.000 A 
ENDBRANCH  46  60
BRANCH  47  66
ATOM     66  C   UNL A   1      48.464  26.735  29.458  1.00  0.00    -0.014 A 
ATOM     67  C   UNL A   1      49.017  26.156  30.610  1.00  0.00     0.009 A 
ATOM     68  C   UNL A   1      49.295  26.972  28.352  1.00  0.00     0.009 A 
ATOM     69  C   UNL A   1      50.377  25.843  30.664  1.00  0.00     0.001 A 
ATOM     70  C   UNL A   1      50.650  26.634  28.399  1.00  0.00     0.001 A 
ATOM     71  C   UNL A   1      51.190  26.078  29.558  1.00  0.00     0.000 A 
ENDBRANCH  47  66
BRANCH  59  72
ATOM     72  C   UNL A   1      44.939  32.486  31.162  1.00  0.00    -0.014 A 
ATOM     73  C   UNL A   1      45.284  33.568  30.339  1.00  0.00     0.009 A 
ATOM     74  C   UNL A   1      44.956  32.655  32.555  1.00  0.00     0.009 A 
ATOM     75  C   UNL A   1      45.666  34.788  30.903  1.00  0.00     0.001 A 
ATOM     76  C   UNL A   1      45.314  33.882  33.115  1.00  0.00     0.001 A 
ATOM     77  C   UNL A   1      45.677  34.944  32.289  1.00  0.00     0.000 A 
ENDBRANCH  59  72
ENDBRANCH  33  34
ENDBRANCH  25  28
ENDBRANCH  23  24
ENDBRANCH  22  23
ENDBRANCH   1  22
TORSDOF 15
ENDMDL
MODEL 3
REMARK VINA RESULT:      -9.5      2.447      3.791
REMARK SMILES CCN(c1ncc([N+](=O)[O-])cc1Br)[C@@H](C)CC(=O)NCCCNC(=O)c1ccc(-c2c3nc(c(-c4ccccc4)c4ccc([nH]4)c(-c4ccccc4)c4nc(c(-c5ccccc5)c5ccc2[nH]5)C=C4)C=C3)cc1
REMARK SMILES IDX 20 1 19 2 17 3 18 4 16 6 14 7 15 8 3 9 2 10 1 11 4 12 5 13
REMARK SMILES IDX 12 14 6 15 11 16 13 17 7 18 8 19 9 20 10 21 21 22 22 23
REMARK SMILES IDX 23 24 24 25 25 27 26 28 27 29 73 30 28 31 72 32 29 33 30 34
REMARK SMILES IDX 31 35 66 36 32 37 71 38 65 39 67 40 33 41 70 42 64 43 63 44
REMARK SMILES IDX 34 46 56 47 41 48 55 49 42 50 45 51 54 52 68 53 43 54 44 55
REMARK SMILES IDX 53 57 69 58 46 59 35 60 36 61 40 62 37 63 39 64 38 65 57 66
REMARK SMILES IDX 58 67 62 68 59 69 61 70 60 71 47 72 48 73 52 74 49 75 51 76
REMARK SMILES IDX 50 77
REMARK H PARENT 19 5 23 26 67 45 45 56
REMARK Flexibility Score: inf
ROOT
ATOM      1  C   UNL A   1      36.445  20.245  24.566  1.00  0.00     0.117 C 
ENDROOT
BRANCH   1   2
ATOM      2  N   UNL A   1      35.182  19.759  25.097  1.00  0.00    -0.356 N 
ATOM      3  C   UNL A   1      33.981  20.396  25.228  1.00  0.00     0.222 C 
ATOM      4  O   UNL A   1      33.069  19.790  25.798  1.00  0.00    -0.275 OA
ATOM      5  H   UNL A   1      35.196  18.826  25.411  1.00  0.00     0.163 HD
BRANCH   3   6
ATOM      6  C   UNL A   1      33.741  21.766  24.622  1.00  0.00     0.124 C 
BRANCH   6   7
ATOM      7  C   UNL A   1      33.929  22.919  25.621  1.00  0.00     0.090 C 
ATOM      8  C   UNL A   1      34.766  22.514  26.842  1.00  0.00     0.031 C 
BRANCH   7   9
ATOM      9  N   UNL A   1      32.651  23.557  26.051  1.00  0.00    -0.353 N 
BRANCH   9  10
ATOM     10  C   UNL A   1      31.752  22.965  27.054  1.00  0.00     0.115 C 
ATOM     11  C   UNL A   1      30.249  23.049  26.836  1.00  0.00     0.027 C 
ENDBRANCH   9  10
BRANCH   9  12
ATOM     12  C   UNL A   1      32.426  24.844  25.545  1.00  0.00     0.143 A 
ATOM     13  N   UNL A   1      32.978  25.850  26.286  1.00  0.00    -0.231 NA
ATOM     14  C   UNL A   1      31.806  25.195  24.324  1.00  0.00     0.067 A 
ATOM     15  C   UNL A   1      33.046  27.121  25.820  1.00  0.00     0.199 A 
ATOM     16  C   UNL A   1      31.907  26.510  23.832  1.00  0.00     0.107 A 
ATOM     17  Br  UNL A   1      30.707  24.069  23.246  1.00  0.00    -0.047 Br
ATOM     18  C   UNL A   1      32.569  27.471  24.582  1.00  0.00     0.288 A 
BRANCH  18  19
ATOM     19  N   UNL A   1      32.793  28.810  24.068  1.00  0.00     0.064 N 
ATOM     20  O   UNL A   1      32.946  29.722  24.893  1.00  0.00    -0.258 OA
ATOM     21  O   UNL A   1      32.854  28.949  22.840  1.00  0.00    -0.258 OA
ENDBRANCH  18  19
ENDBRANCH   9  12
ENDBRANCH   7   9
ENDBRANCH   6   7
ENDBRANCH   3   6
ENDBRANCH   1   2
BRANCH   1  22
ATOM     22  C   UNL A   1      37.618  19.372  24.993  1.00  0.00     0.042 C 
BRANCH  22  23
ATOM     23  C   UNL A   1      38.780  20.150  25.589  1.00  0.00     0.118 C 
BRANCH  23  24
ATOM     24  N   UNL A   1      39.943  19.302  25.779  1.00  0.00    -0.352 N 
ATOM     25  C   UNL A   1      41.245  19.614  26.092  1.00  0.00     0.251 C 
ATOM     26  H   UNL A   1      39.771  18.340  25.665  1.00  0.00     0.163 HD
ATOM     27  O   UNL A   1      42.107  18.752  25.937  1.00  0.00    -0.269 OA
BRANCH  25  28
ATOM     28  C   UNL A   1      41.642  20.955  26.599  1.00  0.00     0.039 A 
ATOM     29  C   UNL A   1      41.519  21.209  27.971  1.00  0.00     0.014 A 
ATOM     30  C   UNL A   1      42.041  21.992  25.753  1.00  0.00     0.014 A 
ATOM     31  C   UNL A   1      41.820  22.476  28.487  1.00  0.00     0.010 A 
ATOM     32  C   UNL A   1      42.441  23.221  26.279  1.00  0.00     0.010 A 
ATOM     33  C   UNL A   1      42.305  23.491  27.648  1.00  0.00    -0.014 A 
BRANCH  33  34
ATOM     34  C   UNL A   1      42.614  24.850  28.172  1.00  0.00     0.031 A 
ATOM     35  C   UNL A   1      44.027  25.209  28.567  1.00  0.00     0.074 A 
ATOM     36  C   UNL A   1      41.629  25.755  28.336  1.00  0.00     0.049 A 
ATOM     37  N   UNL A   1      44.482  26.315  29.104  1.00  0.00    -0.248 NA
ATOM     38  C   UNL A   1      45.059  24.181  28.353  1.00  0.00     0.031 C 
ATOM     39  C   UNL A   1      40.215  25.536  28.028  1.00  0.00     0.029 A 
ATOM     40  N   UNL A   1      41.671  27.043  28.810  1.00  0.00    -0.354 N 
ATOM     41  C   UNL A   1      45.838  26.099  29.323  1.00  0.00     0.074 A 
ATOM     42  C   UNL A   1      46.124  24.746  28.902  1.00  0.00     0.031 C 
ATOM     43  C   UNL A   1      39.529  26.660  28.295  1.00  0.00     0.029 A 
ATOM     44  C   UNL A   1      40.445  27.662  28.831  1.00  0.00     0.049 A 
ATOM     45  H   UNL A   1      42.501  27.482  29.107  1.00  0.00     0.167 HD
ATOM     46  C   UNL A   1      46.770  26.952  29.812  1.00  0.00     0.031 A 
ATOM     47  C   UNL A   1      40.093  28.895  29.241  1.00  0.00     0.031 A 
ATOM     48  C   UNL A   1      46.501  28.310  30.203  1.00  0.00     0.049 A 
ATOM     49  C   UNL A   1      41.145  29.828  29.773  1.00  0.00     0.074 A 
ATOM     50  C   UNL A   1      47.392  29.272  30.648  1.00  0.00     0.029 A 
ATOM     51  N   UNL A   1      45.247  28.899  30.191  1.00  0.00    -0.354 N 
ATOM     52  N   UNL A   1      42.432  29.626  29.918  1.00  0.00    -0.248 NA
ATOM     53  C   UNL A   1      40.694  31.164  30.189  1.00  0.00     0.031 C 
ATOM     54  C   UNL A   1      46.670  30.432  30.944  1.00  0.00     0.029 A 
ATOM     55  C   UNL A   1      45.338  30.208  30.637  1.00  0.00     0.049 A 
ATOM     56  H   UNL A   1      44.416  28.454  29.908  1.00  0.00     0.167 HD
ATOM     57  C   UNL A   1      42.947  30.816  30.415  1.00  0.00     0.074 A 
ATOM     58  C   UNL A   1      41.838  31.739  30.533  1.00  0.00     0.031 C 
ATOM     59  C   UNL A   1      44.227  31.116  30.744  1.00  0.00     0.031 A 
BRANCH  46  60
ATOM     60  C   UNL A   1      48.176  26.437  29.954  1.00  0.00    -0.014 A 
ATOM     61  C   UNL A   1      49.107  26.563  28.911  1.00  0.00     0.009 A 
ATOM     62  C   UNL A   1      48.584  25.842  31.159  1.00  0.00     0.009 A 
ATOM     63  C   UNL A   1      50.405  26.070  29.057  1.00  0.00     0.001 A 
ATOM     64  C   UNL A   1      49.891  25.376  31.312  1.00  0.00     0.001 A 
ATOM     65  C   UNL A   1      50.798  25.480  30.258  1.00  0.00     0.000 A 
ENDBRANCH  46  60
BRANCH  47  66
ATOM     66  C   UNL A   1      38.676  29.332  29.147  1.00  0.00    -0.014 A 
ATOM     67  C   UNL A   1      38.180  29.880  27.955  1.00  0.00     0.009 A 
ATOM     68  C   UNL A   1      37.814  29.208  30.247  1.00  0.00     0.009 A 
ATOM     69  C   UNL A   1      36.855  30.316  27.872  1.00  0.00     0.001 A 
ATOM     70  C   UNL A   1      36.483  29.620  30.154  1.00  0.00     0.001 A 
ATOM     71  C   UNL A   1      36.008  30.182  28.970  1.00  0.00     0.000 A 
ENDBRANCH  47  66
BRANCH  59  72
ATOM     72  C   UNL A   1      44.504  32.511  31.228  1.00  0.00    -0.014 A 
ATOM     73  C   UNL A   1      44.538  32.814  32.596  1.00  0.00     0.009 A 
ATOM     74  C   UNL A   1      44.778  33.525  30.296  1.00  0.00     0.009 A 
ATOM     75  C   UNL A   1      44.811  34.116  33.022  1.00  0.00     0.001 A 
ATOM     76  C   UNL A   1      45.075  34.819  30.726  1.00  0.00     0.001 A 
ATOM     77  C   UNL A   1      45.083  35.115  32.087  1.00  0.00     0.000 A 
ENDBRANCH  59  72
ENDBRANCH  33  34
ENDBRANCH  25  28
ENDBRANCH  23  24
ENDBRANCH  22  23
ENDBRANCH   1  22
TORSDOF 15
ENDMDL
