MODEL 1
REMARK VINA RESULT:     -11.7      0.000      0.000
REMARK SMILES Cc1nc(-c2ccc(C(F)(F)F)cc2)nc(SCC(=O)NCCCNC(=O)c2ccc(-c3c4nc(c(-c5ccccc5)c5ccc([nH]5)c(-c5ccccc5)c5nc(c(-c6ccccc6)c6ccc3[nH]6)C=C5)C=C4)cc2)c1C
REMARK SMILES IDX 22 1 21 2 19 3 20 4 18 6 17 7 16 8 1 9 2 10 3 11 76 12 4 13
REMARK SMILES IDX 77 14 15 15 5 16 6 17 14 18 7 19 13 20 8 21 9 22 10 23 11 24
REMARK SMILES IDX 12 25 23 26 24 27 25 28 26 29 27 31 28 32 29 33 75 34 30 35
REMARK SMILES IDX 74 36 31 37 32 38 33 39 68 40 34 41 73 42 67 43 69 44 35 45
REMARK SMILES IDX 72 46 66 47 65 48 36 50 58 51 43 52 57 53 44 54 47 55 56 56
REMARK SMILES IDX 70 57 45 58 46 59 55 61 71 62 48 63 37 64 38 65 42 66 39 67
REMARK SMILES IDX 41 68 40 69 59 70 60 71 64 72 61 73 63 74 62 75 49 76 50 77
REMARK SMILES IDX 54 78 51 79 53 80 52 81
REMARK H PARENT 21 5 25 30 69 49 47 60
REMARK Flexibility Score: inf
ROOT
ATOM      1  C   UNL A   1      35.770  20.997  24.955  1.00  0.00     0.117 C 
ENDROOT
BRANCH   1   2
ATOM      2  N   UNL A   1      35.143  21.094  26.258  1.00  0.00    -0.355 N 
ATOM      3  C   UNL A   1      34.432  22.111  26.814  1.00  0.00     0.230 C 
ATOM      4  O   UNL A   1      33.847  21.864  27.872  1.00  0.00    -0.274 OA
ATOM      5  H   UNL A   1      35.248  20.300  26.830  1.00  0.00     0.163 HD
BRANCH   3   6
ATOM      6  C   UNL A   1      34.257  23.445  26.122  1.00  0.00     0.176 C 
BRANCH   6   7
ATOM      7  S   UNL A   1      32.553  23.952  25.767  1.00  0.00    -0.096 SA
BRANCH   7   8
ATOM      8  C   UNL A   1      32.381  24.723  24.168  1.00  0.00     0.104 A 
ATOM      9  C   UNL A   1      32.841  24.936  20.423  1.00  0.00     0.067 C 
ATOM     10  C   UNL A   1      32.445  25.188  21.851  1.00  0.00     0.045 A 
ATOM     11  N   UNL A   1      31.643  26.252  22.013  1.00  0.00    -0.233 NA
ATOM     12  C   UNL A   1      32.887  24.389  22.914  1.00  0.00     0.003 A 
ATOM     13  C   UNL A   1      31.281  26.556  23.260  1.00  0.00     0.160 A 
ATOM     14  C   UNL A   1      33.796  23.247  22.602  1.00  0.00     0.049 C 
ATOM     15  N   UNL A   1      31.610  25.833  24.336  1.00  0.00    -0.221 NA
BRANCH  13  16
ATOM     16  C   UNL A   1      30.496  27.785  23.419  1.00  0.00     0.019 A 
ATOM     17  C   UNL A   1      29.253  27.919  22.774  1.00  0.00     0.012 A 
ATOM     18  C   UNL A   1      30.985  28.893  24.131  1.00  0.00     0.012 A 
ATOM     19  C   UNL A   1      28.542  29.121  22.803  1.00  0.00     0.014 A 
ATOM     20  C   UNL A   1      30.283  30.106  24.150  1.00  0.00     0.014 A 
ATOM     21  C   UNL A   1      29.062  30.237  23.472  1.00  0.00     0.056 A 
BRANCH  21  22
ATOM     22  C   UNL A   1      28.314  31.547  23.427  1.00  0.00     0.416 C 
ATOM     23  F   UNL A   1      29.093  32.603  23.795  1.00  0.00    -0.166 F 
ATOM     24  F   UNL A   1      27.852  31.843  22.181  1.00  0.00    -0.166 F 
ATOM     25  F   UNL A   1      27.226  31.584  24.247  1.00  0.00    -0.166 F 
ENDBRANCH  21  22
ENDBRANCH  13  16
ENDBRANCH   7   8
ENDBRANCH   6   7
ENDBRANCH   3   6
ENDBRANCH   1   2
BRANCH   1  26
ATOM     26  C   UNL A   1      36.939  20.018  24.940  1.00  0.00     0.042 C 
BRANCH  26  27
ATOM     27  C   UNL A   1      38.287  20.640  25.297  1.00  0.00     0.118 C 
BRANCH  27  28
ATOM     28  N   UNL A   1      39.332  19.649  25.509  1.00  0.00    -0.352 N 
ATOM     29  C   UNL A   1      40.614  19.785  25.981  1.00  0.00     0.251 C 
ATOM     30  H   UNL A   1      39.077  18.727  25.276  1.00  0.00     0.163 HD
ATOM     31  O   UNL A   1      41.391  18.839  25.897  1.00  0.00    -0.269 OA
BRANCH  29  32
ATOM     32  C   UNL A   1      41.077  21.059  26.574  1.00  0.00     0.039 A 
ATOM     33  C   UNL A   1      41.617  22.035  25.731  1.00  0.00     0.014 A 
ATOM     34  C   UNL A   1      41.039  21.276  27.953  1.00  0.00     0.014 A 
ATOM     35  C   UNL A   1      42.064  23.247  26.262  1.00  0.00     0.010 A 
ATOM     36  C   UNL A   1      41.415  22.512  28.475  1.00  0.00     0.010 A 
ATOM     37  C   UNL A   1      41.940  23.506  27.636  1.00  0.00    -0.014 A 
BRANCH  37  38
ATOM     38  C   UNL A   1      42.384  24.797  28.220  1.00  0.00     0.031 A 
ATOM     39  C   UNL A   1      41.392  25.910  28.427  1.00  0.00     0.074 A 
ATOM     40  C   UNL A   1      43.682  24.985  28.524  1.00  0.00     0.049 A 
ATOM     41  N   UNL A   1      41.599  27.127  28.862  1.00  0.00    -0.248 NA
ATOM     42  C   UNL A   1      39.990  25.623  28.084  1.00  0.00     0.031 C 
ATOM     43  C   UNL A   1      44.744  23.992  28.359  1.00  0.00     0.029 A 
ATOM     44  N   UNL A   1      44.328  26.082  29.036  1.00  0.00    -0.354 N 
ATOM     45  C   UNL A   1      40.357  27.750  28.836  1.00  0.00     0.074 A 
ATOM     46  C   UNL A   1      39.414  26.796  28.295  1.00  0.00     0.031 C 
ATOM     47  C   UNL A   1      45.903  24.513  28.794  1.00  0.00     0.029 A 
ATOM     48  C   UNL A   1      45.675  25.889  29.225  1.00  0.00     0.049 A 
ATOM     49  H   UNL A   1      43.870  26.927  29.250  1.00  0.00     0.167 HD
ATOM     50  C   UNL A   1      40.026  28.997  29.247  1.00  0.00     0.031 A 
ATOM     51  C   UNL A   1      46.622  26.727  29.688  1.00  0.00     0.031 A 
ATOM     52  C   UNL A   1      40.959  29.945  29.793  1.00  0.00     0.049 A 
ATOM     53  C   UNL A   1      46.238  28.123  30.092  1.00  0.00     0.074 A 
ATOM     54  C   UNL A   1      40.711  31.220  30.270  1.00  0.00     0.029 A 
ATOM     55  N   UNL A   1      42.320  29.719  29.938  1.00  0.00    -0.354 N 
ATOM     56  N   UNL A   1      45.053  28.684  30.095  1.00  0.00    -0.248 NA
ATOM     57  C   UNL A   1      47.323  28.999  30.557  1.00  0.00     0.031 C 
ATOM     58  C   UNL A   1      41.930  31.785  30.658  1.00  0.00     0.029 A 
ATOM     59  C   UNL A   1      42.928  30.841  30.473  1.00  0.00     0.049 A 
ATOM     60  H   UNL A   1      42.783  28.885  29.696  1.00  0.00     0.167 HD
ATOM     61  C   UNL A   1      45.247  29.972  30.578  1.00  0.00     0.074 A 
ATOM     62  C   UNL A   1      46.658  30.103  30.876  1.00  0.00     0.031 C 
ATOM     63  C   UNL A   1      44.334  30.959  30.756  1.00  0.00     0.031 A 
BRANCH  50  64
ATOM     64  C   UNL A   1      38.586  29.409  29.123  1.00  0.00    -0.014 A 
ATOM     65  C   UNL A   1      37.701  29.278  30.206  1.00  0.00     0.009 A 
ATOM     66  C   UNL A   1      38.120  29.979  27.928  1.00  0.00     0.009 A 
ATOM     67  C   UNL A   1      36.371  29.684  30.084  1.00  0.00     0.001 A 
ATOM     68  C   UNL A   1      36.796  30.409  27.819  1.00  0.00     0.001 A 
ATOM     69  C   UNL A   1      35.921  30.254  28.894  1.00  0.00     0.000 A 
ENDBRANCH  50  64
BRANCH  51  70
ATOM     70  C   UNL A   1      48.027  26.260  29.814  1.00  0.00    -0.014 A 
ATOM     71  C   UNL A   1      48.891  26.311  28.709  1.00  0.00     0.009 A 
ATOM     72  C   UNL A   1      48.516  25.771  31.037  1.00  0.00     0.009 A 
ATOM     73  C   UNL A   1      50.211  25.867  28.823  1.00  0.00     0.001 A 
ATOM     74  C   UNL A   1      49.843  25.354  31.153  1.00  0.00     0.001 A 
ATOM     75  C   UNL A   1      50.687  25.395  30.044  1.00  0.00     0.000 A 
ENDBRANCH  51  70
BRANCH  63  76
ATOM     76  C   UNL A   1      44.828  32.266  31.308  1.00  0.00    -0.014 A 
ATOM     77  C   UNL A   1      45.236  33.304  30.456  1.00  0.00     0.009 A 
ATOM     78  C   UNL A   1      44.820  32.486  32.694  1.00  0.00     0.009 A 
ATOM     79  C   UNL A   1      45.647  34.529  30.983  1.00  0.00     0.001 A 
ATOM     80  C   UNL A   1      45.206  33.722  33.217  1.00  0.00     0.001 A 
ATOM     81  C   UNL A   1      45.624  34.739  32.362  1.00  0.00     0.000 A 
ENDBRANCH  63  76
ENDBRANCH  37  38
ENDBRANCH  29  32
ENDBRANCH  27  28
ENDBRANCH  26  27
ENDBRANCH   1  26
TORSDOF 14
ENDMDL
MODEL 2
REMARK VINA RESULT:     -11.6      1.245      1.735
REMARK SMILES Cc1nc(-c2ccc(C(F)(F)F)cc2)nc(SCC(=O)NCCCNC(=O)c2ccc(-c3c4nc(c(-c5ccccc5)c5ccc([nH]5)c(-c5ccccc5)c5nc(c(-c6ccccc6)c6ccc3[nH]6)C=C5)C=C4)cc2)c1C
REMARK SMILES IDX 22 1 21 2 19 3 20 4 18 6 17 7 16 8 1 9 2 10 3 11 76 12 4 13
REMARK SMILES IDX 77 14 15 15 5 16 6 17 14 18 7 19 13 20 8 21 9 22 10 23 11 24
REMARK SMILES IDX 12 25 23 26 24 27 25 28 26 29 27 31 28 32 29 33 75 34 30 35
REMARK SMILES IDX 74 36 31 37 32 38 33 39 68 40 34 41 73 42 67 43 69 44 35 45
REMARK SMILES IDX 72 46 66 47 65 48 36 50 58 51 43 52 57 53 44 54 47 55 56 56
REMARK SMILES IDX 70 57 45 58 46 59 55 61 71 62 48 63 37 64 38 65 42 66 39 67
REMARK SMILES IDX 41 68 40 69 59 70 60 71 64 72 61 73 63 74 62 75 49 76 50 77
REMARK SMILES IDX 54 78 51 79 53 80 52 81
REMARK H PARENT 21 5 25 30 69 49 47 60
REMARK Flexibility Score: inf
ROOT
ATOM      1  C   UNL A   1      36.543  20.306  24.966  1.00  0.00     0.117 C 
ENDROOT
BRANCH   1   2
ATOM      2  N   UNL A   1      36.714  21.608  25.580  1.00  0.00    -0.355 N 
ATOM      3  C   UNL A   1      36.115  22.795  25.298  1.00  0.00     0.230 C 
ATOM      4  O   UNL A   1      36.303  23.715  26.098  1.00  0.00    -0.274 OA
ATOM      5  H   UNL A   1      37.365  21.637  26.318  1.00  0.00     0.163 HD
BRANCH   3   6
ATOM      6  C   UNL A   1      35.164  22.961  24.132  1.00  0.00     0.176 C 
BRANCH   6   7
ATOM      7  S   UNL A   1      34.396  24.591  23.943  1.00  0.00    -0.096 SA
BRANCH   7   8
ATOM      8  C   UNL A   1      32.750  24.664  24.625  1.00  0.00     0.104 A 
ATOM      9  C   UNL A   1      29.925  23.473  26.835  1.00  0.00     0.067 C 
ATOM     10  C   UNL A   1      30.791  24.248  25.881  1.00  0.00     0.045 A 
ATOM     11  N   UNL A   1      30.239  25.395  25.455  1.00  0.00    -0.233 NA
ATOM     12  C   UNL A   1      32.053  23.800  25.466  1.00  0.00     0.003 A 
ATOM     13  C   UNL A   1      30.938  26.116  24.577  1.00  0.00     0.160 A 
ATOM     14  C   UNL A   1      32.542  22.493  25.996  1.00  0.00     0.049 C 
ATOM     15  N   UNL A   1      32.167  25.801  24.155  1.00  0.00    -0.221 NA
BRANCH  13  16
ATOM     16  C   UNL A   1      30.267  27.307  24.046  1.00  0.00     0.019 A 
ATOM     17  C   UNL A   1      30.883  28.568  24.143  1.00  0.00     0.012 A 
ATOM     18  C   UNL A   1      28.968  27.254  23.515  1.00  0.00     0.012 A 
ATOM     19  C   UNL A   1      30.219  29.736  23.761  1.00  0.00     0.014 A 
ATOM     20  C   UNL A   1      28.290  28.425  23.146  1.00  0.00     0.014 A 
ATOM     21  C   UNL A   1      28.903  29.679  23.281  1.00  0.00     0.056 A 
BRANCH  21  22
ATOM     22  C   UNL A   1      28.177  30.958  22.947  1.00  0.00     0.416 C 
ATOM     23  F   UNL A   1      27.246  31.290  23.886  1.00  0.00    -0.166 F 
ATOM     24  F   UNL A   1      29.015  32.029  22.861  1.00  0.00    -0.166 F 
ATOM     25  F   UNL A   1      27.507  30.914  21.760  1.00  0.00    -0.166 F 
ENDBRANCH  21  22
ENDBRANCH  13  16
ENDBRANCH   7   8
ENDBRANCH   6   7
ENDBRANCH   3   6
ENDBRANCH   1   2
BRANCH   1  26
ATOM     26  C   UNL A   1      37.844  19.511  24.908  1.00  0.00     0.042 C 
BRANCH  26  27
ATOM     27  C   UNL A   1      38.983  20.106  25.731  1.00  0.00     0.118 C 
BRANCH  27  28
ATOM     28  N   UNL A   1      40.137  19.223  25.827  1.00  0.00    -0.352 N 
ATOM     29  C   UNL A   1      41.453  19.494  26.110  1.00  0.00     0.251 C 
ATOM     30  H   UNL A   1      39.940  18.272  25.662  1.00  0.00     0.163 HD
ATOM     31  O   UNL A   1      42.297  18.618  25.949  1.00  0.00    -0.269 OA
BRANCH  29  32
ATOM     32  C   UNL A   1      41.869  20.829  26.590  1.00  0.00     0.039 A 
ATOM     33  C   UNL A   1      42.262  21.789  25.651  1.00  0.00     0.014 A 
ATOM     34  C   UNL A   1      41.934  21.126  27.953  1.00  0.00     0.014 A 
ATOM     35  C   UNL A   1      42.662  23.058  26.074  1.00  0.00     0.010 A 
ATOM     36  C   UNL A   1      42.262  22.414  28.372  1.00  0.00     0.010 A 
ATOM     37  C   UNL A   1      42.638  23.389  27.438  1.00  0.00    -0.014 A 
BRANCH  37  38
ATOM     38  C   UNL A   1      43.034  24.741  27.909  1.00  0.00     0.031 A 
ATOM     39  C   UNL A   1      41.983  25.787  28.165  1.00  0.00     0.074 A 
ATOM     40  C   UNL A   1      44.337  25.042  28.066  1.00  0.00     0.049 A 
ATOM     41  N   UNL A   1      42.135  27.038  28.518  1.00  0.00    -0.248 NA
ATOM     42  C   UNL A   1      40.581  25.377  27.985  1.00  0.00     0.031 C 
ATOM     43  C   UNL A   1      45.453  24.122  27.838  1.00  0.00     0.029 A 
ATOM     44  N   UNL A   1      44.942  26.210  28.455  1.00  0.00    -0.354 N 
ATOM     45  C   UNL A   1      40.852  27.565  28.592  1.00  0.00     0.074 A 
ATOM     46  C   UNL A   1      39.938  26.515  28.199  1.00  0.00     0.031 C 
ATOM     47  C   UNL A   1      46.605  24.751  28.124  1.00  0.00     0.029 A 
ATOM     48  C   UNL A   1      46.312  26.128  28.511  1.00  0.00     0.049 A 
ATOM     49  H   UNL A   1      44.442  27.029  28.674  1.00  0.00     0.167 HD
ATOM     50  C   UNL A   1      40.465  28.805  28.975  1.00  0.00     0.031 A 
ATOM     51  C   UNL A   1      47.232  27.059  28.832  1.00  0.00     0.031 A 
ATOM     52  C   UNL A   1      41.370  29.848  29.375  1.00  0.00     0.049 A 
ATOM     53  C   UNL A   1      46.780  28.443  29.206  1.00  0.00     0.074 A 
ATOM     54  C   UNL A   1      41.070  31.126  29.813  1.00  0.00     0.029 A 
ATOM     55  N   UNL A   1      42.752  29.733  29.386  1.00  0.00    -0.354 N 
ATOM     56  N   UNL A   1      45.561  28.914  29.306  1.00  0.00    -0.248 NA
ATOM     57  C   UNL A   1      47.833  29.422  29.512  1.00  0.00     0.031 C 
ATOM     58  C   UNL A   1      42.274  31.801  30.043  1.00  0.00     0.029 A 
ATOM     59  C   UNL A   1      43.320  30.925  29.800  1.00  0.00     0.049 A 
ATOM     60  H   UNL A   1      43.253  28.924  29.137  1.00  0.00     0.167 HD
ATOM     61  C   UNL A   1      45.699  30.238  29.704  1.00  0.00     0.074 A 
ATOM     62  C   UNL A   1      47.118  30.489  29.846  1.00  0.00     0.031 C 
ATOM     63  C   UNL A   1      44.733  31.163  29.929  1.00  0.00     0.031 A 
BRANCH  50  64
ATOM     64  C   UNL A   1      38.992  29.101  28.982  1.00  0.00    -0.014 A 
ATOM     65  C   UNL A   1      38.215  28.873  30.130  1.00  0.00     0.009 A 
ATOM     66  C   UNL A   1      38.382  29.659  27.848  1.00  0.00     0.009 A 
ATOM     67  C   UNL A   1      36.851  29.172  30.132  1.00  0.00     0.001 A 
ATOM     68  C   UNL A   1      37.024  29.982  27.862  1.00  0.00     0.001 A 
ATOM     69  C   UNL A   1      36.258  29.732  29.000  1.00  0.00     0.000 A 
ENDBRANCH  50  64
BRANCH  51  70
ATOM     70  C   UNL A   1      48.675  26.705  28.832  1.00  0.00    -0.014 A 
ATOM     71  C   UNL A   1      49.430  26.814  27.654  1.00  0.00     0.009 A 
ATOM     72  C   UNL A   1      49.308  26.268  30.007  1.00  0.00     0.009 A 
ATOM     73  C   UNL A   1      50.785  26.477  27.649  1.00  0.00     0.001 A 
ATOM     74  C   UNL A   1      50.669  25.958  30.004  1.00  0.00     0.001 A 
ATOM     75  C   UNL A   1      51.405  26.055  28.824  1.00  0.00     0.000 A 
ENDBRANCH  51  70
BRANCH  63  76
ATOM     76  C   UNL A   1      45.175  32.531  30.362  1.00  0.00    -0.014 A 
ATOM     77  C   UNL A   1      45.395  33.552  29.425  1.00  0.00     0.009 A 
ATOM     78  C   UNL A   1      45.304  32.823  31.730  1.00  0.00     0.009 A 
ATOM     79  C   UNL A   1      45.759  34.831  29.847  1.00  0.00     0.001 A 
ATOM     80  C   UNL A   1      45.641  34.110  32.149  1.00  0.00     0.001 A 
ATOM     81  C   UNL A   1      45.874  35.111  31.209  1.00  0.00     0.000 A 
ENDBRANCH  63  76
ENDBRANCH  37  38
ENDBRANCH  29  32
ENDBRANCH  27  28
ENDBRANCH  26  27
ENDBRANCH   1  26
TORSDOF 14
ENDMDL
MODEL 3
REMARK VINA RESULT:     -11.6      5.462     10.403
REMARK SMILES Cc1nc(-c2ccc(C(F)(F)F)cc2)nc(SCC(=O)NCCCNC(=O)c2ccc(-c3c4nc(c(-c5ccccc5)c5ccc([nH]5)c(-c5ccccc5)c5nc(c(-c6ccccc6)c6ccc3[nH]6)C=C5)C=C4)cc2)c1C
REMARK SMILES IDX 22 1 21 2 19 3 20 4 18 6 17 7 16 8 1 9 2 10 3 11 76 12 4 13
REMARK SMILES IDX 77 14 15 15 5 16 6 17 14 18 7 19 13 20 8 21 9 22 10 23 11 24
REMARK SMILES IDX 12 25 23 26 24 27 25 28 26 29 27 31 28 32 29 33 75 34 30 35
REMARK SMILES IDX 74 36 31 37 32 38 33 39 68 40 34 41 73 42 67 43 69 44 35 45
REMARK SMILES IDX 72 46 66 47 65 48 36 50 58 51 43 52 57 53 44 54 47 55 56 56
REMARK SMILES IDX 70 57 45 58 46 59 55 61 71 62 48 63 37 64 38 65 42 66 39 67
REMARK SMILES IDX 41 68 40 69 59 70 60 71 64 72 61 73 63 74 62 75 49 76 50 77
REMARK SMILES IDX 54 78 51 79 53 80 52 81
REMARK H PARENT 21 5 25 30 69 49 47 60
REMARK Flexibility Score: inf
ROOT
ATOM      1  C   UNL A   1      43.058  21.148  26.419  1.00  0.00     0.117 C 
ENDROOT
BRANCH   1   2
ATOM      2  N   UNL A   1      43.415  21.574  25.079  1.00  0.00    -0.355 N 
ATOM      3  C   UNL A   1      44.183  22.617  24.668  1.00  0.00     0.230 C 
ATOM      4  O   UNL A   1      44.482  22.646  23.472  1.00  0.00    -0.274 OA
ATOM      5  H   UNL A   1      43.044  21.020  24.355  1.00  0.00     0.163 HD
BRANCH   3   6
ATOM      6  C   UNL A   1      44.750  23.632  25.637  1.00  0.00     0.176 C 
BRANCH   6   7
ATOM      7  S   UNL A   1      44.262  25.357  25.376  1.00  0.00    -0.096 SA
BRANCH   7   8
ATOM      8  C   UNL A   1      45.653  26.473  25.348  1.00  0.00     0.104 A 
ATOM      9  C   UNL A   1      49.192  27.482  24.486  1.00  0.00     0.067 C 
ATOM     10  C   UNL A   1      47.765  27.461  24.960  1.00  0.00     0.045 A 
ATOM     11  N   UNL A   1      47.332  28.641  25.430  1.00  0.00    -0.233 NA
ATOM     12  C   UNL A   1      46.970  26.307  24.925  1.00  0.00     0.003 A 
ATOM     13  C   UNL A   1      46.084  28.687  25.902  1.00  0.00     0.160 A 
ATOM     14  C   UNL A   1      47.580  25.051  24.401  1.00  0.00     0.049 C 
ATOM     15  N   UNL A   1      45.232  27.658  25.871  1.00  0.00    -0.221 NA
BRANCH  13  16
ATOM     16  C   UNL A   1      45.673  29.957  26.508  1.00  0.00     0.019 A 
ATOM     17  C   UNL A   1      44.317  30.199  26.793  1.00  0.00     0.012 A 
ATOM     18  C   UNL A   1      46.585  31.001  26.738  1.00  0.00     0.012 A 
ATOM     19  C   UNL A   1      43.878  31.443  27.253  1.00  0.00     0.014 A 
ATOM     20  C   UNL A   1      46.148  32.256  27.184  1.00  0.00     0.014 A 
ATOM     21  C   UNL A   1      44.788  32.494  27.430  1.00  0.00     0.056 A 
BRANCH  21  22
ATOM     22  C   UNL A   1      44.283  33.851  27.854  1.00  0.00     0.416 C 
ATOM     23  F   UNL A   1      45.066  34.421  28.814  1.00  0.00    -0.166 F 
ATOM     24  F   UNL A   1      44.250  34.743  26.825  1.00  0.00    -0.166 F 
ATOM     25  F   UNL A   1      43.021  33.830  28.370  1.00  0.00    -0.166 F 
ENDBRANCH  21  22
ENDBRANCH  13  16
ENDBRANCH   7   8
ENDBRANCH   6   7
ENDBRANCH   3   6
ENDBRANCH   1   2
BRANCH   1  26
ATOM     26  C   UNL A   1      41.684  20.489  26.476  1.00  0.00     0.042 C 
BRANCH  26  27
ATOM     27  C   UNL A   1      40.609  21.330  27.160  1.00  0.00     0.118 C 
BRANCH  27  28
ATOM     28  N   UNL A   1      39.488  21.641  26.284  1.00  0.00    -0.352 N 
ATOM     29  C   UNL A   1      38.766  22.798  26.129  1.00  0.00     0.251 C 
ATOM     30  H   UNL A   1      39.200  20.897  25.708  1.00  0.00     0.163 HD
ATOM     31  O   UNL A   1      37.733  22.780  25.467  1.00  0.00    -0.269 OA
BRANCH  29  32
ATOM     32  C   UNL A   1      39.207  24.062  26.758  1.00  0.00     0.039 A 
ATOM     33  C   UNL A   1      39.988  24.949  26.008  1.00  0.00     0.014 A 
ATOM     34  C   UNL A   1      38.911  24.354  28.090  1.00  0.00     0.014 A 
ATOM     35  C   UNL A   1      40.420  26.149  26.575  1.00  0.00     0.010 A 
ATOM     36  C   UNL A   1      39.279  25.584  28.633  1.00  0.00     0.010 A 
ATOM     37  C   UNL A   1      40.045  26.489  27.884  1.00  0.00    -0.014 A 
BRANCH  37  38
ATOM     38  C   UNL A   1      40.471  27.772  28.498  1.00  0.00     0.031 A 
ATOM     39  C   UNL A   1      41.892  27.950  28.960  1.00  0.00     0.074 A 
ATOM     40  C   UNL A   1      39.575  28.761  28.679  1.00  0.00     0.049 A 
ATOM     41  N   UNL A   1      42.438  28.968  29.575  1.00  0.00    -0.248 NA
ATOM     42  C   UNL A   1      42.815  26.830  28.715  1.00  0.00     0.031 C 
ATOM     43  C   UNL A   1      38.166  28.709  28.287  1.00  0.00     0.029 A 
ATOM     44  N   UNL A   1      39.720  30.004  29.241  1.00  0.00    -0.354 N 
ATOM     45  C   UNL A   1      43.761  28.608  29.798  1.00  0.00     0.074 A 
ATOM     46  C   UNL A   1      43.923  27.260  29.299  1.00  0.00     0.031 C 
ATOM     47  C   UNL A   1      37.584  29.881  28.590  1.00  0.00     0.029 A 
ATOM     48  C   UNL A   1      38.565  30.748  29.236  1.00  0.00     0.049 A 
ATOM     49  H   UNL A   1      40.571  30.332  29.611  1.00  0.00     0.167 HD
ATOM     50  C   UNL A   1      44.758  29.341  30.346  1.00  0.00     0.031 A 
ATOM     51  C   UNL A   1      38.320  31.986  29.705  1.00  0.00     0.031 A 
ATOM     52  C   UNL A   1      44.602  30.684  30.834  1.00  0.00     0.049 A 
ATOM     53  C   UNL A   1      39.433  32.762  30.355  1.00  0.00     0.074 A 
ATOM     54  C   UNL A   1      45.564  31.520  31.375  1.00  0.00     0.029 A 
ATOM     55  N   UNL A   1      43.408  31.388  30.839  1.00  0.00    -0.354 N 
ATOM     56  N   UNL A   1      40.687  32.420  30.524  1.00  0.00    -0.248 NA
ATOM     57  C   UNL A   1      39.094  34.094  30.876  1.00  0.00     0.031 C 
ATOM     58  C   UNL A   1      44.940  32.714  31.753  1.00  0.00     0.029 A 
ATOM     59  C   UNL A   1      43.603  32.640  31.397  1.00  0.00     0.049 A 
ATOM     60  H   UNL A   1      42.550  31.049  30.497  1.00  0.00     0.167 HD
ATOM     61  C   UNL A   1      41.291  33.500  31.155  1.00  0.00     0.074 A 
ATOM     62  C   UNL A   1      40.272  34.515  31.320  1.00  0.00     0.031 C 
ATOM     63  C   UNL A   1      42.577  33.636  31.562  1.00  0.00     0.031 A 
BRANCH  50  64
ATOM     64  C   UNL A   1      46.115  28.702  30.445  1.00  0.00    -0.014 A 
ATOM     65  C   UNL A   1      47.070  28.873  29.429  1.00  0.00     0.009 A 
ATOM     66  C   UNL A   1      46.461  27.963  31.586  1.00  0.00     0.009 A 
ATOM     67  C   UNL A   1      48.334  28.291  29.542  1.00  0.00     0.001 A 
ATOM     68  C   UNL A   1      47.736  27.406  31.709  1.00  0.00     0.001 A 
ATOM     69  C   UNL A   1      48.668  27.564  30.684  1.00  0.00     0.000 A 
ENDBRANCH  50  64
BRANCH  51  70
ATOM     70  C   UNL A   1      36.966  32.580  29.559  1.00  0.00    -0.014 A 
ATOM     71  C   UNL A   1      36.608  33.242  28.375  1.00  0.00     0.009 A 
ATOM     72  C   UNL A   1      36.023  32.482  30.594  1.00  0.00     0.009 A 
ATOM     73  C   UNL A   1      35.338  33.806  28.236  1.00  0.00     0.001 A 
ATOM     74  C   UNL A   1      34.745  33.024  30.441  1.00  0.00     0.001 A 
ATOM     75  C   UNL A   1      34.406  33.692  29.266  1.00  0.00     0.000 A 
ENDBRANCH  51  70
BRANCH  63  76
ATOM     76  C   UNL A   1      42.961  34.931  32.218  1.00  0.00    -0.014 A 
ATOM     77  C   UNL A   1      43.469  36.002  31.466  1.00  0.00     0.009 A 
ATOM     78  C   UNL A   1      42.745  35.108  33.594  1.00  0.00     0.009 A 
ATOM     79  C   UNL A   1      43.777  37.215  32.083  1.00  0.00     0.001 A 
ATOM     80  C   UNL A   1      43.028  36.332  34.203  1.00  0.00     0.001 A 
ATOM     81  C   UNL A   1      43.548  37.381  33.449  1.00  0.00     0.000 A 
ENDBRANCH  63  76
ENDBRANCH  37  38
ENDBRANCH  29  32
ENDBRANCH  27  28
ENDBRANCH  26  27
ENDBRANCH   1  26
TORSDOF 14
ENDMDL
