MODEL 1
REMARK VINA RESULT:     -10.3      0.000      0.000
REMARK SMILES COC[C@@H](C)Nc1ccc([N+](=O)[O-])c(C(=O)NCCCNC(=O)c2ccc(-c3c4nc(c(-c5ccccc5)c5ccc([nH]5)c(-c5ccccc5)c5nc(c(-c6ccccc6)c6ccc3[nH]6)C=C5)C=C4)cc2)c1
REMARK SMILES IDX 18 1 17 2 15 3 16 4 14 6 7 7 8 8 72 9 9 10 10 11 6 12 4 14
REMARK SMILES IDX 5 15 3 16 2 17 1 18 11 19 12 20 13 21 19 22 20 23 21 24
REMARK SMILES IDX 22 25 23 27 24 28 25 29 71 30 26 31 70 32 27 33 28 34 29 35
REMARK SMILES IDX 64 36 30 37 69 38 63 39 65 40 31 41 68 42 62 43 61 44 32 46
REMARK SMILES IDX 54 47 39 48 53 49 40 50 43 51 52 52 66 53 41 54 42 55 51 57
REMARK SMILES IDX 67 58 44 59 33 60 34 61 38 62 35 63 37 64 36 65 55 66 56 67
REMARK SMILES IDX 60 68 57 69 59 70 58 71 45 72 46 73 50 74 47 75 49 76 48 77
REMARK H PARENT 17 5 6 13 21 26 65 45 43 56
REMARK Flexibility Score: inf
ROOT
ATOM      1  C   UNL A   1      33.191  29.303  24.886  1.00  0.00     0.118 C 
ENDROOT
BRANCH   1   2
ATOM      2  N   UNL A   1      33.597  29.035  23.510  1.00  0.00    -0.352 N 
ATOM      3  C   UNL A   1      33.562  27.948  22.667  1.00  0.00     0.258 C 
ATOM      4  O   UNL A   1      34.182  28.077  21.613  1.00  0.00    -0.269 OA
ATOM      5  H   UNL A   1      33.990  29.827  23.078  1.00  0.00     0.163 HD
BRANCH   3   6
ATOM      6  C   UNL A   1      32.934  26.636  22.999  1.00  0.00     0.119 A 
ATOM      7  C   UNL A   1      33.242  24.211  23.230  1.00  0.00     0.036 A 
ATOM      8  C   UNL A   1      31.874  24.031  23.010  1.00  0.00     0.033 A 
ATOM      9  C   UNL A   1      33.704  25.525  23.343  1.00  0.00     0.046 A 
ATOM     10  C   UNL A   1      31.017  25.129  22.904  1.00  0.00     0.088 A 
ATOM     11  C   UNL A   1      31.557  26.423  22.896  1.00  0.00     0.282 A 
BRANCH   7  12
ATOM     12  N   UNL A   1      34.069  23.112  23.370  1.00  0.00    -0.380 N 
ATOM     13  H   UNL A   1      34.710  22.933  22.644  1.00  0.00     0.160 HD
BRANCH  12  14
ATOM     14  C   UNL A   1      34.069  22.189  24.515  1.00  0.00     0.102 C 
ATOM     15  C   UNL A   1      35.503  21.736  24.805  1.00  0.00     0.033 C 
BRANCH  14  16
ATOM     16  C   UNL A   1      33.126  21.003  24.209  1.00  0.00     0.184 C 
BRANCH  16  17
ATOM     17  O   UNL A   1      33.701  19.725  24.483  1.00  0.00    -0.383 OA
ATOM     18  C   UNL A   1      32.907  18.881  25.301  1.00  0.00     0.194 C 
ENDBRANCH  16  17
ENDBRANCH  14  16
ENDBRANCH  12  14
ENDBRANCH   7  12
BRANCH  11  19
ATOM     19  N   UNL A   1      30.613  27.524  22.961  1.00  0.00     0.063 N 
ATOM     20  O   UNL A   1      30.258  27.892  24.089  1.00  0.00    -0.258 OA
ATOM     21  O   UNL A   1      30.358  28.105  21.895  1.00  0.00    -0.258 OA
ENDBRANCH  11  19
ENDBRANCH   3   6
ENDBRANCH   1   2
BRANCH   1  22
ATOM     22  C   UNL A   1      34.038  28.571  25.916  1.00  0.00     0.042 C 
BRANCH  22  23
ATOM     23  C   UNL A   1      33.569  28.765  27.345  1.00  0.00     0.118 C 
BRANCH  23  24
ATOM     24  N   UNL A   1      33.635  30.160  27.768  1.00  0.00    -0.352 N 
ATOM     25  C   UNL A   1      34.621  30.853  28.428  1.00  0.00     0.251 C 
ATOM     26  H   UNL A   1      32.839  30.693  27.543  1.00  0.00     0.163 HD
ATOM     27  O   UNL A   1      34.372  31.958  28.897  1.00  0.00    -0.269 OA
BRANCH  25  28
ATOM     28  C   UNL A   1      35.972  30.273  28.591  1.00  0.00     0.039 A 
ATOM     29  C   UNL A   1      36.874  30.337  27.525  1.00  0.00     0.014 A 
ATOM     30  C   UNL A   1      36.344  29.640  29.777  1.00  0.00     0.014 A 
ATOM     31  C   UNL A   1      38.168  29.834  27.679  1.00  0.00     0.010 A 
ATOM     32  C   UNL A   1      37.662  29.242  29.969  1.00  0.00     0.010 A 
ATOM     33  C   UNL A   1      38.585  29.321  28.917  1.00  0.00    -0.014 A 
BRANCH  33  34
ATOM     34  C   UNL A   1      39.973  28.842  29.136  1.00  0.00     0.031 A 
ATOM     35  C   UNL A   1      41.003  29.764  29.732  1.00  0.00     0.074 A 
ATOM     36  C   UNL A   1      40.324  27.606  28.730  1.00  0.00     0.049 A 
ATOM     37  N   UNL A   1      42.281  29.559  29.925  1.00  0.00    -0.248 NA
ATOM     38  C   UNL A   1      40.544  31.105  30.133  1.00  0.00     0.031 C 
ATOM     39  C   UNL A   1      39.430  26.632  28.099  1.00  0.00     0.029 A 
ATOM     40  N   UNL A   1      41.533  26.960  28.783  1.00  0.00    -0.354 N 
ATOM     41  C   UNL A   1      42.779  30.746  30.449  1.00  0.00     0.074 A 
ATOM     42  C   UNL A   1      41.681  31.686  30.486  1.00  0.00     0.031 C 
ATOM     43  C   UNL A   1      40.112  25.503  27.856  1.00  0.00     0.029 A 
ATOM     44  C   UNL A   1      41.500  25.687  28.268  1.00  0.00     0.049 A 
ATOM     45  H   UNL A   1      42.348  27.369  29.155  1.00  0.00     0.167 HD
ATOM     46  C   UNL A   1      44.031  31.025  30.881  1.00  0.00     0.031 A 
ATOM     47  C   UNL A   1      42.479  24.773  28.134  1.00  0.00     0.031 A 
ATOM     48  C   UNL A   1      45.119  30.086  30.856  1.00  0.00     0.049 A 
ATOM     49  C   UNL A   1      43.866  25.112  28.606  1.00  0.00     0.074 A 
ATOM     50  C   UNL A   1      46.411  30.250  31.323  1.00  0.00     0.029 A 
ATOM     51  N   UNL A   1      45.041  28.805  30.331  1.00  0.00    -0.354 N 
ATOM     52  N   UNL A   1      44.302  26.217  29.162  1.00  0.00    -0.248 NA
ATOM     53  C   UNL A   1      44.892  24.074  28.440  1.00  0.00     0.031 C 
ATOM     54  C   UNL A   1      47.131  29.088  31.030  1.00  0.00     0.029 A 
ATOM     55  C   UNL A   1      46.269  28.176  30.440  1.00  0.00     0.049 A 
ATOM     56  H   UNL A   1      44.233  28.402  29.940  1.00  0.00     0.167 HD
ATOM     57  C   UNL A   1      45.645  25.995  29.440  1.00  0.00     0.074 A 
ATOM     58  C   UNL A   1      45.945  24.645  29.007  1.00  0.00     0.031 C 
ATOM     59  C   UNL A   1      46.549  26.833  30.002  1.00  0.00     0.031 A 
BRANCH  46  60
ATOM     60  C   UNL A   1      44.288  32.408  31.416  1.00  0.00    -0.014 A 
ATOM     61  C   UNL A   1      44.699  33.452  30.572  1.00  0.00     0.009 A 
ATOM     62  C   UNL A   1      44.089  32.679  32.778  1.00  0.00     0.009 A 
ATOM     63  C   UNL A   1      44.945  34.727  31.087  1.00  0.00     0.001 A 
ATOM     64  C   UNL A   1      44.304  33.962  33.285  1.00  0.00     0.001 A 
ATOM     65  C   UNL A   1      44.741  34.982  32.442  1.00  0.00     0.000 A 
ENDBRANCH  46  60
BRANCH  47  66
ATOM     66  C   UNL A   1      42.183  23.441  27.541  1.00  0.00    -0.014 A 
ATOM     67  C   UNL A   1      42.467  23.187  26.190  1.00  0.00     0.009 A 
ATOM     68  C   UNL A   1      41.608  22.423  28.316  1.00  0.00     0.009 A 
ATOM     69  C   UNL A   1      42.153  21.950  25.622  1.00  0.00     0.001 A 
ATOM     70  C   UNL A   1      41.324  21.177  27.753  1.00  0.00     0.001 A 
ATOM     71  C   UNL A   1      41.586  20.945  26.404  1.00  0.00     0.000 A 
ENDBRANCH  47  66
BRANCH  59  72
ATOM     72  C   UNL A   1      47.939  26.300  30.217  1.00  0.00    -0.014 A 
ATOM     73  C   UNL A   1      48.334  25.766  31.453  1.00  0.00     0.009 A 
ATOM     74  C   UNL A   1      48.852  26.299  29.151  1.00  0.00     0.009 A 
ATOM     75  C   UNL A   1      49.629  25.273  31.626  1.00  0.00     0.001 A 
ATOM     76  C   UNL A   1      50.134  25.776  29.317  1.00  0.00     0.001 A 
ATOM     77  C   UNL A   1      50.526  25.274  30.557  1.00  0.00     0.000 A 
ENDBRANCH  59  72
ENDBRANCH  33  34
ENDBRANCH  25  28
ENDBRANCH  23  24
ENDBRANCH  22  23
ENDBRANCH   1  22
TORSDOF 15
ENDMDL
MODEL 2
REMARK VINA RESULT:     -10.3      3.702      7.738
REMARK SMILES COC[C@@H](C)Nc1ccc([N+](=O)[O-])c(C(=O)NCCCNC(=O)c2ccc(-c3c4nc(c(-c5ccccc5)c5ccc([nH]5)c(-c5ccccc5)c5nc(c(-c6ccccc6)c6ccc3[nH]6)C=C5)C=C4)cc2)c1
REMARK SMILES IDX 18 1 17 2 15 3 16 4 14 6 7 7 8 8 72 9 9 10 10 11 6 12 4 14
REMARK SMILES IDX 5 15 3 16 2 17 1 18 11 19 12 20 13 21 19 22 20 23 21 24
REMARK SMILES IDX 22 25 23 27 24 28 25 29 71 30 26 31 70 32 27 33 28 34 29 35
REMARK SMILES IDX 64 36 30 37 69 38 63 39 65 40 31 41 68 42 62 43 61 44 32 46
REMARK SMILES IDX 54 47 39 48 53 49 40 50 43 51 52 52 66 53 41 54 42 55 51 57
REMARK SMILES IDX 67 58 44 59 33 60 34 61 38 62 35 63 37 64 36 65 55 66 56 67
REMARK SMILES IDX 60 68 57 69 59 70 58 71 45 72 46 73 50 74 47 75 49 76 48 77
REMARK H PARENT 17 5 6 13 21 26 65 45 43 56
REMARK Flexibility Score: inf
ROOT
ATOM      1  C   UNL A   1      31.453  30.743  26.454  1.00  0.00     0.118 C 
ENDROOT
BRANCH   1   2
ATOM      2  N   UNL A   1      32.194  30.269  25.289  1.00  0.00    -0.352 N 
ATOM      3  C   UNL A   1      32.047  29.250  24.375  1.00  0.00     0.258 C 
ATOM      4  O   UNL A   1      33.007  29.066  23.630  1.00  0.00    -0.269 OA
ATOM      5  H   UNL A   1      32.996  30.812  25.113  1.00  0.00     0.163 HD
BRANCH   3   6
ATOM      6  C   UNL A   1      30.880  28.322  24.320  1.00  0.00     0.119 A 
ATOM      7  C   UNL A   1      30.037  26.054  24.739  1.00  0.00     0.036 A 
ATOM      8  C   UNL A   1      29.040  26.264  23.783  1.00  0.00     0.033 A 
ATOM      9  C   UNL A   1      30.848  27.144  25.066  1.00  0.00     0.046 A 
ATOM     10  C   UNL A   1      28.877  27.515  23.183  1.00  0.00     0.088 A 
ATOM     11  C   UNL A   1      29.803  28.533  23.456  1.00  0.00     0.282 A 
BRANCH   7  12
ATOM     12  N   UNL A   1      30.159  24.820  25.350  1.00  0.00    -0.380 N 
ATOM     13  H   UNL A   1      29.517  24.603  26.064  1.00  0.00     0.160 HD
BRANCH  12  14
ATOM     14  C   UNL A   1      31.172  23.806  25.020  1.00  0.00     0.102 C 
ATOM     15  C   UNL A   1      31.057  23.433  23.539  1.00  0.00     0.033 C 
BRANCH  14  16
ATOM     16  C   UNL A   1      30.989  22.586  25.951  1.00  0.00     0.184 C 
BRANCH  16  17
ATOM     17  O   UNL A   1      31.369  21.345  25.356  1.00  0.00    -0.383 OA
ATOM     18  C   UNL A   1      32.699  20.937  25.634  1.00  0.00     0.194 C 
ENDBRANCH  16  17
ENDBRANCH  14  16
ENDBRANCH  12  14
ENDBRANCH   7  12
BRANCH  11  19
ATOM     19  N   UNL A   1      29.486  29.855  22.946  1.00  0.00     0.063 N 
ATOM     20  O   UNL A   1      29.634  30.037  21.730  1.00  0.00    -0.258 OA
ATOM     21  O   UNL A   1      28.950  30.644  23.737  1.00  0.00    -0.258 OA
ENDBRANCH  11  19
ENDBRANCH   3   6
ENDBRANCH   1   2
BRANCH   1  22
ATOM     22  C   UNL A   1      31.429  32.259  26.574  1.00  0.00     0.042 C 
BRANCH  22  23
ATOM     23  C   UNL A   1      32.659  32.841  27.243  1.00  0.00     0.118 C 
BRANCH  23  24
ATOM     24  N   UNL A   1      32.464  34.226  27.658  1.00  0.00    -0.352 N 
ATOM     25  C   UNL A   1      33.055  34.956  28.660  1.00  0.00     0.251 C 
ATOM     26  H   UNL A   1      31.796  34.720  27.130  1.00  0.00     0.163 HD
ATOM     27  O   UNL A   1      32.571  36.034  28.989  1.00  0.00    -0.269 OA
BRANCH  25  28
ATOM     28  C   UNL A   1      34.257  34.447  29.357  1.00  0.00     0.039 A 
ATOM     29  C   UNL A   1      34.114  33.845  30.610  1.00  0.00     0.014 A 
ATOM     30  C   UNL A   1      35.526  34.588  28.796  1.00  0.00     0.014 A 
ATOM     31  C   UNL A   1      35.233  33.320  31.260  1.00  0.00     0.010 A 
ATOM     32  C   UNL A   1      36.620  33.968  29.388  1.00  0.00     0.010 A 
ATOM     33  C   UNL A   1      36.489  33.340  30.634  1.00  0.00    -0.014 A 
BRANCH  33  34
ATOM     34  C   UNL A   1      37.686  32.729  31.265  1.00  0.00     0.031 A 
ATOM     35  C   UNL A   1      38.323  31.511  30.651  1.00  0.00     0.074 A 
ATOM     36  C   UNL A   1      38.152  33.224  32.428  1.00  0.00     0.049 A 
ATOM     37  N   UNL A   1      39.320  30.789  31.095  1.00  0.00    -0.248 NA
ATOM     38  C   UNL A   1      37.745  31.022  29.389  1.00  0.00     0.031 C 
ATOM     39  C   UNL A   1      37.596  34.373  33.148  1.00  0.00     0.029 A 
ATOM     40  N   UNL A   1      39.200  32.817  33.215  1.00  0.00    -0.354 N 
ATOM     41  C   UNL A   1      39.472  29.753  30.181  1.00  0.00     0.074 A 
ATOM     42  C   UNL A   1      38.428  29.905  29.192  1.00  0.00     0.031 C 
ATOM     43  C   UNL A   1      38.328  34.598  34.249  1.00  0.00     0.029 A 
ATOM     44  C   UNL A   1      39.373  33.584  34.342  1.00  0.00     0.049 A 
ATOM     45  H   UNL A   1      39.773  32.047  32.994  1.00  0.00     0.167 HD
ATOM     46  C   UNL A   1      40.408  28.776  30.153  1.00  0.00     0.031 A 
ATOM     47  C   UNL A   1      40.269  33.478  35.341  1.00  0.00     0.031 A 
ATOM     48  C   UNL A   1      41.453  28.634  31.130  1.00  0.00     0.049 A 
ATOM     49  C   UNL A   1      41.288  32.373  35.296  1.00  0.00     0.074 A 
ATOM     50  C   UNL A   1      42.485  27.713  31.160  1.00  0.00     0.029 A 
ATOM     51  N   UNL A   1      41.597  29.436  32.251  1.00  0.00    -0.354 N 
ATOM     52  N   UNL A   1      41.458  31.443  34.387  1.00  0.00    -0.248 NA
ATOM     53  C   UNL A   1      42.243  32.311  36.411  1.00  0.00     0.031 C 
ATOM     54  C   UNL A   1      43.221  27.922  32.331  1.00  0.00     0.029 A 
ATOM     55  C   UNL A   1      42.686  29.015  32.995  1.00  0.00     0.049 A 
ATOM     56  H   UNL A   1      41.012  30.192  32.484  1.00  0.00     0.167 HD
ATOM     57  C   UNL A   1      42.559  30.705  34.804  1.00  0.00     0.074 A 
ATOM     58  C   UNL A   1      43.023  31.307  36.038  1.00  0.00     0.031 C 
ATOM     59  C   UNL A   1      43.133  29.625  34.220  1.00  0.00     0.031 A 
BRANCH  46  60
ATOM     60  C   UNL A   1      40.337  27.780  29.026  1.00  0.00    -0.014 A 
ATOM     61  C   UNL A   1      39.604  26.589  29.150  1.00  0.00     0.009 A 
ATOM     62  C   UNL A   1      40.989  28.051  27.813  1.00  0.00     0.009 A 
ATOM     63  C   UNL A   1      39.560  25.671  28.098  1.00  0.00     0.001 A 
ATOM     64  C   UNL A   1      40.915  27.146  26.751  1.00  0.00     0.001 A 
ATOM     65  C   UNL A   1      40.210  25.953  26.898  1.00  0.00     0.000 A 
ENDBRANCH  46  60
BRANCH  47  66
ATOM     66  C   UNL A   1      40.255  34.453  36.464  1.00  0.00    -0.014 A 
ATOM     67  C   UNL A   1      41.028  35.623  36.399  1.00  0.00     0.009 A 
ATOM     68  C   UNL A   1      39.478  34.217  37.608  1.00  0.00     0.009 A 
ATOM     69  C   UNL A   1      41.046  36.519  37.469  1.00  0.00     0.001 A 
ATOM     70  C   UNL A   1      39.474  35.130  38.664  1.00  0.00     0.001 A 
ATOM     71  C   UNL A   1      40.266  36.275  38.599  1.00  0.00     0.000 A 
ENDBRANCH  47  66
BRANCH  59  72
ATOM     72  C   UNL A   1      44.351  29.049  34.888  1.00  0.00    -0.014 A 
ATOM     73  C   UNL A   1      45.639  29.518  34.588  1.00  0.00     0.009 A 
ATOM     74  C   UNL A   1      44.198  28.048  35.860  1.00  0.00     0.009 A 
ATOM     75  C   UNL A   1      46.754  28.969  35.226  1.00  0.00     0.001 A 
ATOM     76  C   UNL A   1      45.312  27.526  36.518  1.00  0.00     0.001 A 
ATOM     77  C   UNL A   1      46.589  27.978  36.193  1.00  0.00     0.000 A 
ENDBRANCH  59  72
ENDBRANCH  33  34
ENDBRANCH  25  28
ENDBRANCH  23  24
ENDBRANCH  22  23
ENDBRANCH   1  22
TORSDOF 15
ENDMDL
MODEL 3
REMARK VINA RESULT:     -10.2      1.943      7.150
REMARK SMILES COC[C@@H](C)Nc1ccc([N+](=O)[O-])c(C(=O)NCCCNC(=O)c2ccc(-c3c4nc(c(-c5ccccc5)c5ccc([nH]5)c(-c5ccccc5)c5nc(c(-c6ccccc6)c6ccc3[nH]6)C=C5)C=C4)cc2)c1
REMARK SMILES IDX 18 1 17 2 15 3 16 4 14 6 7 7 8 8 72 9 9 10 10 11 6 12 4 14
REMARK SMILES IDX 5 15 3 16 2 17 1 18 11 19 12 20 13 21 19 22 20 23 21 24
REMARK SMILES IDX 22 25 23 27 24 28 25 29 71 30 26 31 70 32 27 33 28 34 29 35
REMARK SMILES IDX 64 36 30 37 69 38 63 39 65 40 31 41 68 42 62 43 61 44 32 46
REMARK SMILES IDX 54 47 39 48 53 49 40 50 43 51 52 52 66 53 41 54 42 55 51 57
REMARK SMILES IDX 67 58 44 59 33 60 34 61 38 62 35 63 37 64 36 65 55 66 56 67
REMARK SMILES IDX 60 68 57 69 59 70 58 71 45 72 46 73 50 74 47 75 49 76 48 77
REMARK H PARENT 17 5 6 13 21 26 65 45 43 56
REMARK Flexibility Score: inf
ROOT
ATOM      1  C   UNL A   1      33.625  29.205  24.992  1.00  0.00     0.118 C 
ENDROOT
BRANCH   1   2
ATOM      2  N   UNL A   1      33.915  28.710  23.650  1.00  0.00    -0.352 N 
ATOM      3  C   UNL A   1      33.206  28.064  22.663  1.00  0.00     0.258 C 
ATOM      4  O   UNL A   1      33.875  27.645  21.720  1.00  0.00    -0.269 OA
ATOM      5  H   UNL A   1      34.848  28.881  23.385  1.00  0.00     0.163 HD
BRANCH   3   6
ATOM      6  C   UNL A   1      31.748  27.758  22.728  1.00  0.00     0.119 A 
ATOM      7  C   UNL A   1      29.461  28.651  22.752  1.00  0.00     0.036 A 
ATOM      8  C   UNL A   1      29.032  27.496  23.410  1.00  0.00     0.033 A 
ATOM      9  C   UNL A   1      30.789  28.684  22.318  1.00  0.00     0.046 A 
ATOM     10  C   UNL A   1      29.908  26.429  23.624  1.00  0.00     0.088 A 
ATOM     11  C   UNL A   1      31.261  26.573  23.284  1.00  0.00     0.282 A 
BRANCH   7  12
ATOM     12  N   UNL A   1      28.570  29.681  22.514  1.00  0.00    -0.380 N 
ATOM     13  H   UNL A   1      27.861  29.522  21.849  1.00  0.00     0.160 HD
BRANCH  12  14
ATOM     14  C   UNL A   1      28.597  30.996  23.173  1.00  0.00     0.102 C 
ATOM     15  C   UNL A   1      27.237  31.268  23.823  1.00  0.00     0.033 C 
BRANCH  14  16
ATOM     16  C   UNL A   1      28.982  32.075  22.137  1.00  0.00     0.184 C 
BRANCH  16  17
ATOM     17  O   UNL A   1      27.871  32.828  21.649  1.00  0.00    -0.383 OA
ATOM     18  C   UNL A   1      27.647  32.717  20.253  1.00  0.00     0.194 C 
ENDBRANCH  16  17
ENDBRANCH  14  16
ENDBRANCH  12  14
ENDBRANCH   7  12
BRANCH  11  19
ATOM     19  N   UNL A   1      32.083  25.379  23.365  1.00  0.00     0.063 N 
ATOM     20  O   UNL A   1      32.531  25.082  24.481  1.00  0.00    -0.258 OA
ATOM     21  O   UNL A   1      32.142  24.671  22.349  1.00  0.00    -0.258 OA
ENDBRANCH  11  19
ENDBRANCH   3   6
ENDBRANCH   1   2
BRANCH   1  22
ATOM     22  C   UNL A   1      34.187  28.320  26.094  1.00  0.00     0.042 C 
BRANCH  22  23
ATOM     23  C   UNL A   1      33.598  28.597  27.464  1.00  0.00     0.118 C 
BRANCH  23  24
ATOM     24  N   UNL A   1      33.637  30.013  27.810  1.00  0.00    -0.352 N 
ATOM     25  C   UNL A   1      34.621  30.767  28.402  1.00  0.00     0.251 C 
ATOM     26  H   UNL A   1      32.820  30.512  27.582  1.00  0.00     0.163 HD
ATOM     27  O   UNL A   1      34.355  31.889  28.820  1.00  0.00    -0.269 OA
BRANCH  25  28
ATOM     28  C   UNL A   1      35.992  30.233  28.555  1.00  0.00     0.039 A 
ATOM     29  C   UNL A   1      36.880  30.320  27.479  1.00  0.00     0.014 A 
ATOM     30  C   UNL A   1      36.397  29.620  29.741  1.00  0.00     0.014 A 
ATOM     31  C   UNL A   1      38.192  29.860  27.622  1.00  0.00     0.010 A 
ATOM     32  C   UNL A   1      37.730  29.267  29.921  1.00  0.00     0.010 A 
ATOM     33  C   UNL A   1      38.638  29.369  28.859  1.00  0.00    -0.014 A 
BRANCH  33  34
ATOM     34  C   UNL A   1      40.043  28.938  29.066  1.00  0.00     0.031 A 
ATOM     35  C   UNL A   1      40.475  27.554  28.658  1.00  0.00     0.074 A 
ATOM     36  C   UNL A   1      40.909  29.761  29.689  1.00  0.00     0.049 A 
ATOM     37  N   UNL A   1      41.632  26.966  28.829  1.00  0.00    -0.248 NA
ATOM     38  C   UNL A   1      39.465  26.709  27.998  1.00  0.00     0.031 C 
ATOM     39  C   UNL A   1      40.602  31.109  30.173  1.00  0.00     0.029 A 
ATOM     40  N   UNL A   1      42.226  29.579  30.029  1.00  0.00    -0.354 N 
ATOM     41  C   UNL A   1      41.481  25.682  28.320  1.00  0.00     0.074 A 
ATOM     42  C   UNL A   1      40.107  25.556  27.890  1.00  0.00     0.031 C 
ATOM     43  C   UNL A   1      41.708  31.644  30.715  1.00  0.00     0.029 A 
ATOM     44  C   UNL A   1      42.786  30.663  30.661  1.00  0.00     0.049 A 
ATOM     45  H   UNL A   1      42.723  28.751  29.837  1.00  0.00     0.167 HD
ATOM     46  C   UNL A   1      42.407  24.701  28.200  1.00  0.00     0.031 A 
ATOM     47  C   UNL A   1      44.027  30.843  31.150  1.00  0.00     0.031 A 
ATOM     48  C   UNL A   1      43.776  24.833  28.617  1.00  0.00     0.049 A 
ATOM     49  C   UNL A   1      45.033  29.733  31.020  1.00  0.00     0.074 A 
ATOM     50  C   UNL A   1      44.808  23.920  28.487  1.00  0.00     0.029 A 
ATOM     51  N   UNL A   1      44.304  25.949  29.248  1.00  0.00    -0.354 N 
ATOM     52  N   UNL A   1      44.891  28.549  30.474  1.00  0.00    -0.248 NA
ATOM     53  C   UNL A   1      46.372  29.989  31.567  1.00  0.00     0.031 C 
ATOM     54  C   UNL A   1      45.948  24.462  29.090  1.00  0.00     0.029 A 
ATOM     55  C   UNL A   1      45.641  25.739  29.536  1.00  0.00     0.049 A 
ATOM     56  H   UNL A   1      43.802  26.769  29.458  1.00  0.00     0.167 HD
ATOM     57  C   UNL A   1      46.131  27.932  30.583  1.00  0.00     0.074 A 
ATOM     58  C   UNL A   1      47.015  28.879  31.232  1.00  0.00     0.031 C 
ATOM     59  C   UNL A   1      46.505  26.693  30.184  1.00  0.00     0.031 A 
BRANCH  46  60
ATOM     60  C   UNL A   1      41.961  23.398  27.596  1.00  0.00    -0.014 A 
ATOM     61  C   UNL A   1      42.116  23.139  26.225  1.00  0.00     0.009 A 
ATOM     62  C   UNL A   1      41.406  22.402  28.414  1.00  0.00     0.009 A 
ATOM     63  C   UNL A   1      41.686  21.927  25.678  1.00  0.00     0.001 A 
ATOM     64  C   UNL A   1      41.006  21.178  27.870  1.00  0.00     0.001 A 
ATOM     65  C   UNL A   1      41.137  20.946  26.503  1.00  0.00     0.000 A 
ENDBRANCH  46  60
BRANCH  47  66
ATOM     66  C   UNL A   1      44.397  32.132  31.795  1.00  0.00    -0.014 A 
ATOM     67  C   UNL A   1      44.931  33.181  31.031  1.00  0.00     0.009 A 
ATOM     68  C   UNL A   1      44.226  32.317  33.175  1.00  0.00     0.009 A 
ATOM     69  C   UNL A   1      45.315  34.376  31.642  1.00  0.00     0.001 A 
ATOM     70  C   UNL A   1      44.582  33.525  33.779  1.00  0.00     0.001 A 
ATOM     71  C   UNL A   1      45.137  34.549  33.014  1.00  0.00     0.000 A 
ENDBRANCH  47  66
BRANCH  59  72
ATOM     72  C   UNL A   1      47.941  26.304  30.402  1.00  0.00    -0.014 A 
ATOM     73  C   UNL A   1      48.913  26.514  29.413  1.00  0.00     0.009 A 
ATOM     74  C   UNL A   1      48.329  25.754  31.634  1.00  0.00     0.009 A 
ATOM     75  C   UNL A   1      50.242  26.149  29.642  1.00  0.00     0.001 A 
ATOM     76  C   UNL A   1      49.662  25.420  31.871  1.00  0.00     0.001 A 
ATOM     77  C   UNL A   1      50.616  25.608  30.872  1.00  0.00     0.000 A 
ENDBRANCH  59  72
ENDBRANCH  33  34
ENDBRANCH  25  28
ENDBRANCH  23  24
ENDBRANCH  22  23
ENDBRANCH   1  22
TORSDOF 15
ENDMDL
