MODEL 1
REMARK VINA RESULT:     -12.1      0.000      0.000
REMARK SMILES O=C(NCCCNC(=O)c1cc(F)ccc1N1CCCc2ccccc21)c1ccc(-c2c3nc(c(-c4ccccc4)c4ccc([nH]4)c(-c4ccccc4)c4nc(c(-c5ccccc5)c5ccc2[nH]5)C=C4)C=C3)cc1
REMARK SMILES IDX 4 1 3 2 1 3 2 4 27 6 28 7 74 8 29 9 73 10 30 11 31 12 32 13
REMARK SMILES IDX 67 14 33 15 72 16 66 17 68 18 34 19 71 20 65 21 64 22 35 24
REMARK SMILES IDX 57 25 42 26 56 27 43 28 46 29 55 30 69 31 44 32 45 33 54 35
REMARK SMILES IDX 70 36 47 37 36 38 37 39 41 40 38 41 40 42 39 43 58 44 59 45
REMARK SMILES IDX 63 46 60 47 62 48 61 49 48 50 49 51 53 52 50 53 52 54 51 55
REMARK SMILES IDX 5 56 6 57 7 58 8 59 9 61 10 62 11 63 16 64 12 65 15 66 13 67
REMARK SMILES IDX 14 68 17 69 18 70 26 71 19 72 21 73 25 74 20 75 22 76 24 77
REMARK SMILES IDX 23 78
REMARK H PARENT 3 5 68 23 46 34 7 60
REMARK Flexibility Score: inf
ROOT
ATOM      1  C   UNL A   1      38.890  20.291  25.848  1.00  0.00     0.118 C 
ENDROOT
BRANCH   1   2
ATOM      2  N   UNL A   1      40.030  19.383  25.793  1.00  0.00    -0.352 N 
ATOM      3  O   UNL A   1      42.186  18.732  25.784  1.00  0.00    -0.269 OA
ATOM      4  C   UNL A   1      41.363  19.605  26.044  1.00  0.00     0.251 C 
ATOM      5  H   UNL A   1      39.809  18.461  25.532  1.00  0.00     0.163 HD
BRANCH   4   6
ATOM      6  C   UNL A   1      41.815  20.901  26.593  1.00  0.00     0.039 A 
ATOM      7  C   UNL A   1      41.830  21.129  27.968  1.00  0.00     0.014 A 
ATOM      8  C   UNL A   1      42.237  21.904  25.716  1.00  0.00     0.014 A 
ATOM      9  C   UNL A   1      42.065  22.410  28.452  1.00  0.00     0.010 A 
ATOM     10  C   UNL A   1      42.591  23.160  26.215  1.00  0.00     0.010 A 
ATOM     11  C   UNL A   1      42.462  23.439  27.585  1.00  0.00    -0.014 A 
BRANCH  11  12
ATOM     12  C   UNL A   1      42.773  24.779  28.143  1.00  0.00     0.031 A 
ATOM     13  C   UNL A   1      44.185  25.181  28.467  1.00  0.00     0.074 A 
ATOM     14  C   UNL A   1      41.766  25.655  28.326  1.00  0.00     0.049 A 
ATOM     15  N   UNL A   1      44.632  26.326  28.923  1.00  0.00    -0.248 NA
ATOM     16  C   UNL A   1      45.233  24.169  28.263  1.00  0.00     0.031 C 
ATOM     17  C   UNL A   1      40.352  25.387  28.045  1.00  0.00     0.029 A 
ATOM     18  N   UNL A   1      41.776  26.954  28.764  1.00  0.00    -0.354 N 
ATOM     19  C   UNL A   1      46.002  26.163  29.086  1.00  0.00     0.074 A 
ATOM     20  C   UNL A   1      46.311  24.801  28.708  1.00  0.00     0.031 C 
ATOM     21  C   UNL A   1      39.642  26.504  28.256  1.00  0.00     0.029 A 
ATOM     22  C   UNL A   1      40.534  27.542  28.759  1.00  0.00     0.049 A 
ATOM     23  H   UNL A   1      42.592  27.420  29.055  1.00  0.00     0.167 HD
ATOM     24  C   UNL A   1      46.920  27.066  29.511  1.00  0.00     0.031 A 
ATOM     25  C   UNL A   1      40.147  28.775  29.129  1.00  0.00     0.031 A 
ATOM     26  C   UNL A   1      46.608  28.420  29.895  1.00  0.00     0.049 A 
ATOM     27  C   UNL A   1      41.176  29.738  29.642  1.00  0.00     0.074 A 
ATOM     28  C   UNL A   1      47.472  29.421  30.304  1.00  0.00     0.029 A 
ATOM     29  N   UNL A   1      45.330  28.958  29.928  1.00  0.00    -0.354 N 
ATOM     30  N   UNL A   1      42.473  29.581  29.752  1.00  0.00    -0.248 NA
ATOM     31  C   UNL A   1      40.685  31.053  30.075  1.00  0.00     0.031 C 
ATOM     32  C   UNL A   1      46.710  30.543  30.648  1.00  0.00     0.029 A 
ATOM     33  C   UNL A   1      45.379  30.266  30.382  1.00  0.00     0.049 A 
ATOM     34  H   UNL A   1      44.509  28.480  29.667  1.00  0.00     0.167 HD
ATOM     35  C   UNL A   1      42.958  30.786  30.240  1.00  0.00     0.074 A 
ATOM     36  C   UNL A   1      41.818  31.668  30.388  1.00  0.00     0.031 C 
ATOM     37  C   UNL A   1      44.237  31.133  30.531  1.00  0.00     0.031 A 
BRANCH  24  38
ATOM     38  C   UNL A   1      48.348  26.599  29.629  1.00  0.00    -0.014 A 
ATOM     39  C   UNL A   1      49.268  26.764  28.580  1.00  0.00     0.009 A 
ATOM     40  C   UNL A   1      48.784  25.999  30.821  1.00  0.00     0.009 A 
ATOM     41  C   UNL A   1      50.579  26.293  28.706  1.00  0.00     0.001 A 
ATOM     42  C   UNL A   1      50.103  25.561  30.957  1.00  0.00     0.001 A 
ATOM     43  C   UNL A   1      50.995  25.695  29.895  1.00  0.00     0.000 A 
ENDBRANCH  24  38
BRANCH  25  44
ATOM     44  C   UNL A   1      38.716  29.162  29.024  1.00  0.00    -0.014 A 
ATOM     45  C   UNL A   1      37.863  29.037  30.131  1.00  0.00     0.009 A 
ATOM     46  C   UNL A   1      38.203  29.676  27.824  1.00  0.00     0.009 A 
ATOM     47  C   UNL A   1      36.519  29.402  30.031  1.00  0.00     0.001 A 
ATOM     48  C   UNL A   1      36.867  30.072  27.737  1.00  0.00     0.001 A 
ATOM     49  C   UNL A   1      36.024  29.926  28.838  1.00  0.00     0.000 A 
ENDBRANCH  25  44
BRANCH  37  50
ATOM     50  C   UNL A   1      44.473  32.545  30.993  1.00  0.00    -0.014 A 
ATOM     51  C   UNL A   1      44.467  32.886  32.354  1.00  0.00     0.009 A 
ATOM     52  C   UNL A   1      44.728  33.546  30.044  1.00  0.00     0.009 A 
ATOM     53  C   UNL A   1      44.670  34.209  32.752  1.00  0.00     0.001 A 
ATOM     54  C   UNL A   1      44.965  34.862  30.444  1.00  0.00     0.001 A 
ATOM     55  C   UNL A   1      44.923  35.195  31.797  1.00  0.00     0.000 A 
ENDBRANCH  37  50
ENDBRANCH  11  12
ENDBRANCH   4   6
ENDBRANCH   1   2
BRANCH   1  56
ATOM     56  C   UNL A   1      37.809  19.961  24.830  1.00  0.00     0.042 C 
BRANCH  56  57
ATOM     57  C   UNL A   1      36.757  21.045  24.669  1.00  0.00     0.118 C 
BRANCH  57  58
ATOM     58  N   UNL A   1      35.910  21.178  25.847  1.00  0.00    -0.352 N 
ATOM     59  C   UNL A   1      34.559  20.993  26.012  1.00  0.00     0.253 C 
ATOM     60  H   UNL A   1      36.389  21.446  26.665  1.00  0.00     0.163 HD
ATOM     61  O   UNL A   1      34.064  21.264  27.100  1.00  0.00    -0.269 OA
BRANCH  59  62
ATOM     62  C   UNL A   1      33.741  20.446  24.904  1.00  0.00     0.066 A 
ATOM     63  C   UNL A   1      33.575  19.051  24.847  1.00  0.00     0.055 A 
ATOM     64  C   UNL A   1      33.045  21.276  24.002  1.00  0.00     0.054 A 
ATOM     65  C   UNL A   1      32.822  18.480  23.833  1.00  0.00     0.124 A 
ATOM     66  C   UNL A   1      32.277  20.655  22.991  1.00  0.00     0.030 A 
ATOM     67  F   UNL A   1      32.714  17.147  23.767  1.00  0.00    -0.207 F 
ATOM     68  C   UNL A   1      32.182  19.267  22.893  1.00  0.00     0.041 A 
BRANCH  64  69
ATOM     69  N   UNL A   1      33.007  22.680  24.067  1.00  0.00    -0.341 N 
ATOM     70  C   UNL A   1      34.048  23.437  23.368  1.00  0.00     0.123 C 
ATOM     71  C   UNL A   1      32.046  23.445  24.765  1.00  0.00     0.044 A 
ATOM     72  C   UNL A   1      33.392  24.497  22.490  1.00  0.00     0.027 C 
ATOM     73  C   UNL A   1      31.798  24.790  24.426  1.00  0.00    -0.024 A 
ATOM     74  C   UNL A   1      31.305  22.879  25.818  1.00  0.00     0.026 A 
ATOM     75  C   UNL A   1      32.592  25.475  23.344  1.00  0.00     0.039 C 
ATOM     76  C   UNL A   1      30.826  25.524  25.127  1.00  0.00     0.006 A 
ATOM     77  C   UNL A   1      30.346  23.615  26.515  1.00  0.00     0.002 A 
ATOM     78  C   UNL A   1      30.103  24.937  26.164  1.00  0.00     0.000 A 
ENDBRANCH  64  69
ENDBRANCH  59  62
ENDBRANCH  57  58
ENDBRANCH  56  57
ENDBRANCH   1  56
TORSDOF 11
ENDMDL
MODEL 2
REMARK VINA RESULT:     -12.0      0.267      5.948
REMARK SMILES O=C(NCCCNC(=O)c1cc(F)ccc1N1CCCc2ccccc21)c1ccc(-c2c3nc(c(-c4ccccc4)c4ccc([nH]4)c(-c4ccccc4)c4nc(c(-c5ccccc5)c5ccc2[nH]5)C=C4)C=C3)cc1
REMARK SMILES IDX 4 1 3 2 1 3 2 4 27 6 28 7 74 8 29 9 73 10 30 11 31 12 32 13
REMARK SMILES IDX 67 14 33 15 72 16 66 17 68 18 34 19 71 20 65 21 64 22 35 24
REMARK SMILES IDX 57 25 42 26 56 27 43 28 46 29 55 30 69 31 44 32 45 33 54 35
REMARK SMILES IDX 70 36 47 37 36 38 37 39 41 40 38 41 40 42 39 43 58 44 59 45
REMARK SMILES IDX 63 46 60 47 62 48 61 49 48 50 49 51 53 52 50 53 52 54 51 55
REMARK SMILES IDX 5 56 6 57 7 58 8 59 9 61 10 62 11 63 16 64 12 65 15 66 13 67
REMARK SMILES IDX 14 68 17 69 18 70 26 71 19 72 21 73 25 74 20 75 22 76 24 77
REMARK SMILES IDX 23 78
REMARK H PARENT 3 5 68 23 46 34 7 60
REMARK Flexibility Score: inf
ROOT
ATOM      1  C   UNL A   1      38.890  20.362  25.834  1.00  0.00     0.118 C 
ENDROOT
BRANCH   1   2
ATOM      2  N   UNL A   1      40.003  19.421  25.832  1.00  0.00    -0.352 N 
ATOM      3  O   UNL A   1      42.140  18.708  25.879  1.00  0.00    -0.269 OA
ATOM      4  C   UNL A   1      41.339  19.614  26.090  1.00  0.00     0.251 C 
ATOM      5  H   UNL A   1      39.759  18.494  25.610  1.00  0.00     0.163 HD
BRANCH   4   6
ATOM      6  C   UNL A   1      41.824  20.921  26.587  1.00  0.00     0.039 A 
ATOM      7  C   UNL A   1      41.854  21.199  27.953  1.00  0.00     0.014 A 
ATOM      8  C   UNL A   1      42.259  21.881  25.671  1.00  0.00     0.014 A 
ATOM      9  C   UNL A   1      42.121  22.491  28.388  1.00  0.00     0.010 A 
ATOM     10  C   UNL A   1      42.644  23.147  26.121  1.00  0.00     0.010 A 
ATOM     11  C   UNL A   1      42.531  23.479  27.480  1.00  0.00    -0.014 A 
BRANCH  11  12
ATOM     12  C   UNL A   1      42.875  24.832  27.986  1.00  0.00     0.031 A 
ATOM     13  C   UNL A   1      41.809  25.859  28.253  1.00  0.00     0.074 A 
ATOM     14  C   UNL A   1      44.166  25.120  28.239  1.00  0.00     0.049 A 
ATOM     15  N   UNL A   1      41.937  27.072  28.732  1.00  0.00    -0.248 NA
ATOM     16  C   UNL A   1      40.423  25.484  27.934  1.00  0.00     0.031 C 
ATOM     17  C   UNL A   1      45.293  24.207  28.027  1.00  0.00     0.029 A 
ATOM     18  N   UNL A   1      44.748  26.249  28.755  1.00  0.00    -0.354 N 
ATOM     19  C   UNL A   1      40.657  27.613  28.746  1.00  0.00     0.074 A 
ATOM     20  C   UNL A   1      39.771  26.608  28.201  1.00  0.00     0.031 C 
ATOM     21  C   UNL A   1      46.418  24.786  28.468  1.00  0.00     0.029 A 
ATOM     22  C   UNL A   1      46.106  26.136  28.922  1.00  0.00     0.049 A 
ATOM     23  H   UNL A   1      44.241  27.062  28.984  1.00  0.00     0.167 HD
ATOM     24  C   UNL A   1      40.256  28.835  29.175  1.00  0.00     0.031 A 
ATOM     25  C   UNL A   1      47.010  27.023  29.376  1.00  0.00     0.031 A 
ATOM     26  C   UNL A   1      41.143  29.838  29.710  1.00  0.00     0.049 A 
ATOM     27  C   UNL A   1      46.546  28.385  29.798  1.00  0.00     0.074 A 
ATOM     28  C   UNL A   1      40.829  31.092  30.205  1.00  0.00     0.029 A 
ATOM     29  N   UNL A   1      42.520  29.703  29.809  1.00  0.00    -0.354 N 
ATOM     30  N   UNL A   1      45.328  28.866  29.841  1.00  0.00    -0.248 NA
ATOM     31  C   UNL A   1      47.585  29.324  30.240  1.00  0.00     0.031 C 
ATOM     32  C   UNL A   1      42.021  31.741  30.541  1.00  0.00     0.029 A 
ATOM     33  C   UNL A   1      43.073  30.865  30.326  1.00  0.00     0.049 A 
ATOM     34  H   UNL A   1      43.030  28.901  29.551  1.00  0.00     0.167 HD
ATOM     35  C   UNL A   1      45.449  30.155  30.343  1.00  0.00     0.074 A 
ATOM     36  C   UNL A   1      46.858  30.371  30.603  1.00  0.00     0.031 C 
ATOM     37  C   UNL A   1      44.477  31.072  30.575  1.00  0.00     0.031 A 
BRANCH  24  38
ATOM     38  C   UNL A   1      38.794  29.173  29.036  1.00  0.00    -0.014 A 
ATOM     39  C   UNL A   1      37.900  29.040  30.111  1.00  0.00     0.009 A 
ATOM     40  C   UNL A   1      38.308  29.652  27.809  1.00  0.00     0.009 A 
ATOM     41  C   UNL A   1      36.542  29.331  29.945  1.00  0.00     0.001 A 
ATOM     42  C   UNL A   1      36.958  29.975  27.655  1.00  0.00     0.001 A 
ATOM     43  C   UNL A   1      36.074  29.801  28.718  1.00  0.00     0.000 A 
ENDBRANCH  24  38
BRANCH  25  44
ATOM     44  C   UNL A   1      48.444  26.640  29.453  1.00  0.00    -0.014 A 
ATOM     45  C   UNL A   1      48.948  26.002  30.595  1.00  0.00     0.009 A 
ATOM     46  C   UNL A   1      49.308  26.892  28.376  1.00  0.00     0.009 A 
ATOM     47  C   UNL A   1      50.296  25.641  30.665  1.00  0.00     0.001 A 
ATOM     48  C   UNL A   1      50.647  26.500  28.436  1.00  0.00     0.001 A 
ATOM     49  C   UNL A   1      51.141  25.883  29.583  1.00  0.00     0.000 A 
ENDBRANCH  25  44
BRANCH  37  50
ATOM     50  C   UNL A   1      44.904  32.379  31.186  1.00  0.00    -0.014 A 
ATOM     51  C   UNL A   1      44.977  32.554  32.576  1.00  0.00     0.009 A 
ATOM     52  C   UNL A   1      45.263  33.446  30.347  1.00  0.00     0.009 A 
ATOM     53  C   UNL A   1      45.359  33.786  33.113  1.00  0.00     0.001 A 
ATOM     54  C   UNL A   1      45.677  34.665  30.885  1.00  0.00     0.001 A 
ATOM     55  C   UNL A   1      45.712  34.838  32.268  1.00  0.00     0.000 A 
ENDBRANCH  37  50
ENDBRANCH  11  12
ENDBRANCH   4   6
ENDBRANCH   1   2
BRANCH   1  56
ATOM     56  C   UNL A   1      37.793  19.996  24.846  1.00  0.00     0.042 C 
BRANCH  56  57
ATOM     57  C   UNL A   1      36.725  21.065  24.682  1.00  0.00     0.118 C 
BRANCH  57  58
ATOM     58  N   UNL A   1      35.885  21.198  25.864  1.00  0.00    -0.352 N 
ATOM     59  C   UNL A   1      34.537  20.997  26.040  1.00  0.00     0.253 C 
ATOM     60  H   UNL A   1      36.365  21.481  26.675  1.00  0.00     0.163 HD
ATOM     61  O   UNL A   1      34.045  21.272  27.129  1.00  0.00    -0.269 OA
BRANCH  59  62
ATOM     62  C   UNL A   1      33.720  20.428  24.943  1.00  0.00     0.066 A 
ATOM     63  C   UNL A   1      33.552  19.032  24.916  1.00  0.00     0.055 A 
ATOM     64  C   UNL A   1      33.024  21.238  24.024  1.00  0.00     0.054 A 
ATOM     65  C   UNL A   1      32.799  18.440  23.913  1.00  0.00     0.124 A 
ATOM     66  C   UNL A   1      32.257  20.597  23.025  1.00  0.00     0.030 A 
ATOM     67  F   UNL A   1      32.690  17.106  23.876  1.00  0.00    -0.207 F 
ATOM     68  C   UNL A   1      32.160  19.207  22.957  1.00  0.00     0.041 A 
BRANCH  64  69
ATOM     69  N   UNL A   1      32.988  22.643  24.059  1.00  0.00    -0.341 N 
ATOM     70  C   UNL A   1      34.022  23.385  23.335  1.00  0.00     0.123 C 
ATOM     71  C   UNL A   1      32.033  23.424  24.749  1.00  0.00     0.044 A 
ATOM     72  C   UNL A   1      33.359  24.426  22.440  1.00  0.00     0.027 C 
ATOM     73  C   UNL A   1      31.783  24.761  24.384  1.00  0.00    -0.024 A 
ATOM     74  C   UNL A   1      31.301  22.881  25.821  1.00  0.00     0.026 A 
ATOM     75  C   UNL A   1      32.567  25.423  23.280  1.00  0.00     0.039 C 
ATOM     76  C   UNL A   1      30.818  25.511  25.078  1.00  0.00     0.006 A 
ATOM     77  C   UNL A   1      30.350  23.633  26.510  1.00  0.00     0.002 A 
ATOM     78  C   UNL A   1      30.103  24.947  26.133  1.00  0.00     0.000 A 
ENDBRANCH  64  69
ENDBRANCH  59  62
ENDBRANCH  57  58
ENDBRANCH  56  57
ENDBRANCH   1  56
TORSDOF 11
ENDMDL
MODEL 3
REMARK VINA RESULT:     -12.0      4.432      9.311
REMARK SMILES O=C(NCCCNC(=O)c1cc(F)ccc1N1CCCc2ccccc21)c1ccc(-c2c3nc(c(-c4ccccc4)c4ccc([nH]4)c(-c4ccccc4)c4nc(c(-c5ccccc5)c5ccc2[nH]5)C=C4)C=C3)cc1
REMARK SMILES IDX 4 1 3 2 1 3 2 4 27 6 28 7 74 8 29 9 73 10 30 11 31 12 32 13
REMARK SMILES IDX 67 14 33 15 72 16 66 17 68 18 34 19 71 20 65 21 64 22 35 24
REMARK SMILES IDX 57 25 42 26 56 27 43 28 46 29 55 30 69 31 44 32 45 33 54 35
REMARK SMILES IDX 70 36 47 37 36 38 37 39 41 40 38 41 40 42 39 43 58 44 59 45
REMARK SMILES IDX 63 46 60 47 62 48 61 49 48 50 49 51 53 52 50 53 52 54 51 55
REMARK SMILES IDX 5 56 6 57 7 58 8 59 9 61 10 62 11 63 16 64 12 65 15 66 13 67
REMARK SMILES IDX 14 68 17 69 18 70 26 71 19 72 21 73 25 74 20 75 22 76 24 77
REMARK SMILES IDX 23 78
REMARK H PARENT 3 5 68 23 46 34 7 60
REMARK Flexibility Score: inf
ROOT
ATOM      1  C   UNL A   1      32.648  32.408  27.024  1.00  0.00     0.118 C 
ENDROOT
BRANCH   1   2
ATOM      2  N   UNL A   1      32.422  33.760  27.519  1.00  0.00    -0.352 N 
ATOM      3  O   UNL A   1      32.651  35.568  28.844  1.00  0.00    -0.269 OA
ATOM      4  C   UNL A   1      33.107  34.496  28.456  1.00  0.00     0.251 C 
ATOM      5  H   UNL A   1      31.651  34.221  27.118  1.00  0.00     0.163 HD
BRANCH   4   6
ATOM      6  C   UNL A   1      34.375  33.989  29.025  1.00  0.00     0.039 A 
ATOM      7  C   UNL A   1      35.602  34.340  28.465  1.00  0.00     0.014 A 
ATOM      8  C   UNL A   1      34.333  33.151  30.142  1.00  0.00     0.014 A 
ATOM      9  C   UNL A   1      36.760  33.700  28.885  1.00  0.00     0.010 A 
ATOM     10  C   UNL A   1      35.517  32.600  30.642  1.00  0.00     0.010 A 
ATOM     11  C   UNL A   1      36.736  32.832  29.987  1.00  0.00    -0.014 A 
BRANCH  11  12
ATOM     12  C   UNL A   1      38.004  32.217  30.454  1.00  0.00     0.031 A 
ATOM     13  C   UNL A   1      38.787  32.812  31.592  1.00  0.00     0.074 A 
ATOM     14  C   UNL A   1      38.432  31.085  29.863  1.00  0.00     0.049 A 
ATOM     15  N   UNL A   1      39.892  32.377  32.147  1.00  0.00    -0.248 NA
ATOM     16  C   UNL A   1      38.274  34.059  32.178  1.00  0.00     0.031 C 
ATOM     17  C   UNL A   1      37.758  30.406  28.752  1.00  0.00     0.029 A 
ATOM     18  N   UNL A   1      39.517  30.290  30.127  1.00  0.00    -0.354 N 
ATOM     19  C   UNL A   1      40.220  33.309  33.125  1.00  0.00     0.074 A 
ATOM     20  C   UNL A   1      39.214  34.347  33.069  1.00  0.00     0.031 C 
ATOM     21  C   UNL A   1      38.407  29.266  28.474  1.00  0.00     0.029 A 
ATOM     22  C   UNL A   1      39.583  29.173  29.332  1.00  0.00     0.049 A 
ATOM     23  H   UNL A   1      40.185  30.499  30.819  1.00  0.00     0.167 HD
ATOM     24  C   UNL A   1      41.262  33.300  33.992  1.00  0.00     0.031 A 
ATOM     25  C   UNL A   1      40.494  28.184  29.282  1.00  0.00     0.031 A 
ATOM     26  C   UNL A   1      42.267  32.268  34.040  1.00  0.00     0.049 A 
ATOM     27  C   UNL A   1      41.664  28.224  30.219  1.00  0.00     0.074 A 
ATOM     28  C   UNL A   1      43.342  32.150  34.905  1.00  0.00     0.029 A 
ATOM     29  N   UNL A   1      42.328  31.182  33.178  1.00  0.00    -0.354 N 
ATOM     30  N   UNL A   1      41.937  29.091  31.163  1.00  0.00    -0.248 NA
ATOM     31  C   UNL A   1      42.648  27.143  30.085  1.00  0.00     0.031 C 
ATOM     32  C   UNL A   1      44.089  31.030  34.524  1.00  0.00     0.029 A 
ATOM     33  C   UNL A   1      43.440  30.408  33.470  1.00  0.00     0.049 A 
ATOM     34  H   UNL A   1      41.677  30.990  32.465  1.00  0.00     0.167 HD
ATOM     35  C   UNL A   1      43.110  28.645  31.757  1.00  0.00     0.074 A 
ATOM     36  C   UNL A   1      43.484  27.422  31.076  1.00  0.00     0.031 C 
ATOM     37  C   UNL A   1      43.807  29.196  32.782  1.00  0.00     0.031 A 
BRANCH  24  38
ATOM     38  C   UNL A   1      41.394  34.472  34.930  1.00  0.00    -0.014 A 
ATOM     39  C   UNL A   1      42.145  35.609  34.591  1.00  0.00     0.009 A 
ATOM     40  C   UNL A   1      40.738  34.441  36.171  1.00  0.00     0.009 A 
ATOM     41  C   UNL A   1      42.276  36.668  35.495  1.00  0.00     0.001 A 
ATOM     42  C   UNL A   1      40.842  35.514  37.058  1.00  0.00     0.001 A 
ATOM     43  C   UNL A   1      41.622  36.621  36.726  1.00  0.00     0.000 A 
ENDBRANCH  24  38
BRANCH  25  44
ATOM     44  C   UNL A   1      40.326  27.075  28.307  1.00  0.00    -0.014 A 
ATOM     45  C   UNL A   1      39.605  25.924  28.658  1.00  0.00     0.009 A 
ATOM     46  C   UNL A   1      40.868  27.172  27.017  1.00  0.00     0.009 A 
ATOM     47  C   UNL A   1      39.447  24.884  27.740  1.00  0.00     0.001 A 
ATOM     48  C   UNL A   1      40.679  26.145  26.090  1.00  0.00     0.001 A 
ATOM     49  C   UNL A   1      39.977  24.998  26.455  1.00  0.00     0.000 A 
ENDBRANCH  25  44
BRANCH  37  50
ATOM     50  C   UNL A   1      45.023  28.450  33.258  1.00  0.00    -0.014 A 
ATOM     51  C   UNL A   1      46.300  28.714  32.741  1.00  0.00     0.009 A 
ATOM     52  C   UNL A   1      44.885  27.478  34.262  1.00  0.00     0.009 A 
ATOM     53  C   UNL A   1      47.408  27.991  33.190  1.00  0.00     0.001 A 
ATOM     54  C   UNL A   1      45.997  26.780  34.734  1.00  0.00     0.001 A 
ATOM     55  C   UNL A   1      47.256  27.028  34.188  1.00  0.00     0.000 A 
ENDBRANCH  37  50
ENDBRANCH  11  12
ENDBRANCH   4   6
ENDBRANCH   1   2
BRANCH   1  56
ATOM     56  C   UNL A   1      31.380  31.726  26.536  1.00  0.00     0.042 C 
BRANCH  56  57
ATOM     57  C   UNL A   1      31.532  30.234  26.291  1.00  0.00     0.118 C 
BRANCH  57  58
ATOM     58  N   UNL A   1      32.328  29.943  25.106  1.00  0.00    -0.352 N 
ATOM     59  C   UNL A   1      32.009  29.278  23.947  1.00  0.00     0.253 C 
ATOM     60  H   UNL A   1      33.252  30.280  25.143  1.00  0.00     0.163 HD
ATOM     61  O   UNL A   1      32.899  29.081  23.126  1.00  0.00    -0.269 OA
BRANCH  59  62
ATOM     62  C   UNL A   1      30.615  28.849  23.693  1.00  0.00     0.066 A 
ATOM     63  C   UNL A   1      29.756  29.768  23.065  1.00  0.00     0.055 A 
ATOM     64  C   UNL A   1      30.173  27.535  23.949  1.00  0.00     0.054 A 
ATOM     65  C   UNL A   1      28.439  29.425  22.802  1.00  0.00     0.124 A 
ATOM     66  C   UNL A   1      28.827  27.221  23.656  1.00  0.00     0.030 A 
ATOM     67  F   UNL A   1      27.623  30.329  22.247  1.00  0.00    -0.207 F 
ATOM     68  C   UNL A   1      27.959  28.163  23.105  1.00  0.00     0.041 A 
BRANCH  64  69
ATOM     69  N   UNL A   1      30.988  26.491  24.422  1.00  0.00    -0.341 N 
ATOM     70  C   UNL A   1      31.113  26.306  25.869  1.00  0.00     0.123 C 
ATOM     71  C   UNL A   1      31.722  25.592  23.616  1.00  0.00     0.044 A 
ATOM     72  C   UNL A   1      30.832  24.847  26.213  1.00  0.00     0.027 C 
ATOM     73  C   UNL A   1      32.130  24.337  24.109  1.00  0.00    -0.024 A 
ATOM     74  C   UNL A   1      32.061  25.926  22.292  1.00  0.00     0.026 A 
ATOM     75  C   UNL A   1      31.848  23.935  25.533  1.00  0.00     0.039 C 
ATOM     76  C   UNL A   1      32.847  23.455  23.281  1.00  0.00     0.006 A 
ATOM     77  C   UNL A   1      32.777  25.050  21.478  1.00  0.00     0.002 A 
ATOM     78  C   UNL A   1      33.165  23.810  21.971  1.00  0.00     0.000 A 
ENDBRANCH  64  69
ENDBRANCH  59  62
ENDBRANCH  57  58
ENDBRANCH  56  57
ENDBRANCH   1  56
TORSDOF 11
ENDMDL
