MODEL 1
REMARK VINA RESULT:     -11.8      0.000      0.000
REMARK SMILES COc1cccc([C@@H]2CC(c3cccc(C)c3)=NN2C(=O)CCC(=O)NCCCNC(=O)c2ccc(-c3c4nc(c(-c5ccccc5)c5ccc([nH]5)c(-c5ccccc5)c5nc(c(-c6ccccc6)c6ccc3[nH]6)C=C5)C=C4)cc2)c1
REMARK SMILES IDX 24 1 25 2 26 3 23 5 22 6 20 7 21 8 19 9 8 10 9 11 10 12
REMARK SMILES IDX 18 13 7 14 3 15 4 16 81 17 5 18 6 19 2 20 1 21 11 22 12 23
REMARK SMILES IDX 17 24 13 25 15 26 14 27 16 28 27 29 28 30 29 31 30 32 31 33
REMARK SMILES IDX 32 35 33 36 34 37 80 38 35 39 79 40 36 41 37 42 38 43 73 44
REMARK SMILES IDX 39 45 78 46 72 47 74 48 40 49 77 50 71 51 70 52 41 54 63 55
REMARK SMILES IDX 48 56 62 57 49 58 52 59 61 60 75 61 50 62 51 63 60 65 76 66
REMARK SMILES IDX 53 67 42 68 43 69 47 70 44 71 46 72 45 73 64 74 65 75 69 76
REMARK SMILES IDX 66 77 68 78 67 79 54 80 55 81 59 82 56 83 58 84 57 85
REMARK H PARENT 26 4 30 34 74 53 52 64
REMARK Flexibility Score: inf
ROOT
ATOM      1  C   UNL A   1      36.689  21.578  25.150  1.00  0.00     0.220 C 
ATOM      2  O   UNL A   1      36.631  20.354  25.004  1.00  0.00    -0.275 OA
ATOM      3  N   UNL A   1      37.613  22.095  26.015  1.00  0.00    -0.356 N 
ATOM      4  H   UNL A   1      37.993  21.440  26.645  1.00  0.00     0.163 HD
ENDROOT
BRANCH   1   5
ATOM      5  C   UNL A   1      35.660  22.467  24.476  1.00  0.00     0.110 C 
BRANCH   5   6
ATOM      6  C   UNL A   1      35.306  23.710  25.297  1.00  0.00     0.112 C 
BRANCH   6   7
ATOM      7  C   UNL A   1      34.351  23.400  26.420  1.00  0.00     0.243 C 
ATOM      8  O   UNL A   1      34.646  22.525  27.240  1.00  0.00    -0.273 OA
BRANCH   7   9
ATOM      9  N   UNL A   1      33.127  24.043  26.387  1.00  0.00    -0.225 N 
ATOM     10  C   UNL A   1      31.775  23.480  26.356  1.00  0.00     0.147 C 
ATOM     11  C   UNL A   1      30.842  24.698  26.237  1.00  0.00     0.091 C 
ATOM     12  C   UNL A   1      31.884  25.753  26.139  1.00  0.00     0.071 C 
ATOM     13  N   UNL A   1      33.113  25.363  26.175  1.00  0.00    -0.174 NA
BRANCH  10  14
ATOM     14  C   UNL A   1      31.743  22.508  25.196  1.00  0.00    -0.019 A 
ATOM     15  C   UNL A   1      32.211  20.228  24.525  1.00  0.00     0.119 A 
ATOM     16  C   UNL A   1      32.406  20.663  23.213  1.00  0.00     0.046 A 
ATOM     17  C   UNL A   1      31.862  21.151  25.504  1.00  0.00     0.052 A 
ATOM     18  C   UNL A   1      32.230  22.007  22.877  1.00  0.00     0.004 A 
ATOM     19  C   UNL A   1      31.889  22.929  23.863  1.00  0.00     0.006 A 
BRANCH  15  20
ATOM     20  O   UNL A   1      32.442  18.902  24.769  1.00  0.00    -0.497 OA
ATOM     21  C   UNL A   1      33.721  18.418  24.359  1.00  0.00     0.278 C 
ENDBRANCH  15  20
ENDBRANCH  10  14
BRANCH  12  22
ATOM     22  C   UNL A   1      31.656  27.137  25.780  1.00  0.00    -0.002 A 
ATOM     23  C   UNL A   1      32.201  28.117  27.127  1.00  0.00     0.010 A 
ATOM     24  C   UNL A   1      30.872  27.781  24.320  1.00  0.00     0.013 A 
ATOM     25  C   UNL A   1      31.944  29.856  27.043  1.00  0.00     0.001 A 
ATOM     26  C   UNL A   1      30.567  29.525  24.092  1.00  0.00    -0.050 A 
ATOM     27  C   UNL A   1      31.102  30.659  25.397  1.00  0.00     0.003 A 
ATOM     28  C   UNL A   1      29.624  30.009  23.033  1.00  0.00     0.044 C 
ENDBRANCH  12  22
ENDBRANCH   7   9
ENDBRANCH   6   7
ENDBRANCH   5   6
ENDBRANCH   1   5
BRANCH   3  29
ATOM     29  C   UNL A   1      38.129  23.446  26.164  1.00  0.00     0.117 C 
BRANCH  29  30
ATOM     30  C   UNL A   1      39.593  23.684  26.571  1.00  0.00     0.042 C 
BRANCH  30  31
ATOM     31  C   UNL A   1      40.269  22.987  27.765  1.00  0.00     0.118 C 
BRANCH  31  32
ATOM     32  N   UNL A   1      41.268  21.988  27.460  1.00  0.00    -0.352 N 
ATOM     33  C   UNL A   1      42.516  22.093  26.878  1.00  0.00     0.251 C 
ATOM     34  H   UNL A   1      41.015  21.071  27.713  1.00  0.00     0.163 HD
ATOM     35  O   UNL A   1      43.035  21.029  26.533  1.00  0.00    -0.269 OA
BRANCH  33  36
ATOM     36  C   UNL A   1      43.187  23.470  26.510  1.00  0.00     0.039 A 
ATOM     37  C   UNL A   1      43.926  23.983  28.076  1.00  0.00     0.014 A 
ATOM     38  C   UNL A   1      43.222  24.821  24.999  1.00  0.00     0.014 A 
ATOM     39  C   UNL A   1      44.665  25.584  28.188  1.00  0.00     0.010 A 
ATOM     40  C   UNL A   1      44.052  26.389  25.248  1.00  0.00     0.010 A 
ATOM     41  C   UNL A   1      44.786  26.721  26.821  1.00  0.00    -0.014 A 
BRANCH  41  42
ATOM     42  C   UNL A   1      45.891  27.756  26.826  1.00  0.00     0.031 A 
ATOM     43  C   UNL A   1      45.536  29.221  26.896  1.00  0.00     0.074 A 
ATOM     44  C   UNL A   1      47.174  27.420  26.528  1.00  0.00     0.049 A 
ATOM     45  N   UNL A   1      46.300  30.272  26.728  1.00  0.00    -0.248 NA
ATOM     46  C   UNL A   1      44.115  29.546  27.094  1.00  0.00     0.031 C 
ATOM     47  C   UNL A   1      47.695  26.077  26.253  1.00  0.00     0.029 A 
ATOM     48  N   UNL A   1      48.298  28.211  26.375  1.00  0.00    -0.354 N 
ATOM     49  C   UNL A   1      45.439  31.362  26.755  1.00  0.00     0.074 A 
ATOM     50  C   UNL A   1      44.096  30.833  26.791  1.00  0.00     0.031 C 
ATOM     51  C   UNL A   1      49.011  26.128  26.006  1.00  0.00     0.029 A 
ATOM     52  C   UNL A   1      49.449  27.508  26.080  1.00  0.00     0.049 A 
ATOM     53  H   UNL A   1      48.279  29.190  26.468  1.00  0.00     0.167 HD
ATOM     54  C   UNL A   1      45.726  32.684  26.830  1.00  0.00     0.031 A 
ATOM     55  C   UNL A   1      50.724  27.905  25.900  1.00  0.00     0.031 A 
ATOM     56  C   UNL A   1      47.062  33.208  26.842  1.00  0.00     0.049 A 
ATOM     57  C   UNL A   1      51.050  29.363  26.041  1.00  0.00     0.074 A 
ATOM     58  C   UNL A   1      47.481  34.512  27.034  1.00  0.00     0.029 A 
ATOM     59  N   UNL A   1      48.203  32.442  26.650  1.00  0.00    -0.354 N 
ATOM     60  N   UNL A   1      50.236  30.371  26.242  1.00  0.00    -0.248 NA
ATOM     61  C   UNL A   1      52.468  29.738  25.964  1.00  0.00     0.031 C 
ATOM     62  C   UNL A   1      48.872  34.544  26.891  1.00  0.00     0.029 A 
ATOM     63  C   UNL A   1      49.325  33.250  26.690  1.00  0.00     0.049 A 
ATOM     64  H   UNL A   1      48.212  31.468  26.507  1.00  0.00     0.167 HD
ATOM     65  C   UNL A   1      51.044  31.494  26.346  1.00  0.00     0.074 A 
ATOM     66  C   UNL A   1      52.412  31.040  26.206  1.00  0.00     0.031 C 
ATOM     67  C   UNL A   1      50.682  32.785  26.546  1.00  0.00     0.031 A 
BRANCH  54  68
ATOM     68  C   UNL A   1      44.554  33.628  26.939  1.00  0.00    -0.014 A 
ATOM     69  C   UNL A   1      43.963  34.190  25.791  1.00  0.00     0.009 A 
ATOM     70  C   UNL A   1      44.066  34.008  28.197  1.00  0.00     0.009 A 
ATOM     71  C   UNL A   1      42.991  35.184  25.902  1.00  0.00     0.001 A 
ATOM     72  C   UNL A   1      43.055  34.965  28.306  1.00  0.00     0.001 A 
ATOM     73  C   UNL A   1      42.539  35.572  27.160  1.00  0.00     0.000 A 
ENDBRANCH  54  68
BRANCH  55  74
ATOM     74  C   UNL A   1      51.802  26.902  25.639  1.00  0.00    -0.014 A 
ATOM     75  C   UNL A   1      52.458  26.263  26.705  1.00  0.00     0.009 A 
ATOM     76  C   UNL A   1      52.179  26.571  24.327  1.00  0.00     0.009 A 
ATOM     77  C   UNL A   1      53.487  25.346  26.465  1.00  0.00     0.001 A 
ATOM     78  C   UNL A   1      53.187  25.629  24.090  1.00  0.00     0.001 A 
ATOM     79  C   UNL A   1      53.847  25.025  25.159  1.00  0.00     0.000 A 
ENDBRANCH  55  74
BRANCH  67  80
ATOM     80  C   UNL A   1      51.780  33.802  26.665  1.00  0.00    -0.014 A 
ATOM     81  C   UNL A   1      52.390  34.086  27.897  1.00  0.00     0.009 A 
ATOM     82  C   UNL A   1      52.259  34.435  25.507  1.00  0.00     0.009 A 
ATOM     83  C   UNL A   1      53.440  35.003  27.967  1.00  0.00     0.001 A 
ATOM     84  C   UNL A   1      53.333  35.320  25.574  1.00  0.00     0.001 A 
ATOM     85  C   UNL A   1      53.916  35.612  26.806  1.00  0.00     0.000 A 
ENDBRANCH  67  80
ENDBRANCH  41  42
ENDBRANCH  33  36
ENDBRANCH  31  32
ENDBRANCH  30  31
ENDBRANCH  29  30
ENDBRANCH   3  29
TORSDOF 16
ENDMDL
MODEL 2
REMARK VINA RESULT:     -11.8      5.995      9.623
REMARK SMILES COc1cccc([C@@H]2CC(c3cccc(C)c3)=NN2C(=O)CCC(=O)NCCCNC(=O)c2ccc(-c3c4nc(c(-c5ccccc5)c5ccc([nH]5)c(-c5ccccc5)c5nc(c(-c6ccccc6)c6ccc3[nH]6)C=C5)C=C4)cc2)c1
REMARK SMILES IDX 24 1 25 2 26 3 23 5 22 6 20 7 21 8 19 9 8 10 9 11 10 12
REMARK SMILES IDX 18 13 7 14 3 15 4 16 81 17 5 18 6 19 2 20 1 21 11 22 12 23
REMARK SMILES IDX 17 24 13 25 15 26 14 27 16 28 27 29 28 30 29 31 30 32 31 33
REMARK SMILES IDX 32 35 33 36 34 37 80 38 35 39 79 40 36 41 37 42 38 43 73 44
REMARK SMILES IDX 39 45 78 46 72 47 74 48 40 49 77 50 71 51 70 52 41 54 63 55
REMARK SMILES IDX 48 56 62 57 49 58 52 59 61 60 75 61 50 62 51 63 60 65 76 66
REMARK SMILES IDX 53 67 42 68 43 69 47 70 44 71 46 72 45 73 64 74 65 75 69 76
REMARK SMILES IDX 66 77 68 78 67 79 54 80 55 81 59 82 56 83 58 84 57 85
REMARK H PARENT 26 4 30 34 74 53 52 64
REMARK Flexibility Score: inf
ROOT
ATOM      1  C   UNL A   1      37.548  23.225  25.664  1.00  0.00     0.220 C 
ATOM      2  O   UNL A   1      37.059  24.129  26.347  1.00  0.00    -0.275 OA
ATOM      3  N   UNL A   1      38.541  22.456  26.202  1.00  0.00    -0.356 N 
ATOM      4  H   UNL A   1      38.966  22.840  27.003  1.00  0.00     0.163 HD
ENDROOT
BRANCH   1   5
ATOM      5  C   UNL A   1      37.135  23.072  24.211  1.00  0.00     0.110 C 
BRANCH   5   6
ATOM      6  C   UNL A   1      35.764  22.411  24.040  1.00  0.00     0.112 C 
BRANCH   6   7
ATOM      7  C   UNL A   1      35.191  21.935  25.349  1.00  0.00     0.243 C 
ATOM      8  O   UNL A   1      35.765  21.034  25.968  1.00  0.00    -0.273 OA
BRANCH   7   9
ATOM      9  N   UNL A   1      33.967  22.463  25.718  1.00  0.00    -0.225 N 
ATOM     10  C   UNL A   1      32.748  21.780  26.159  1.00  0.00     0.147 C 
ATOM     11  C   UNL A   1      31.709  22.901  26.336  1.00  0.00     0.091 C 
ATOM     12  C   UNL A   1      32.543  24.038  25.866  1.00  0.00     0.071 C 
ATOM     13  N   UNL A   1      33.747  23.762  25.493  1.00  0.00    -0.174 NA
BRANCH  10  14
ATOM     14  C   UNL A   1      32.430  20.745  25.101  1.00  0.00    -0.019 A 
ATOM     15  C   UNL A   1      32.863  18.475  24.374  1.00  0.00     0.119 A 
ATOM     16  C   UNL A   1      32.579  18.850  23.060  1.00  0.00     0.046 A 
ATOM     17  C   UNL A   1      32.769  19.422  25.388  1.00  0.00     0.052 A 
ATOM     18  C   UNL A   1      32.179  20.156  22.765  1.00  0.00     0.004 A 
ATOM     19  C   UNL A   1      32.095  21.101  23.784  1.00  0.00     0.006 A 
BRANCH  15  20
ATOM     20  O   UNL A   1      33.283  17.188  24.564  1.00  0.00    -0.497 OA
ATOM     21  C   UNL A   1      32.524  16.429  25.506  1.00  0.00     0.278 C 
ENDBRANCH  15  20
ENDBRANCH  10  14
BRANCH  12  22
ATOM     22  C   UNL A   1      32.067  25.374  25.575  1.00  0.00    -0.002 A 
ATOM     23  C   UNL A   1      31.352  25.331  23.975  1.00  0.00     0.010 A 
ATOM     24  C   UNL A   1      32.244  26.845  26.558  1.00  0.00     0.013 A 
ATOM     25  C   UNL A   1      30.784  26.845  23.282  1.00  0.00     0.001 A 
ATOM     26  C   UNL A   1      31.693  28.444  25.990  1.00  0.00    -0.050 A 
ATOM     27  C   UNL A   1      30.912  28.543  24.360  1.00  0.00     0.003 A 
ATOM     28  C   UNL A   1      32.144  29.700  26.671  1.00  0.00     0.044 C 
ENDBRANCH  12  22
ENDBRANCH   7   9
ENDBRANCH   6   7
ENDBRANCH   5   6
ENDBRANCH   1   5
BRANCH   3  29
ATOM     29  C   UNL A   1      39.077  21.168  25.794  1.00  0.00     0.117 C 
BRANCH  29  30
ATOM     30  C   UNL A   1      40.406  20.654  26.374  1.00  0.00     0.042 C 
BRANCH  30  31
ATOM     31  C   UNL A   1      41.635  21.550  26.610  1.00  0.00     0.118 C 
BRANCH  31  32
ATOM     32  N   UNL A   1      42.512  21.769  25.482  1.00  0.00    -0.352 N 
ATOM     33  C   UNL A   1      43.079  22.922  24.978  1.00  0.00     0.251 C 
ATOM     34  H   UNL A   1      42.746  20.952  24.986  1.00  0.00     0.163 HD
ATOM     35  O   UNL A   1      43.590  22.821  23.860  1.00  0.00    -0.269 OA
BRANCH  33  36
ATOM     36  C   UNL A   1      42.952  24.328  25.678  1.00  0.00     0.039 A 
ATOM     37  C   UNL A   1      41.422  24.164  26.624  1.00  0.00     0.014 A 
ATOM     38  C   UNL A   1      43.790  26.173  25.611  1.00  0.00     0.014 A 
ATOM     39  C   UNL A   1      40.778  25.580  27.459  1.00  0.00     0.010 A 
ATOM     40  C   UNL A   1      43.046  27.505  26.553  1.00  0.00     0.010 A 
ATOM     41  C   UNL A   1      41.581  27.171  27.483  1.00  0.00    -0.014 A 
BRANCH  41  42
ATOM     42  C   UNL A   1      41.308  28.112  28.639  1.00  0.00     0.031 A 
ATOM     43  C   UNL A   1      42.094  27.963  29.918  1.00  0.00     0.074 A 
ATOM     44  C   UNL A   1      40.217  28.923  28.645  1.00  0.00     0.049 A 
ATOM     45  N   UNL A   1      41.901  28.529  31.083  1.00  0.00    -0.248 NA
ATOM     46  C   UNL A   1      43.189  26.981  29.909  1.00  0.00     0.031 C 
ATOM     47  C   UNL A   1      39.229  29.085  27.573  1.00  0.00     0.029 A 
ATOM     48  N   UNL A   1      39.730  29.766  29.627  1.00  0.00    -0.354 N 
ATOM     49  C   UNL A   1      42.818  27.932  31.940  1.00  0.00     0.074 A 
ATOM     50  C   UNL A   1      43.443  26.860  31.201  1.00  0.00     0.031 C 
ATOM     51  C   UNL A   1      38.295  29.977  27.930  1.00  0.00     0.029 A 
ATOM     52  C   UNL A   1      38.588  30.453  29.268  1.00  0.00     0.049 A 
ATOM     53  H   UNL A   1      40.161  29.868  30.506  1.00  0.00     0.167 HD
ATOM     54  C   UNL A   1      43.179  28.286  33.197  1.00  0.00     0.031 A 
ATOM     55  C   UNL A   1      37.850  31.375  29.917  1.00  0.00     0.031 A 
ATOM     56  C   UNL A   1      42.591  29.381  33.915  1.00  0.00     0.049 A 
ATOM     57  C   UNL A   1      38.286  31.808  31.287  1.00  0.00     0.074 A 
ATOM     58  C   UNL A   1      42.953  29.910  35.140  1.00  0.00     0.029 A 
ATOM     59  N   UNL A   1      41.506  30.119  33.462  1.00  0.00    -0.354 N 
ATOM     60  N   UNL A   1      39.271  31.349  32.019  1.00  0.00    -0.248 NA
ATOM     61  C   UNL A   1      37.532  32.904  31.909  1.00  0.00     0.031 C 
ATOM     62  C   UNL A   1      42.044  30.923  35.459  1.00  0.00     0.029 A 
ATOM     63  C   UNL A   1      41.167  31.079  34.398  1.00  0.00     0.049 A 
ATOM     64  H   UNL A   1      41.047  29.978  32.602  1.00  0.00     0.167 HD
ATOM     65  C   UNL A   1      39.277  32.120  33.173  1.00  0.00     0.074 A 
ATOM     66  C   UNL A   1      38.208  33.088  33.034  1.00  0.00     0.031 C 
ATOM     67  C   UNL A   1      40.099  32.035  34.248  1.00  0.00     0.031 A 
BRANCH  54  68
ATOM     68  C   UNL A   1      44.286  27.485  33.837  1.00  0.00    -0.014 A 
ATOM     69  C   UNL A   1      45.637  27.844  33.664  1.00  0.00     0.009 A 
ATOM     70  C   UNL A   1      43.990  26.330  34.573  1.00  0.00     0.009 A 
ATOM     71  C   UNL A   1      46.660  27.012  34.119  1.00  0.00     0.001 A 
ATOM     72  C   UNL A   1      45.016  25.526  35.074  1.00  0.00     0.001 A 
ATOM     73  C   UNL A   1      46.348  25.853  34.823  1.00  0.00     0.000 A 
ENDBRANCH  54  68
BRANCH  55  74
ATOM     74  C   UNL A   1      36.668  32.006  29.256  1.00  0.00    -0.014 A 
ATOM     75  C   UNL A   1      35.411  31.377  29.286  1.00  0.00     0.009 A 
ATOM     76  C   UNL A   1      36.781  33.241  28.597  1.00  0.00     0.009 A 
ATOM     77  C   UNL A   1      34.309  31.949  28.643  1.00  0.00     0.001 A 
ATOM     78  C   UNL A   1      35.668  33.827  27.984  1.00  0.00     0.001 A 
ATOM     79  C   UNL A   1      34.436  33.176  27.997  1.00  0.00     0.000 A 
ENDBRANCH  55  74
BRANCH  67  80
ATOM     80  C   UNL A   1      39.905  33.038  35.348  1.00  0.00    -0.014 A 
ATOM     81  C   UNL A   1      40.515  34.301  35.308  1.00  0.00     0.009 A 
ATOM     82  C   UNL A   1      39.037  32.734  36.410  1.00  0.00     0.009 A 
ATOM     83  C   UNL A   1      40.279  35.229  36.325  1.00  0.00     0.001 A 
ATOM     84  C   UNL A   1      38.773  33.677  37.402  1.00  0.00     0.001 A 
ATOM     85  C   UNL A   1      39.402  34.920  37.364  1.00  0.00     0.000 A 
ENDBRANCH  67  80
ENDBRANCH  41  42
ENDBRANCH  33  36
ENDBRANCH  31  32
ENDBRANCH  30  31
ENDBRANCH  29  30
ENDBRANCH   3  29
TORSDOF 16
ENDMDL
MODEL 3
REMARK VINA RESULT:     -11.6      5.320      9.346
REMARK SMILES COc1cccc([C@@H]2CC(c3cccc(C)c3)=NN2C(=O)CCC(=O)NCCCNC(=O)c2ccc(-c3c4nc(c(-c5ccccc5)c5ccc([nH]5)c(-c5ccccc5)c5nc(c(-c6ccccc6)c6ccc3[nH]6)C=C5)C=C4)cc2)c1
REMARK SMILES IDX 24 1 25 2 26 3 23 5 22 6 20 7 21 8 19 9 8 10 9 11 10 12
REMARK SMILES IDX 18 13 7 14 3 15 4 16 81 17 5 18 6 19 2 20 1 21 11 22 12 23
REMARK SMILES IDX 17 24 13 25 15 26 14 27 16 28 27 29 28 30 29 31 30 32 31 33
REMARK SMILES IDX 32 35 33 36 34 37 80 38 35 39 79 40 36 41 37 42 38 43 73 44
REMARK SMILES IDX 39 45 78 46 72 47 74 48 40 49 77 50 71 51 70 52 41 54 63 55
REMARK SMILES IDX 48 56 62 57 49 58 52 59 61 60 75 61 50 62 51 63 60 65 76 66
REMARK SMILES IDX 53 67 42 68 43 69 47 70 44 71 46 72 45 73 64 74 65 75 69 76
REMARK SMILES IDX 66 77 68 78 67 79 54 80 55 81 59 82 56 83 58 84 57 85
REMARK H PARENT 26 4 30 34 74 53 52 64
REMARK Flexibility Score: inf
ROOT
ATOM      1  C   UNL A   1      31.826  27.015  26.239  1.00  0.00     0.220 C 
ATOM      2  O   UNL A   1      31.148  26.331  27.012  1.00  0.00    -0.275 OA
ATOM      3  N   UNL A   1      31.194  27.917  25.431  1.00  0.00    -0.356 N 
ATOM      4  H   UNL A   1      30.222  27.778  25.345  1.00  0.00     0.163 HD
ENDROOT
BRANCH   1   5
ATOM      5  C   UNL A   1      33.315  26.749  26.108  1.00  0.00     0.110 C 
BRANCH   5   6
ATOM      6  C   UNL A   1      33.646  25.663  25.081  1.00  0.00     0.112 C 
BRANCH   6   7
ATOM      7  C   UNL A   1      34.026  24.359  25.731  1.00  0.00     0.243 C 
ATOM      8  O   UNL A   1      33.362  23.942  26.685  1.00  0.00    -0.273 OA
BRANCH   7   9
ATOM      9  N   UNL A   1      35.193  23.763  25.286  1.00  0.00    -0.225 N 
ATOM     10  C   UNL A   1      35.411  22.868  24.145  1.00  0.00     0.147 C 
ATOM     11  C   UNL A   1      36.896  22.477  24.229  1.00  0.00     0.091 C 
ATOM     12  C   UNL A   1      37.231  23.185  25.493  1.00  0.00     0.071 C 
ATOM     13  N   UNL A   1      36.274  23.833  26.067  1.00  0.00    -0.174 NA
BRANCH  10  14
ATOM     14  C   UNL A   1      34.419  21.734  24.295  1.00  0.00    -0.019 A 
ATOM     15  C   UNL A   1      34.194  19.332  24.505  1.00  0.00     0.119 A 
ATOM     16  C   UNL A   1      32.916  19.411  23.947  1.00  0.00     0.046 A 
ATOM     17  C   UNL A   1      34.929  20.497  24.692  1.00  0.00     0.052 A 
ATOM     18  C   UNL A   1      32.368  20.649  23.602  1.00  0.00     0.004 A 
ATOM     19  C   UNL A   1      33.113  21.811  23.784  1.00  0.00     0.006 A 
BRANCH  15  20
ATOM     20  O   UNL A   1      34.664  18.077  24.777  1.00  0.00    -0.497 OA
ATOM     21  C   UNL A   1      34.193  17.046  23.909  1.00  0.00     0.278 C 
ENDBRANCH  15  20
ENDBRANCH  10  14
BRANCH  12  22
ATOM     22  C   UNL A   1      38.453  23.029  26.252  1.00  0.00    -0.002 A 
ATOM     23  C   UNL A   1      38.864  24.605  26.900  1.00  0.00     0.010 A 
ATOM     24  C   UNL A   1      39.457  21.573  26.437  1.00  0.00     0.013 A 
ATOM     25  C   UNL A   1      40.379  24.769  27.780  1.00  0.00     0.001 A 
ATOM     26  C   UNL A   1      41.007  21.589  27.322  1.00  0.00    -0.050 A 
ATOM     27  C   UNL A   1      41.544  23.148  28.066  1.00  0.00     0.003 A 
ATOM     28  C   UNL A   1      41.983  20.460  27.183  1.00  0.00     0.044 C 
ENDBRANCH  12  22
ENDBRANCH   7   9
ENDBRANCH   6   7
ENDBRANCH   5   6
ENDBRANCH   1   5
BRANCH   3  29
ATOM     29  C   UNL A   1      31.710  29.047  24.676  1.00  0.00     0.117 C 
BRANCH  29  30
ATOM     30  C   UNL A   1      32.251  30.291  25.400  1.00  0.00     0.042 C 
BRANCH  30  31
ATOM     31  C   UNL A   1      31.469  31.050  26.487  1.00  0.00     0.118 C 
BRANCH  31  32
ATOM     32  N   UNL A   1      31.965  32.356  26.859  1.00  0.00    -0.352 N 
ATOM     33  C   UNL A   1      33.123  32.744  27.502  1.00  0.00     0.251 C 
ATOM     34  H   UNL A   1      31.371  33.100  26.608  1.00  0.00     0.163 HD
ATOM     35  O   UNL A   1      33.151  33.914  27.892  1.00  0.00    -0.269 OA
BRANCH  33  36
ATOM     36  C   UNL A   1      34.279  31.744  27.883  1.00  0.00     0.039 A 
ATOM     37  C   UNL A   1      35.674  32.850  28.192  1.00  0.00     0.014 A 
ATOM     38  C   UNL A   1      34.677  29.757  27.864  1.00  0.00     0.014 A 
ATOM     39  C   UNL A   1      37.266  32.150  28.501  1.00  0.00     0.010 A 
ATOM     40  C   UNL A   1      36.336  29.194  28.243  1.00  0.00     0.010 A 
ATOM     41  C   UNL A   1      37.583  30.398  28.588  1.00  0.00    -0.014 A 
BRANCH  41  42
ATOM     42  C   UNL A   1      38.764  29.908  29.399  1.00  0.00     0.031 A 
ATOM     43  C   UNL A   1      38.877  30.293  30.853  1.00  0.00     0.074 A 
ATOM     44  C   UNL A   1      39.843  29.336  28.801  1.00  0.00     0.049 A 
ATOM     45  N   UNL A   1      39.883  30.144  31.679  1.00  0.00    -0.248 NA
ATOM     46  C   UNL A   1      37.738  31.024  31.432  1.00  0.00     0.031 C 
ATOM     47  C   UNL A   1      40.006  29.035  27.374  1.00  0.00     0.029 A 
ATOM     48  N   UNL A   1      41.051  28.923  29.332  1.00  0.00    -0.354 N 
ATOM     49  C   UNL A   1      39.507  30.802  32.844  1.00  0.00     0.074 A 
ATOM     50  C   UNL A   1      38.264  31.479  32.557  1.00  0.00     0.031 C 
ATOM     51  C   UNL A   1      41.198  28.466  27.152  1.00  0.00     0.029 A 
ATOM     52  C   UNL A   1      41.914  28.369  28.408  1.00  0.00     0.049 A 
ATOM     53  H   UNL A   1      41.275  29.016  30.285  1.00  0.00     0.167 HD
ATOM     54  C   UNL A   1      40.085  30.783  34.068  1.00  0.00     0.031 A 
ATOM     55  C   UNL A   1      43.141  27.824  28.536  1.00  0.00     0.031 A 
ATOM     56  C   UNL A   1      41.296  30.071  34.365  1.00  0.00     0.049 A 
ATOM     57  C   UNL A   1      43.755  27.752  29.904  1.00  0.00     0.074 A 
ATOM     58  C   UNL A   1      41.911  29.878  35.588  1.00  0.00     0.029 A 
ATOM     59  N   UNL A   1      42.078  29.431  33.415  1.00  0.00    -0.354 N 
ATOM     60  N   UNL A   1      43.299  28.231  31.035  1.00  0.00    -0.248 NA
ATOM     61  C   UNL A   1      45.033  27.039  30.021  1.00  0.00     0.031 C 
ATOM     62  C   UNL A   1      43.102  29.179  35.367  1.00  0.00     0.029 A 
ATOM     63  C   UNL A   1      43.187  28.868  34.020  1.00  0.00     0.049 A 
ATOM     64  H   UNL A   1      41.873  29.385  32.452  1.00  0.00     0.167 HD
ATOM     65  C   UNL A   1      44.217  27.851  32.004  1.00  0.00     0.074 A 
ATOM     66  C   UNL A   1      45.245  27.086  31.329  1.00  0.00     0.031 C 
ATOM     67  C   UNL A   1      44.204  28.110  33.335  1.00  0.00     0.031 A 
BRANCH  54  68
ATOM     68  C   UNL A   1      39.374  31.535  35.167  1.00  0.00    -0.014 A 
ATOM     69  C   UNL A   1      39.718  32.865  35.477  1.00  0.00     0.009 A 
ATOM     70  C   UNL A   1      38.392  30.900  35.938  1.00  0.00     0.009 A 
ATOM     71  C   UNL A   1      39.175  33.500  36.595  1.00  0.00     0.001 A 
ATOM     72  C   UNL A   1      37.810  31.556  37.025  1.00  0.00     0.001 A 
ATOM     73  C   UNL A   1      38.222  32.843  37.369  1.00  0.00     0.000 A 
ENDBRANCH  54  68
BRANCH  55  74
ATOM     74  C   UNL A   1      43.840  27.239  27.352  1.00  0.00    -0.014 A 
ATOM     75  C   UNL A   1      44.684  28.032  26.555  1.00  0.00     0.009 A 
ATOM     76  C   UNL A   1      43.677  25.887  27.012  1.00  0.00     0.009 A 
ATOM     77  C   UNL A   1      45.317  27.496  25.429  1.00  0.00     0.001 A 
ATOM     78  C   UNL A   1      44.338  25.344  25.904  1.00  0.00     0.001 A 
ATOM     79  C   UNL A   1      45.149  26.151  25.107  1.00  0.00     0.000 A 
ENDBRANCH  55  74
BRANCH  67  80
ATOM     80  C   UNL A   1      45.314  27.531  34.164  1.00  0.00    -0.014 A 
ATOM     81  C   UNL A   1      45.284  26.200  34.607  1.00  0.00     0.009 A 
ATOM     82  C   UNL A   1      46.444  28.317  34.444  1.00  0.00     0.009 A 
ATOM     83  C   UNL A   1      46.353  25.677  35.338  1.00  0.00     0.001 A 
ATOM     84  C   UNL A   1      47.526  27.780  35.140  1.00  0.00     0.001 A 
ATOM     85  C   UNL A   1      47.476  26.464  35.595  1.00  0.00     0.000 A 
ENDBRANCH  67  80
ENDBRANCH  41  42
ENDBRANCH  33  36
ENDBRANCH  31  32
ENDBRANCH  30  31
ENDBRANCH  29  30
ENDBRANCH   3  29
TORSDOF 16
ENDMDL
