MODEL 1
REMARK VINA RESULT:     -11.9      0.000      0.000
REMARK SMILES C[C@H]1CCCCN1C(=O)N1Cc2nc[nH]c2C[C@H]1C(=O)NCCCNC(=O)c1ccc(-c2c3nc(c(-c4ccccc4)c4ccc([nH]4)c(-c4ccccc4)c4nc(c(-c5ccccc5)c5ccc2[nH]5)C=C4)C=C3)cc1
REMARK SMILES IDX 23 1 22 2 21 3 19 4 20 5 18 7 10 8 11 9 12 10 17 11 13 12
REMARK SMILES IDX 16 13 14 14 15 15 8 17 9 18 7 19 1 20 2 21 3 22 4 23 6 24
REMARK SMILES IDX 5 25 24 26 25 27 26 28 27 30 28 31 29 32 75 33 30 34 74 35
REMARK SMILES IDX 31 36 32 37 33 38 68 39 34 40 73 41 67 42 69 43 35 44 72 45
REMARK SMILES IDX 66 46 65 47 36 49 58 50 43 51 57 52 44 53 47 54 56 55 70 56
REMARK SMILES IDX 45 57 46 58 55 60 71 61 48 62 37 63 38 64 42 65 39 66 41 67
REMARK SMILES IDX 40 68 59 69 60 70 64 71 61 72 63 73 62 74 49 75 50 76 54 77
REMARK SMILES IDX 51 78 53 79 52 80
REMARK H PARENT 21 6 15 16 25 29 69 48 47 59
REMARK Flexibility Score: inf
ROOT
ATOM      1  C   UNL A   1      31.953  30.974  26.537  1.00  0.00     0.042 C 
ENDROOT
BRANCH   1   2
ATOM      2  C   UNL A   1      31.739  29.625  27.215  1.00  0.00     0.117 C 
BRANCH   2   3
ATOM      3  N   UNL A   1      32.965  28.971  27.637  1.00  0.00    -0.354 N 
ATOM      4  C   UNL A   1      33.814  28.220  26.882  1.00  0.00     0.243 C 
ATOM      5  O   UNL A   1      35.001  28.583  26.920  1.00  0.00    -0.273 OA
ATOM      6  H   UNL A   1      33.211  29.085  28.583  1.00  0.00     0.163 HD
BRANCH   4   7
ATOM      7  C   UNL A   1      33.406  27.042  25.941  1.00  0.00     0.182 C 
ATOM      8  N   UNL A   1      32.126  26.282  26.189  1.00  0.00    -0.306 N 
ATOM      9  C   UNL A   1      30.872  26.805  25.571  1.00  0.00     0.180 C 
ATOM     10  C   UNL A   1      31.127  27.744  24.441  1.00  0.00     0.081 A 
ATOM     11  C   UNL A   1      33.629  27.488  24.462  1.00  0.00     0.091 C 
ATOM     12  N   UNL A   1      30.186  28.586  23.898  1.00  0.00    -0.240 NA
ATOM     13  C   UNL A   1      32.368  28.047  23.941  1.00  0.00     0.042 A 
ATOM     14  C   UNL A   1      30.852  29.376  23.082  1.00  0.00     0.197 A 
ATOM     15  N   UNL A   1      32.187  29.064  23.049  1.00  0.00    -0.348 N 
ATOM     16  H   UNL A   1      32.879  29.490  22.493  1.00  0.00     0.167 HD
BRANCH   8  17
ATOM     17  C   UNL A   1      32.115  24.902  26.300  1.00  0.00     0.321 C 
ATOM     18  O   UNL A   1      31.446  24.410  27.219  1.00  0.00    -0.248 OA
BRANCH  17  19
ATOM     19  N   UNL A   1      32.869  24.066  25.487  1.00  0.00    -0.322 N 
ATOM     20  C   UNL A   1      31.812  24.178  23.105  1.00  0.00     0.031 C 
ATOM     21  C   UNL A   1      32.931  23.774  24.028  1.00  0.00     0.083 C 
ATOM     22  C   UNL A   1      34.256  24.278  23.419  1.00  0.00     0.025 C 
ATOM     23  C   UNL A   1      35.456  23.676  24.139  1.00  0.00     0.004 C 
ATOM     24  C   UNL A   1      34.013  23.425  26.181  1.00  0.00     0.121 C 
ATOM     25  C   UNL A   1      35.351  23.935  25.634  1.00  0.00     0.022 C 
ENDBRANCH  17  19
ENDBRANCH   8  17
ENDBRANCH   4   7
ENDBRANCH   2   3
ENDBRANCH   1   2
BRANCH   1  26
ATOM     26  C   UNL A   1      32.949  31.834  27.272  1.00  0.00     0.118 C 
BRANCH  26  27
ATOM     27  N   UNL A   1      32.506  33.221  27.454  1.00  0.00    -0.352 N 
ATOM     28  C   UNL A   1      33.002  34.152  28.361  1.00  0.00     0.251 C 
ATOM     29  H   UNL A   1      31.775  33.528  26.869  1.00  0.00     0.163 HD
ATOM     30  O   UNL A   1      32.391  35.158  28.659  1.00  0.00    -0.269 OA
BRANCH  28  31
ATOM     31  C   UNL A   1      34.321  33.858  28.951  1.00  0.00     0.039 A 
ATOM     32  C   UNL A   1      34.477  33.094  30.109  1.00  0.00     0.014 A 
ATOM     33  C   UNL A   1      35.414  34.228  28.181  1.00  0.00     0.014 A 
ATOM     34  C   UNL A   1      35.752  32.625  30.415  1.00  0.00     0.010 A 
ATOM     35  C   UNL A   1      36.566  33.513  28.313  1.00  0.00     0.010 A 
ATOM     36  C   UNL A   1      36.788  32.812  29.484  1.00  0.00    -0.014 A 
BRANCH  36  37
ATOM     37  C   UNL A   1      38.102  32.206  29.632  1.00  0.00     0.031 A 
ATOM     38  C   UNL A   1      38.137  30.770  29.272  1.00  0.00     0.074 A 
ATOM     39  C   UNL A   1      39.221  32.929  29.867  1.00  0.00     0.049 A 
ATOM     40  N   UNL A   1      38.145  29.771  30.088  1.00  0.00    -0.248 NA
ATOM     41  C   UNL A   1      37.948  30.386  27.862  1.00  0.00     0.031 C 
ATOM     42  C   UNL A   1      39.377  34.393  29.920  1.00  0.00     0.029 A 
ATOM     43  N   UNL A   1      40.502  32.501  30.017  1.00  0.00    -0.354 N 
ATOM     44  C   UNL A   1      38.226  28.636  29.292  1.00  0.00     0.074 A 
ATOM     45  C   UNL A   1      37.873  29.057  27.961  1.00  0.00     0.031 C 
ATOM     46  C   UNL A   1      40.687  34.722  29.852  1.00  0.00     0.029 A 
ATOM     47  C   UNL A   1      41.465  33.505  29.957  1.00  0.00     0.049 A 
ATOM     48  H   UNL A   1      40.731  31.554  30.157  1.00  0.00     0.167 HD
ATOM     49  C   UNL A   1      38.888  27.532  29.738  1.00  0.00     0.031 A 
ATOM     50  C   UNL A   1      42.809  33.344  30.008  1.00  0.00     0.031 A 
ATOM     51  C   UNL A   1      39.177  27.642  31.150  1.00  0.00     0.049 A 
ATOM     52  C   UNL A   1      43.054  32.027  30.633  1.00  0.00     0.074 A 
ATOM     53  C   UNL A   1      38.438  27.731  32.311  1.00  0.00     0.029 A 
ATOM     54  N   UNL A   1      40.431  28.118  31.446  1.00  0.00    -0.354 N 
ATOM     55  N   UNL A   1      42.755  31.759  31.870  1.00  0.00    -0.248 NA
ATOM     56  C   UNL A   1      43.228  30.876  29.766  1.00  0.00     0.031 C 
ATOM     57  C   UNL A   1      39.168  28.625  33.151  1.00  0.00     0.029 A 
ATOM     58  C   UNL A   1      40.357  28.979  32.506  1.00  0.00     0.049 A 
ATOM     59  H   UNL A   1      41.257  27.877  30.968  1.00  0.00     0.167 HD
ATOM     60  C   UNL A   1      42.253  30.467  31.834  1.00  0.00     0.074 A 
ATOM     61  C   UNL A   1      42.702  29.929  30.550  1.00  0.00     0.031 C 
ATOM     62  C   UNL A   1      41.284  30.073  32.714  1.00  0.00     0.031 A 
BRANCH  49  63
ATOM     63  C   UNL A   1      39.723  26.637  28.845  1.00  0.00    -0.014 A 
ATOM     64  C   UNL A   1      40.838  27.203  28.197  1.00  0.00     0.009 A 
ATOM     65  C   UNL A   1      39.301  25.378  28.381  1.00  0.00     0.009 A 
ATOM     66  C   UNL A   1      41.433  26.585  27.090  1.00  0.00     0.001 A 
ATOM     67  C   UNL A   1      39.917  24.739  27.300  1.00  0.00     0.001 A 
ATOM     68  C   UNL A   1      40.965  25.357  26.636  1.00  0.00     0.000 A 
ENDBRANCH  49  63
BRANCH  50  69
ATOM     69  C   UNL A   1      43.885  34.092  29.324  1.00  0.00    -0.014 A 
ATOM     70  C   UNL A   1      43.927  34.167  27.920  1.00  0.00     0.009 A 
ATOM     71  C   UNL A   1      44.680  34.996  30.050  1.00  0.00     0.009 A 
ATOM     72  C   UNL A   1      44.693  35.145  27.271  1.00  0.00     0.001 A 
ATOM     73  C   UNL A   1      45.443  35.974  29.401  1.00  0.00     0.001 A 
ATOM     74  C   UNL A   1      45.436  36.060  28.013  1.00  0.00     0.000 A 
ENDBRANCH  50  69
BRANCH  62  75
ATOM     75  C   UNL A   1      41.029  30.958  33.911  1.00  0.00    -0.014 A 
ATOM     76  C   UNL A   1      40.138  32.046  33.911  1.00  0.00     0.009 A 
ATOM     77  C   UNL A   1      41.636  30.598  35.124  1.00  0.00     0.009 A 
ATOM     78  C   UNL A   1      39.886  32.765  35.087  1.00  0.00     0.001 A 
ATOM     79  C   UNL A   1      41.368  31.301  36.299  1.00  0.00     0.001 A 
ATOM     80  C   UNL A   1      40.498  32.387  36.281  1.00  0.00     0.000 A 
ENDBRANCH  62  75
ENDBRANCH  36  37
ENDBRANCH  28  31
ENDBRANCH  26  27
ENDBRANCH   1  26
TORSDOF 12
ENDMDL
MODEL 2
REMARK VINA RESULT:     -11.6      4.379      6.664
REMARK SMILES C[C@H]1CCCCN1C(=O)N1Cc2nc[nH]c2C[C@H]1C(=O)NCCCNC(=O)c1ccc(-c2c3nc(c(-c4ccccc4)c4ccc([nH]4)c(-c4ccccc4)c4nc(c(-c5ccccc5)c5ccc2[nH]5)C=C4)C=C3)cc1
REMARK SMILES IDX 23 1 22 2 21 3 19 4 20 5 18 7 10 8 11 9 12 10 17 11 13 12
REMARK SMILES IDX 16 13 14 14 15 15 8 17 9 18 7 19 1 20 2 21 3 22 4 23 6 24
REMARK SMILES IDX 5 25 24 26 25 27 26 28 27 30 28 31 29 32 75 33 30 34 74 35
REMARK SMILES IDX 31 36 32 37 33 38 68 39 34 40 73 41 67 42 69 43 35 44 72 45
REMARK SMILES IDX 66 46 65 47 36 49 58 50 43 51 57 52 44 53 47 54 56 55 70 56
REMARK SMILES IDX 45 57 46 58 55 60 71 61 48 62 37 63 38 64 42 65 39 66 41 67
REMARK SMILES IDX 40 68 59 69 60 70 64 71 61 72 63 73 62 74 49 75 50 76 54 77
REMARK SMILES IDX 51 78 53 79 52 80
REMARK H PARENT 21 6 15 16 25 29 69 48 47 59
REMARK Flexibility Score: inf
ROOT
ATOM      1  C   UNL A   1      34.764  30.286  27.287  1.00  0.00     0.042 C 
ENDROOT
BRANCH   1   2
ATOM      2  C   UNL A   1      34.025  29.354  26.332  1.00  0.00     0.117 C 
BRANCH   2   3
ATOM      3  N   UNL A   1      32.632  29.133  26.676  1.00  0.00    -0.354 N 
ATOM      4  C   UNL A   1      32.007  27.946  26.910  1.00  0.00     0.243 C 
ATOM      5  O   UNL A   1      31.398  27.883  27.991  1.00  0.00    -0.273 OA
ATOM      6  H   UNL A   1      32.072  29.940  26.749  1.00  0.00     0.163 HD
BRANCH   4   7
ATOM      7  C   UNL A   1      32.073  26.680  25.997  1.00  0.00     0.182 C 
ATOM      8  N   UNL A   1      31.205  25.482  26.297  1.00  0.00    -0.306 N 
ATOM      9  C   UNL A   1      29.830  25.453  25.716  1.00  0.00     0.180 C 
ATOM     10  C   UNL A   1      29.662  26.389  24.567  1.00  0.00     0.081 A 
ATOM     11  C   UNL A   1      32.061  27.143  24.507  1.00  0.00     0.091 C 
ATOM     12  N   UNL A   1      28.452  26.779  24.047  1.00  0.00    -0.240 NA
ATOM     13  C   UNL A   1      30.669  27.146  24.023  1.00  0.00     0.042 A 
ATOM     14  C   UNL A   1      28.729  27.748  23.200  1.00  0.00     0.197 A 
ATOM     15  N   UNL A   1      30.077  27.987  23.125  1.00  0.00    -0.348 N 
ATOM     16  H   UNL A   1      30.529  28.639  22.541  1.00  0.00     0.167 HD
BRANCH   8  17
ATOM     17  C   UNL A   1      31.743  24.213  26.423  1.00  0.00     0.321 C 
ATOM     18  O   UNL A   1      31.666  23.670  27.535  1.00  0.00    -0.248 OA
BRANCH  17  19
ATOM     19  N   UNL A   1      32.420  23.566  25.398  1.00  0.00    -0.322 N 
ATOM     20  C   UNL A   1      34.864  24.479  25.415  1.00  0.00     0.031 C 
ATOM     21  C   UNL A   1      33.836  23.483  24.945  1.00  0.00     0.083 C 
ATOM     22  C   UNL A   1      34.407  22.068  25.171  1.00  0.00     0.025 C 
ATOM     23  C   UNL A   1      33.557  21.014  24.472  1.00  0.00     0.004 C 
ATOM     24  C   UNL A   1      31.595  22.573  24.667  1.00  0.00     0.121 C 
ATOM     25  C   UNL A   1      32.105  21.146  24.903  1.00  0.00     0.022 C 
ENDBRANCH  17  19
ENDBRANCH   8  17
ENDBRANCH   4   7
ENDBRANCH   2   3
ENDBRANCH   1   2
BRANCH   1  26
ATOM     26  C   UNL A   1      36.131  29.767  27.652  1.00  0.00     0.118 C 
BRANCH  26  27
ATOM     27  N   UNL A   1      36.905  30.690  28.491  1.00  0.00    -0.352 N 
ATOM     28  C   UNL A   1      38.195  30.506  28.976  1.00  0.00     0.251 C 
ATOM     29  H   UNL A   1      36.460  31.533  28.739  1.00  0.00     0.163 HD
ATOM     30  O   UNL A   1      38.642  31.159  29.897  1.00  0.00    -0.269 OA
BRANCH  28  31
ATOM     31  C   UNL A   1      39.007  29.471  28.309  1.00  0.00     0.039 A 
ATOM     32  C   UNL A   1      39.546  29.641  27.033  1.00  0.00     0.014 A 
ATOM     33  C   UNL A   1      39.363  28.390  29.102  1.00  0.00     0.014 A 
ATOM     34  C   UNL A   1      40.531  28.749  26.616  1.00  0.00     0.010 A 
ATOM     35  C   UNL A   1      40.524  27.738  28.818  1.00  0.00     0.010 A 
ATOM     36  C   UNL A   1      41.041  27.818  27.537  1.00  0.00    -0.014 A 
BRANCH  36  37
ATOM     37  C   UNL A   1      42.188  26.970  27.252  1.00  0.00     0.031 A 
ATOM     38  C   UNL A   1      41.863  25.526  27.207  1.00  0.00     0.074 A 
ATOM     39  C   UNL A   1      43.384  27.464  26.857  1.00  0.00     0.049 A 
ATOM     40  N   UNL A   1      42.092  24.656  28.132  1.00  0.00    -0.248 NA
ATOM     41  C   UNL A   1      41.023  25.021  26.108  1.00  0.00     0.031 C 
ATOM     42  C   UNL A   1      43.747  28.857  26.545  1.00  0.00     0.029 A 
ATOM     43  N   UNL A   1      44.528  26.798  26.552  1.00  0.00    -0.354 N 
ATOM     44  C   UNL A   1      41.658  23.441  27.620  1.00  0.00     0.074 A 
ATOM     45  C   UNL A   1      40.817  23.760  26.495  1.00  0.00     0.031 C 
ATOM     46  C   UNL A   1      44.925  28.892  25.882  1.00  0.00     0.029 A 
ATOM     47  C   UNL A   1      45.494  27.560  25.902  1.00  0.00     0.049 A 
ATOM     48  H   UNL A   1      44.663  25.847  26.773  1.00  0.00     0.167 HD
ATOM     49  C   UNL A   1      42.290  22.285  27.968  1.00  0.00     0.031 A 
ATOM     50  C   UNL A   1      46.687  27.126  25.428  1.00  0.00     0.031 A 
ATOM     51  C   UNL A   1      43.182  22.505  29.084  1.00  0.00     0.049 A 
ATOM     52  C   UNL A   1      46.998  25.875  26.150  1.00  0.00     0.074 A 
ATOM     53  C   UNL A   1      43.049  22.888  30.401  1.00  0.00     0.029 A 
ATOM     54  N   UNL A   1      44.491  22.737  28.737  1.00  0.00    -0.354 N 
ATOM     55  N   UNL A   1      47.241  25.829  27.427  1.00  0.00    -0.248 NA
ATOM     56  C   UNL A   1      46.613  24.615  25.539  1.00  0.00     0.031 C 
ATOM     57  C   UNL A   1      44.190  23.705  30.669  1.00  0.00     0.029 A 
ATOM     58  C   UNL A   1      45.010  23.718  29.537  1.00  0.00     0.049 A 
ATOM     59  H   UNL A   1      44.981  22.271  28.021  1.00  0.00     0.167 HD
ATOM     60  C   UNL A   1      46.602  24.678  27.862  1.00  0.00     0.074 A 
ATOM     61  C   UNL A   1      46.361  23.905  26.644  1.00  0.00     0.031 C 
ATOM     62  C   UNL A   1      46.075  24.608  29.121  1.00  0.00     0.031 A 
BRANCH  49  63
ATOM     63  C   UNL A   1      42.515  21.132  27.012  1.00  0.00    -0.014 A 
ATOM     64  C   UNL A   1      42.057  19.856  27.394  1.00  0.00     0.009 A 
ATOM     65  C   UNL A   1      43.403  21.178  25.922  1.00  0.00     0.009 A 
ATOM     66  C   UNL A   1      42.533  18.692  26.778  1.00  0.00     0.001 A 
ATOM     67  C   UNL A   1      43.852  20.020  25.280  1.00  0.00     0.001 A 
ATOM     68  C   UNL A   1      43.440  18.774  25.728  1.00  0.00     0.000 A 
ENDBRANCH  49  63
BRANCH  50  69
ATOM     69  C   UNL A   1      47.444  27.541  24.228  1.00  0.00    -0.014 A 
ATOM     70  C   UNL A   1      48.640  26.893  23.874  1.00  0.00     0.009 A 
ATOM     71  C   UNL A   1      46.829  28.352  23.258  1.00  0.00     0.009 A 
ATOM     72  C   UNL A   1      49.169  27.009  22.581  1.00  0.00     0.001 A 
ATOM     73  C   UNL A   1      47.357  28.466  21.967  1.00  0.00     0.001 A 
ATOM     74  C   UNL A   1      48.517  27.780  21.623  1.00  0.00     0.000 A 
ENDBRANCH  50  69
BRANCH  62  75
ATOM     75  C   UNL A   1      46.497  25.668  30.112  1.00  0.00    -0.014 A 
ATOM     76  C   UNL A   1      47.786  25.761  30.664  1.00  0.00     0.009 A 
ATOM     77  C   UNL A   1      45.575  26.683  30.406  1.00  0.00     0.009 A 
ATOM     78  C   UNL A   1      48.129  26.827  31.507  1.00  0.00     0.001 A 
ATOM     79  C   UNL A   1      45.922  27.755  31.228  1.00  0.00     0.001 A 
ATOM     80  C   UNL A   1      47.197  27.825  31.784  1.00  0.00     0.000 A 
ENDBRANCH  62  75
ENDBRANCH  36  37
ENDBRANCH  28  31
ENDBRANCH  26  27
ENDBRANCH   1  26
TORSDOF 12
ENDMDL
MODEL 3
REMARK VINA RESULT:     -11.5      3.603      5.393
REMARK SMILES C[C@H]1CCCCN1C(=O)N1Cc2nc[nH]c2C[C@H]1C(=O)NCCCNC(=O)c1ccc(-c2c3nc(c(-c4ccccc4)c4ccc([nH]4)c(-c4ccccc4)c4nc(c(-c5ccccc5)c5ccc2[nH]5)C=C4)C=C3)cc1
REMARK SMILES IDX 23 1 22 2 21 3 19 4 20 5 18 7 10 8 11 9 12 10 17 11 13 12
REMARK SMILES IDX 16 13 14 14 15 15 8 17 9 18 7 19 1 20 2 21 3 22 4 23 6 24
REMARK SMILES IDX 5 25 24 26 25 27 26 28 27 30 28 31 29 32 75 33 30 34 74 35
REMARK SMILES IDX 31 36 32 37 33 38 68 39 34 40 73 41 67 42 69 43 35 44 72 45
REMARK SMILES IDX 66 46 65 47 36 49 58 50 43 51 57 52 44 53 47 54 56 55 70 56
REMARK SMILES IDX 45 57 46 58 55 60 71 61 48 62 37 63 38 64 42 65 39 66 41 67
REMARK SMILES IDX 40 68 59 69 60 70 64 71 61 72 63 73 62 74 49 75 50 76 54 77
REMARK SMILES IDX 51 78 53 79 52 80
REMARK H PARENT 21 6 15 16 25 29 69 48 47 59
REMARK Flexibility Score: inf
ROOT
ATOM      1  C   UNL A   1      34.423  30.096  27.236  1.00  0.00     0.042 C 
ENDROOT
BRANCH   1   2
ATOM      2  C   UNL A   1      34.262  28.589  27.069  1.00  0.00     0.117 C 
BRANCH   2   3
ATOM      3  N   UNL A   1      32.909  28.168  26.755  1.00  0.00    -0.354 N 
ATOM      4  C   UNL A   1      32.510  27.271  25.809  1.00  0.00     0.243 C 
ATOM      5  O   UNL A   1      31.784  26.357  26.233  1.00  0.00    -0.273 OA
ATOM      6  H   UNL A   1      32.193  28.580  27.290  1.00  0.00     0.163 HD
BRANCH   4   7
ATOM      7  C   UNL A   1      32.955  27.260  24.312  1.00  0.00     0.182 C 
ATOM      8  N   UNL A   1      32.468  26.175  23.384  1.00  0.00    -0.306 N 
ATOM      9  C   UNL A   1      31.170  26.388  22.679  1.00  0.00     0.180 C 
ATOM     10  C   UNL A   1      30.754  27.820  22.643  1.00  0.00     0.081 A 
ATOM     11  C   UNL A   1      32.831  28.710  23.748  1.00  0.00     0.091 C 
ATOM     12  N   UNL A   1      29.490  28.259  22.330  1.00  0.00    -0.240 NA
ATOM     13  C   UNL A   1      31.506  28.864  23.122  1.00  0.00     0.042 A 
ATOM     14  C   UNL A   1      29.487  29.546  22.610  1.00  0.00     0.197 A 
ATOM     15  N   UNL A   1      30.708  29.970  23.067  1.00  0.00    -0.348 N 
ATOM     16  H   UNL A   1      30.960  30.891  23.310  1.00  0.00     0.167 HD
BRANCH   8  17
ATOM     17  C   UNL A   1      33.350  25.418  22.632  1.00  0.00     0.321 C 
ATOM     18  O   UNL A   1      33.732  25.892  21.553  1.00  0.00    -0.248 OA
BRANCH  17  19
ATOM     19  N   UNL A   1      33.758  24.140  22.993  1.00  0.00    -0.322 N 
ATOM     20  C   UNL A   1      35.122  24.381  25.203  1.00  0.00     0.031 C 
ATOM     21  C   UNL A   1      34.415  23.530  24.181  1.00  0.00     0.083 C 
ATOM     22  C   UNL A   1      33.445  22.593  24.930  1.00  0.00     0.025 C 
ATOM     23  C   UNL A   1      32.899  21.513  24.005  1.00  0.00     0.004 C 
ATOM     24  C   UNL A   1      33.281  23.077  22.074  1.00  0.00     0.121 C 
ATOM     25  C   UNL A   1      32.278  22.149  22.771  1.00  0.00     0.022 C 
ENDBRANCH  17  19
ENDBRANCH   8  17
ENDBRANCH   4   7
ENDBRANCH   2   3
ENDBRANCH   1   2
BRANCH   1  26
ATOM     26  C   UNL A   1      35.763  30.469  27.817  1.00  0.00     0.118 C 
BRANCH  26  27
ATOM     27  N   UNL A   1      35.813  30.380  29.281  1.00  0.00    -0.352 N 
ATOM     28  C   UNL A   1      36.644  29.571  30.048  1.00  0.00     0.251 C 
ATOM     29  H   UNL A   1      35.187  30.958  29.777  1.00  0.00     0.163 HD
ATOM     30  O   UNL A   1      36.419  29.330  31.216  1.00  0.00    -0.269 OA
BRANCH  28  31
ATOM     31  C   UNL A   1      37.829  29.014  29.369  1.00  0.00     0.039 A 
ATOM     32  C   UNL A   1      38.470  29.665  28.314  1.00  0.00     0.014 A 
ATOM     33  C   UNL A   1      38.384  27.891  29.965  1.00  0.00     0.014 A 
ATOM     34  C   UNL A   1      39.735  29.217  27.942  1.00  0.00     0.010 A 
ATOM     35  C   UNL A   1      39.720  27.674  29.810  1.00  0.00     0.010 A 
ATOM     36  C   UNL A   1      40.369  28.238  28.726  1.00  0.00    -0.014 A 
BRANCH  36  37
ATOM     37  C   UNL A   1      41.753  27.838  28.525  1.00  0.00     0.031 A 
ATOM     38  C   UNL A   1      41.903  26.604  27.722  1.00  0.00     0.074 A 
ATOM     39  C   UNL A   1      42.800  28.629  28.856  1.00  0.00     0.049 A 
ATOM     40  N   UNL A   1      42.159  25.420  28.168  1.00  0.00    -0.248 NA
ATOM     41  C   UNL A   1      41.545  26.638  26.293  1.00  0.00     0.031 C 
ATOM     42  C   UNL A   1      42.785  30.014  29.358  1.00  0.00     0.029 A 
ATOM     43  N   UNL A   1      44.130  28.391  28.718  1.00  0.00    -0.354 N 
ATOM     44  C   UNL A   1      42.250  24.607  27.046  1.00  0.00     0.074 A 
ATOM     45  C   UNL A   1      41.646  25.347  25.968  1.00  0.00     0.031 C 
ATOM     46  C   UNL A   1      44.019  30.557  29.256  1.00  0.00     0.029 A 
ATOM     47  C   UNL A   1      44.944  29.509  28.878  1.00  0.00     0.049 A 
ATOM     48  H   UNL A   1      44.491  27.496  28.520  1.00  0.00     0.167 HD
ATOM     49  C   UNL A   1      43.101  23.544  27.039  1.00  0.00     0.031 A 
ATOM     50  C   UNL A   1      46.290  29.562  28.726  1.00  0.00     0.031 A 
ATOM     51  C   UNL A   1      43.591  23.269  28.370  1.00  0.00     0.049 A 
ATOM     52  C   UNL A   1      46.785  28.176  28.864  1.00  0.00     0.074 A 
ATOM     53  C   UNL A   1      43.037  22.881  29.571  1.00  0.00     0.029 A 
ATOM     54  N   UNL A   1      44.810  23.831  28.663  1.00  0.00    -0.354 N 
ATOM     55  N   UNL A   1      46.717  27.502  29.975  1.00  0.00    -0.248 NA
ATOM     56  C   UNL A   1      46.959  27.384  27.659  1.00  0.00     0.031 C 
ATOM     57  C   UNL A   1      43.777  23.587  30.569  1.00  0.00     0.029 A 
ATOM     58  C   UNL A   1      44.799  24.308  29.945  1.00  0.00     0.049 A 
ATOM     59  H   UNL A   1      45.574  23.884  28.045  1.00  0.00     0.167 HD
ATOM     60  C   UNL A   1      46.375  26.218  29.582  1.00  0.00     0.074 A 
ATOM     61  C   UNL A   1      46.679  26.173  28.151  1.00  0.00     0.031 C 
ATOM     62  C   UNL A   1      45.609  25.424  30.389  1.00  0.00     0.031 A 
BRANCH  49  63
ATOM     63  C   UNL A   1      43.888  23.109  25.819  1.00  0.00    -0.014 A 
ATOM     64  C   UNL A   1      43.886  21.741  25.482  1.00  0.00     0.009 A 
ATOM     65  C   UNL A   1      44.855  23.909  25.182  1.00  0.00     0.009 A 
ATOM     66  C   UNL A   1      44.853  21.195  24.629  1.00  0.00     0.001 A 
ATOM     67  C   UNL A   1      45.799  23.373  24.301  1.00  0.00     0.001 A 
ATOM     68  C   UNL A   1      45.817  22.011  24.047  1.00  0.00     0.000 A 
ENDBRANCH  49  63
BRANCH  50  69
ATOM     69  C   UNL A   1      47.148  30.647  28.204  1.00  0.00    -0.014 A 
ATOM     70  C   UNL A   1      46.814  31.316  27.014  1.00  0.00     0.009 A 
ATOM     71  C   UNL A   1      48.113  31.238  29.038  1.00  0.00     0.009 A 
ATOM     72  C   UNL A   1      47.384  32.557  26.699  1.00  0.00     0.001 A 
ATOM     73  C   UNL A   1      48.681  32.479  28.723  1.00  0.00     0.001 A 
ATOM     74  C   UNL A   1      48.303  33.147  27.563  1.00  0.00     0.000 A 
ENDBRANCH  50  69
BRANCH  62  75
ATOM     75  C   UNL A   1      45.439  25.853  31.828  1.00  0.00    -0.014 A 
ATOM     76  C   UNL A   1      46.312  25.488  32.868  1.00  0.00     0.009 A 
ATOM     77  C   UNL A   1      44.411  26.764  32.114  1.00  0.00     0.009 A 
ATOM     78  C   UNL A   1      46.140  26.000  34.160  1.00  0.00     0.001 A 
ATOM     79  C   UNL A   1      44.253  27.291  33.397  1.00  0.00     0.001 A 
ATOM     80  C   UNL A   1      45.113  26.905  34.421  1.00  0.00     0.000 A 
ENDBRANCH  62  75
ENDBRANCH  36  37
ENDBRANCH  28  31
ENDBRANCH  26  27
ENDBRANCH   1  26
TORSDOF 12
ENDMDL
