MODEL 1
REMARK VINA RESULT:     -12.7      0.000      0.000
REMARK SMILES Cc1ccc(-c2cc(Cl)ccc2Cl)c(C(=O)NCCCNC(=O)c2ccc(-c3c4nc(c(-c5ccccc5)c5ccc([nH]5)c(-c5ccccc5)c5nc(c(-c6ccccc6)c6ccc3[nH]6)C=C5)C=C4)cc2)c1
REMARK SMILES IDX 19 1 18 2 17 3 15 4 16 5 14 7 1 8 2 9 3 10 72 11 4 12 5 13
REMARK SMILES IDX 6 14 7 15 12 16 8 17 11 18 13 19 9 20 10 21 20 22 21 23
REMARK SMILES IDX 22 24 23 26 24 27 25 28 71 29 26 30 70 31 27 32 28 33 29 34
REMARK SMILES IDX 64 35 30 36 69 37 63 38 65 39 31 40 68 41 62 42 61 43 32 45
REMARK SMILES IDX 54 46 39 47 53 48 40 49 43 50 52 51 66 52 41 53 42 54 51 56
REMARK SMILES IDX 67 57 44 58 33 59 34 60 38 61 35 62 37 63 36 64 55 65 56 66
REMARK SMILES IDX 60 67 57 68 59 69 58 70 45 71 46 72 50 73 47 74 49 75 48 76
REMARK H PARENT 17 6 21 25 65 44 43 55
REMARK Flexibility Score: inf
ROOT
ATOM      1  C   UNL A   1      32.573  30.486  27.305  1.00  0.00     0.042 C 
ENDROOT
BRANCH   1   2
ATOM      2  C   UNL A   1      31.963  29.250  26.639  1.00  0.00     0.118 C 
BRANCH   2   3
ATOM      3  N   UNL A   1      32.518  29.023  25.314  1.00  0.00    -0.352 N 
ATOM      4  C   UNL A   1      31.990  28.881  24.049  1.00  0.00     0.251 C 
ATOM      5  O   UNL A   1      32.839  28.763  23.166  1.00  0.00    -0.269 OA
ATOM      6  H   UNL A   1      33.501  28.955  25.322  1.00  0.00     0.163 HD
BRANCH   4   7
ATOM      7  C   UNL A   1      30.514  28.853  23.709  1.00  0.00     0.047 A 
ATOM      8  C   UNL A   1      27.715  31.376  22.984  1.00  0.00     0.044 C 
ATOM      9  C   UNL A   1      28.423  30.068  23.191  1.00  0.00    -0.050 A 
ATOM     10  C   UNL A   1      27.742  28.867  23.068  1.00  0.00     0.004 A 
ATOM     11  C   UNL A   1      29.787  30.040  23.517  1.00  0.00     0.018 A 
ATOM     12  C   UNL A   1      28.418  27.669  23.287  1.00  0.00     0.010 A 
ATOM     13  C   UNL A   1      29.797  27.629  23.610  1.00  0.00    -0.004 A 
BRANCH  13  14
ATOM     14  C   UNL A   1      30.376  26.286  23.841  1.00  0.00     0.003 A 
ATOM     15  C   UNL A   1      30.114  25.623  25.058  1.00  0.00     0.030 A 
ATOM     16  C   UNL A   1      31.146  25.607  22.875  1.00  0.00     0.049 A 
ATOM     17  C   UNL A   1      30.637  24.354  25.312  1.00  0.00     0.041 A 
ATOM     18  C   UNL A   1      31.645  24.322  23.125  1.00  0.00     0.023 A 
ATOM     19  Cl  UNL A   1      31.509  26.312  21.335  1.00  0.00    -0.084 Cl
ATOM     20  Cl  UNL A   1      30.343  23.594  26.828  1.00  0.00    -0.084 Cl
ATOM     21  C   UNL A   1      31.398  23.699  24.348  1.00  0.00     0.022 A 
ENDBRANCH  13  14
ENDBRANCH   4   7
ENDBRANCH   2   3
ENDBRANCH   1   2
BRANCH   1  22
ATOM     22  C   UNL A   1      34.090  30.537  27.238  1.00  0.00     0.118 C 
BRANCH  22  23
ATOM     23  N   UNL A   1      34.690  31.477  28.179  1.00  0.00    -0.352 N 
ATOM     24  C   UNL A   1      35.856  31.343  28.916  1.00  0.00     0.251 C 
ATOM     25  H   UNL A   1      34.201  32.321  28.308  1.00  0.00     0.163 HD
ATOM     26  O   UNL A   1      36.222  32.230  29.667  1.00  0.00    -0.269 OA
BRANCH  24  27
ATOM     27  C   UNL A   1      36.719  30.164  28.668  1.00  0.00     0.039 A 
ATOM     28  C   UNL A   1      36.905  29.271  29.727  1.00  0.00     0.014 A 
ATOM     29  C   UNL A   1      37.518  30.095  27.530  1.00  0.00     0.014 A 
ATOM     30  C   UNL A   1      38.058  28.496  29.758  1.00  0.00     0.010 A 
ATOM     31  C   UNL A   1      38.710  29.407  27.606  1.00  0.00     0.010 A 
ATOM     32  C   UNL A   1      39.010  28.669  28.756  1.00  0.00    -0.014 A 
BRANCH  32  33
ATOM     33  C   UNL A   1      40.389  28.222  28.894  1.00  0.00     0.031 A 
ATOM     34  C   UNL A   1      40.805  26.915  28.360  1.00  0.00     0.074 A 
ATOM     35  C   UNL A   1      41.293  29.040  29.476  1.00  0.00     0.049 A 
ATOM     36  N   UNL A   1      41.835  26.255  28.771  1.00  0.00    -0.248 NA
ATOM     37  C   UNL A   1      40.032  26.209  27.345  1.00  0.00     0.031 C 
ATOM     38  C   UNL A   1      42.748  28.915  29.474  1.00  0.00     0.029 A 
ATOM     39  N   UNL A   1      41.032  30.053  30.400  1.00  0.00    -0.354 N 
ATOM     40  C   UNL A   1      42.022  25.204  27.906  1.00  0.00     0.074 A 
ATOM     41  C   UNL A   1      40.829  25.167  27.093  1.00  0.00     0.031 C 
ATOM     42  C   UNL A   1      43.242  29.612  30.509  1.00  0.00     0.029 A 
ATOM     43  C   UNL A   1      42.112  30.068  31.302  1.00  0.00     0.049 A 
ATOM     44  H   UNL A   1      40.244  30.644  30.419  1.00  0.00     0.167 HD
ATOM     45  C   UNL A   1      43.227  24.570  27.874  1.00  0.00     0.031 A 
ATOM     46  C   UNL A   1      41.930  29.788  32.626  1.00  0.00     0.031 A 
ATOM     47  C   UNL A   1      44.129  25.063  28.911  1.00  0.00     0.049 A 
ATOM     48  C   UNL A   1      42.720  28.592  33.111  1.00  0.00     0.074 A 
ATOM     49  C   UNL A   1      45.170  25.978  28.899  1.00  0.00     0.029 A 
ATOM     50  N   UNL A   1      43.814  24.841  30.245  1.00  0.00    -0.354 N 
ATOM     51  N   UNL A   1      43.205  27.671  32.325  1.00  0.00    -0.248 NA
ATOM     52  C   UNL A   1      42.980  28.315  34.522  1.00  0.00     0.031 C 
ATOM     53  C   UNL A   1      45.429  26.363  30.241  1.00  0.00     0.029 A 
ATOM     54  C   UNL A   1      44.569  25.657  31.064  1.00  0.00     0.049 A 
ATOM     55  H   UNL A   1      43.147  24.190  30.564  1.00  0.00     0.167 HD
ATOM     56  C   UNL A   1      43.821  26.706  33.077  1.00  0.00     0.074 A 
ATOM     57  C   UNL A   1      43.663  27.158  34.447  1.00  0.00     0.031 C 
ATOM     58  C   UNL A   1      44.396  25.606  32.508  1.00  0.00     0.031 A 
BRANCH  45  59
ATOM     59  C   UNL A   1      43.679  23.722  26.708  1.00  0.00    -0.014 A 
ATOM     60  C   UNL A   1      43.269  22.377  26.630  1.00  0.00     0.009 A 
ATOM     61  C   UNL A   1      44.554  24.155  25.700  1.00  0.00     0.009 A 
ATOM     62  C   UNL A   1      43.785  21.497  25.670  1.00  0.00     0.001 A 
ATOM     63  C   UNL A   1      45.110  23.273  24.762  1.00  0.00     0.001 A 
ATOM     64  C   UNL A   1      44.733  21.937  24.755  1.00  0.00     0.000 A 
ENDBRANCH  45  59
BRANCH  46  65
ATOM     65  C   UNL A   1      40.585  30.169  33.144  1.00  0.00    -0.014 A 
ATOM     66  C   UNL A   1      40.276  31.539  33.270  1.00  0.00     0.009 A 
ATOM     67  C   UNL A   1      39.535  29.242  33.171  1.00  0.00     0.009 A 
ATOM     68  C   UNL A   1      38.948  31.974  33.303  1.00  0.00     0.001 A 
ATOM     69  C   UNL A   1      38.206  29.683  33.221  1.00  0.00     0.001 A 
ATOM     70  C   UNL A   1      37.912  31.046  33.251  1.00  0.00     0.000 A 
ENDBRANCH  46  65
BRANCH  58  71
ATOM     71  C   UNL A   1      44.903  24.390  33.240  1.00  0.00    -0.014 A 
ATOM     72  C   UNL A   1      46.189  24.275  33.783  1.00  0.00     0.009 A 
ATOM     73  C   UNL A   1      43.994  23.348  33.535  1.00  0.00     0.009 A 
ATOM     74  C   UNL A   1      46.559  23.158  34.548  1.00  0.00     0.001 A 
ATOM     75  C   UNL A   1      44.344  22.257  34.333  1.00  0.00     0.001 A 
ATOM     76  C   UNL A   1      45.634  22.157  34.832  1.00  0.00     0.000 A 
ENDBRANCH  58  71
ENDBRANCH  32  33
ENDBRANCH  24  27
ENDBRANCH  22  23
ENDBRANCH   1  22
TORSDOF 11
ENDMDL
MODEL 2
REMARK VINA RESULT:     -12.7      4.145      9.369
REMARK SMILES Cc1ccc(-c2cc(Cl)ccc2Cl)c(C(=O)NCCCNC(=O)c2ccc(-c3c4nc(c(-c5ccccc5)c5ccc([nH]5)c(-c5ccccc5)c5nc(c(-c6ccccc6)c6ccc3[nH]6)C=C5)C=C4)cc2)c1
REMARK SMILES IDX 19 1 18 2 17 3 15 4 16 5 14 7 1 8 2 9 3 10 72 11 4 12 5 13
REMARK SMILES IDX 6 14 7 15 12 16 8 17 11 18 13 19 9 20 10 21 20 22 21 23
REMARK SMILES IDX 22 24 23 26 24 27 25 28 71 29 26 30 70 31 27 32 28 33 29 34
REMARK SMILES IDX 64 35 30 36 69 37 63 38 65 39 31 40 68 41 62 42 61 43 32 45
REMARK SMILES IDX 54 46 39 47 53 48 40 49 43 50 52 51 66 52 41 53 42 54 51 56
REMARK SMILES IDX 67 57 44 58 33 59 34 60 38 61 35 62 37 63 36 64 55 65 56 66
REMARK SMILES IDX 60 67 57 68 59 69 58 70 45 71 46 72 50 73 47 74 49 75 48 76
REMARK H PARENT 17 6 21 25 65 44 43 55
REMARK Flexibility Score: inf
ROOT
ATOM      1  C   UNL A   1      38.501  21.489  25.568  1.00  0.00     0.042 C 
ENDROOT
BRANCH   1   2
ATOM      2  C   UNL A   1      37.087  21.435  24.984  1.00  0.00     0.118 C 
BRANCH   2   3
ATOM      3  N   UNL A   1      36.072  21.606  26.013  1.00  0.00    -0.352 N 
ATOM      4  C   UNL A   1      34.747  21.250  26.140  1.00  0.00     0.251 C 
ATOM      5  O   UNL A   1      34.258  21.538  27.231  1.00  0.00    -0.269 OA
ATOM      6  H   UNL A   1      36.411  22.087  26.802  1.00  0.00     0.163 HD
BRANCH   4   7
ATOM      7  C   UNL A   1      33.910  20.574  25.073  1.00  0.00     0.047 A 
ATOM      8  C   UNL A   1      33.456  17.051  23.623  1.00  0.00     0.044 C 
ATOM      9  C   UNL A   1      33.278  18.526  23.840  1.00  0.00    -0.050 A 
ATOM     10  C   UNL A   1      32.367  19.248  23.085  1.00  0.00     0.004 A 
ATOM     11  C   UNL A   1      34.036  19.199  24.809  1.00  0.00     0.018 A 
ATOM     12  C   UNL A   1      32.238  20.619  23.291  1.00  0.00     0.010 A 
ATOM     13  C   UNL A   1      32.994  21.309  24.272  1.00  0.00    -0.004 A 
BRANCH  13  14
ATOM     14  C   UNL A   1      32.772  22.770  24.361  1.00  0.00     0.003 A 
ATOM     15  C   UNL A   1      31.688  23.257  25.121  1.00  0.00     0.030 A 
ATOM     16  C   UNL A   1      33.628  23.714  23.758  1.00  0.00     0.049 A 
ATOM     17  C   UNL A   1      31.448  24.627  25.235  1.00  0.00     0.041 A 
ATOM     18  C   UNL A   1      33.397  25.088  23.899  1.00  0.00     0.023 A 
ATOM     19  Cl  UNL A   1      35.005  23.233  22.824  1.00  0.00    -0.084 Cl
ATOM     20  Cl  UNL A   1      30.086  25.187  26.125  1.00  0.00    -0.084 Cl
ATOM     21  C   UNL A   1      32.302  25.545  24.630  1.00  0.00     0.022 A 
ENDBRANCH  13  14
ENDBRANCH   4   7
ENDBRANCH   2   3
ENDBRANCH   1   2
BRANCH   1  22
ATOM     22  C   UNL A   1      38.840  22.808  26.242  1.00  0.00     0.118 C 
BRANCH  22  23
ATOM     23  N   UNL A   1      40.241  22.928  26.632  1.00  0.00    -0.352 N 
ATOM     24  C   UNL A   1      40.932  24.052  27.056  1.00  0.00     0.251 C 
ATOM     25  H   UNL A   1      40.767  22.097  26.589  1.00  0.00     0.163 HD
ATOM     26  O   UNL A   1      42.113  23.982  27.345  1.00  0.00    -0.269 OA
BRANCH  24  27
ATOM     27  C   UNL A   1      40.174  25.305  27.282  1.00  0.00     0.039 A 
ATOM     28  C   UNL A   1      40.517  26.412  26.501  1.00  0.00     0.014 A 
ATOM     29  C   UNL A   1      39.355  25.448  28.399  1.00  0.00     0.014 A 
ATOM     30  C   UNL A   1      40.263  27.687  26.993  1.00  0.00     0.010 A 
ATOM     31  C   UNL A   1      39.194  26.706  28.938  1.00  0.00     0.010 A 
ATOM     32  C   UNL A   1      39.717  27.817  28.268  1.00  0.00    -0.014 A 
BRANCH  32  33
ATOM     33  C   UNL A   1      39.777  29.059  29.027  1.00  0.00     0.031 A 
ATOM     34  C   UNL A   1      38.745  30.093  28.845  1.00  0.00     0.074 A 
ATOM     35  C   UNL A   1      40.763  29.231  29.934  1.00  0.00     0.049 A 
ATOM     36  N   UNL A   1      38.910  31.342  29.123  1.00  0.00    -0.248 NA
ATOM     37  C   UNL A   1      37.444  29.797  28.258  1.00  0.00     0.031 C 
ATOM     38  C   UNL A   1      40.856  30.252  30.974  1.00  0.00     0.029 A 
ATOM     39  N   UNL A   1      42.018  28.620  29.933  1.00  0.00    -0.354 N 
ATOM     40  C   UNL A   1      37.681  31.950  29.027  1.00  0.00     0.074 A 
ATOM     41  C   UNL A   1      36.823  30.971  28.402  1.00  0.00     0.031 C 
ATOM     42  C   UNL A   1      42.142  30.382  31.338  1.00  0.00     0.029 A 
ATOM     43  C   UNL A   1      42.932  29.569  30.427  1.00  0.00     0.049 A 
ATOM     44  H   UNL A   1      42.225  27.702  29.642  1.00  0.00     0.167 HD
ATOM     45  C   UNL A   1      37.486  33.162  29.617  1.00  0.00     0.031 A 
ATOM     46  C   UNL A   1      43.949  30.043  29.647  1.00  0.00     0.031 A 
ATOM     47  C   UNL A   1      38.722  33.698  30.180  1.00  0.00     0.049 A 
ATOM     48  C   UNL A   1      43.904  31.539  29.430  1.00  0.00     0.074 A 
ATOM     49  C   UNL A   1      39.245  33.715  31.464  1.00  0.00     0.029 A 
ATOM     50  N   UNL A   1      39.760  34.049  29.327  1.00  0.00    -0.354 N 
ATOM     51  N   UNL A   1      42.838  32.270  29.600  1.00  0.00    -0.248 NA
ATOM     52  C   UNL A   1      45.045  32.320  28.957  1.00  0.00     0.031 C 
ATOM     53  C   UNL A   1      40.631  34.005  31.367  1.00  0.00     0.029 A 
ATOM     54  C   UNL A   1      40.938  34.197  30.032  1.00  0.00     0.049 A 
ATOM     55  H   UNL A   1      39.669  34.176  28.354  1.00  0.00     0.167 HD
ATOM     56  C   UNL A   1      43.117  33.571  29.275  1.00  0.00     0.074 A 
ATOM     57  C   UNL A   1      44.515  33.555  28.887  1.00  0.00     0.031 C 
ATOM     58  C   UNL A   1      42.167  34.550  29.336  1.00  0.00     0.031 A 
BRANCH  45  59
ATOM     59  C   UNL A   1      36.115  33.707  29.941  1.00  0.00    -0.014 A 
ATOM     60  C   UNL A   1      35.304  34.204  28.903  1.00  0.00     0.009 A 
ATOM     61  C   UNL A   1      35.591  33.826  31.238  1.00  0.00     0.009 A 
ATOM     62  C   UNL A   1      34.098  34.872  29.156  1.00  0.00     0.001 A 
ATOM     63  C   UNL A   1      34.408  34.529  31.505  1.00  0.00     0.001 A 
ATOM     64  C   UNL A   1      33.666  35.064  30.461  1.00  0.00     0.000 A 
ENDBRANCH  45  59
BRANCH  46  65
ATOM     65  C   UNL A   1      44.439  29.063  28.636  1.00  0.00    -0.014 A 
ATOM     66  C   UNL A   1      45.145  27.928  29.085  1.00  0.00     0.009 A 
ATOM     67  C   UNL A   1      43.929  29.060  27.331  1.00  0.00     0.009 A 
ATOM     68  C   UNL A   1      45.234  26.780  28.293  1.00  0.00     0.001 A 
ATOM     69  C   UNL A   1      44.036  27.913  26.535  1.00  0.00     0.001 A 
ATOM     70  C   UNL A   1      44.655  26.764  27.027  1.00  0.00     0.000 A 
ENDBRANCH  46  65
BRANCH  58  71
ATOM     71  C   UNL A   1      42.302  35.953  28.802  1.00  0.00    -0.014 A 
ATOM     72  C   UNL A   1      43.003  36.980  29.447  1.00  0.00     0.009 A 
ATOM     73  C   UNL A   1      41.822  36.232  27.502  1.00  0.00     0.009 A 
ATOM     74  C   UNL A   1      43.181  38.231  28.840  1.00  0.00     0.001 A 
ATOM     75  C   UNL A   1      42.035  37.461  26.876  1.00  0.00     0.001 A 
ATOM     76  C   UNL A   1      42.709  38.468  27.552  1.00  0.00     0.000 A 
ENDBRANCH  58  71
ENDBRANCH  32  33
ENDBRANCH  24  27
ENDBRANCH  22  23
ENDBRANCH   1  22
TORSDOF 11
ENDMDL
MODEL 3
REMARK VINA RESULT:     -12.7      2.057      3.438
REMARK SMILES Cc1ccc(-c2cc(Cl)ccc2Cl)c(C(=O)NCCCNC(=O)c2ccc(-c3c4nc(c(-c5ccccc5)c5ccc([nH]5)c(-c5ccccc5)c5nc(c(-c6ccccc6)c6ccc3[nH]6)C=C5)C=C4)cc2)c1
REMARK SMILES IDX 19 1 18 2 17 3 15 4 16 5 14 7 1 8 2 9 3 10 72 11 4 12 5 13
REMARK SMILES IDX 6 14 7 15 12 16 8 17 11 18 13 19 9 20 10 21 20 22 21 23
REMARK SMILES IDX 22 24 23 26 24 27 25 28 71 29 26 30 70 31 27 32 28 33 29 34
REMARK SMILES IDX 64 35 30 36 69 37 63 38 65 39 31 40 68 41 62 42 61 43 32 45
REMARK SMILES IDX 54 46 39 47 53 48 40 49 43 50 52 51 66 52 41 53 42 54 51 56
REMARK SMILES IDX 67 57 44 58 33 59 34 60 38 61 35 62 37 63 36 64 55 65 56 66
REMARK SMILES IDX 60 67 57 68 59 69 58 70 45 71 46 72 50 73 47 74 49 75 48 76
REMARK H PARENT 17 6 21 25 65 44 43 55
REMARK Flexibility Score: inf
ROOT
ATOM      1  C   UNL A   1      33.770  29.614  26.891  1.00  0.00     0.042 C 
ENDROOT
BRANCH   1   2
ATOM      2  C   UNL A   1      32.823  30.107  25.794  1.00  0.00     0.118 C 
BRANCH   2   3
ATOM      3  N   UNL A   1      33.224  29.626  24.480  1.00  0.00    -0.352 N 
ATOM      4  C   UNL A   1      32.588  28.968  23.450  1.00  0.00     0.251 C 
ATOM      5  O   UNL A   1      33.295  28.800  22.457  1.00  0.00    -0.269 OA
ATOM      6  H   UNL A   1      34.170  29.815  24.281  1.00  0.00     0.163 HD
BRANCH   4   7
ATOM      7  C   UNL A   1      31.160  28.464  23.475  1.00  0.00     0.047 A 
ATOM      8  C   UNL A   1      27.653  29.815  22.701  1.00  0.00     0.044 C 
ATOM      9  C   UNL A   1      28.748  28.873  23.112  1.00  0.00    -0.050 A 
ATOM     10  C   UNL A   1      28.457  27.575  23.501  1.00  0.00     0.004 A 
ATOM     11  C   UNL A   1      30.086  29.295  23.115  1.00  0.00     0.018 A 
ATOM     12  C   UNL A   1      29.490  26.730  23.899  1.00  0.00     0.010 A 
ATOM     13  C   UNL A   1      30.846  27.143  23.900  1.00  0.00    -0.004 A 
BRANCH  13  14
ATOM     14  C   UNL A   1      31.833  26.148  24.374  1.00  0.00     0.003 A 
ATOM     15  C   UNL A   1      32.478  25.316  23.435  1.00  0.00     0.030 A 
ATOM     16  C   UNL A   1      32.204  26.020  25.728  1.00  0.00     0.049 A 
ATOM     17  C   UNL A   1      33.419  24.368  23.840  1.00  0.00     0.041 A 
ATOM     18  C   UNL A   1      33.170  25.086  26.125  1.00  0.00     0.023 A 
ATOM     19  Cl  UNL A   1      31.500  27.007  26.965  1.00  0.00    -0.084 Cl
ATOM     20  Cl  UNL A   1      34.148  23.332  22.676  1.00  0.00    -0.084 Cl
ATOM     21  C   UNL A   1      33.771  24.254  25.182  1.00  0.00     0.022 A 
ENDBRANCH  13  14
ENDBRANCH   4   7
ENDBRANCH   2   3
ENDBRANCH   1   2
BRANCH   1  22
ATOM     22  C   UNL A   1      34.501  30.728  27.620  1.00  0.00     0.118 C 
BRANCH  22  23
ATOM     23  N   UNL A   1      33.712  31.945  27.780  1.00  0.00    -0.352 N 
ATOM     24  C   UNL A   1      33.954  33.036  28.601  1.00  0.00     0.251 C 
ATOM     25  H   UNL A   1      32.897  31.999  27.231  1.00  0.00     0.163 HD
ATOM     26  O   UNL A   1      33.187  33.982  28.619  1.00  0.00    -0.269 OA
BRANCH  24  27
ATOM     27  C   UNL A   1      35.233  33.089  29.348  1.00  0.00     0.039 A 
ATOM     28  C   UNL A   1      36.306  33.743  28.736  1.00  0.00     0.014 A 
ATOM     29  C   UNL A   1      35.431  32.295  30.474  1.00  0.00     0.014 A 
ATOM     30  C   UNL A   1      37.602  33.385  29.089  1.00  0.00     0.010 A 
ATOM     31  C   UNL A   1      36.709  31.861  30.754  1.00  0.00     0.010 A 
ATOM     32  C   UNL A   1      37.785  32.353  30.007  1.00  0.00    -0.014 A 
BRANCH  32  33
ATOM     33  C   UNL A   1      39.048  31.641  30.149  1.00  0.00     0.031 A 
ATOM     34  C   UNL A   1      39.239  30.329  29.507  1.00  0.00     0.074 A 
ATOM     35  C   UNL A   1      40.058  32.217  30.835  1.00  0.00     0.049 A 
ATOM     36  N   UNL A   1      40.105  29.452  29.889  1.00  0.00    -0.248 NA
ATOM     37  C   UNL A   1      38.400  29.874  28.404  1.00  0.00     0.031 C 
ATOM     38  C   UNL A   1      41.462  31.818  30.870  1.00  0.00     0.029 A 
ATOM     39  N   UNL A   1      39.944  33.178  31.842  1.00  0.00    -0.354 N 
ATOM     40  C   UNL A   1      40.136  28.464  28.934  1.00  0.00     0.074 A 
ATOM     41  C   UNL A   1      39.000  28.726  28.082  1.00  0.00     0.031 C 
ATOM     42  C   UNL A   1      42.025  32.316  31.982  1.00  0.00     0.029 A 
ATOM     43  C   UNL A   1      40.961  32.908  32.777  1.00  0.00     0.049 A 
ATOM     44  H   UNL A   1      39.281  33.904  31.890  1.00  0.00     0.167 HD
ATOM     45  C   UNL A   1      41.201  27.616  28.883  1.00  0.00     0.031 A 
ATOM     46  C   UNL A   1      40.662  32.555  34.062  1.00  0.00     0.031 A 
ATOM     47  C   UNL A   1      42.125  27.837  29.992  1.00  0.00     0.049 A 
ATOM     48  C   UNL A   1      41.189  31.192  34.457  1.00  0.00     0.074 A 
ATOM     49  C   UNL A   1      43.319  28.534  30.102  1.00  0.00     0.029 A 
ATOM     50  N   UNL A   1      41.707  27.564  31.288  1.00  0.00    -0.354 N 
ATOM     51  N   UNL A   1      41.533  30.268  33.605  1.00  0.00    -0.248 NA
ATOM     52  C   UNL A   1      41.321  30.749  35.843  1.00  0.00     0.031 C 
ATOM     53  C   UNL A   1      43.576  28.744  31.482  1.00  0.00     0.029 A 
ATOM     54  C   UNL A   1      42.559  28.147  32.204  1.00  0.00     0.049 A 
ATOM     55  H   UNL A   1      40.915  27.028  31.521  1.00  0.00     0.167 HD
ATOM     56  C   UNL A   1      41.919  29.141  34.282  1.00  0.00     0.074 A 
ATOM     57  C   UNL A   1      41.779  29.494  35.682  1.00  0.00     0.031 C 
ATOM     58  C   UNL A   1      42.306  28.005  33.631  1.00  0.00     0.031 A 
BRANCH  45  59
ATOM     59  C   UNL A   1      41.545  26.802  27.658  1.00  0.00    -0.014 A 
ATOM     60  C   UNL A   1      41.578  25.398  27.747  1.00  0.00     0.009 A 
ATOM     61  C   UNL A   1      41.913  27.346  26.417  1.00  0.00     0.009 A 
ATOM     62  C   UNL A   1      42.049  24.596  26.698  1.00  0.00     0.001 A 
ATOM     63  C   UNL A   1      42.426  26.557  25.378  1.00  0.00     0.001 A 
ATOM     64  C   UNL A   1      42.506  25.180  25.524  1.00  0.00     0.000 A 
ENDBRANCH  45  59
BRANCH  46  65
ATOM     65  C   UNL A   1      39.388  33.139  34.568  1.00  0.00    -0.014 A 
ATOM     66  C   UNL A   1      38.171  32.542  34.177  1.00  0.00     0.009 A 
ATOM     67  C   UNL A   1      39.381  34.014  35.662  1.00  0.00     0.009 A 
ATOM     68  C   UNL A   1      37.009  32.723  34.932  1.00  0.00     0.001 A 
ATOM     69  C   UNL A   1      38.209  34.205  36.406  1.00  0.00     0.001 A 
ATOM     70  C   UNL A   1      37.036  33.534  36.063  1.00  0.00     0.000 A 
ENDBRANCH  46  65
BRANCH  58  71
ATOM     71  C   UNL A   1      42.539  26.656  34.261  1.00  0.00    -0.014 A 
ATOM     72  C   UNL A   1      41.618  26.000  35.088  1.00  0.00     0.009 A 
ATOM     73  C   UNL A   1      43.692  25.925  33.890  1.00  0.00     0.009 A 
ATOM     74  C   UNL A   1      41.855  24.698  35.551  1.00  0.00     0.001 A 
ATOM     75  C   UNL A   1      43.910  24.612  34.312  1.00  0.00     0.001 A 
ATOM     76  C   UNL A   1      42.993  24.000  35.154  1.00  0.00     0.000 A 
ENDBRANCH  58  71
ENDBRANCH  32  33
ENDBRANCH  24  27
ENDBRANCH  22  23
ENDBRANCH   1  22
TORSDOF 11
ENDMDL
