MODEL 1
REMARK VINA RESULT:     -11.1      0.000      0.000
REMARK SMILES CCS(=O)(=O)c1ccccc1NC[C@H]1CC[C@H](C(=O)NCCCNC(=O)c2ccc(-c3c4nc(c(-c5ccccc5)c5ccc([nH]5)c(-c5ccccc5)c5nc(c(-c6ccccc6)c6ccc3[nH]6)C=C5)C=C4)cc2)O1
REMARK SMILES IDX 18 1 19 2 20 3 17 5 14 6 15 7 75 8 16 9 13 10 12 11 11 13
REMARK SMILES IDX 6 14 7 15 8 16 10 17 9 18 3 19 4 20 5 21 2 22 1 23 21 24
REMARK SMILES IDX 22 25 23 26 24 27 25 28 26 30 27 31 28 32 74 33 29 34 73 35
REMARK SMILES IDX 30 36 31 37 32 38 67 39 33 40 72 41 66 42 68 43 34 44 71 45
REMARK SMILES IDX 65 46 64 47 35 49 57 50 42 51 56 52 43 53 46 54 55 55 69 56
REMARK SMILES IDX 44 57 45 58 54 60 70 61 47 62 36 63 37 64 41 65 38 66 40 67
REMARK SMILES IDX 39 68 58 69 59 70 63 71 60 72 62 73 61 74 48 75 49 76 53 77
REMARK SMILES IDX 50 78 52 79 51 80
REMARK H PARENT 20 4 12 12 24 29 68 48 46 59
REMARK Flexibility Score: inf
ROOT
ATOM      1  C   UNL A   1      33.587  20.349  24.980  1.00  0.00     0.249 C 
ATOM      2  O   UNL A   1      32.716  19.476  24.914  1.00  0.00    -0.272 OA
ATOM      3  N   UNL A   1      34.885  19.932  24.991  1.00  0.00    -0.354 N 
ATOM      4  H   UNL A   1      35.010  18.958  24.918  1.00  0.00     0.163 HD
ENDROOT
BRANCH   1   5
ATOM      5  C   UNL A   1      33.204  21.839  25.124  1.00  0.00     0.207 C 
ATOM      6  C   UNL A   1      31.940  23.095  26.653  1.00  0.00     0.138 C 
ATOM      7  C   UNL A   1      30.979  22.546  25.610  1.00  0.00     0.037 C 
ATOM      8  O   UNL A   1      33.169  22.360  26.457  1.00  0.00    -0.363 OA
ATOM      9  C   UNL A   1      31.870  22.151  24.463  1.00  0.00     0.045 C 
BRANCH   6  10
ATOM     10  C   UNL A   1      32.242  24.602  26.577  1.00  0.00     0.145 C 
BRANCH  10  11
ATOM     11  N   UNL A   1      31.052  25.402  26.357  1.00  0.00    -0.381 N 
ATOM     12  H   UNL A   1      30.314  25.255  26.992  1.00  0.00     0.160 HD
BRANCH  11  13
ATOM     13  C   UNL A   1      30.820  26.343  25.377  1.00  0.00     0.053 A 
ATOM     14  C   UNL A   1      31.189  27.696  25.539  1.00  0.00     0.090 A 
ATOM     15  C   UNL A   1      30.846  28.675  24.590  1.00  0.00     0.022 A 
ATOM     16  C   UNL A   1      30.161  28.317  23.436  1.00  0.00     0.001 A 
ATOM     17  C   UNL A   1      30.148  26.016  24.188  1.00  0.00     0.027 A 
ATOM     18  C   UNL A   1      29.821  26.985  23.231  1.00  0.00     0.002 A 
BRANCH  14  19
ATOM     19  S   UNL A   1      32.109  28.263  26.964  1.00  0.00     0.180 S 
ATOM     20  O   UNL A   1      33.512  27.917  26.789  1.00  0.00    -0.224 OA
ATOM     21  O   UNL A   1      31.386  27.796  28.131  1.00  0.00    -0.224 OA
BRANCH  19  22
ATOM     22  C   UNL A   1      32.004  30.039  26.943  1.00  0.00     0.139 C 
ATOM     23  C   UNL A   1      33.303  30.749  27.263  1.00  0.00     0.021 C 
ENDBRANCH  19  22
ENDBRANCH  14  19
ENDBRANCH  11  13
ENDBRANCH  10  11
ENDBRANCH   6  10
ENDBRANCH   1   5
BRANCH   3  24
ATOM     24  C   UNL A   1      36.108  20.698  25.093  1.00  0.00     0.117 C 
BRANCH  24  25
ATOM     25  C   UNL A   1      37.338  19.816  24.922  1.00  0.00     0.042 C 
BRANCH  25  26
ATOM     26  C   UNL A   1      38.589  20.419  25.537  1.00  0.00     0.118 C 
BRANCH  26  27
ATOM     27  N   UNL A   1      39.631  19.418  25.731  1.00  0.00    -0.352 N 
ATOM     28  C   UNL A   1      40.951  19.568  26.064  1.00  0.00     0.251 C 
ATOM     29  H   UNL A   1      39.338  18.487  25.602  1.00  0.00     0.163 HD
ATOM     30  O   UNL A   1      41.720  18.620  25.935  1.00  0.00    -0.269 OA
BRANCH  28  31
ATOM     31  C   UNL A   1      41.453  20.861  26.570  1.00  0.00     0.039 A 
ATOM     32  C   UNL A   1      41.956  21.793  25.657  1.00  0.00     0.014 A 
ATOM     33  C   UNL A   1      41.465  21.145  27.937  1.00  0.00     0.014 A 
ATOM     34  C   UNL A   1      42.426  23.023  26.112  1.00  0.00     0.010 A 
ATOM     35  C   UNL A   1      41.839  22.407  28.380  1.00  0.00     0.010 A 
ATOM     36  C   UNL A   1      42.342  23.352  27.475  1.00  0.00    -0.014 A 
BRANCH  36  37
ATOM     37  C   UNL A   1      42.789  24.673  27.976  1.00  0.00     0.031 A 
ATOM     38  C   UNL A   1      41.783  25.753  28.259  1.00  0.00     0.074 A 
ATOM     39  C   UNL A   1      44.105  24.918  28.111  1.00  0.00     0.049 A 
ATOM     40  N   UNL A   1      41.984  26.986  28.650  1.00  0.00    -0.248 NA
ATOM     41  C   UNL A   1      40.368  25.414  28.041  1.00  0.00     0.031 C 
ATOM     42  C   UNL A   1      45.179  23.968  27.817  1.00  0.00     0.029 A 
ATOM     43  N   UNL A   1      44.763  26.051  28.519  1.00  0.00    -0.354 N 
ATOM     44  C   UNL A   1      40.726  27.570  28.707  1.00  0.00     0.074 A 
ATOM     45  C   UNL A   1      39.778  26.579  28.248  1.00  0.00     0.031 C 
ATOM     46  C   UNL A   1      46.361  24.548  28.075  1.00  0.00     0.029 A 
ATOM     47  C   UNL A   1      46.130  25.922  28.511  1.00  0.00     0.049 A 
ATOM     48  H   UNL A   1      44.301  26.876  28.790  1.00  0.00     0.167 HD
ATOM     49  C   UNL A   1      40.385  28.814  29.124  1.00  0.00     0.031 A 
ATOM     50  C   UNL A   1      47.093  26.813  28.810  1.00  0.00     0.031 A 
ATOM     51  C   UNL A   1      41.335  29.797  29.572  1.00  0.00     0.049 A 
ATOM     52  C   UNL A   1      46.699  28.190  29.261  1.00  0.00     0.074 A 
ATOM     53  C   UNL A   1      41.094  31.066  30.070  1.00  0.00     0.029 A 
ATOM     54  N   UNL A   1      42.711  29.624  29.566  1.00  0.00    -0.354 N 
ATOM     55  N   UNL A   1      45.499  28.704  29.389  1.00  0.00    -0.248 NA
ATOM     56  C   UNL A   1      47.789  29.104  29.623  1.00  0.00     0.031 C 
ATOM     57  C   UNL A   1      42.328  31.683  30.304  1.00  0.00     0.029 A 
ATOM     58  C   UNL A   1      43.336  30.774  30.019  1.00  0.00     0.049 A 
ATOM     59  H   UNL A   1      43.175  28.804  29.281  1.00  0.00     0.167 HD
ATOM     60  C   UNL A   1      45.688  29.994  29.866  1.00  0.00     0.074 A 
ATOM     61  C   UNL A   1      47.117  30.175  30.022  1.00  0.00     0.031 C 
ATOM     62  C   UNL A   1      44.762  30.944  30.151  1.00  0.00     0.031 A 
BRANCH  49  63
ATOM     63  C   UNL A   1      38.923  29.173  29.086  1.00  0.00    -0.014 A 
ATOM     64  C   UNL A   1      38.335  29.734  27.940  1.00  0.00     0.009 A 
ATOM     65  C   UNL A   1      38.122  28.958  30.218  1.00  0.00     0.009 A 
ATOM     66  C   UNL A   1      36.995  30.127  27.949  1.00  0.00     0.001 A 
ATOM     67  C   UNL A   1      36.772  29.316  30.212  1.00  0.00     0.001 A 
ATOM     68  C   UNL A   1      36.214  29.915  29.085  1.00  0.00     0.000 A 
ENDBRANCH  49  63
BRANCH  50  69
ATOM     69  C   UNL A   1      48.519  26.412  28.698  1.00  0.00    -0.014 A 
ATOM     70  C   UNL A   1      49.218  26.582  27.494  1.00  0.00     0.009 A 
ATOM     71  C   UNL A   1      49.200  25.896  29.813  1.00  0.00     0.009 A 
ATOM     72  C   UNL A   1      50.568  26.230  27.406  1.00  0.00     0.001 A 
ATOM     73  C   UNL A   1      50.555  25.573  29.729  1.00  0.00     0.001 A 
ATOM     74  C   UNL A   1      51.236  25.734  28.524  1.00  0.00     0.000 A 
ENDBRANCH  50  69
BRANCH  62  75
ATOM     75  C   UNL A   1      45.266  32.256  30.684  1.00  0.00    -0.014 A 
ATOM     76  C   UNL A   1      45.573  33.324  29.826  1.00  0.00     0.009 A 
ATOM     77  C   UNL A   1      45.395  32.438  32.070  1.00  0.00     0.009 A 
ATOM     78  C   UNL A   1      46.032  34.537  30.345  1.00  0.00     0.001 A 
ATOM     79  C   UNL A   1      45.822  33.662  32.587  1.00  0.00     0.001 A 
ATOM     80  C   UNL A   1      46.150  34.707  31.723  1.00  0.00     0.000 A 
ENDBRANCH  62  75
ENDBRANCH  36  37
ENDBRANCH  28  31
ENDBRANCH  26  27
ENDBRANCH  25  26
ENDBRANCH  24  25
ENDBRANCH   3  24
TORSDOF 15
ENDMDL
MODEL 2
REMARK VINA RESULT:     -11.1      4.778      9.582
REMARK SMILES CCS(=O)(=O)c1ccccc1NC[C@H]1CC[C@H](C(=O)NCCCNC(=O)c2ccc(-c3c4nc(c(-c5ccccc5)c5ccc([nH]5)c(-c5ccccc5)c5nc(c(-c6ccccc6)c6ccc3[nH]6)C=C5)C=C4)cc2)O1
REMARK SMILES IDX 18 1 19 2 20 3 17 5 14 6 15 7 75 8 16 9 13 10 12 11 11 13
REMARK SMILES IDX 6 14 7 15 8 16 10 17 9 18 3 19 4 20 5 21 2 22 1 23 21 24
REMARK SMILES IDX 22 25 23 26 24 27 25 28 26 30 27 31 28 32 74 33 29 34 73 35
REMARK SMILES IDX 30 36 31 37 32 38 67 39 33 40 72 41 66 42 68 43 34 44 71 45
REMARK SMILES IDX 65 46 64 47 35 49 57 50 42 51 56 52 43 53 46 54 55 55 69 56
REMARK SMILES IDX 44 57 45 58 54 60 70 61 47 62 36 63 37 64 41 65 38 66 40 67
REMARK SMILES IDX 39 68 58 69 59 70 63 71 60 72 62 73 61 74 48 75 49 76 53 77
REMARK SMILES IDX 50 78 52 79 51 80
REMARK H PARENT 20 4 12 12 24 29 68 48 46 59
REMARK Flexibility Score: inf
ROOT
ATOM      1  C   UNL A   1      46.749  23.597  24.274  1.00  0.00     0.249 C 
ATOM      2  O   UNL A   1      47.383  24.009  23.297  1.00  0.00    -0.272 OA
ATOM      3  N   UNL A   1      46.252  22.329  24.202  1.00  0.00    -0.354 N 
ATOM      4  H   UNL A   1      46.471  21.843  23.374  1.00  0.00     0.163 HD
ENDROOT
BRANCH   1   5
ATOM      5  C   UNL A   1      46.473  24.518  25.483  1.00  0.00     0.207 C 
ATOM      6  C   UNL A   1      47.437  26.482  26.336  1.00  0.00     0.138 C 
ATOM      7  C   UNL A   1      48.212  25.307  26.912  1.00  0.00     0.037 C 
ATOM      8  O   UNL A   1      46.646  25.922  25.263  1.00  0.00    -0.363 OA
ATOM      9  C   UNL A   1      47.301  24.128  26.698  1.00  0.00     0.045 C 
BRANCH   6  10
ATOM     10  C   UNL A   1      46.505  27.228  27.307  1.00  0.00     0.145 C 
BRANCH  10  11
ATOM     11  N   UNL A   1      45.826  28.349  26.683  1.00  0.00    -0.381 N 
ATOM     12  H   UNL A   1      46.400  29.106  26.425  1.00  0.00     0.160 HD
BRANCH  11  13
ATOM     13  C   UNL A   1      44.484  28.491  26.403  1.00  0.00     0.053 A 
ATOM     14  C   UNL A   1      43.735  29.588  26.881  1.00  0.00     0.090 A 
ATOM     15  C   UNL A   1      42.344  29.671  26.693  1.00  0.00     0.022 A 
ATOM     16  C   UNL A   1      41.675  28.678  25.989  1.00  0.00     0.001 A 
ATOM     17  C   UNL A   1      43.777  27.519  25.677  1.00  0.00     0.027 A 
ATOM     18  C   UNL A   1      42.394  27.607  25.472  1.00  0.00     0.002 A 
BRANCH  14  19
ATOM     19  S   UNL A   1      44.497  30.944  27.764  1.00  0.00     0.180 S 
ATOM     20  O   UNL A   1      45.514  30.412  28.658  1.00  0.00    -0.224 OA
ATOM     21  O   UNL A   1      43.414  31.748  28.293  1.00  0.00    -0.224 OA
BRANCH  19  22
ATOM     22  C   UNL A   1      45.341  31.918  26.536  1.00  0.00     0.139 C 
ATOM     23  C   UNL A   1      44.502  33.022  25.926  1.00  0.00     0.021 C 
ENDBRANCH  19  22
ENDBRANCH  14  19
ENDBRANCH  11  13
ENDBRANCH  10  11
ENDBRANCH   6  10
ENDBRANCH   1   5
BRANCH   3  24
ATOM     24  C   UNL A   1      45.454  21.588  25.154  1.00  0.00     0.117 C 
BRANCH  24  25
ATOM     25  C   UNL A   1      44.827  20.354  24.518  1.00  0.00     0.042 C 
BRANCH  25  26
ATOM     26  C   UNL A   1      44.255  19.386  25.540  1.00  0.00     0.118 C 
BRANCH  26  27
ATOM     27  N   UNL A   1      42.834  19.148  25.322  1.00  0.00    -0.352 N 
ATOM     28  C   UNL A   1      41.740  19.805  25.823  1.00  0.00     0.251 C 
ATOM     29  H   UNL A   1      42.628  18.398  24.719  1.00  0.00     0.163 HD
ATOM     30  O   UNL A   1      40.628  19.297  25.718  1.00  0.00    -0.269 OA
BRANCH  28  31
ATOM     31  C   UNL A   1      41.894  21.112  26.492  1.00  0.00     0.039 A 
ATOM     32  C   UNL A   1      41.808  21.170  27.886  1.00  0.00     0.014 A 
ATOM     33  C   UNL A   1      42.084  22.282  25.753  1.00  0.00     0.014 A 
ATOM     34  C   UNL A   1      41.959  22.392  28.538  1.00  0.00     0.010 A 
ATOM     35  C   UNL A   1      42.334  23.482  26.407  1.00  0.00     0.010 A 
ATOM     36  C   UNL A   1      42.255  23.553  27.805  1.00  0.00    -0.014 A 
BRANCH  36  37
ATOM     37  C   UNL A   1      42.469  24.855  28.480  1.00  0.00     0.031 A 
ATOM     38  C   UNL A   1      43.768  25.137  29.180  1.00  0.00     0.074 A 
ATOM     39  C   UNL A   1      41.467  25.753  28.518  1.00  0.00     0.049 A 
ATOM     40  N   UNL A   1      44.122  26.192  29.870  1.00  0.00    -0.248 NA
ATOM     41  C   UNL A   1      44.792  24.082  29.129  1.00  0.00     0.031 C 
ATOM     42  C   UNL A   1      40.144  25.571  27.921  1.00  0.00     0.029 A 
ATOM     43  N   UNL A   1      41.406  26.995  29.097  1.00  0.00    -0.354 N 
ATOM     44  C   UNL A   1      45.398  25.919  30.345  1.00  0.00     0.074 A 
ATOM     45  C   UNL A   1      45.728  24.576  29.922  1.00  0.00     0.031 C 
ATOM     46  C   UNL A   1      39.408  26.671  28.145  1.00  0.00     0.029 A 
ATOM     47  C   UNL A   1      40.192  27.614  28.935  1.00  0.00     0.049 A 
ATOM     48  H   UNL A   1      42.160  27.403  29.581  1.00  0.00     0.167 HD
ATOM     49  C   UNL A   1      46.230  26.720  31.053  1.00  0.00     0.031 A 
ATOM     50  C   UNL A   1      39.753  28.805  29.382  1.00  0.00     0.031 A 
ATOM     51  C   UNL A   1      45.891  28.053  31.477  1.00  0.00     0.049 A 
ATOM     52  C   UNL A   1      40.683  29.677  30.174  1.00  0.00     0.074 A 
ATOM     53  C   UNL A   1      46.679  28.972  32.148  1.00  0.00     0.029 A 
ATOM     54  N   UNL A   1      44.656  28.653  31.280  1.00  0.00    -0.354 N 
ATOM     55  N   UNL A   1      41.918  29.439  30.547  1.00  0.00    -0.248 NA
ATOM     56  C   UNL A   1      40.168  30.986  30.592  1.00  0.00     0.031 C 
ATOM     57  C   UNL A   1      45.899  30.103  32.412  1.00  0.00     0.029 A 
ATOM     58  C   UNL A   1      44.647  29.917  31.845  1.00  0.00     0.049 A 
ATOM     59  H   UNL A   1      43.897  28.240  30.807  1.00  0.00     0.167 HD
ATOM     60  C   UNL A   1      42.335  30.576  31.227  1.00  0.00     0.074 A 
ATOM     61  C   UNL A   1      41.226  31.509  31.196  1.00  0.00     0.031 C 
ATOM     62  C   UNL A   1      43.529  30.826  31.821  1.00  0.00     0.031 A 
BRANCH  49  63
ATOM     63  C   UNL A   1      47.574  26.154  31.426  1.00  0.00    -0.014 A 
ATOM     64  C   UNL A   1      47.803  25.574  32.686  1.00  0.00     0.009 A 
ATOM     65  C   UNL A   1      48.634  26.210  30.507  1.00  0.00     0.009 A 
ATOM     66  C   UNL A   1      49.075  25.120  33.038  1.00  0.00     0.001 A 
ATOM     67  C   UNL A   1      49.897  25.720  30.848  1.00  0.00     0.001 A 
ATOM     68  C   UNL A   1      50.121  25.191  32.118  1.00  0.00     0.000 A 
ENDBRANCH  49  63
BRANCH  50  69
ATOM     69  C   UNL A   1      38.363  29.233  29.075  1.00  0.00    -0.014 A 
ATOM     70  C   UNL A   1      37.354  29.142  30.045  1.00  0.00     0.009 A 
ATOM     71  C   UNL A   1      38.051  29.776  27.818  1.00  0.00     0.009 A 
ATOM     72  C   UNL A   1      36.057  29.574  29.757  1.00  0.00     0.001 A 
ATOM     73  C   UNL A   1      36.761  30.234  27.544  1.00  0.00     0.001 A 
ATOM     74  C   UNL A   1      35.764  30.126  28.512  1.00  0.00     0.000 A 
ENDBRANCH  50  69
BRANCH  62  75
ATOM     75  C   UNL A   1      43.704  32.173  32.466  1.00  0.00    -0.014 A 
ATOM     76  C   UNL A   1      44.240  33.259  31.758  1.00  0.00     0.009 A 
ATOM     77  C   UNL A   1      43.286  32.366  33.793  1.00  0.00     0.009 A 
ATOM     78  C   UNL A   1      44.386  34.503  32.376  1.00  0.00     0.001 A 
ATOM     79  C   UNL A   1      43.403  33.618  34.397  1.00  0.00     0.001 A 
ATOM     80  C   UNL A   1      43.962  34.683  33.692  1.00  0.00     0.000 A 
ENDBRANCH  62  75
ENDBRANCH  36  37
ENDBRANCH  28  31
ENDBRANCH  26  27
ENDBRANCH  25  26
ENDBRANCH  24  25
ENDBRANCH   3  24
TORSDOF 15
ENDMDL
MODEL 3
REMARK VINA RESULT:     -11.0      1.374      6.181
REMARK SMILES CCS(=O)(=O)c1ccccc1NC[C@H]1CC[C@H](C(=O)NCCCNC(=O)c2ccc(-c3c4nc(c(-c5ccccc5)c5ccc([nH]5)c(-c5ccccc5)c5nc(c(-c6ccccc6)c6ccc3[nH]6)C=C5)C=C4)cc2)O1
REMARK SMILES IDX 18 1 19 2 20 3 17 5 14 6 15 7 75 8 16 9 13 10 12 11 11 13
REMARK SMILES IDX 6 14 7 15 8 16 10 17 9 18 3 19 4 20 5 21 2 22 1 23 21 24
REMARK SMILES IDX 22 25 23 26 24 27 25 28 26 30 27 31 28 32 74 33 29 34 73 35
REMARK SMILES IDX 30 36 31 37 32 38 67 39 33 40 72 41 66 42 68 43 34 44 71 45
REMARK SMILES IDX 65 46 64 47 35 49 57 50 42 51 56 52 43 53 46 54 55 55 69 56
REMARK SMILES IDX 44 57 45 58 54 60 70 61 47 62 36 63 37 64 41 65 38 66 40 67
REMARK SMILES IDX 39 68 58 69 59 70 63 71 60 72 62 73 61 74 48 75 49 76 53 77
REMARK SMILES IDX 50 78 52 79 51 80
REMARK H PARENT 20 4 12 12 24 29 68 48 46 59
REMARK Flexibility Score: inf
ROOT
ATOM      1  C   UNL A   1      34.336  20.478  25.054  1.00  0.00     0.249 C 
ATOM      2  O   UNL A   1      33.417  19.666  25.205  1.00  0.00    -0.272 OA
ATOM      3  N   UNL A   1      35.603  19.977  24.991  1.00  0.00    -0.354 N 
ATOM      4  H   UNL A   1      35.666  18.996  25.048  1.00  0.00     0.163 HD
ENDROOT
BRANCH   1   5
ATOM      5  C   UNL A   1      34.052  21.995  25.017  1.00  0.00     0.207 C 
ATOM      6  C   UNL A   1      32.261  23.372  25.660  1.00  0.00     0.138 C 
ATOM      7  C   UNL A   1      31.980  22.890  24.245  1.00  0.00     0.037 C 
ATOM      8  O   UNL A   1      33.339  22.535  26.136  1.00  0.00    -0.363 OA
ATOM      9  C   UNL A   1      33.318  22.408  23.750  1.00  0.00     0.045 C 
BRANCH   6  10
ATOM     10  C   UNL A   1      32.670  24.848  25.811  1.00  0.00     0.145 C 
BRANCH  10  11
ATOM     11  N   UNL A   1      31.530  25.742  25.877  1.00  0.00    -0.381 N 
ATOM     12  H   UNL A   1      30.649  25.307  25.944  1.00  0.00     0.160 HD
BRANCH  11  13
ATOM     13  C   UNL A   1      31.518  27.120  25.861  1.00  0.00     0.053 A 
ATOM     14  C   UNL A   1      31.340  27.850  24.666  1.00  0.00     0.090 A 
ATOM     15  C   UNL A   1      31.446  29.253  24.633  1.00  0.00     0.022 A 
ATOM     16  C   UNL A   1      31.692  29.960  25.803  1.00  0.00     0.001 A 
ATOM     17  C   UNL A   1      31.744  27.872  27.025  1.00  0.00     0.027 A 
ATOM     18  C   UNL A   1      31.831  29.270  27.000  1.00  0.00     0.002 A 
BRANCH  14  19
ATOM     19  S   UNL A   1      30.977  27.047  23.110  1.00  0.00     0.180 S 
ATOM     20  O   UNL A   1      30.466  28.039  22.175  1.00  0.00    -0.224 OA
ATOM     21  O   UNL A   1      30.186  25.875  23.428  1.00  0.00    -0.224 OA
BRANCH  19  22
ATOM     22  C   UNL A   1      32.539  26.484  22.470  1.00  0.00     0.139 C 
ATOM     23  C   UNL A   1      32.434  25.597  21.246  1.00  0.00     0.021 C 
ENDBRANCH  19  22
ENDBRANCH  14  19
ENDBRANCH  11  13
ENDBRANCH  10  11
ENDBRANCH   6  10
ENDBRANCH   1   5
BRANCH   3  24
ATOM     24  C   UNL A   1      36.869  20.664  24.853  1.00  0.00     0.117 C 
BRANCH  24  25
ATOM     25  C   UNL A   1      38.042  19.696  24.928  1.00  0.00     0.042 C 
BRANCH  25  26
ATOM     26  C   UNL A   1      39.048  20.067  26.004  1.00  0.00     0.118 C 
BRANCH  26  27
ATOM     27  N   UNL A   1      40.275  19.290  25.886  1.00  0.00    -0.352 N 
ATOM     28  C   UNL A   1      41.585  19.684  25.977  1.00  0.00     0.251 C 
ATOM     29  H   UNL A   1      40.142  18.330  25.715  1.00  0.00     0.163 HD
ATOM     30  O   UNL A   1      42.473  18.926  25.601  1.00  0.00    -0.269 OA
BRANCH  28  31
ATOM     31  C   UNL A   1      41.929  21.015  26.516  1.00  0.00     0.039 A 
ATOM     32  C   UNL A   1      42.268  22.036  25.624  1.00  0.00     0.014 A 
ATOM     33  C   UNL A   1      41.958  21.249  27.893  1.00  0.00     0.014 A 
ATOM     34  C   UNL A   1      42.588  23.302  26.112  1.00  0.00     0.010 A 
ATOM     35  C   UNL A   1      42.179  22.534  28.372  1.00  0.00     0.010 A 
ATOM     36  C   UNL A   1      42.516  23.569  27.488  1.00  0.00    -0.014 A 
BRANCH  36  37
ATOM     37  C   UNL A   1      42.803  24.919  28.027  1.00  0.00     0.031 A 
ATOM     38  C   UNL A   1      44.195  25.275  28.468  1.00  0.00     0.074 A 
ATOM     39  C   UNL A   1      41.796  25.798  28.181  1.00  0.00     0.049 A 
ATOM     40  N   UNL A   1      44.630  26.383  29.013  1.00  0.00    -0.248 NA
ATOM     41  C   UNL A   1      45.227  24.239  28.308  1.00  0.00     0.031 C 
ATOM     42  C   UNL A   1      40.395  25.549  27.839  1.00  0.00     0.029 A 
ATOM     43  N   UNL A   1      41.797  27.077  28.677  1.00  0.00    -0.354 N 
ATOM     44  C   UNL A   1      45.977  26.168  29.275  1.00  0.00     0.074 A 
ATOM     45  C   UNL A   1      46.270  24.806  28.890  1.00  0.00     0.031 C 
ATOM     46  C   UNL A   1      39.675  26.648  28.114  1.00  0.00     0.029 A 
ATOM     47  C   UNL A   1      40.555  27.660  28.690  1.00  0.00     0.049 A 
ATOM     48  H   UNL A   1      42.611  27.532  28.994  1.00  0.00     0.167 HD
ATOM     49  C   UNL A   1      46.894  27.034  29.771  1.00  0.00     0.031 A 
ATOM     50  C   UNL A   1      40.163  28.870  29.128  1.00  0.00     0.031 A 
ATOM     51  C   UNL A   1      46.593  28.386  30.158  1.00  0.00     0.049 A 
ATOM     52  C   UNL A   1      41.189  29.814  29.684  1.00  0.00     0.074 A 
ATOM     53  C   UNL A   1      47.456  29.365  30.618  1.00  0.00     0.029 A 
ATOM     54  N   UNL A   1      45.324  28.947  30.142  1.00  0.00    -0.354 N 
ATOM     55  N   UNL A   1      42.477  29.627  29.850  1.00  0.00    -0.248 NA
ATOM     56  C   UNL A   1      40.713  31.139  30.099  1.00  0.00     0.031 C 
ATOM     57  C   UNL A   1      46.698  30.497  30.940  1.00  0.00     0.029 A 
ATOM     58  C   UNL A   1      45.373  30.247  30.614  1.00  0.00     0.049 A 
ATOM     59  H   UNL A   1      44.508  28.488  29.838  1.00  0.00     0.167 HD
ATOM     60  C   UNL A   1      42.970  30.817  30.369  1.00  0.00     0.074 A 
ATOM     61  C   UNL A   1      41.844  31.723  30.471  1.00  0.00     0.031 C 
ATOM     62  C   UNL A   1      44.240  31.131  30.726  1.00  0.00     0.031 A 
BRANCH  49  63
ATOM     63  C   UNL A   1      48.300  26.521  29.939  1.00  0.00    -0.014 A 
ATOM     64  C   UNL A   1      48.708  25.871  31.116  1.00  0.00     0.009 A 
ATOM     65  C   UNL A   1      49.235  26.700  28.908  1.00  0.00     0.009 A 
ATOM     66  C   UNL A   1      50.034  25.467  31.281  1.00  0.00     0.001 A 
ATOM     67  C   UNL A   1      50.553  26.261  29.060  1.00  0.00     0.001 A 
ATOM     68  C   UNL A   1      50.955  25.660  30.252  1.00  0.00     0.000 A 
ENDBRANCH  49  63
BRANCH  50  69
ATOM     69  C   UNL A   1      38.729  29.248  29.041  1.00  0.00    -0.014 A 
ATOM     70  C   UNL A   1      38.181  29.711  27.835  1.00  0.00     0.009 A 
ATOM     71  C   UNL A   1      37.889  29.106  30.158  1.00  0.00     0.009 A 
ATOM     72  C   UNL A   1      36.824  30.037  27.755  1.00  0.00     0.001 A 
ATOM     73  C   UNL A   1      36.529  29.404  30.066  1.00  0.00     0.001 A 
ATOM     74  C   UNL A   1      35.999  29.875  28.866  1.00  0.00     0.000 A 
ENDBRANCH  50  69
BRANCH  62  75
ATOM     75  C   UNL A   1      44.483  32.523  31.240  1.00  0.00    -0.014 A 
ATOM     76  C   UNL A   1      44.782  33.583  30.369  1.00  0.00     0.009 A 
ATOM     77  C   UNL A   1      44.368  32.785  32.615  1.00  0.00     0.009 A 
ATOM     78  C   UNL A   1      44.996  34.869  30.869  1.00  0.00     0.001 A 
ATOM     79  C   UNL A   1      44.549  34.078  33.108  1.00  0.00     0.001 A 
ATOM     80  C   UNL A   1      44.873  35.116  32.236  1.00  0.00     0.000 A 
ENDBRANCH  62  75
ENDBRANCH  36  37
ENDBRANCH  28  31
ENDBRANCH  26  27
ENDBRANCH  25  26
ENDBRANCH  24  25
ENDBRANCH   3  24
TORSDOF 15
ENDMDL
