MODEL 1
REMARK VINA RESULT:     -13.3      0.000      0.000
REMARK SMILES O=C(NCCCNC(=O)[C@@H]1CC2(CC[NH2+]CC2)C[N@@H+]1Cc1cccc2nonc12)c1ccc(-c2c3nc(c(-c4ccccc4)c4ccc([nH]4)c(-c4ccccc4)c4nc(c(-c5ccccc5)c5ccc2[nH]5)C=C4)C=C3)cc1
REMARK SMILES IDX 5 1 4 2 3 3 1 4 2 5 30 7 31 8 77 9 32 10 76 11 33 12 34 13
REMARK SMILES IDX 35 14 70 15 36 16 75 17 69 18 71 19 37 20 74 21 68 22 67 23
REMARK SMILES IDX 38 25 60 26 45 27 59 28 46 29 49 30 58 31 72 32 47 33 48 34
REMARK SMILES IDX 57 36 73 37 50 38 39 39 40 40 44 41 41 42 43 43 42 44 61 45
REMARK SMILES IDX 62 46 66 47 63 48 65 49 64 50 51 51 52 52 56 53 53 54 55 55
REMARK SMILES IDX 54 56 6 57 7 58 8 59 9 61 10 62 11 63 19 64 12 65 18 66
REMARK SMILES IDX 13 68 17 69 14 70 16 71 15 72 20 75 21 76 22 77 29 78 23 79
REMARK SMILES IDX 25 80 28 81 24 82 26 83 27 84
REMARK H PARENT 3 6 71 24 49 35 7 60 19 67 15 73 15 74
REMARK Flexibility Score: inf
ROOT
ATOM      1  C   UNL A   1      37.154  21.319  24.632  1.00  0.00     0.042 C 
ENDROOT
BRANCH   1   2
ATOM      2  C   UNL A   1      38.180  22.131  25.445  1.00  0.00     0.118 C 
BRANCH   2   3
ATOM      3  N   UNL A   1      39.247  21.319  26.005  1.00  0.00    -0.352 N 
ATOM      4  O   UNL A   1      41.142  20.686  26.997  1.00  0.00    -0.269 OA
ATOM      5  C   UNL A   1      40.399  21.617  26.685  1.00  0.00     0.251 C 
ATOM      6  H   UNL A   1      39.115  20.354  25.866  1.00  0.00     0.163 HD
BRANCH   5   7
ATOM      7  C   UNL A   1      40.806  22.996  27.055  1.00  0.00     0.039 A 
ATOM      8  C   UNL A   1      42.074  23.419  26.627  1.00  0.00     0.014 A 
ATOM      9  C   UNL A   1      40.055  23.832  27.885  1.00  0.00     0.014 A 
ATOM     10  C   UNL A   1      42.556  24.684  26.963  1.00  0.00     0.010 A 
ATOM     11  C   UNL A   1      40.533  25.107  28.213  1.00  0.00     0.010 A 
ATOM     12  C   UNL A   1      41.772  25.550  27.732  1.00  0.00    -0.014 A 
BRANCH  12  13
ATOM     13  C   UNL A   1      42.233  26.948  27.867  1.00  0.00     0.031 A 
ATOM     14  C   UNL A   1      41.151  27.974  27.747  1.00  0.00     0.074 A 
ATOM     15  C   UNL A   1      43.347  27.283  28.552  1.00  0.00     0.049 A 
ATOM     16  N   UNL A   1      40.366  28.296  28.736  1.00  0.00    -0.248 NA
ATOM     17  C   UNL A   1      40.716  28.499  26.453  1.00  0.00     0.031 C 
ATOM     18  C   UNL A   1      43.772  26.606  29.784  1.00  0.00     0.029 A 
ATOM     19  N   UNL A   1      44.145  28.402  28.487  1.00  0.00    -0.354 N 
ATOM     20  C   UNL A   1      39.308  29.012  28.204  1.00  0.00     0.074 A 
ATOM     21  C   UNL A   1      39.573  29.120  26.786  1.00  0.00     0.031 C 
ATOM     22  C   UNL A   1      44.615  27.421  30.452  1.00  0.00     0.029 A 
ATOM     23  C   UNL A   1      44.916  28.590  29.631  1.00  0.00     0.049 A 
ATOM     24  H   UNL A   1      44.167  29.008  27.711  1.00  0.00     0.167 HD
ATOM     25  C   UNL A   1      38.272  29.478  28.953  1.00  0.00     0.031 A 
ATOM     26  C   UNL A   1      45.316  29.805  30.099  1.00  0.00     0.031 A 
ATOM     27  C   UNL A   1      38.373  29.245  30.363  1.00  0.00     0.049 A 
ATOM     28  C   UNL A   1      44.021  30.315  30.688  1.00  0.00     0.074 A 
ATOM     29  C   UNL A   1      37.868  28.373  31.302  1.00  0.00     0.029 A 
ATOM     30  N   UNL A   1      39.197  30.076  31.081  1.00  0.00    -0.354 N 
ATOM     31  N   UNL A   1      43.491  29.981  31.836  1.00  0.00    -0.248 NA
ATOM     32  C   UNL A   1      43.098  30.970  29.759  1.00  0.00     0.031 C 
ATOM     33  C   UNL A   1      38.768  28.446  32.412  1.00  0.00     0.029 A 
ATOM     34  C   UNL A   1      39.793  29.322  32.054  1.00  0.00     0.049 A 
ATOM     35  H   UNL A   1      39.333  31.038  30.924  1.00  0.00     0.167 HD
ATOM     36  C   UNL A   1      42.110  30.101  31.654  1.00  0.00     0.074 A 
ATOM     37  C   UNL A   1      41.942  30.731  30.360  1.00  0.00     0.031 C 
ATOM     38  C   UNL A   1      41.169  29.521  32.459  1.00  0.00     0.031 A 
BRANCH  25  39
ATOM     39  C   UNL A   1      37.185  30.338  28.437  1.00  0.00    -0.014 A 
ATOM     40  C   UNL A   1      35.996  29.819  27.916  1.00  0.00     0.009 A 
ATOM     41  C   UNL A   1      37.289  31.723  28.650  1.00  0.00     0.009 A 
ATOM     42  C   UNL A   1      34.924  30.676  27.637  1.00  0.00     0.001 A 
ATOM     43  C   UNL A   1      36.218  32.572  28.383  1.00  0.00     0.001 A 
ATOM     44  C   UNL A   1      35.032  32.046  27.882  1.00  0.00     0.000 A 
ENDBRANCH  25  39
BRANCH  26  45
ATOM     45  C   UNL A   1      46.157  30.601  29.139  1.00  0.00    -0.014 A 
ATOM     46  C   UNL A   1      46.255  32.001  29.107  1.00  0.00     0.009 A 
ATOM     47  C   UNL A   1      46.895  29.889  28.170  1.00  0.00     0.009 A 
ATOM     48  C   UNL A   1      46.913  32.657  28.057  1.00  0.00     0.001 A 
ATOM     49  C   UNL A   1      47.583  30.541  27.142  1.00  0.00     0.001 A 
ATOM     50  C   UNL A   1      47.560  31.929  27.064  1.00  0.00     0.000 A 
ENDBRANCH  26  45
BRANCH  38  51
ATOM     51  C   UNL A   1      41.638  28.888  33.730  1.00  0.00    -0.014 A 
ATOM     52  C   UNL A   1      42.006  27.532  33.764  1.00  0.00     0.009 A 
ATOM     53  C   UNL A   1      41.581  29.602  34.932  1.00  0.00     0.009 A 
ATOM     54  C   UNL A   1      42.235  26.887  34.980  1.00  0.00     0.001 A 
ATOM     55  C   UNL A   1      41.831  28.962  36.147  1.00  0.00     0.001 A 
ATOM     56  C   UNL A   1      42.137  27.601  36.172  1.00  0.00     0.000 A 
ENDBRANCH  38  51
ENDBRANCH  12  13
ENDBRANCH   5   7
ENDBRANCH   2   3
ENDBRANCH   1   2
BRANCH   1  57
ATOM     57  C   UNL A   1      35.959  20.708  25.386  1.00  0.00     0.118 C 
BRANCH  57  58
ATOM     58  N   UNL A   1      35.351  21.575  26.383  1.00  0.00    -0.351 N 
ATOM     59  C   UNL A   1      34.526  22.663  26.215  1.00  0.00     0.278 C 
ATOM     60  H   UNL A   1      35.562  21.350  27.318  1.00  0.00     0.163 HD
ATOM     61  O   UNL A   1      34.024  23.149  27.233  1.00  0.00    -0.268 OA
BRANCH  59  62
ATOM     62  C   UNL A   1      34.267  23.247  24.808  1.00  0.00     0.275 C 
ATOM     63  C   UNL A   1      34.631  24.763  24.727  1.00  0.00     0.089 C 
ATOM     64  N   UNL A   1      32.867  23.234  24.385  1.00  0.00    -0.320 N 
ATOM     65  C   UNL A   1      33.307  25.528  24.470  1.00  0.00     0.036 C 
ATOM     66  C   UNL A   1      32.489  24.463  23.730  1.00  0.00     0.270 C 
ATOM     67  H   UNL A   1      32.807  22.237  24.181  1.00  0.00     0.349 HD
ATOM     68  C   UNL A   1      33.455  26.779  23.579  1.00  0.00     0.074 C 
ATOM     69  C   UNL A   1      32.617  25.939  25.796  1.00  0.00     0.074 C 
ATOM     70  C   UNL A   1      34.013  27.994  24.318  1.00  0.00     0.261 C 
ATOM     71  C   UNL A   1      33.215  27.193  26.435  1.00  0.00     0.261 C 
ATOM     72  N   UNL A   1      33.220  28.319  25.502  1.00  0.00    -0.346 N 
ATOM     73  H   UNL A   1      32.262  28.526  25.218  1.00  0.00     0.346 HD
ATOM     74  H   UNL A   1      33.630  29.131  25.963  1.00  0.00     0.346 HD
BRANCH  64  75
ATOM     75  C   UNL A   1      31.879  22.223  24.668  1.00  0.00     0.302 C 
BRANCH  75  76
ATOM     76  C   UNL A   1      32.133  20.924  23.957  1.00  0.00     0.038 A 
ATOM     77  C   UNL A   1      32.060  20.810  22.545  1.00  0.00     0.012 A 
ATOM     78  C   UNL A   1      32.418  19.690  24.583  1.00  0.00     0.144 A 
ATOM     79  C   UNL A   1      32.147  19.584  21.834  1.00  0.00     0.003 A 
ATOM     80  C   UNL A   1      32.506  18.430  23.856  1.00  0.00     0.135 A 
ATOM     81  N   UNL A   1      32.650  19.429  25.874  1.00  0.00    -0.049 NA
ATOM     82  C   UNL A   1      32.348  18.347  22.464  1.00  0.00     0.034 A 
ATOM     83  N   UNL A   1      32.746  17.449  24.733  1.00  0.00    -0.050 NA
ATOM     84  O   UNL A   1      32.848  18.064  25.964  1.00  0.00    -0.243 OA
ENDBRANCH  75  76
ENDBRANCH  64  75
ENDBRANCH  59  62
ENDBRANCH  57  58
ENDBRANCH   1  57
TORSDOF 12
ENDMDL
MODEL 2
REMARK VINA RESULT:     -13.2      2.943      7.661
REMARK SMILES O=C(NCCCNC(=O)[C@@H]1CC2(CC[NH2+]CC2)C[N@@H+]1Cc1cccc2nonc12)c1ccc(-c2c3nc(c(-c4ccccc4)c4ccc([nH]4)c(-c4ccccc4)c4nc(c(-c5ccccc5)c5ccc2[nH]5)C=C4)C=C3)cc1
REMARK SMILES IDX 5 1 4 2 3 3 1 4 2 5 30 7 31 8 77 9 32 10 76 11 33 12 34 13
REMARK SMILES IDX 35 14 70 15 36 16 75 17 69 18 71 19 37 20 74 21 68 22 67 23
REMARK SMILES IDX 38 25 60 26 45 27 59 28 46 29 49 30 58 31 72 32 47 33 48 34
REMARK SMILES IDX 57 36 73 37 50 38 39 39 40 40 44 41 41 42 43 43 42 44 61 45
REMARK SMILES IDX 62 46 66 47 63 48 65 49 64 50 51 51 52 52 56 53 53 54 55 55
REMARK SMILES IDX 54 56 6 57 7 58 8 59 9 61 10 62 11 63 19 64 12 65 18 66
REMARK SMILES IDX 13 68 17 69 14 70 16 71 15 72 20 75 21 76 22 77 29 78 23 79
REMARK SMILES IDX 25 80 28 81 24 82 26 83 27 84
REMARK H PARENT 3 6 71 24 49 35 7 60 19 67 15 73 15 74
REMARK Flexibility Score: inf
ROOT
ATOM      1  C   UNL A   1      31.960  29.983  26.791  1.00  0.00     0.042 C 
ENDROOT
BRANCH   1   2
ATOM      2  C   UNL A   1      33.375  30.335  27.291  1.00  0.00     0.118 C 
BRANCH   2   3
ATOM      3  N   UNL A   1      33.537  31.739  27.627  1.00  0.00    -0.352 N 
ATOM      4  O   UNL A   1      34.337  33.651  28.451  1.00  0.00    -0.269 OA
ATOM      5  C   UNL A   1      34.514  32.445  28.280  1.00  0.00     0.251 C 
ATOM      6  H   UNL A   1      32.788  32.301  27.323  1.00  0.00     0.163 HD
BRANCH   5   7
ATOM      7  C   UNL A   1      35.764  31.835  28.799  1.00  0.00     0.039 A 
ATOM      8  C   UNL A   1      36.030  32.006  30.168  1.00  0.00     0.014 A 
ATOM      9  C   UNL A   1      36.720  31.215  27.993  1.00  0.00     0.014 A 
ATOM     10  C   UNL A   1      37.201  31.503  30.735  1.00  0.00     0.010 A 
ATOM     11  C   UNL A   1      37.891  30.699  28.564  1.00  0.00     0.010 A 
ATOM     12  C   UNL A   1      38.125  30.816  29.941  1.00  0.00    -0.014 A 
BRANCH  12  13
ATOM     13  C   UNL A   1      39.228  30.116  30.631  1.00  0.00     0.031 A 
ATOM     14  C   UNL A   1      39.413  28.689  30.219  1.00  0.00     0.074 A 
ATOM     15  C   UNL A   1      40.293  30.767  31.146  1.00  0.00     0.049 A 
ATOM     16  N   UNL A   1      40.063  28.340  29.145  1.00  0.00    -0.248 NA
ATOM     17  C   UNL A   1      38.660  27.597  30.835  1.00  0.00     0.031 C 
ATOM     18  C   UNL A   1      40.904  31.942  30.514  1.00  0.00     0.029 A 
ATOM     19  N   UNL A   1      41.193  30.397  32.119  1.00  0.00    -0.354 N 
ATOM     20  C   UNL A   1      39.770  27.009  28.903  1.00  0.00     0.074 A 
ATOM     21  C   UNL A   1      38.903  26.589  29.981  1.00  0.00     0.031 C 
ATOM     22  C   UNL A   1      42.161  32.078  30.987  1.00  0.00     0.029 A 
ATOM     23  C   UNL A   1      42.385  31.115  32.061  1.00  0.00     0.049 A 
ATOM     24  H   UNL A   1      41.012  29.697  32.787  1.00  0.00     0.167 HD
ATOM     25  C   UNL A   1      40.254  26.323  27.832  1.00  0.00     0.031 A 
ATOM     26  C   UNL A   1      43.596  30.628  32.451  1.00  0.00     0.031 A 
ATOM     27  C   UNL A   1      41.158  27.047  26.989  1.00  0.00     0.049 A 
ATOM     28  C   UNL A   1      43.906  29.701  31.297  1.00  0.00     0.074 A 
ATOM     29  C   UNL A   1      41.135  27.715  25.784  1.00  0.00     0.029 A 
ATOM     30  N   UNL A   1      42.455  27.177  27.423  1.00  0.00    -0.354 N 
ATOM     31  N   UNL A   1      44.353  30.036  30.114  1.00  0.00    -0.248 NA
ATOM     32  C   UNL A   1      43.334  28.355  31.373  1.00  0.00     0.031 C 
ATOM     33  C   UNL A   1      42.275  28.580  25.807  1.00  0.00     0.029 A 
ATOM     34  C   UNL A   1      42.890  28.419  27.048  1.00  0.00     0.049 A 
ATOM     35  H   UNL A   1      42.975  26.502  27.914  1.00  0.00     0.167 HD
ATOM     36  C   UNL A   1      43.841  29.073  29.240  1.00  0.00     0.074 A 
ATOM     37  C   UNL A   1      43.240  28.061  30.086  1.00  0.00     0.031 C 
ATOM     38  C   UNL A   1      43.756  29.225  27.884  1.00  0.00     0.031 A 
BRANCH  25  39
ATOM     39  C   UNL A   1      40.050  24.876  27.602  1.00  0.00    -0.014 A 
ATOM     40  C   UNL A   1      38.978  24.374  26.860  1.00  0.00     0.009 A 
ATOM     41  C   UNL A   1      41.076  24.000  27.996  1.00  0.00     0.009 A 
ATOM     42  C   UNL A   1      38.950  23.021  26.501  1.00  0.00     0.001 A 
ATOM     43  C   UNL A   1      41.053  22.657  27.629  1.00  0.00     0.001 A 
ATOM     44  C   UNL A   1      39.993  22.169  26.874  1.00  0.00     0.000 A 
ENDBRANCH  25  39
BRANCH  26  45
ATOM     45  C   UNL A   1      43.669  30.205  33.892  1.00  0.00    -0.014 A 
ATOM     46  C   UNL A   1      44.114  28.958  34.355  1.00  0.00     0.009 A 
ATOM     47  C   UNL A   1      43.231  31.127  34.866  1.00  0.00     0.009 A 
ATOM     48  C   UNL A   1      43.966  28.589  35.700  1.00  0.00     0.001 A 
ATOM     49  C   UNL A   1      43.117  30.775  36.215  1.00  0.00     0.001 A 
ATOM     50  C   UNL A   1      43.450  29.490  36.626  1.00  0.00     0.000 A 
ENDBRANCH  26  45
BRANCH  38  51
ATOM     51  C   UNL A   1      44.437  30.408  27.274  1.00  0.00    -0.014 A 
ATOM     52  C   UNL A   1      45.786  30.339  26.886  1.00  0.00     0.009 A 
ATOM     53  C   UNL A   1      43.779  31.641  27.213  1.00  0.00     0.009 A 
ATOM     54  C   UNL A   1      46.481  31.493  26.520  1.00  0.00     0.001 A 
ATOM     55  C   UNL A   1      44.468  32.792  26.827  1.00  0.00     0.001 A 
ATOM     56  C   UNL A   1      45.823  32.721  26.501  1.00  0.00     0.000 A 
ENDBRANCH  38  51
ENDBRANCH  12  13
ENDBRANCH   5   7
ENDBRANCH   2   3
ENDBRANCH   1   2
BRANCH   1  57
ATOM     57  C   UNL A   1      31.756  29.806  25.276  1.00  0.00     0.118 C 
BRANCH  57  58
ATOM     58  N   UNL A   1      32.838  29.123  24.584  1.00  0.00    -0.351 N 
ATOM     59  C   UNL A   1      33.082  27.776  24.449  1.00  0.00     0.278 C 
ATOM     60  H   UNL A   1      33.494  29.713  24.147  1.00  0.00     0.163 HD
ATOM     61  O   UNL A   1      33.996  27.445  23.687  1.00  0.00    -0.268 OA
BRANCH  59  62
ATOM     62  C   UNL A   1      32.251  26.740  25.239  1.00  0.00     0.275 C 
ATOM     63  C   UNL A   1      33.149  25.822  26.126  1.00  0.00     0.089 C 
ATOM     64  N   UNL A   1      31.527  25.774  24.413  1.00  0.00    -0.320 N 
ATOM     65  C   UNL A   1      33.016  24.384  25.560  1.00  0.00     0.036 C 
ATOM     66  C   UNL A   1      31.611  24.436  24.947  1.00  0.00     0.270 C 
ATOM     67  H   UNL A   1      30.787  26.403  24.104  1.00  0.00     0.349 HD
ATOM     68  C   UNL A   1      33.077  23.271  26.625  1.00  0.00     0.074 C 
ATOM     69  C   UNL A   1      34.087  24.095  24.475  1.00  0.00     0.074 C 
ATOM     70  C   UNL A   1      34.494  22.953  27.099  1.00  0.00     0.261 C 
ATOM     71  C   UNL A   1      35.459  23.741  25.048  1.00  0.00     0.261 C 
ATOM     72  N   UNL A   1      35.376  22.619  25.982  1.00  0.00    -0.346 N 
ATOM     73  H   UNL A   1      35.008  21.802  25.496  1.00  0.00     0.346 HD
ATOM     74  H   UNL A   1      36.308  22.419  26.345  1.00  0.00     0.346 HD
BRANCH  64  75
ATOM     75  C   UNL A   1      30.899  26.013  23.138  1.00  0.00     0.302 C 
BRANCH  75  76
ATOM     76  C   UNL A   1      29.729  26.953  23.215  1.00  0.00     0.038 A 
ATOM     77  C   UNL A   1      28.524  26.604  23.876  1.00  0.00     0.012 A 
ATOM     78  C   UNL A   1      29.667  28.233  22.621  1.00  0.00     0.144 A 
ATOM     79  C   UNL A   1      27.341  27.391  23.857  1.00  0.00     0.003 A 
ATOM     80  C   UNL A   1      28.455  29.041  22.598  1.00  0.00     0.135 A 
ATOM     81  N   UNL A   1      30.627  28.927  22.001  1.00  0.00    -0.049 NA
ATOM     82  C   UNL A   1      27.255  28.625  23.196  1.00  0.00     0.034 A 
ATOM     83  N   UNL A   1      28.711  30.172  21.931  1.00  0.00    -0.050 NA
ATOM     84  O   UNL A   1      30.043  30.107  21.580  1.00  0.00    -0.243 OA
ENDBRANCH  75  76
ENDBRANCH  64  75
ENDBRANCH  59  62
ENDBRANCH  57  58
ENDBRANCH   1  57
TORSDOF 12
ENDMDL
MODEL 3
REMARK VINA RESULT:     -13.0      1.609      3.439
REMARK SMILES O=C(NCCCNC(=O)[C@@H]1CC2(CC[NH2+]CC2)C[N@@H+]1Cc1cccc2nonc12)c1ccc(-c2c3nc(c(-c4ccccc4)c4ccc([nH]4)c(-c4ccccc4)c4nc(c(-c5ccccc5)c5ccc2[nH]5)C=C4)C=C3)cc1
REMARK SMILES IDX 5 1 4 2 3 3 1 4 2 5 30 7 31 8 77 9 32 10 76 11 33 12 34 13
REMARK SMILES IDX 35 14 70 15 36 16 75 17 69 18 71 19 37 20 74 21 68 22 67 23
REMARK SMILES IDX 38 25 60 26 45 27 59 28 46 29 49 30 58 31 72 32 47 33 48 34
REMARK SMILES IDX 57 36 73 37 50 38 39 39 40 40 44 41 41 42 43 43 42 44 61 45
REMARK SMILES IDX 62 46 66 47 63 48 65 49 64 50 51 51 52 52 56 53 53 54 55 55
REMARK SMILES IDX 54 56 6 57 7 58 8 59 9 61 10 62 11 63 19 64 12 65 18 66
REMARK SMILES IDX 13 68 17 69 14 70 16 71 15 72 20 75 21 76 22 77 29 78 23 79
REMARK SMILES IDX 25 80 28 81 24 82 26 83 27 84
REMARK H PARENT 3 6 71 24 49 35 7 60 19 67 15 73 15 74
REMARK Flexibility Score: inf
ROOT
ATOM      1  C   UNL A   1      39.019  23.486  26.262  1.00  0.00     0.042 C 
ENDROOT
BRANCH   1   2
ATOM      2  C   UNL A   1      39.324  22.008  26.578  1.00  0.00     0.118 C 
BRANCH   2   3
ATOM      3  N   UNL A   1      40.609  21.562  26.069  1.00  0.00    -0.352 N 
ATOM      4  O   UNL A   1      42.754  21.510  25.458  1.00  0.00    -0.269 OA
ATOM      5  C   UNL A   1      41.849  22.143  26.003  1.00  0.00     0.251 C 
ATOM      6  H   UNL A   1      40.584  20.653  25.692  1.00  0.00     0.163 HD
BRANCH   5   7
ATOM      7  C   UNL A   1      42.158  23.492  26.538  1.00  0.00     0.039 A 
ATOM      8  C   UNL A   1      42.728  24.413  25.645  1.00  0.00     0.014 A 
ATOM      9  C   UNL A   1      42.019  23.845  27.882  1.00  0.00     0.014 A 
ATOM     10  C   UNL A   1      43.089  25.691  26.072  1.00  0.00     0.010 A 
ATOM     11  C   UNL A   1      42.369  25.133  28.309  1.00  0.00     0.010 A 
ATOM     12  C   UNL A   1      42.880  26.071  27.402  1.00  0.00    -0.014 A 
BRANCH  12  13
ATOM     13  C   UNL A   1      43.070  27.496  27.741  1.00  0.00     0.031 A 
ATOM     14  C   UNL A   1      41.826  28.325  27.665  1.00  0.00     0.074 A 
ATOM     15  C   UNL A   1      44.065  27.926  28.545  1.00  0.00     0.049 A 
ATOM     16  N   UNL A   1      40.944  28.369  28.623  1.00  0.00    -0.248 NA
ATOM     17  C   UNL A   1      41.371  28.934  26.415  1.00  0.00     0.031 C 
ATOM     18  C   UNL A   1      44.542  27.175  29.713  1.00  0.00     0.029 A 
ATOM     19  N   UNL A   1      44.647  29.166  28.678  1.00  0.00    -0.354 N 
ATOM     20  C   UNL A   1      39.802  28.954  28.103  1.00  0.00     0.074 A 
ATOM     21  C   UNL A   1      40.117  29.295  26.733  1.00  0.00     0.031 C 
ATOM     22  C   UNL A   1      45.184  28.028  30.539  1.00  0.00     0.029 A 
ATOM     23  C   UNL A   1      45.309  29.331  29.892  1.00  0.00     0.049 A 
ATOM     24  H   UNL A   1      44.599  29.865  27.986  1.00  0.00     0.167 HD
ATOM     25  C   UNL A   1      38.660  29.127  28.823  1.00  0.00     0.031 A 
ATOM     26  C   UNL A   1      45.454  30.524  30.534  1.00  0.00     0.031 A 
ATOM     27  C   UNL A   1      38.727  28.728  30.196  1.00  0.00     0.049 A 
ATOM     28  C   UNL A   1      44.058  30.716  31.081  1.00  0.00     0.074 A 
ATOM     29  C   UNL A   1      38.341  27.663  30.981  1.00  0.00     0.029 A 
ATOM     30  N   UNL A   1      39.345  29.586  31.072  1.00  0.00    -0.354 N 
ATOM     31  N   UNL A   1      43.537  30.143  32.135  1.00  0.00    -0.248 NA
ATOM     32  C   UNL A   1      43.081  31.318  30.171  1.00  0.00     0.031 C 
ATOM     33  C   UNL A   1      39.152  27.744  32.157  1.00  0.00     0.029 A 
ATOM     34  C   UNL A   1      40.017  28.824  31.988  1.00  0.00     0.049 A 
ATOM     35  H   UNL A   1      39.311  30.569  31.045  1.00  0.00     0.167 HD
ATOM     36  C   UNL A   1      42.170  30.043  31.865  1.00  0.00     0.074 A 
ATOM     37  C   UNL A   1      41.958  30.802  30.648  1.00  0.00     0.031 C 
ATOM     38  C   UNL A   1      41.310  29.205  32.519  1.00  0.00     0.031 A 
BRANCH  25  39
ATOM     39  C   UNL A   1      37.463  29.844  28.334  1.00  0.00    -0.014 A 
ATOM     40  C   UNL A   1      36.339  29.182  27.832  1.00  0.00     0.009 A 
ATOM     41  C   UNL A   1      37.395  31.230  28.555  1.00  0.00     0.009 A 
ATOM     42  C   UNL A   1      35.162  29.897  27.580  1.00  0.00     0.001 A 
ATOM     43  C   UNL A   1      36.220  31.938  28.315  1.00  0.00     0.001 A 
ATOM     44  C   UNL A   1      35.100  31.269  27.833  1.00  0.00     0.000 A 
ENDBRANCH  25  39
BRANCH  26  45
ATOM     45  C   UNL A   1      46.184  31.576  29.745  1.00  0.00    -0.014 A 
ATOM     46  C   UNL A   1      45.674  32.836  29.398  1.00  0.00     0.009 A 
ATOM     47  C   UNL A   1      47.484  31.268  29.292  1.00  0.00     0.009 A 
ATOM     48  C   UNL A   1      46.356  33.672  28.502  1.00  0.00     0.001 A 
ATOM     49  C   UNL A   1      48.183  32.116  28.427  1.00  0.00     0.001 A 
ATOM     50  C   UNL A   1      47.600  33.304  28.001  1.00  0.00     0.000 A 
ENDBRANCH  26  45
BRANCH  38  51
ATOM     51  C   UNL A   1      41.819  28.499  33.734  1.00  0.00    -0.014 A 
ATOM     52  C   UNL A   1      42.531  27.293  33.619  1.00  0.00     0.009 A 
ATOM     53  C   UNL A   1      41.469  28.957  35.009  1.00  0.00     0.009 A 
ATOM     54  C   UNL A   1      42.818  26.526  34.749  1.00  0.00     0.001 A 
ATOM     55  C   UNL A   1      41.774  28.200  36.141  1.00  0.00     0.001 A 
ATOM     56  C   UNL A   1      42.430  26.975  36.009  1.00  0.00     0.000 A 
ENDBRANCH  38  51
ENDBRANCH  12  13
ENDBRANCH   5   7
ENDBRANCH   2   3
ENDBRANCH   1   2
BRANCH   1  57
ATOM     57  C   UNL A   1      37.543  23.916  26.189  1.00  0.00     0.118 C 
BRANCH  57  58
ATOM     58  N   UNL A   1      36.905  23.716  24.898  1.00  0.00    -0.351 N 
ATOM     59  C   UNL A   1      35.957  22.794  24.520  1.00  0.00     0.278 C 
ATOM     60  H   UNL A   1      37.196  24.333  24.187  1.00  0.00     0.163 HD
ATOM     61  O   UNL A   1      35.468  22.921  23.393  1.00  0.00    -0.268 OA
BRANCH  59  62
ATOM     62  C   UNL A   1      35.550  21.645  25.471  1.00  0.00     0.275 C 
ATOM     63  C   UNL A   1      35.010  20.405  24.693  1.00  0.00     0.089 C 
ATOM     64  N   UNL A   1      34.445  21.959  26.376  1.00  0.00    -0.320 N 
ATOM     65  C   UNL A   1      33.516  20.250  25.080  1.00  0.00     0.036 C 
ATOM     66  C   UNL A   1      33.509  20.867  26.484  1.00  0.00     0.270 C 
ATOM     67  H   UNL A   1      34.973  22.549  27.019  1.00  0.00     0.349 HD
ATOM     68  C   UNL A   1      33.023  18.791  25.152  1.00  0.00     0.074 C 
ATOM     69  C   UNL A   1      32.591  21.042  24.119  1.00  0.00     0.074 C 
ATOM     70  C   UNL A   1      32.732  18.175  23.785  1.00  0.00     0.261 C 
ATOM     71  C   UNL A   1      32.322  20.323  22.797  1.00  0.00     0.261 C 
ATOM     72  N   UNL A   1      31.785  18.981  23.018  1.00  0.00    -0.346 N 
ATOM     73  H   UNL A   1      30.907  19.050  23.533  1.00  0.00     0.346 HD
ATOM     74  H   UNL A   1      31.624  18.534  22.115  1.00  0.00     0.346 HD
BRANCH  64  75
ATOM     75  C   UNL A   1      34.171  23.223  27.013  1.00  0.00     0.302 C 
BRANCH  75  76
ATOM     76  C   UNL A   1      33.094  24.016  26.327  1.00  0.00     0.038 A 
ATOM     77  C   UNL A   1      33.383  24.941  25.292  1.00  0.00     0.012 A 
ATOM     78  C   UNL A   1      31.719  23.977  26.647  1.00  0.00     0.144 A 
ATOM     79  C   UNL A   1      32.429  25.819  24.711  1.00  0.00     0.003 A 
ATOM     80  C   UNL A   1      30.738  24.877  26.053  1.00  0.00     0.135 A 
ATOM     81  N   UNL A   1      31.068  23.172  27.493  1.00  0.00    -0.049 NA
ATOM     82  C   UNL A   1      31.078  25.837  25.087  1.00  0.00     0.034 A 
ATOM     83  N   UNL A   1      29.541  24.615  26.590  1.00  0.00    -0.050 NA
ATOM     84  O   UNL A   1      29.743  23.562  27.459  1.00  0.00    -0.243 OA
ENDBRANCH  75  76
ENDBRANCH  64  75
ENDBRANCH  59  62
ENDBRANCH  57  58
ENDBRANCH   1  57
TORSDOF 12
ENDMDL
