MODEL 1
REMARK VINA RESULT:     -12.5      0.000      0.000
REMARK SMILES COc1ccc(/C=C2/C(=O)N(c3ccccc3)C(=O)[NH+]=C2NCCCNC(=O)c2ccc(-c3c4nc(c(-c5ccccc5)c5ccc([nH]5)c(-c5ccccc5)c5nc(c(-c6ccccc6)c6ccc3[nH]6)C=C5)C=C4)cc2)cc1C(=O)[O-]
REMARK SMILES IDX 24 1 23 2 22 3 7 4 8 5 9 6 21 7 10 8 11 9 20 10 18 11 19 14
REMARK SMILES IDX 6 15 3 16 4 17 78 18 5 19 77 20 2 21 1 22 79 23 80 24 81 25
REMARK SMILES IDX 12 26 13 27 17 28 14 29 16 30 15 31 25 32 26 33 27 34 28 36
REMARK SMILES IDX 29 37 30 38 76 39 31 40 75 41 32 42 33 43 34 44 69 45 35 46
REMARK SMILES IDX 74 47 68 48 70 49 36 50 73 51 67 52 66 53 37 55 59 56 44 57
REMARK SMILES IDX 58 58 45 59 48 60 57 61 71 62 46 63 47 64 56 66 72 67 49 68
REMARK SMILES IDX 38 69 39 70 43 71 40 72 42 73 41 74 60 75 61 76 65 77 62 78
REMARK SMILES IDX 64 79 63 80 50 81 51 82 55 83 52 84 54 85 53 86
REMARK H PARENT 20 12 22 13 26 35 70 54 48 65
REMARK Flexibility Score: inf
ROOT
ATOM      1  C   UNL A   1      32.244  28.589  26.318  1.00  0.00     0.059 C 
ENDROOT
BRANCH   1   2
ATOM      2  C   UNL A   1      31.386  27.540  26.981  1.00  0.00     0.195 C 
BRANCH   2   3
ATOM      3  N   UNL A   1      31.922  26.232  26.850  1.00  0.00    -0.305 N 
ATOM      4  C   UNL A   1      31.208  25.311  23.532  1.00  0.00     0.030 C 
ATOM      5  C   UNL A   1      31.741  24.706  24.635  1.00  0.00     0.129 C 
ATOM      6  C   UNL A   1      32.229  23.277  24.323  1.00  0.00     0.328 C 
ATOM      7  C   UNL A   1      31.971  25.120  26.067  1.00  0.00     0.236 C 
ATOM      8  O   UNL A   1      32.234  22.864  23.158  1.00  0.00    -0.249 OA
ATOM      9  N   UNL A   1      32.621  22.488  25.402  1.00  0.00    -0.155 N 
ATOM     10  N   UNL A   1      32.392  24.249  26.946  1.00  0.00    -0.209 N 
ATOM     11  C   UNL A   1      32.677  22.956  26.705  1.00  0.00     0.448 C 
ATOM     12  H   UNL A   1      32.510  24.568  27.869  1.00  0.00     0.270 HD
ATOM     13  H   UNL A   1      32.479  26.060  27.642  1.00  0.00     0.256 HD
ATOM     14  O   UNL A   1      33.041  22.278  27.664  1.00  0.00    -0.212 OA
BRANCH   4  15
ATOM     15  C   UNL A   1      30.643  26.646  23.222  1.00  0.00    -0.024 A 
ATOM     16  C   UNL A   1      29.735  29.290  22.830  1.00  0.00     0.127 A 
ATOM     17  C   UNL A   1      31.001  28.903  22.415  1.00  0.00     0.048 A 
ATOM     18  C   UNL A   1      28.818  28.307  23.206  1.00  0.00     0.040 A 
ATOM     19  C   UNL A   1      31.402  27.570  22.533  1.00  0.00     0.012 A 
ATOM     20  C   UNL A   1      29.295  26.995  23.461  1.00  0.00     0.022 A 
BRANCH  16  21
ATOM     21  O   UNL A   1      29.467  30.630  22.769  1.00  0.00    -0.496 OA
ATOM     22  C   UNL A   1      29.592  31.231  24.061  1.00  0.00     0.278 C 
ENDBRANCH  16  21
BRANCH  18  23
ATOM     23  C   UNL A   1      27.355  28.568  23.264  1.00  0.00     0.075 C 
ATOM     24  O   UNL A   1      26.795  29.567  22.843  1.00  0.00    -0.545 OA
ATOM     25  O   UNL A   1      26.671  27.624  23.935  1.00  0.00    -0.545 OA
ENDBRANCH  18  23
ENDBRANCH   4  15
BRANCH   9  26
ATOM     26  C   UNL A   1      33.087  21.142  25.196  1.00  0.00     0.111 A 
ATOM     27  C   UNL A   1      34.464  20.879  25.077  1.00  0.00     0.044 A 
ATOM     28  C   UNL A   1      32.185  20.096  24.966  1.00  0.00     0.044 A 
ATOM     29  C   UNL A   1      34.929  19.616  24.710  1.00  0.00     0.004 A 
ATOM     30  C   UNL A   1      32.653  18.834  24.582  1.00  0.00     0.004 A 
ATOM     31  C   UNL A   1      34.021  18.596  24.451  1.00  0.00     0.000 A 
ENDBRANCH   9  26
ENDBRANCH   2   3
ENDBRANCH   1   2
BRANCH   1  32
ATOM     32  C   UNL A   1      33.468  28.921  27.156  1.00  0.00     0.119 C 
BRANCH  32  33
ATOM     33  N   UNL A   1      33.504  30.261  27.730  1.00  0.00    -0.352 N 
ATOM     34  C   UNL A   1      34.535  30.934  28.345  1.00  0.00     0.251 C 
ATOM     35  H   UNL A   1      32.660  30.764  27.668  1.00  0.00     0.163 HD
ATOM     36  O   UNL A   1      34.339  32.065  28.780  1.00  0.00    -0.269 OA
BRANCH  34  37
ATOM     37  C   UNL A   1      35.854  30.288  28.522  1.00  0.00     0.039 A 
ATOM     38  C   UNL A   1      36.772  30.319  27.467  1.00  0.00     0.014 A 
ATOM     39  C   UNL A   1      36.204  29.678  29.726  1.00  0.00     0.014 A 
ATOM     40  C   UNL A   1      38.061  29.818  27.656  1.00  0.00     0.010 A 
ATOM     41  C   UNL A   1      37.517  29.308  29.957  1.00  0.00     0.010 A 
ATOM     42  C   UNL A   1      38.454  29.349  28.918  1.00  0.00    -0.014 A 
BRANCH  42  43
ATOM     43  C   UNL A   1      39.813  28.829  29.185  1.00  0.00     0.031 A 
ATOM     44  C   UNL A   1      40.839  29.743  29.799  1.00  0.00     0.074 A 
ATOM     45  C   UNL A   1      40.148  27.587  28.786  1.00  0.00     0.049 A 
ATOM     46  N   UNL A   1      42.114  29.536  30.002  1.00  0.00    -0.248 NA
ATOM     47  C   UNL A   1      40.378  31.086  30.196  1.00  0.00     0.031 C 
ATOM     48  C   UNL A   1      39.250  26.630  28.135  1.00  0.00     0.029 A 
ATOM     49  N   UNL A   1      41.346  26.925  28.856  1.00  0.00    -0.354 N 
ATOM     50  C   UNL A   1      42.606  30.727  30.524  1.00  0.00     0.074 A 
ATOM     51  C   UNL A   1      41.514  31.672  30.538  1.00  0.00     0.031 C 
ATOM     52  C   UNL A   1      39.922  25.493  27.893  1.00  0.00     0.029 A 
ATOM     53  C   UNL A   1      41.305  25.658  28.326  1.00  0.00     0.049 A 
ATOM     54  H   UNL A   1      42.157  27.319  29.250  1.00  0.00     0.167 HD
ATOM     55  C   UNL A   1      43.850  31.002  30.979  1.00  0.00     0.031 A 
ATOM     56  C   UNL A   1      42.280  24.739  28.200  1.00  0.00     0.031 A 
ATOM     57  C   UNL A   1      44.925  30.050  30.978  1.00  0.00     0.049 A 
ATOM     58  C   UNL A   1      43.659  25.071  28.702  1.00  0.00     0.074 A 
ATOM     59  C   UNL A   1      46.208  30.197  31.471  1.00  0.00     0.029 A 
ATOM     60  N   UNL A   1      44.839  28.770  30.452  1.00  0.00    -0.354 N 
ATOM     61  N   UNL A   1      44.092  26.174  29.264  1.00  0.00    -0.248 NA
ATOM     62  C   UNL A   1      44.681  24.025  28.562  1.00  0.00     0.031 C 
ATOM     63  C   UNL A   1      46.918  29.026  31.190  1.00  0.00     0.029 A 
ATOM     64  C   UNL A   1      46.056  28.124  30.584  1.00  0.00     0.049 A 
ATOM     65  H   UNL A   1      44.033  28.378  30.046  1.00  0.00     0.167 HD
ATOM     66  C   UNL A   1      45.426  25.945  29.574  1.00  0.00     0.074 A 
ATOM     67  C   UNL A   1      45.724  24.590  29.154  1.00  0.00     0.031 C 
ATOM     68  C   UNL A   1      46.326  26.776  30.155  1.00  0.00     0.031 A 
BRANCH  55  69
ATOM     69  C   UNL A   1      44.104  32.386  31.510  1.00  0.00    -0.014 A 
ATOM     70  C   UNL A   1      44.548  33.422  30.670  1.00  0.00     0.009 A 
ATOM     71  C   UNL A   1      43.879  32.667  32.866  1.00  0.00     0.009 A 
ATOM     72  C   UNL A   1      44.805  34.693  31.186  1.00  0.00     0.001 A 
ATOM     73  C   UNL A   1      44.103  33.949  33.372  1.00  0.00     0.001 A 
ATOM     74  C   UNL A   1      44.577  34.957  32.535  1.00  0.00     0.000 A 
ENDBRANCH  55  69
BRANCH  56  75
ATOM     75  C   UNL A   1      41.987  23.414  27.593  1.00  0.00    -0.014 A 
ATOM     76  C   UNL A   1      41.407  22.392  28.362  1.00  0.00     0.009 A 
ATOM     77  C   UNL A   1      42.288  23.157  26.246  1.00  0.00     0.009 A 
ATOM     78  C   UNL A   1      41.164  21.134  27.805  1.00  0.00     0.001 A 
ATOM     79  C   UNL A   1      42.015  21.909  25.682  1.00  0.00     0.001 A 
ATOM     80  C   UNL A   1      41.464  20.895  26.465  1.00  0.00     0.000 A 
ENDBRANCH  56  75
BRANCH  68  81
ATOM     81  C   UNL A   1      47.704  26.231  30.403  1.00  0.00    -0.014 A 
ATOM     82  C   UNL A   1      48.677  26.214  29.391  1.00  0.00     0.009 A 
ATOM     83  C   UNL A   1      48.046  25.769  31.684  1.00  0.00     0.009 A 
ATOM     84  C   UNL A   1      49.954  25.712  29.649  1.00  0.00     0.001 A 
ATOM     85  C   UNL A   1      49.333  25.302  31.949  1.00  0.00     0.001 A 
ATOM     86  C   UNL A   1      50.282  25.262  30.929  1.00  0.00     0.000 A 
ENDBRANCH  68  81
ENDBRANCH  42  43
ENDBRANCH  34  37
ENDBRANCH  32  33
ENDBRANCH   1  32
TORSDOF 13
ENDMDL
MODEL 2
REMARK VINA RESULT:     -11.8      2.450      8.335
REMARK SMILES COc1ccc(/C=C2/C(=O)N(c3ccccc3)C(=O)[NH+]=C2NCCCNC(=O)c2ccc(-c3c4nc(c(-c5ccccc5)c5ccc([nH]5)c(-c5ccccc5)c5nc(c(-c6ccccc6)c6ccc3[nH]6)C=C5)C=C4)cc2)cc1C(=O)[O-]
REMARK SMILES IDX 24 1 23 2 22 3 7 4 8 5 9 6 21 7 10 8 11 9 20 10 18 11 19 14
REMARK SMILES IDX 6 15 3 16 4 17 78 18 5 19 77 20 2 21 1 22 79 23 80 24 81 25
REMARK SMILES IDX 12 26 13 27 17 28 14 29 16 30 15 31 25 32 26 33 27 34 28 36
REMARK SMILES IDX 29 37 30 38 76 39 31 40 75 41 32 42 33 43 34 44 69 45 35 46
REMARK SMILES IDX 74 47 68 48 70 49 36 50 73 51 67 52 66 53 37 55 59 56 44 57
REMARK SMILES IDX 58 58 45 59 48 60 57 61 71 62 46 63 47 64 56 66 72 67 49 68
REMARK SMILES IDX 38 69 39 70 43 71 40 72 42 73 41 74 60 75 61 76 65 77 62 78
REMARK SMILES IDX 64 79 63 80 50 81 51 82 55 83 52 84 54 85 53 86
REMARK H PARENT 20 12 22 13 26 35 70 54 48 65
REMARK Flexibility Score: inf
ROOT
ATOM      1  C   UNL A   1      35.638  22.638  25.497  1.00  0.00     0.059 C 
ENDROOT
BRANCH   1   2
ATOM      2  C   UNL A   1      34.658  23.108  26.544  1.00  0.00     0.195 C 
BRANCH   2   3
ATOM      3  N   UNL A   1      33.831  24.166  26.083  1.00  0.00    -0.305 N 
ATOM      4  C   UNL A   1      31.606  22.633  23.831  1.00  0.00     0.030 C 
ATOM      5  C   UNL A   1      31.884  23.908  24.236  1.00  0.00     0.129 C 
ATOM      6  C   UNL A   1      30.919  24.932  23.602  1.00  0.00     0.328 C 
ATOM      7  C   UNL A   1      32.897  24.532  25.163  1.00  0.00     0.236 C 
ATOM      8  O   UNL A   1      29.952  24.544  22.939  1.00  0.00    -0.249 OA
ATOM      9  N   UNL A   1      31.211  26.281  23.787  1.00  0.00    -0.155 N 
ATOM     10  N   UNL A   1      33.002  25.832  25.246  1.00  0.00    -0.209 N 
ATOM     11  C   UNL A   1      32.258  26.731  24.576  1.00  0.00     0.448 C 
ATOM     12  H   UNL A   1      33.691  26.186  25.853  1.00  0.00     0.270 HD
ATOM     13  H   UNL A   1      34.001  24.947  26.657  1.00  0.00     0.256 HD
ATOM     14  O   UNL A   1      32.514  27.919  24.765  1.00  0.00    -0.212 OA
BRANCH   4  15
ATOM     15  C   UNL A   1      32.142  21.285  24.131  1.00  0.00    -0.024 A 
ATOM     16  C   UNL A   1      33.403  18.840  24.768  1.00  0.00     0.127 A 
ATOM     17  C   UNL A   1      33.043  19.736  25.764  1.00  0.00     0.048 A 
ATOM     18  C   UNL A   1      32.909  19.032  23.477  1.00  0.00     0.040 A 
ATOM     19  C   UNL A   1      32.339  20.899  25.442  1.00  0.00     0.012 A 
ATOM     20  C   UNL A   1      32.332  20.286  23.149  1.00  0.00     0.022 A 
BRANCH  16  21
ATOM     21  O   UNL A   1      34.175  17.783  25.163  1.00  0.00    -0.496 OA
ATOM     22  C   UNL A   1      33.373  16.775  25.786  1.00  0.00     0.278 C 
ENDBRANCH  16  21
BRANCH  18  23
ATOM     23  C   UNL A   1      32.889  17.941  22.465  1.00  0.00     0.075 C 
ATOM     24  O   UNL A   1      33.694  17.027  22.391  1.00  0.00    -0.545 OA
ATOM     25  O   UNL A   1      31.932  18.096  21.532  1.00  0.00    -0.545 OA
ENDBRANCH  18  23
ENDBRANCH   4  15
BRANCH   9  26
ATOM     26  C   UNL A   1      30.363  27.299  23.226  1.00  0.00     0.111 A 
ATOM     27  C   UNL A   1      30.908  28.301  22.403  1.00  0.00     0.044 A 
ATOM     28  C   UNL A   1      29.017  27.400  23.600  1.00  0.00     0.044 A 
ATOM     29  C   UNL A   1      30.141  29.391  21.987  1.00  0.00     0.004 A 
ATOM     30  C   UNL A   1      28.254  28.502  23.196  1.00  0.00     0.004 A 
ATOM     31  C   UNL A   1      28.816  29.495  22.395  1.00  0.00     0.000 A 
ENDBRANCH   9  26
ENDBRANCH   2   3
ENDBRANCH   1   2
BRANCH   1  32
ATOM     32  C   UNL A   1      36.953  23.395  25.584  1.00  0.00     0.119 C 
BRANCH  32  33
ATOM     33  N   UNL A   1      38.156  22.576  25.674  1.00  0.00    -0.352 N 
ATOM     34  C   UNL A   1      39.387  22.867  26.217  1.00  0.00     0.251 C 
ATOM     35  H   UNL A   1      38.076  21.675  25.287  1.00  0.00     0.163 HD
ATOM     36  O   UNL A   1      40.280  22.026  26.166  1.00  0.00    -0.269 OA
BRANCH  34  37
ATOM     37  C   UNL A   1      39.650  24.193  26.816  1.00  0.00     0.039 A 
ATOM     38  C   UNL A   1      39.294  24.418  28.150  1.00  0.00     0.014 A 
ATOM     39  C   UNL A   1      40.268  25.207  26.085  1.00  0.00     0.014 A 
ATOM     40  C   UNL A   1      39.640  25.623  28.765  1.00  0.00     0.010 A 
ATOM     41  C   UNL A   1      40.731  26.340  26.729  1.00  0.00     0.010 A 
ATOM     42  C   UNL A   1      40.399  26.574  28.069  1.00  0.00    -0.014 A 
BRANCH  42  43
ATOM     43  C   UNL A   1      40.816  27.858  28.675  1.00  0.00     0.031 A 
ATOM     44  C   UNL A   1      39.795  28.950  28.851  1.00  0.00     0.074 A 
ATOM     45  C   UNL A   1      42.113  28.074  28.965  1.00  0.00     0.049 A 
ATOM     46  N   UNL A   1      39.966  30.186  29.241  1.00  0.00    -0.248 NA
ATOM     47  C   UNL A   1      38.403  28.620  28.497  1.00  0.00     0.031 C 
ATOM     48  C   UNL A   1      43.198  27.106  28.791  1.00  0.00     0.029 A 
ATOM     49  N   UNL A   1      42.739  29.190  29.457  1.00  0.00    -0.354 N 
ATOM     50  C   UNL A   1      38.713  30.781  29.154  1.00  0.00     0.074 A 
ATOM     51  C   UNL A   1      37.808  29.796  28.607  1.00  0.00     0.031 C 
ATOM     52  C   UNL A   1      44.351  27.662  29.196  1.00  0.00     0.029 A 
ATOM     53  C   UNL A   1      44.094  29.036  29.613  1.00  0.00     0.049 A 
ATOM     54  H   UNL A   1      42.262  30.022  29.677  1.00  0.00     0.167 HD
ATOM     55  C   UNL A   1      38.340  32.027  29.525  1.00  0.00     0.031 A 
ATOM     56  C   UNL A   1      45.024  29.911  30.040  1.00  0.00     0.031 A 
ATOM     57  C   UNL A   1      39.243  32.994  30.084  1.00  0.00     0.049 A 
ATOM     58  C   UNL A   1      44.588  31.296  30.434  1.00  0.00     0.074 A 
ATOM     59  C   UNL A   1      38.965  34.264  30.553  1.00  0.00     0.029 A 
ATOM     60  N   UNL A   1      40.605  32.793  30.247  1.00  0.00    -0.354 N 
ATOM     61  N   UNL A   1      43.386  31.821  30.421  1.00  0.00    -0.248 NA
ATOM     62  C   UNL A   1      45.637  32.205  30.916  1.00  0.00     0.031 C 
ATOM     63  C   UNL A   1      40.169  34.855  30.945  1.00  0.00     0.029 A 
ATOM     64  C   UNL A   1      41.187  33.927  30.784  1.00  0.00     0.049 A 
ATOM     65  H   UNL A   1      41.087  31.966  30.015  1.00  0.00     0.167 HD
ATOM     66  C   UNL A   1      43.528  33.109  30.920  1.00  0.00     0.074 A 
ATOM     67  C   UNL A   1      44.931  33.277  31.244  1.00  0.00     0.031 C 
ATOM     68  C   UNL A   1      42.586  34.069  31.097  1.00  0.00     0.031 A 
BRANCH  55  69
ATOM     69  C   UNL A   1      36.897  32.406  29.330  1.00  0.00    -0.014 A 
ATOM     70  C   UNL A   1      36.444  32.963  28.122  1.00  0.00     0.009 A 
ATOM     71  C   UNL A   1      35.972  32.187  30.361  1.00  0.00     0.009 A 
ATOM     72  C   UNL A   1      35.107  33.334  27.969  1.00  0.00     0.001 A 
ATOM     73  C   UNL A   1      34.628  32.526  30.193  1.00  0.00     0.001 A 
ATOM     74  C   UNL A   1      34.199  33.110  29.003  1.00  0.00     0.000 A 
ENDBRANCH  55  69
BRANCH  56  75
ATOM     75  C   UNL A   1      46.450  29.503  30.136  1.00  0.00    -0.014 A 
ATOM     76  C   UNL A   1      47.315  29.676  29.043  1.00  0.00     0.009 A 
ATOM     77  C   UNL A   1      46.957  28.932  31.314  1.00  0.00     0.009 A 
ATOM     78  C   UNL A   1      48.646  29.258  29.117  1.00  0.00     0.001 A 
ATOM     79  C   UNL A   1      48.296  28.544  31.397  1.00  0.00     0.001 A 
ATOM     80  C   UNL A   1      49.136  28.697  30.294  1.00  0.00     0.000 A 
ENDBRANCH  56  75
BRANCH  68  81
ATOM     81  C   UNL A   1      43.036  35.369  31.699  1.00  0.00    -0.014 A 
ATOM     82  C   UNL A   1      42.982  35.592  33.084  1.00  0.00     0.009 A 
ATOM     83  C   UNL A   1      43.565  36.370  30.869  1.00  0.00     0.009 A 
ATOM     84  C   UNL A   1      43.416  36.806  33.620  1.00  0.00     0.001 A 
ATOM     85  C   UNL A   1      44.031  37.568  31.411  1.00  0.00     0.001 A 
ATOM     86  C   UNL A   1      43.945  37.789  32.784  1.00  0.00     0.000 A 
ENDBRANCH  68  81
ENDBRANCH  42  43
ENDBRANCH  34  37
ENDBRANCH  32  33
ENDBRANCH   1  32
TORSDOF 13
ENDMDL
MODEL 3
REMARK VINA RESULT:     -11.6      2.386      8.319
REMARK SMILES COc1ccc(/C=C2/C(=O)N(c3ccccc3)C(=O)[NH+]=C2NCCCNC(=O)c2ccc(-c3c4nc(c(-c5ccccc5)c5ccc([nH]5)c(-c5ccccc5)c5nc(c(-c6ccccc6)c6ccc3[nH]6)C=C5)C=C4)cc2)cc1C(=O)[O-]
REMARK SMILES IDX 24 1 23 2 22 3 7 4 8 5 9 6 21 7 10 8 11 9 20 10 18 11 19 14
REMARK SMILES IDX 6 15 3 16 4 17 78 18 5 19 77 20 2 21 1 22 79 23 80 24 81 25
REMARK SMILES IDX 12 26 13 27 17 28 14 29 16 30 15 31 25 32 26 33 27 34 28 36
REMARK SMILES IDX 29 37 30 38 76 39 31 40 75 41 32 42 33 43 34 44 69 45 35 46
REMARK SMILES IDX 74 47 68 48 70 49 36 50 73 51 67 52 66 53 37 55 59 56 44 57
REMARK SMILES IDX 58 58 45 59 48 60 57 61 71 62 46 63 47 64 56 66 72 67 49 68
REMARK SMILES IDX 38 69 39 70 43 71 40 72 42 73 41 74 60 75 61 76 65 77 62 78
REMARK SMILES IDX 64 79 63 80 50 81 51 82 55 83 52 84 54 85 53 86
REMARK H PARENT 20 12 22 13 26 35 70 54 48 65
REMARK Flexibility Score: inf
ROOT
ATOM      1  C   UNL A   1      35.613  22.917  25.459  1.00  0.00     0.059 C 
ENDROOT
BRANCH   1   2
ATOM      2  C   UNL A   1      34.595  23.342  26.488  1.00  0.00     0.195 C 
BRANCH   2   3
ATOM      3  N   UNL A   1      33.754  24.388  26.026  1.00  0.00    -0.305 N 
ATOM      4  C   UNL A   1      31.541  22.819  23.788  1.00  0.00     0.030 C 
ATOM      5  C   UNL A   1      31.805  24.099  24.186  1.00  0.00     0.129 C 
ATOM      6  C   UNL A   1      30.826  25.108  23.552  1.00  0.00     0.328 C 
ATOM      7  C   UNL A   1      32.813  24.739  25.108  1.00  0.00     0.236 C 
ATOM      8  O   UNL A   1      29.860  24.705  22.894  1.00  0.00    -0.249 OA
ATOM      9  N   UNL A   1      31.101  26.462  23.731  1.00  0.00    -0.155 N 
ATOM     10  N   UNL A   1      32.902  26.041  25.185  1.00  0.00    -0.209 N 
ATOM     11  C   UNL A   1      32.145  26.928  24.515  1.00  0.00     0.448 C 
ATOM     12  H   UNL A   1      33.589  26.405  25.789  1.00  0.00     0.270 HD
ATOM     13  H   UNL A   1      33.916  25.173  26.597  1.00  0.00     0.256 HD
ATOM     14  O   UNL A   1      32.387  28.119  24.698  1.00  0.00    -0.212 OA
BRANCH   4  15
ATOM     15  C   UNL A   1      32.095  21.479  24.091  1.00  0.00    -0.024 A 
ATOM     16  C   UNL A   1      33.396  19.049  24.704  1.00  0.00     0.127 A 
ATOM     17  C   UNL A   1      33.146  19.992  25.690  1.00  0.00     0.048 A 
ATOM     18  C   UNL A   1      32.773  19.190  23.463  1.00  0.00     0.040 A 
ATOM     19  C   UNL A   1      32.422  21.148  25.391  1.00  0.00     0.012 A 
ATOM     20  C   UNL A   1      32.176  20.436  23.140  1.00  0.00     0.022 A 
BRANCH  16  21
ATOM     21  O   UNL A   1      34.196  18.000  25.065  1.00  0.00    -0.496 OA
ATOM     22  C   UNL A   1      35.524  18.182  24.566  1.00  0.00     0.278 C 
ENDBRANCH  16  21
BRANCH  18  23
ATOM     23  C   UNL A   1      32.641  18.057  22.508  1.00  0.00     0.075 C 
ATOM     24  O   UNL A   1      32.929  16.894  22.742  1.00  0.00    -0.545 OA
ATOM     25  O   UNL A   1      32.255  18.438  21.277  1.00  0.00    -0.545 OA
ENDBRANCH  18  23
ENDBRANCH   4  15
BRANCH   9  26
ATOM     26  C   UNL A   1      30.239  27.467  23.169  1.00  0.00     0.111 A 
ATOM     27  C   UNL A   1      30.775  28.499  22.377  1.00  0.00     0.044 A 
ATOM     28  C   UNL A   1      28.882  27.525  23.513  1.00  0.00     0.044 A 
ATOM     29  C   UNL A   1      29.989  29.575  21.963  1.00  0.00     0.004 A 
ATOM     30  C   UNL A   1      28.099  28.613  23.111  1.00  0.00     0.004 A 
ATOM     31  C   UNL A   1      28.652  29.636  22.341  1.00  0.00     0.000 A 
ENDBRANCH   9  26
ENDBRANCH   2   3
ENDBRANCH   1   2
BRANCH   1  32
ATOM     32  C   UNL A   1      37.003  23.430  25.802  1.00  0.00     0.119 C 
BRANCH  32  33
ATOM     33  N   UNL A   1      38.046  22.418  25.919  1.00  0.00    -0.352 N 
ATOM     34  C   UNL A   1      39.331  22.521  26.401  1.00  0.00     0.251 C 
ATOM     35  H   UNL A   1      37.792  21.520  25.604  1.00  0.00     0.163 HD
ATOM     36  O   UNL A   1      40.059  21.533  26.387  1.00  0.00    -0.269 OA
BRANCH  34  37
ATOM     37  C   UNL A   1      39.848  23.818  26.888  1.00  0.00     0.039 A 
ATOM     38  C   UNL A   1      40.244  24.784  25.957  1.00  0.00     0.014 A 
ATOM     39  C   UNL A   1      39.920  24.101  28.251  1.00  0.00     0.014 A 
ATOM     40  C   UNL A   1      40.623  26.054  26.396  1.00  0.00     0.010 A 
ATOM     41  C   UNL A   1      40.162  25.395  28.677  1.00  0.00     0.010 A 
ATOM     42  C   UNL A   1      40.543  26.379  27.757  1.00  0.00    -0.014 A 
BRANCH  42  43
ATOM     43  C   UNL A   1      40.909  27.715  28.278  1.00  0.00     0.031 A 
ATOM     44  C   UNL A   1      42.340  27.986  28.659  1.00  0.00     0.074 A 
ATOM     45  C   UNL A   1      39.951  28.633  28.505  1.00  0.00     0.049 A 
ATOM     46  N   UNL A   1      42.855  29.034  29.247  1.00  0.00    -0.248 NA
ATOM     47  C   UNL A   1      43.314  26.915  28.380  1.00  0.00     0.031 C 
ATOM     48  C   UNL A   1      38.524  28.463  28.221  1.00  0.00     0.029 A 
ATOM     49  N   UNL A   1      40.036  29.892  29.042  1.00  0.00    -0.354 N 
ATOM     50  C   UNL A   1      44.200  28.736  29.429  1.00  0.00     0.074 A 
ATOM     51  C   UNL A   1      44.407  27.386  28.958  1.00  0.00     0.031 C 
ATOM     52  C   UNL A   1      37.873  29.587  28.562  1.00  0.00     0.029 A 
ATOM     53  C   UNL A   1      38.825  30.535  29.128  1.00  0.00     0.049 A 
ATOM     54  H   UNL A   1      40.883  30.295  29.337  1.00  0.00     0.167 HD
ATOM     55  C   UNL A   1      45.183  29.525  29.918  1.00  0.00     0.031 A 
ATOM     56  C   UNL A   1      38.523  31.752  29.618  1.00  0.00     0.031 A 
ATOM     57  C   UNL A   1      44.971  30.873  30.368  1.00  0.00     0.049 A 
ATOM     58  C   UNL A   1      39.631  32.608  30.168  1.00  0.00     0.074 A 
ATOM     59  C   UNL A   1      45.903  31.787  30.823  1.00  0.00     0.029 A 
ATOM     60  N   UNL A   1      43.734  31.497  30.420  1.00  0.00    -0.354 N 
ATOM     61  N   UNL A   1      40.912  32.344  30.263  1.00  0.00    -0.248 NA
ATOM     62  C   UNL A   1      39.251  33.937  30.667  1.00  0.00     0.031 C 
ATOM     63  C   UNL A   1      45.221  32.945  31.208  1.00  0.00     0.029 A 
ATOM     64  C   UNL A   1      43.874  32.776  30.927  1.00  0.00     0.049 A 
ATOM     65  H   UNL A   1      42.883  31.090  30.138  1.00  0.00     0.167 HD
ATOM     66  C   UNL A   1      41.497  33.482  30.802  1.00  0.00     0.074 A 
ATOM     67  C   UNL A   1      40.431  34.445  30.995  1.00  0.00     0.031 C 
ATOM     68  C   UNL A   1      42.796  33.715  31.110  1.00  0.00     0.031 A 
BRANCH  55  69
ATOM     69  C   UNL A   1      46.569  28.943  29.989  1.00  0.00    -0.014 A 
ATOM     70  C   UNL A   1      47.468  29.059  28.915  1.00  0.00     0.009 A 
ATOM     71  C   UNL A   1      46.990  28.284  31.154  1.00  0.00     0.009 A 
ATOM     72  C   UNL A   1      48.740  28.489  28.989  1.00  0.00     0.001 A 
ATOM     73  C   UNL A   1      48.276  27.744  31.238  1.00  0.00     0.001 A 
ATOM     74  C   UNL A   1      49.144  27.837  30.153  1.00  0.00     0.000 A 
ENDBRANCH  55  69
BRANCH  56  75
ATOM     75  C   UNL A   1      37.119  32.242  29.592  1.00  0.00    -0.014 A 
ATOM     76  C   UNL A   1      36.640  32.969  28.491  1.00  0.00     0.009 A 
ATOM     77  C   UNL A   1      36.251  31.994  30.667  1.00  0.00     0.009 A 
ATOM     78  C   UNL A   1      35.333  33.463  28.480  1.00  0.00     0.001 A 
ATOM     79  C   UNL A   1      34.935  32.461  30.640  1.00  0.00     0.001 A 
ATOM     80  C   UNL A   1      34.481  33.205  29.552  1.00  0.00     0.000 A 
ENDBRANCH  56  75
BRANCH  68  81
ATOM     81  C   UNL A   1      43.141  35.073  31.652  1.00  0.00    -0.014 A 
ATOM     82  C   UNL A   1      43.561  36.113  30.809  1.00  0.00     0.009 A 
ATOM     83  C   UNL A   1      42.998  35.325  33.026  1.00  0.00     0.009 A 
ATOM     84  C   UNL A   1      43.865  37.369  31.337  1.00  0.00     0.001 A 
ATOM     85  C   UNL A   1      43.269  36.591  33.546  1.00  0.00     0.001 A 
ATOM     86  C   UNL A   1      43.713  37.608  32.703  1.00  0.00     0.000 A 
ENDBRANCH  68  81
ENDBRANCH  42  43
ENDBRANCH  34  37
ENDBRANCH  32  33
ENDBRANCH   1  32
TORSDOF 13
ENDMDL
