MODEL 1
REMARK VINA RESULT:     -12.7      0.000      0.000
REMARK SMILES CC(C)=C1[C@H]2CC[C@@H]1[C@H](C(=O)NNC(=O)c1ccoc1C)[C@H]2C(=O)NCCCNC(=O)c1ccc(-c2c3nc(c(-c4ccccc4)c4ccc([nH]4)c(-c4ccccc4)c4nc(c(-c5ccccc5)c5ccc2[nH]5)C=C4)C=C3)cc1
REMARK SMILES IDX 26 1 25 2 23 3 24 4 22 6 1 7 2 8 3 9 4 10 5 11 8 12 6 13
REMARK SMILES IDX 7 14 9 15 10 16 11 17 12 18 13 20 14 21 15 23 16 24 17 25
REMARK SMILES IDX 20 26 18 27 19 28 21 29 27 30 28 31 29 32 30 33 31 35 32 36
REMARK SMILES IDX 33 37 79 38 34 39 78 40 35 41 36 42 37 43 72 44 38 45 77 46
REMARK SMILES IDX 71 47 73 48 39 49 76 50 70 51 69 52 40 54 62 55 47 56 61 57
REMARK SMILES IDX 48 58 51 59 60 60 74 61 49 62 50 63 59 65 75 66 52 67 41 68
REMARK SMILES IDX 42 69 46 70 43 71 45 72 44 73 63 74 64 75 68 76 65 77 67 78
REMARK SMILES IDX 66 79 53 80 54 81 58 82 55 83 57 84 56 85
REMARK H PARENT 25 5 12 19 13 22 29 34 73 53 51 64
REMARK Flexibility Score: inf
ROOT
ATOM      1  C   UNL A   1      31.533  30.849  26.128  1.00  0.00     0.117 C 
ENDROOT
BRANCH   1   2
ATOM      2  N   UNL A   1      31.500  29.720  27.038  1.00  0.00    -0.356 N 
ATOM      3  C   UNL A   1      31.818  28.412  26.913  1.00  0.00     0.224 C 
ATOM      4  O   UNL A   1      31.482  27.696  27.866  1.00  0.00    -0.275 OA
ATOM      5  H   UNL A   1      31.176  29.957  27.937  1.00  0.00     0.163 HD
BRANCH   3   6
ATOM      6  C   UNL A   1      32.503  27.769  25.712  1.00  0.00     0.098 C 
ATOM      7  C   UNL A   1      30.737  23.457  24.991  1.00  0.00     0.039 C 
ATOM      8  C   UNL A   1      31.728  24.243  25.805  1.00  0.00    -0.077 C 
ATOM      9  C   UNL A   1      32.213  23.559  27.056  1.00  0.00     0.039 C 
ATOM     10  C   UNL A   1      32.192  25.435  25.393  1.00  0.00    -0.064 C 
ATOM     11  C   UNL A   1      33.170  26.402  25.993  1.00  0.00     0.028 C 
ATOM     12  C   UNL A   1      32.049  26.100  24.048  1.00  0.00     0.028 C 
ATOM     13  C   UNL A   1      34.296  26.202  24.961  1.00  0.00     0.009 C 
ATOM     14  C   UNL A   1      33.528  25.998  23.638  1.00  0.00     0.009 C 
ATOM     15  C   UNL A   1      31.657  27.542  24.430  1.00  0.00     0.100 C 
BRANCH  15  16
ATOM     16  C   UNL A   1      31.896  28.651  23.392  1.00  0.00     0.242 C 
ATOM     17  O   UNL A   1      33.029  29.066  23.139  1.00  0.00    -0.273 OA
ATOM     18  N   UNL A   1      30.841  29.311  22.812  1.00  0.00    -0.267 N 
ATOM     19  H   UNL A   1      31.036  30.130  22.302  1.00  0.00     0.191 HD
BRANCH  18  20
ATOM     20  N   UNL A   1      29.533  28.902  22.895  1.00  0.00    -0.263 N 
ATOM     21  C   UNL A   1      28.413  29.675  22.651  1.00  0.00     0.273 C 
ATOM     22  H   UNL A   1      29.376  27.965  23.154  1.00  0.00     0.191 HD
ATOM     23  O   UNL A   1      27.325  29.106  22.649  1.00  0.00    -0.267 OA
BRANCH  21  24
ATOM     24  C   UNL A   1      28.499  31.128  22.561  1.00  0.00     0.082 A 
ATOM     25  C   UNL A   1      28.828  31.950  23.689  1.00  0.00     0.056 A 
ATOM     26  C   UNL A   1      28.267  32.024  21.525  1.00  0.00     0.113 A 
ATOM     27  C   UNL A   1      28.847  33.249  23.255  1.00  0.00     0.196 A 
ATOM     28  O   UNL A   1      28.513  33.302  21.947  1.00  0.00    -0.469 OA
ATOM     29  C   UNL A   1      27.798  31.958  20.124  1.00  0.00     0.088 C 
ENDBRANCH  21  24
ENDBRANCH  18  20
ENDBRANCH  15  16
ENDBRANCH   3   6
ENDBRANCH   1   2
BRANCH   1  30
ATOM     30  C   UNL A   1      31.382  32.169  26.870  1.00  0.00     0.042 C 
BRANCH  30  31
ATOM     31  C   UNL A   1      32.663  32.984  26.983  1.00  0.00     0.118 C 
BRANCH  31  32
ATOM     32  N   UNL A   1      32.499  34.152  27.834  1.00  0.00    -0.352 N 
ATOM     33  C   UNL A   1      33.178  34.561  28.954  1.00  0.00     0.251 C 
ATOM     34  H   UNL A   1      31.774  34.756  27.557  1.00  0.00     0.163 HD
ATOM     35  O   UNL A   1      32.696  35.467  29.634  1.00  0.00    -0.269 OA
BRANCH  33  36
ATOM     36  C   UNL A   1      34.463  33.949  29.375  1.00  0.00     0.039 A 
ATOM     37  C   UNL A   1      35.619  34.270  28.652  1.00  0.00     0.014 A 
ATOM     38  C   UNL A   1      34.541  32.998  30.394  1.00  0.00     0.014 A 
ATOM     39  C   UNL A   1      36.843  33.673  28.973  1.00  0.00     0.010 A 
ATOM     40  C   UNL A   1      35.776  32.466  30.771  1.00  0.00     0.010 A 
ATOM     41  C   UNL A   1      36.937  32.780  30.051  1.00  0.00    -0.014 A 
BRANCH  41  42
ATOM     42  C   UNL A   1      38.230  32.141  30.411  1.00  0.00     0.031 A 
ATOM     43  C   UNL A   1      39.162  32.806  31.391  1.00  0.00     0.074 A 
ATOM     44  C   UNL A   1      38.593  30.983  29.828  1.00  0.00     0.049 A 
ATOM     45  N   UNL A   1      40.350  32.425  31.791  1.00  0.00    -0.248 NA
ATOM     46  C   UNL A   1      38.711  34.078  31.979  1.00  0.00     0.031 C 
ATOM     47  C   UNL A   1      37.806  30.247  28.836  1.00  0.00     0.029 A 
ATOM     48  N   UNL A   1      39.723  30.219  29.989  1.00  0.00    -0.354 N 
ATOM     49  C   UNL A   1      40.797  33.420  32.652  1.00  0.00     0.074 A 
ATOM     50  C   UNL A   1      39.771  34.441  32.685  1.00  0.00     0.031 C 
ATOM     51  C   UNL A   1      38.462  29.124  28.501  1.00  0.00     0.029 A 
ATOM     52  C   UNL A   1      39.726  29.075  29.227  1.00  0.00     0.049 A 
ATOM     53  H   UNL A   1      40.460  30.468  30.591  1.00  0.00     0.167 HD
ATOM     54  C   UNL A   1      41.947  33.478  33.366  1.00  0.00     0.031 A 
ATOM     55  C   UNL A   1      40.642  28.095  29.127  1.00  0.00     0.031 A 
ATOM     56  C   UNL A   1      42.959  32.456  33.363  1.00  0.00     0.049 A 
ATOM     57  C   UNL A   1      41.899  28.167  29.946  1.00  0.00     0.074 A 
ATOM     58  C   UNL A   1      44.133  32.399  34.095  1.00  0.00     0.029 A 
ATOM     59  N   UNL A   1      42.912  31.306  32.591  1.00  0.00    -0.354 N 
ATOM     60  N   UNL A   1      42.282  29.095  30.790  1.00  0.00    -0.248 NA
ATOM     61  C   UNL A   1      42.843  27.049  29.806  1.00  0.00     0.031 C 
ATOM     62  C   UNL A   1      44.812  31.228  33.743  1.00  0.00     0.029 A 
ATOM     63  C   UNL A   1      44.041  30.537  32.822  1.00  0.00     0.049 A 
ATOM     64  H   UNL A   1      42.185  31.069  31.972  1.00  0.00     0.167 HD
ATOM     65  C   UNL A   1      43.500  28.662  31.297  1.00  0.00     0.074 A 
ATOM     66  C   UNL A   1      43.784  27.383  30.678  1.00  0.00     0.031 C 
ATOM     67  C   UNL A   1      44.311  29.270  32.196  1.00  0.00     0.031 A 
BRANCH  54  68
ATOM     68  C   UNL A   1      42.170  34.701  34.210  1.00  0.00    -0.014 A 
ATOM     69  C   UNL A   1      42.786  35.847  33.681  1.00  0.00     0.009 A 
ATOM     70  C   UNL A   1      41.743  34.715  35.547  1.00  0.00     0.009 A 
ATOM     71  C   UNL A   1      43.005  36.966  34.486  1.00  0.00     0.001 A 
ATOM     72  C   UNL A   1      41.939  35.846  36.342  1.00  0.00     0.001 A 
ATOM     73  C   UNL A   1      42.581  36.966  35.813  1.00  0.00     0.000 A 
ENDBRANCH  54  68
BRANCH  55  74
ATOM     74  C   UNL A   1      40.388  26.935  28.237  1.00  0.00    -0.014 A 
ATOM     75  C   UNL A   1      40.889  26.927  26.926  1.00  0.00     0.009 A 
ATOM     76  C   UNL A   1      39.650  25.831  28.692  1.00  0.00     0.009 A 
ATOM     77  C   UNL A   1      40.638  25.845  26.081  1.00  0.00     0.001 A 
ATOM     78  C   UNL A   1      39.421  24.741  27.851  1.00  0.00     0.001 A 
ATOM     79  C   UNL A   1      39.909  24.751  26.545  1.00  0.00     0.000 A 
ENDBRANCH  55  74
BRANCH  67  80
ATOM     80  C   UNL A   1      45.566  28.544  32.581  1.00  0.00    -0.014 A 
ATOM     81  C   UNL A   1      45.577  27.629  33.647  1.00  0.00     0.009 A 
ATOM     82  C   UNL A   1      46.747  28.761  31.856  1.00  0.00     0.009 A 
ATOM     83  C   UNL A   1      46.757  26.972  33.997  1.00  0.00     0.001 A 
ATOM     84  C   UNL A   1      47.920  28.085  32.195  1.00  0.00     0.001 A 
ATOM     85  C   UNL A   1      47.926  27.199  33.271  1.00  0.00     0.000 A 
ENDBRANCH  67  80
ENDBRANCH  41  42
ENDBRANCH  33  36
ENDBRANCH  31  32
ENDBRANCH  30  31
ENDBRANCH   1  30
TORSDOF 13
ENDMDL
MODEL 2
REMARK VINA RESULT:     -12.6      4.931     10.046
REMARK SMILES CC(C)=C1[C@H]2CC[C@@H]1[C@H](C(=O)NNC(=O)c1ccoc1C)[C@H]2C(=O)NCCCNC(=O)c1ccc(-c2c3nc(c(-c4ccccc4)c4ccc([nH]4)c(-c4ccccc4)c4nc(c(-c5ccccc5)c5ccc2[nH]5)C=C4)C=C3)cc1
REMARK SMILES IDX 26 1 25 2 23 3 24 4 22 6 1 7 2 8 3 9 4 10 5 11 8 12 6 13
REMARK SMILES IDX 7 14 9 15 10 16 11 17 12 18 13 20 14 21 15 23 16 24 17 25
REMARK SMILES IDX 20 26 18 27 19 28 21 29 27 30 28 31 29 32 30 33 31 35 32 36
REMARK SMILES IDX 33 37 79 38 34 39 78 40 35 41 36 42 37 43 72 44 38 45 77 46
REMARK SMILES IDX 71 47 73 48 39 49 76 50 70 51 69 52 40 54 62 55 47 56 61 57
REMARK SMILES IDX 48 58 51 59 60 60 74 61 49 62 50 63 59 65 75 66 52 67 41 68
REMARK SMILES IDX 42 69 46 70 43 71 45 72 44 73 63 74 64 75 68 76 65 77 67 78
REMARK SMILES IDX 66 79 53 80 54 81 58 82 55 83 57 84 56 85
REMARK H PARENT 25 5 12 19 13 22 29 34 73 53 51 64
REMARK Flexibility Score: inf
ROOT
ATOM      1  C   UNL A   1      37.141  20.406  25.058  1.00  0.00     0.117 C 
ENDROOT
BRANCH   1   2
ATOM      2  N   UNL A   1      37.131  21.504  24.110  1.00  0.00    -0.356 N 
ATOM      3  C   UNL A   1      36.323  22.573  23.930  1.00  0.00     0.224 C 
ATOM      4  O   UNL A   1      36.520  23.210  22.887  1.00  0.00    -0.275 OA
ATOM      5  H   UNL A   1      37.870  21.462  23.460  1.00  0.00     0.163 HD
BRANCH   3   6
ATOM      6  C   UNL A   1      35.202  23.015  24.864  1.00  0.00     0.098 C 
ATOM      7  C   UNL A   1      31.618  24.755  22.342  1.00  0.00     0.039 C 
ATOM      8  C   UNL A   1      32.961  25.088  22.935  1.00  0.00    -0.077 C 
ATOM      9  C   UNL A   1      33.623  26.315  22.368  1.00  0.00     0.039 C 
ATOM     10  C   UNL A   1      33.482  24.372  23.947  1.00  0.00    -0.064 C 
ATOM     11  C   UNL A   1      34.766  24.491  24.713  1.00  0.00     0.028 C 
ATOM     12  C   UNL A   1      32.823  23.332  24.816  1.00  0.00     0.028 C 
ATOM     13  C   UNL A   1      34.152  24.945  26.051  1.00  0.00     0.009 C 
ATOM     14  C   UNL A   1      32.830  24.152  26.116  1.00  0.00     0.009 C 
ATOM     15  C   UNL A   1      33.877  22.206  24.841  1.00  0.00     0.100 C 
BRANCH  15  16
ATOM     16  C   UNL A   1      33.817  21.189  25.994  1.00  0.00     0.242 C 
ATOM     17  O   UNL A   1      34.283  21.445  27.106  1.00  0.00    -0.273 OA
ATOM     18  N   UNL A   1      33.361  19.912  25.782  1.00  0.00    -0.267 N 
ATOM     19  H   UNL A   1      33.512  19.247  26.492  1.00  0.00     0.191 HD
BRANCH  18  20
ATOM     20  N   UNL A   1      32.705  19.502  24.647  1.00  0.00    -0.263 N 
ATOM     21  C   UNL A   1      32.654  18.215  24.147  1.00  0.00     0.273 C 
ATOM     22  H   UNL A   1      32.225  20.194  24.138  1.00  0.00     0.191 HD
ATOM     23  O   UNL A   1      31.913  18.010  23.189  1.00  0.00    -0.267 OA
BRANCH  21  24
ATOM     24  C   UNL A   1      33.559  17.177  24.628  1.00  0.00     0.082 A 
ATOM     25  C   UNL A   1      34.982  17.262  24.465  1.00  0.00     0.056 A 
ATOM     26  C   UNL A   1      33.346  15.951  25.246  1.00  0.00     0.113 A 
ATOM     27  C   UNL A   1      35.526  16.147  25.046  1.00  0.00     0.196 A 
ATOM     28  O   UNL A   1      34.543  15.352  25.524  1.00  0.00    -0.469 OA
ATOM     29  C   UNL A   1      32.182  15.127  25.639  1.00  0.00     0.088 C 
ENDBRANCH  21  24
ENDBRANCH  18  20
ENDBRANCH  15  16
ENDBRANCH   3   6
ENDBRANCH   1   2
BRANCH   1  30
ATOM     30  C   UNL A   1      38.421  19.589  24.953  1.00  0.00     0.042 C 
BRANCH  30  31
ATOM     31  C   UNL A   1      39.352  19.713  26.152  1.00  0.00     0.118 C 
BRANCH  31  32
ATOM     32  N   UNL A   1      40.648  19.100  25.907  1.00  0.00    -0.352 N 
ATOM     33  C   UNL A   1      41.915  19.627  25.901  1.00  0.00     0.251 C 
ATOM     34  H   UNL A   1      40.609  18.136  25.711  1.00  0.00     0.163 HD
ATOM     35  O   UNL A   1      42.829  18.951  25.433  1.00  0.00    -0.269 OA
BRANCH  33  36
ATOM     36  C   UNL A   1      42.216  20.980  26.434  1.00  0.00     0.039 A 
ATOM     37  C   UNL A   1      42.123  21.185  27.816  1.00  0.00     0.014 A 
ATOM     38  C   UNL A   1      42.492  22.067  25.602  1.00  0.00     0.014 A 
ATOM     39  C   UNL A   1      42.340  22.456  28.359  1.00  0.00     0.010 A 
ATOM     40  C   UNL A   1      42.793  23.316  26.149  1.00  0.00     0.010 A 
ATOM     41  C   UNL A   1      42.698  23.531  27.531  1.00  0.00    -0.014 A 
BRANCH  41  42
ATOM     42  C   UNL A   1      42.939  24.887  28.091  1.00  0.00     0.031 A 
ATOM     43  C   UNL A   1      44.327  25.305  28.503  1.00  0.00     0.074 A 
ATOM     44  C   UNL A   1      41.908  25.733  28.270  1.00  0.00     0.049 A 
ATOM     45  N   UNL A   1      44.723  26.427  29.052  1.00  0.00    -0.248 NA
ATOM     46  C   UNL A   1      45.406  24.326  28.294  1.00  0.00     0.031 C 
ATOM     47  C   UNL A   1      40.508  25.447  27.949  1.00  0.00     0.029 A 
ATOM     48  N   UNL A   1      41.880  27.012  28.770  1.00  0.00    -0.354 N 
ATOM     49  C   UNL A   1      46.086  26.276  29.279  1.00  0.00     0.074 A 
ATOM     50  C   UNL A   1      46.442  24.942  28.845  1.00  0.00     0.031 C 
ATOM     51  C   UNL A   1      39.764  26.529  28.229  1.00  0.00     0.029 A 
ATOM     52  C   UNL A   1      40.625  27.571  28.778  1.00  0.00     0.049 A 
ATOM     53  H   UNL A   1      42.682  27.482  29.091  1.00  0.00     0.167 HD
ATOM     54  C   UNL A   1      46.970  27.169  29.786  1.00  0.00     0.031 A 
ATOM     55  C   UNL A   1      40.213  28.788  29.180  1.00  0.00     0.031 A 
ATOM     56  C   UNL A   1      46.633  28.507  30.192  1.00  0.00     0.049 A 
ATOM     57  C   UNL A   1      41.215  29.771  29.715  1.00  0.00     0.074 A 
ATOM     58  C   UNL A   1      47.471  29.503  30.666  1.00  0.00     0.029 A 
ATOM     59  N   UNL A   1      45.354  29.038  30.167  1.00  0.00    -0.354 N 
ATOM     60  N   UNL A   1      42.507  29.626  29.879  1.00  0.00    -0.248 NA
ATOM     61  C   UNL A   1      40.699  31.089  30.110  1.00  0.00     0.031 C 
ATOM     62  C   UNL A   1      46.691  30.628  30.957  1.00  0.00     0.029 A 
ATOM     63  C   UNL A   1      45.376  30.344  30.625  1.00  0.00     0.049 A 
ATOM     64  H   UNL A   1      44.549  28.559  29.866  1.00  0.00     0.167 HD
ATOM     65  C   UNL A   1      42.962  30.840  30.375  1.00  0.00     0.074 A 
ATOM     66  C   UNL A   1      41.811  31.714  30.471  1.00  0.00     0.031 C 
ATOM     67  C   UNL A   1      44.223  31.199  30.719  1.00  0.00     0.031 A 
BRANCH  54  68
ATOM     68  C   UNL A   1      48.396  26.716  29.932  1.00  0.00    -0.014 A 
ATOM     69  C   UNL A   1      48.834  26.062  31.095  1.00  0.00     0.009 A 
ATOM     70  C   UNL A   1      49.308  26.929  28.887  1.00  0.00     0.009 A 
ATOM     71  C   UNL A   1      50.168  25.667  31.223  1.00  0.00     0.001 A 
ATOM     72  C   UNL A   1      50.634  26.509  29.008  1.00  0.00     0.001 A 
ATOM     73  C   UNL A   1      51.065  25.889  30.180  1.00  0.00     0.000 A 
ENDBRANCH  54  68
BRANCH  55  74
ATOM     74  C   UNL A   1      38.782  29.161  29.057  1.00  0.00    -0.014 A 
ATOM     75  C   UNL A   1      38.287  29.675  27.849  1.00  0.00     0.009 A 
ATOM     76  C   UNL A   1      37.905  29.001  30.141  1.00  0.00     0.009 A 
ATOM     77  C   UNL A   1      36.945  30.042  27.734  1.00  0.00     0.001 A 
ATOM     78  C   UNL A   1      36.558  29.348  30.015  1.00  0.00     0.001 A 
ATOM     79  C   UNL A   1      36.081  29.874  28.816  1.00  0.00     0.000 A 
ENDBRANCH  55  74
BRANCH  67  80
ATOM     80  C   UNL A   1      44.421  32.605  31.205  1.00  0.00    -0.014 A 
ATOM     81  C   UNL A   1      44.343  32.919  32.571  1.00  0.00     0.009 A 
ATOM     82  C   UNL A   1      44.710  33.624  30.285  1.00  0.00     0.009 A 
ATOM     83  C   UNL A   1      44.518  34.235  33.002  1.00  0.00     0.001 A 
ATOM     84  C   UNL A   1      44.908  34.935  30.723  1.00  0.00     0.001 A 
ATOM     85  C   UNL A   1      44.801  35.241  32.078  1.00  0.00     0.000 A 
ENDBRANCH  67  80
ENDBRANCH  41  42
ENDBRANCH  33  36
ENDBRANCH  31  32
ENDBRANCH  30  31
ENDBRANCH   1  30
TORSDOF 13
ENDMDL
MODEL 3
REMARK VINA RESULT:     -12.5      0.471      5.777
REMARK SMILES CC(C)=C1[C@H]2CC[C@@H]1[C@H](C(=O)NNC(=O)c1ccoc1C)[C@H]2C(=O)NCCCNC(=O)c1ccc(-c2c3nc(c(-c4ccccc4)c4ccc([nH]4)c(-c4ccccc4)c4nc(c(-c5ccccc5)c5ccc2[nH]5)C=C4)C=C3)cc1
REMARK SMILES IDX 26 1 25 2 23 3 24 4 22 6 1 7 2 8 3 9 4 10 5 11 8 12 6 13
REMARK SMILES IDX 7 14 9 15 10 16 11 17 12 18 13 20 14 21 15 23 16 24 17 25
REMARK SMILES IDX 20 26 18 27 19 28 21 29 27 30 28 31 29 32 30 33 31 35 32 36
REMARK SMILES IDX 33 37 79 38 34 39 78 40 35 41 36 42 37 43 72 44 38 45 77 46
REMARK SMILES IDX 71 47 73 48 39 49 76 50 70 51 69 52 40 54 62 55 47 56 61 57
REMARK SMILES IDX 48 58 51 59 60 60 74 61 49 62 50 63 59 65 75 66 52 67 41 68
REMARK SMILES IDX 42 69 46 70 43 71 45 72 44 73 63 74 64 75 68 76 65 77 67 78
REMARK SMILES IDX 66 79 53 80 54 81 58 82 55 83 57 84 56 85
REMARK H PARENT 25 5 12 19 13 22 29 34 73 53 51 64
REMARK Flexibility Score: inf
ROOT
ATOM      1  C   UNL A   1      31.452  30.728  25.855  1.00  0.00     0.117 C 
ENDROOT
BRANCH   1   2
ATOM      2  N   UNL A   1      31.454  29.625  26.796  1.00  0.00    -0.356 N 
ATOM      3  C   UNL A   1      31.773  28.314  26.696  1.00  0.00     0.224 C 
ATOM      4  O   UNL A   1      31.474  27.624  27.679  1.00  0.00    -0.275 OA
ATOM      5  H   UNL A   1      31.162  29.885  27.699  1.00  0.00     0.163 HD
BRANCH   3   6
ATOM      6  C   UNL A   1      32.417  27.641  25.490  1.00  0.00     0.098 C 
ATOM      7  C   UNL A   1      30.704  23.276  24.999  1.00  0.00     0.039 C 
ATOM      8  C   UNL A   1      31.715  24.107  25.741  1.00  0.00    -0.077 C 
ATOM      9  C   UNL A   1      32.266  23.477  26.992  1.00  0.00     0.039 C 
ATOM     10  C   UNL A   1      32.138  25.292  25.267  1.00  0.00    -0.064 C 
ATOM     11  C   UNL A   1      33.123  26.296  25.789  1.00  0.00     0.028 C 
ATOM     12  C   UNL A   1      31.925  25.905  23.906  1.00  0.00     0.028 C 
ATOM     13  C   UNL A   1      34.207  26.080  24.716  1.00  0.00     0.009 C 
ATOM     14  C   UNL A   1      33.386  25.814  23.436  1.00  0.00     0.009 C 
ATOM     15  C   UNL A   1      31.522  27.353  24.254  1.00  0.00     0.100 C 
BRANCH  15  16
ATOM     16  C   UNL A   1      31.695  28.428  23.169  1.00  0.00     0.242 C 
ATOM     17  O   UNL A   1      32.810  28.763  22.763  1.00  0.00    -0.273 OA
ATOM     18  N   UNL A   1      30.618  29.146  22.712  1.00  0.00    -0.267 N 
ATOM     19  H   UNL A   1      30.797  29.943  22.162  1.00  0.00     0.191 HD
BRANCH  18  20
ATOM     20  N   UNL A   1      29.308  28.825  22.971  1.00  0.00    -0.263 N 
ATOM     21  C   UNL A   1      28.214  29.657  22.825  1.00  0.00     0.273 C 
ATOM     22  H   UNL A   1      29.130  27.912  23.292  1.00  0.00     0.191 HD
ATOM     23  O   UNL A   1      27.102  29.159  22.981  1.00  0.00    -0.267 OA
BRANCH  21  24
ATOM     24  C   UNL A   1      28.372  31.097  22.654  1.00  0.00     0.082 A 
ATOM     25  C   UNL A   1      28.722  31.966  23.740  1.00  0.00     0.056 A 
ATOM     26  C   UNL A   1      28.202  31.942  21.565  1.00  0.00     0.113 A 
ATOM     27  C   UNL A   1      28.812  33.235  23.233  1.00  0.00     0.196 A 
ATOM     28  O   UNL A   1      28.503  33.228  21.918  1.00  0.00    -0.469 OA
ATOM     29  C   UNL A   1      27.754  31.818  20.160  1.00  0.00     0.088 C 
ENDBRANCH  21  24
ENDBRANCH  18  20
ENDBRANCH  15  16
ENDBRANCH   3   6
ENDBRANCH   1   2
BRANCH   1  30
ATOM     30  C   UNL A   1      31.358  32.070  26.568  1.00  0.00     0.042 C 
BRANCH  30  31
ATOM     31  C   UNL A   1      32.692  32.629  27.045  1.00  0.00     0.118 C 
BRANCH  31  32
ATOM     32  N   UNL A   1      32.545  33.921  27.696  1.00  0.00    -0.352 N 
ATOM     33  C   UNL A   1      33.222  34.492  28.744  1.00  0.00     0.251 C 
ATOM     34  H   UNL A   1      31.835  34.487  27.316  1.00  0.00     0.163 HD
ATOM     35  O   UNL A   1      32.753  35.504  29.263  1.00  0.00    -0.269 OA
BRANCH  33  36
ATOM     36  C   UNL A   1      34.490  33.930  29.273  1.00  0.00     0.039 A 
ATOM     37  C   UNL A   1      35.686  34.261  28.623  1.00  0.00     0.014 A 
ATOM     38  C   UNL A   1      34.521  33.014  30.327  1.00  0.00     0.014 A 
ATOM     39  C   UNL A   1      36.899  33.709  29.048  1.00  0.00     0.010 A 
ATOM     40  C   UNL A   1      35.740  32.529  30.806  1.00  0.00     0.010 A 
ATOM     41  C   UNL A   1      36.940  32.854  30.159  1.00  0.00    -0.014 A 
BRANCH  41  42
ATOM     42  C   UNL A   1      38.221  32.263  30.629  1.00  0.00     0.031 A 
ATOM     43  C   UNL A   1      38.738  30.984  30.023  1.00  0.00     0.074 A 
ATOM     44  C   UNL A   1      38.904  32.849  31.630  1.00  0.00     0.049 A 
ATOM     45  N   UNL A   1      39.808  30.295  30.334  1.00  0.00    -0.248 NA
ATOM     46  C   UNL A   1      37.934  30.387  28.944  1.00  0.00     0.031 C 
ATOM     47  C   UNL A   1      38.503  34.070  32.332  1.00  0.00     0.029 A 
ATOM     48  N   UNL A   1      40.086  32.492  32.231  1.00  0.00    -0.354 N 
ATOM     49  C   UNL A   1      39.789  29.175  29.511  1.00  0.00     0.074 A 
ATOM     50  C   UNL A   1      38.583  29.255  28.716  1.00  0.00     0.031 C 
ATOM     51  C   UNL A   1      39.438  34.378  33.245  1.00  0.00     0.029 A 
ATOM     52  C   UNL A   1      40.486  33.362  33.217  1.00  0.00     0.049 A 
ATOM     53  H   UNL A   1      40.597  31.690  31.981  1.00  0.00     0.167 HD
ATOM     54  C   UNL A   1      40.698  28.175  29.410  1.00  0.00     0.031 A 
ATOM     55  C   UNL A   1      41.575  33.347  34.007  1.00  0.00     0.031 A 
ATOM     56  C   UNL A   1      41.915  28.101  30.174  1.00  0.00     0.049 A 
ATOM     57  C   UNL A   1      42.582  32.243  33.860  1.00  0.00     0.074 A 
ATOM     58  C   UNL A   1      42.924  27.157  30.102  1.00  0.00     0.029 A 
ATOM     59  N   UNL A   1      42.288  29.013  31.148  1.00  0.00    -0.354 N 
ATOM     60  N   UNL A   1      42.569  31.217  33.045  1.00  0.00    -0.248 NA
ATOM     61  C   UNL A   1      43.760  32.304  34.738  1.00  0.00     0.031 C 
ATOM     62  C   UNL A   1      43.896  27.481  31.055  1.00  0.00     0.029 A 
ATOM     63  C   UNL A   1      43.509  28.650  31.691  1.00  0.00     0.049 A 
ATOM     64  H   UNL A   1      41.765  29.804  31.413  1.00  0.00     0.167 HD
ATOM     65  C   UNL A   1      43.746  30.523  33.295  1.00  0.00     0.074 A 
ATOM     66  C   UNL A   1      44.454  31.252  34.327  1.00  0.00     0.031 C 
ATOM     67  C   UNL A   1      44.198  29.382  32.720  1.00  0.00     0.031 A 
BRANCH  54  68
ATOM     68  C   UNL A   1      40.401  27.073  28.433  1.00  0.00    -0.014 A 
ATOM     69  C   UNL A   1      39.620  25.966  28.801  1.00  0.00     0.009 A 
ATOM     70  C   UNL A   1      40.893  27.151  27.120  1.00  0.00     0.009 A 
ATOM     71  C   UNL A   1      39.372  24.940  27.886  1.00  0.00     0.001 A 
ATOM     72  C   UNL A   1      40.621  26.137  26.200  1.00  0.00     0.001 A 
ATOM     73  C   UNL A   1      39.870  25.027  26.588  1.00  0.00     0.000 A 
ENDBRANCH  54  68
BRANCH  55  74
ATOM     74  C   UNL A   1      41.789  34.438  34.990  1.00  0.00    -0.014 A 
ATOM     75  C   UNL A   1      42.487  35.597  34.618  1.00  0.00     0.009 A 
ATOM     76  C   UNL A   1      41.295  34.329  36.299  1.00  0.00     0.009 A 
ATOM     77  C   UNL A   1      42.705  36.618  35.545  1.00  0.00     0.001 A 
ATOM     78  C   UNL A   1      41.495  35.363  37.217  1.00  0.00     0.001 A 
ATOM     79  C   UNL A   1      42.205  36.502  36.841  1.00  0.00     0.000 A 
ENDBRANCH  55  74
BRANCH  67  80
ATOM     80  C   UNL A   1      45.534  28.873  33.178  1.00  0.00    -0.014 A 
ATOM     81  C   UNL A   1      46.720  29.279  32.546  1.00  0.00     0.009 A 
ATOM     82  C   UNL A   1      45.607  27.993  34.267  1.00  0.00     0.009 A 
ATOM     83  C   UNL A   1      47.952  28.786  32.979  1.00  0.00     0.001 A 
ATOM     84  C   UNL A   1      46.842  27.519  34.711  1.00  0.00     0.001 A 
ATOM     85  C   UNL A   1      48.012  27.907  34.061  1.00  0.00     0.000 A 
ENDBRANCH  67  80
ENDBRANCH  41  42
ENDBRANCH  33  36
ENDBRANCH  31  32
ENDBRANCH  30  31
ENDBRANCH   1  30
TORSDOF 13
ENDMDL
