MODEL 1
REMARK VINA RESULT:     -11.8      0.000      0.000
REMARK SMILES CS(=O)(=O)c1ccc(-c2cc(Cl)cnc2-c2ccc(C(=O)NCCCNC(=O)c3ccc(-c4c5nc(c(-c6ccccc6)c6ccc([nH]6)c(-c6ccccc6)c6nc(c(-c7ccccc7)c7ccc4[nH]7)C=C6)C=C5)cc3)nc2)cc1
REMARK SMILES IDX 23 1 22 2 20 3 21 4 19 6 16 7 17 8 78 9 18 10 77 11 15 12
REMARK SMILES IDX 9 13 10 14 11 15 14 16 12 17 13 18 8 19 5 20 6 21 80 22 7 23
REMARK SMILES IDX 79 24 2 25 1 26 3 27 4 28 24 29 25 30 26 31 27 32 28 34
REMARK SMILES IDX 29 35 30 36 76 37 31 38 75 39 32 40 33 41 34 42 69 43 35 44
REMARK SMILES IDX 74 45 68 46 70 47 36 48 73 49 67 50 66 51 37 53 59 54 44 55
REMARK SMILES IDX 58 56 45 57 48 58 57 59 71 60 46 61 47 62 56 64 72 65 49 66
REMARK SMILES IDX 38 67 39 68 43 69 40 70 42 71 41 72 60 73 61 74 65 75 62 76
REMARK SMILES IDX 64 77 63 78 50 79 51 80 55 81 52 82 54 83 53 84
REMARK H PARENT 22 5 26 33 70 52 48 63
REMARK Flexibility Score: inf
ROOT
ATOM      1  C   UNL A   1      32.069  31.442  27.102  1.00  0.00     0.118 C 
ENDROOT
BRANCH   1   2
ATOM      2  N   UNL A   1      33.335  31.010  27.665  1.00  0.00    -0.351 N 
ATOM      3  C   UNL A   1      34.109  29.882  27.497  1.00  0.00     0.269 C 
ATOM      4  O   UNL A   1      35.173  29.864  28.121  1.00  0.00    -0.268 OA
ATOM      5  H   UNL A   1      33.721  31.657  28.299  1.00  0.00     0.163 HD
BRANCH   3   6
ATOM      6  C   UNL A   1      33.746  28.733  26.592  1.00  0.00     0.128 A 
ATOM      7  C   UNL A   1      33.081  26.449  25.162  1.00  0.00     0.019 A 
ATOM      8  C   UNL A   1      33.875  27.440  24.578  1.00  0.00     0.014 A 
ATOM      9  C   UNL A   1      32.589  26.717  26.432  1.00  0.00     0.122 A 
ATOM     10  C   UNL A   1      34.189  28.600  25.285  1.00  0.00     0.035 A 
ATOM     11  N   UNL A   1      32.920  27.811  27.159  1.00  0.00    -0.250 NA
BRANCH   7  12
ATOM     12  C   UNL A   1      32.849  25.171  24.487  1.00  0.00     0.080 A 
ATOM     13  C   UNL A   1      31.720  24.949  23.663  1.00  0.00     0.010 A 
ATOM     14  C   UNL A   1      31.520  23.642  23.194  1.00  0.00     0.033 A 
ATOM     15  C   UNL A   1      32.424  22.638  23.525  1.00  0.00     0.060 A 
ATOM     16  N   UNL A   1      33.754  24.205  24.790  1.00  0.00    -0.254 NA
ATOM     17  Cl  UNL A   1      32.173  21.027  22.988  1.00  0.00    -0.083 Cl
ATOM     18  C   UNL A   1      33.520  22.964  24.304  1.00  0.00     0.132 A 
BRANCH  13  19
ATOM     19  C   UNL A   1      30.767  26.024  23.320  1.00  0.00    -0.016 A 
ATOM     20  C   UNL A   1      29.047  28.192  22.832  1.00  0.00     0.067 A 
ATOM     21  C   UNL A   1      30.275  28.126  22.176  1.00  0.00     0.021 A 
ATOM     22  C   UNL A   1      28.656  27.185  23.715  1.00  0.00     0.021 A 
ATOM     23  C   UNL A   1      31.117  27.037  22.407  1.00  0.00     0.010 A 
ATOM     24  C   UNL A   1      29.514  26.105  23.953  1.00  0.00     0.010 A 
BRANCH  20  25
ATOM     25  S   UNL A   1      28.009  29.614  22.588  1.00  0.00     0.175 S 
ATOM     26  C   UNL A   1      28.842  30.895  23.488  1.00  0.00     0.163 C 
ATOM     27  O   UNL A   1      26.745  29.332  23.248  1.00  0.00    -0.224 OA
ATOM     28  O   UNL A   1      28.053  29.952  21.182  1.00  0.00    -0.224 OA
ENDBRANCH  20  25
ENDBRANCH  13  19
ENDBRANCH   7  12
ENDBRANCH   3   6
ENDBRANCH   1   2
BRANCH   1  29
ATOM     29  C   UNL A   1      31.944  32.967  27.142  1.00  0.00     0.042 C 
BRANCH  29  30
ATOM     30  C   UNL A   1      33.228  33.665  27.589  1.00  0.00     0.118 C 
BRANCH  30  31
ATOM     31  N   UNL A   1      33.011  34.512  28.755  1.00  0.00    -0.352 N 
ATOM     32  C   UNL A   1      33.615  34.498  29.987  1.00  0.00     0.251 C 
ATOM     33  H   UNL A   1      32.319  35.202  28.642  1.00  0.00     0.163 HD
ATOM     34  O   UNL A   1      33.119  35.124  30.919  1.00  0.00    -0.269 OA
BRANCH  32  35
ATOM     35  C   UNL A   1      34.856  33.726  30.204  1.00  0.00     0.039 A 
ATOM     36  C   UNL A   1      36.040  34.164  29.604  1.00  0.00     0.014 A 
ATOM     37  C   UNL A   1      34.848  32.560  30.973  1.00  0.00     0.014 A 
ATOM     38  C   UNL A   1      37.232  33.479  29.845  1.00  0.00     0.010 A 
ATOM     39  C   UNL A   1      36.048  31.918  31.269  1.00  0.00     0.010 A 
ATOM     40  C   UNL A   1      37.254  32.382  30.721  1.00  0.00    -0.014 A 
BRANCH  40  41
ATOM     41  C   UNL A   1      38.527  31.735  31.121  1.00  0.00     0.031 A 
ATOM     42  C   UNL A   1      39.067  30.566  30.346  1.00  0.00     0.074 A 
ATOM     43  C   UNL A   1      39.149  32.150  32.243  1.00  0.00     0.049 A 
ATOM     44  N   UNL A   1      40.095  29.802  30.617  1.00  0.00    -0.248 NA
ATOM     45  C   UNL A   1      38.348  30.196  29.116  1.00  0.00     0.031 C 
ATOM     46  C   UNL A   1      38.704  33.253  33.100  1.00  0.00     0.029 A 
ATOM     47  N   UNL A   1      40.276  31.679  32.869  1.00  0.00    -0.354 N 
ATOM     48  C   UNL A   1      40.142  28.859  29.598  1.00  0.00     0.074 A 
ATOM     49  C   UNL A   1      39.012  29.116  28.731  1.00  0.00     0.031 C 
ATOM     50  C   UNL A   1      39.553  33.378  34.132  1.00  0.00     0.029 A 
ATOM     51  C   UNL A   1      40.568  32.335  34.042  1.00  0.00     0.049 A 
ATOM     52  H   UNL A   1      40.823  30.943  32.513  1.00  0.00     0.167 HD
ATOM     53  C   UNL A   1      41.055  27.881  29.394  1.00  0.00     0.031 A 
ATOM     54  C   UNL A   1      41.526  32.104  34.959  1.00  0.00     0.031 A 
ATOM     55  C   UNL A   1      42.172  27.623  30.264  1.00  0.00     0.049 A 
ATOM     56  C   UNL A   1      42.490  30.972  34.739  1.00  0.00     0.074 A 
ATOM     57  C   UNL A   1      43.173  26.678  30.123  1.00  0.00     0.029 A 
ATOM     58  N   UNL A   1      42.431  28.309  31.440  1.00  0.00    -0.354 N 
ATOM     59  N   UNL A   1      42.561  30.132  33.735  1.00  0.00    -0.248 NA
ATOM     60  C   UNL A   1      43.507  30.755  35.778  1.00  0.00     0.031 C 
ATOM     61  C   UNL A   1      44.005  26.753  31.244  1.00  0.00     0.029 A 
ATOM     62  C   UNL A   1      43.557  27.785  32.052  1.00  0.00     0.049 A 
ATOM     63  H   UNL A   1      41.894  29.057  31.789  1.00  0.00     0.167 HD
ATOM     64  C   UNL A   1      43.637  29.299  34.013  1.00  0.00     0.074 A 
ATOM     65  C   UNL A   1      44.207  29.753  35.265  1.00  0.00     0.031 C 
ATOM     66  C   UNL A   1      44.107  28.247  33.300  1.00  0.00     0.031 A 
BRANCH  53  67
ATOM     67  C   UNL A   1      40.885  27.012  28.179  1.00  0.00    -0.014 A 
ATOM     68  C   UNL A   1      41.503  27.343  26.961  1.00  0.00     0.009 A 
ATOM     69  C   UNL A   1      40.152  25.819  28.264  1.00  0.00     0.009 A 
ATOM     70  C   UNL A   1      41.363  26.512  25.848  1.00  0.00     0.001 A 
ATOM     71  C   UNL A   1      40.038  24.975  27.158  1.00  0.00     0.001 A 
ATOM     72  C   UNL A   1      40.637  25.326  25.949  1.00  0.00     0.000 A 
ENDBRANCH  53  67
BRANCH  54  73
ATOM     73  C   UNL A   1      41.604  32.938  36.188  1.00  0.00    -0.014 A 
ATOM     74  C   UNL A   1      40.850  32.611  37.326  1.00  0.00     0.009 A 
ATOM     75  C   UNL A   1      42.418  34.083  36.221  1.00  0.00     0.009 A 
ATOM     76  C   UNL A   1      40.883  33.432  38.456  1.00  0.00     0.001 A 
ATOM     77  C   UNL A   1      42.474  34.881  37.365  1.00  0.00     0.001 A 
ATOM     78  C   UNL A   1      41.697  34.563  38.476  1.00  0.00     0.000 A 
ENDBRANCH  54  73
BRANCH  66  79
ATOM     79  C   UNL A   1      45.304  27.524  33.848  1.00  0.00    -0.014 A 
ATOM     80  C   UNL A   1      46.607  27.946  33.541  1.00  0.00     0.009 A 
ATOM     81  C   UNL A   1      45.126  26.446  34.728  1.00  0.00     0.009 A 
ATOM     82  C   UNL A   1      47.709  27.285  34.087  1.00  0.00     0.001 A 
ATOM     83  C   UNL A   1      46.229  25.807  35.296  1.00  0.00     0.001 A 
ATOM     84  C   UNL A   1      47.519  26.222  34.970  1.00  0.00     0.000 A 
ENDBRANCH  66  79
ENDBRANCH  40  41
ENDBRANCH  32  35
ENDBRANCH  30  31
ENDBRANCH  29  30
ENDBRANCH   1  29
TORSDOF 13
ENDMDL
MODEL 2
REMARK VINA RESULT:     -11.7      5.212     10.714
REMARK SMILES CS(=O)(=O)c1ccc(-c2cc(Cl)cnc2-c2ccc(C(=O)NCCCNC(=O)c3ccc(-c4c5nc(c(-c6ccccc6)c6ccc([nH]6)c(-c6ccccc6)c6nc(c(-c7ccccc7)c7ccc4[nH]7)C=C6)C=C5)cc3)nc2)cc1
REMARK SMILES IDX 23 1 22 2 20 3 21 4 19 6 16 7 17 8 78 9 18 10 77 11 15 12
REMARK SMILES IDX 9 13 10 14 11 15 14 16 12 17 13 18 8 19 5 20 6 21 80 22 7 23
REMARK SMILES IDX 79 24 2 25 1 26 3 27 4 28 24 29 25 30 26 31 27 32 28 34
REMARK SMILES IDX 29 35 30 36 76 37 31 38 75 39 32 40 33 41 34 42 69 43 35 44
REMARK SMILES IDX 74 45 68 46 70 47 36 48 73 49 67 50 66 51 37 53 59 54 44 55
REMARK SMILES IDX 58 56 45 57 48 58 57 59 71 60 46 61 47 62 56 64 72 65 49 66
REMARK SMILES IDX 38 67 39 68 43 69 40 70 42 71 41 72 60 73 61 74 65 75 62 76
REMARK SMILES IDX 64 77 63 78 50 79 51 80 55 81 52 82 54 83 53 84
REMARK H PARENT 22 5 26 33 70 52 48 63
REMARK Flexibility Score: inf
ROOT
ATOM      1  C   UNL A   1      34.279  33.052  31.738  1.00  0.00     0.118 C 
ENDROOT
BRANCH   1   2
ATOM      2  N   UNL A   1      34.526  33.640  33.043  1.00  0.00    -0.351 N 
ATOM      3  C   UNL A   1      35.504  33.452  33.995  1.00  0.00     0.269 C 
ATOM      4  O   UNL A   1      35.422  34.168  34.996  1.00  0.00    -0.268 OA
ATOM      5  H   UNL A   1      33.855  34.313  33.300  1.00  0.00     0.163 HD
BRANCH   3   6
ATOM      6  C   UNL A   1      36.642  32.475  33.859  1.00  0.00     0.128 A 
ATOM      7  C   UNL A   1      38.855  30.800  33.841  1.00  0.00     0.019 A 
ATOM      8  C   UNL A   1      38.257  31.189  32.640  1.00  0.00     0.014 A 
ATOM      9  C   UNL A   1      38.234  31.219  35.009  1.00  0.00     0.122 A 
ATOM     10  C   UNL A   1      37.130  32.010  32.647  1.00  0.00     0.035 A 
ATOM     11  N   UNL A   1      37.169  32.057  35.043  1.00  0.00    -0.250 NA
BRANCH   7  12
ATOM     12  C   UNL A   1      40.112  30.047  33.850  1.00  0.00     0.080 A 
ATOM     13  C   UNL A   1      41.363  30.675  34.059  1.00  0.00     0.010 A 
ATOM     14  C   UNL A   1      42.509  29.881  33.894  1.00  0.00     0.033 A 
ATOM     15  C   UNL A   1      42.382  28.537  33.562  1.00  0.00     0.060 A 
ATOM     16  N   UNL A   1      39.976  28.729  33.558  1.00  0.00    -0.254 NA
ATOM     17  Cl  UNL A   1      43.775  27.564  33.322  1.00  0.00    -0.083 Cl
ATOM     18  C   UNL A   1      41.112  28.006  33.419  1.00  0.00     0.132 A 
BRANCH  13  19
ATOM     19  C   UNL A   1      41.483  32.104  34.408  1.00  0.00    -0.016 A 
ATOM     20  C   UNL A   1      41.501  34.814  35.151  1.00  0.00     0.067 A 
ATOM     21  C   UNL A   1      41.894  33.845  36.073  1.00  0.00     0.021 A 
ATOM     22  C   UNL A   1      41.117  34.454  33.859  1.00  0.00     0.021 A 
ATOM     23  C   UNL A   1      41.902  32.502  35.693  1.00  0.00     0.010 A 
ATOM     24  C   UNL A   1      41.112  33.104  33.492  1.00  0.00     0.010 A 
BRANCH  20  25
ATOM     25  S   UNL A   1      41.426  36.515  35.661  1.00  0.00     0.175 S 
ATOM     26  C   UNL A   1      42.128  36.492  37.290  1.00  0.00     0.163 C 
ATOM     27  O   UNL A   1      40.019  36.861  35.770  1.00  0.00    -0.224 OA
ATOM     28  O   UNL A   1      42.311  37.270  34.802  1.00  0.00    -0.224 OA
ENDBRANCH  20  25
ENDBRANCH  13  19
ENDBRANCH   7  12
ENDBRANCH   3   6
ENDBRANCH   1   2
BRANCH   1  29
ATOM     29  C   UNL A   1      34.843  33.935  30.624  1.00  0.00     0.042 C 
BRANCH  29  30
ATOM     30  C   UNL A   1      35.494  33.137  29.494  1.00  0.00     0.118 C 
BRANCH  30  31
ATOM     31  N   UNL A   1      34.573  32.168  28.912  1.00  0.00    -0.352 N 
ATOM     32  C   UNL A   1      34.814  30.937  28.357  1.00  0.00     0.251 C 
ATOM     33  H   UNL A   1      33.628  32.441  28.917  1.00  0.00     0.163 HD
ATOM     34  O   UNL A   1      33.942  30.384  27.694  1.00  0.00    -0.269 OA
BRANCH  32  35
ATOM     35  C   UNL A   1      36.122  30.275  28.542  1.00  0.00     0.039 A 
ATOM     36  C   UNL A   1      37.045  30.294  27.492  1.00  0.00     0.014 A 
ATOM     37  C   UNL A   1      36.427  29.614  29.733  1.00  0.00     0.014 A 
ATOM     38  C   UNL A   1      38.307  29.723  27.670  1.00  0.00     0.010 A 
ATOM     39  C   UNL A   1      37.708  29.106  29.934  1.00  0.00     0.010 A 
ATOM     40  C   UNL A   1      38.665  29.170  28.909  1.00  0.00    -0.014 A 
BRANCH  40  41
ATOM     41  C   UNL A   1      40.047  28.702  29.178  1.00  0.00     0.031 A 
ATOM     42  C   UNL A   1      41.075  29.642  29.741  1.00  0.00     0.074 A 
ATOM     43  C   UNL A   1      40.394  27.448  28.827  1.00  0.00     0.049 A 
ATOM     44  N   UNL A   1      42.356  29.446  29.927  1.00  0.00    -0.248 NA
ATOM     45  C   UNL A   1      40.608  30.984  30.128  1.00  0.00     0.031 C 
ATOM     46  C   UNL A   1      39.494  26.452  28.240  1.00  0.00     0.029 A 
ATOM     47  N   UNL A   1      41.604  26.802  28.891  1.00  0.00    -0.354 N 
ATOM     48  C   UNL A   1      42.848  30.637  30.445  1.00  0.00     0.074 A 
ATOM     49  C   UNL A   1      41.740  31.566  30.498  1.00  0.00     0.031 C 
ATOM     50  C   UNL A   1      40.179  25.322  28.008  1.00  0.00     0.029 A 
ATOM     51  C   UNL A   1      41.575  25.528  28.376  1.00  0.00     0.049 A 
ATOM     52  H   UNL A   1      42.415  27.212  29.270  1.00  0.00     0.167 HD
ATOM     53  C   UNL A   1      44.106  30.924  30.858  1.00  0.00     0.031 A 
ATOM     54  C   UNL A   1      42.566  24.635  28.191  1.00  0.00     0.031 A 
ATOM     55  C   UNL A   1      45.207  30.001  30.794  1.00  0.00     0.049 A 
ATOM     56  C   UNL A   1      43.965  25.003  28.600  1.00  0.00     0.074 A 
ATOM     57  C   UNL A   1      46.511  30.185  31.221  1.00  0.00     0.029 A 
ATOM     58  N   UNL A   1      45.136  28.722  30.265  1.00  0.00    -0.354 N 
ATOM     59  N   UNL A   1      44.400  26.109  29.152  1.00  0.00    -0.248 NA
ATOM     60  C   UNL A   1      45.010  23.997  28.363  1.00  0.00     0.031 C 
ATOM     61  C   UNL A   1      47.242  29.038  30.897  1.00  0.00     0.029 A 
ATOM     62  C   UNL A   1      46.380  28.118  30.324  1.00  0.00     0.049 A 
ATOM     63  H   UNL A   1      44.321  28.304  29.902  1.00  0.00     0.167 HD
ATOM     64  C   UNL A   1      45.763  25.928  29.341  1.00  0.00     0.074 A 
ATOM     65  C   UNL A   1      46.078  24.594  28.873  1.00  0.00     0.031 C 
ATOM     66  C   UNL A   1      46.675  26.791  29.850  1.00  0.00     0.031 A 
BRANCH  53  67
ATOM     67  C   UNL A   1      44.360  32.297  31.415  1.00  0.00    -0.014 A 
ATOM     68  C   UNL A   1      44.295  33.435  30.594  1.00  0.00     0.009 A 
ATOM     69  C   UNL A   1      44.606  32.465  32.787  1.00  0.00     0.009 A 
ATOM     70  C   UNL A   1      44.503  34.707  31.130  1.00  0.00     0.001 A 
ATOM     71  C   UNL A   1      44.784  33.740  33.325  1.00  0.00     0.001 A 
ATOM     72  C   UNL A   1      44.740  34.860  32.495  1.00  0.00     0.000 A 
ENDBRANCH  53  67
BRANCH  54  73
ATOM     73  C   UNL A   1      42.281  23.320  27.558  1.00  0.00    -0.014 A 
ATOM     74  C   UNL A   1      41.842  22.233  28.329  1.00  0.00     0.009 A 
ATOM     75  C   UNL A   1      42.470  23.139  26.178  1.00  0.00     0.009 A 
ATOM     76  C   UNL A   1      41.633  20.984  27.737  1.00  0.00     0.001 A 
ATOM     77  C   UNL A   1      42.227  21.899  25.585  1.00  0.00     0.001 A 
ATOM     78  C   UNL A   1      41.822  20.819  26.366  1.00  0.00     0.000 A 
ENDBRANCH  54  73
BRANCH  66  79
ATOM     79  C   UNL A   1      48.098  26.315  29.941  1.00  0.00    -0.014 A 
ATOM     80  C   UNL A   1      48.981  26.464  28.861  1.00  0.00     0.009 A 
ATOM     81  C   UNL A   1      48.575  25.765  31.141  1.00  0.00     0.009 A 
ATOM     82  C   UNL A   1      50.308  26.048  28.974  1.00  0.00     0.001 A 
ATOM     83  C   UNL A   1      49.910  25.380  31.260  1.00  0.00     0.001 A 
ATOM     84  C   UNL A   1      50.774  25.515  30.175  1.00  0.00     0.000 A 
ENDBRANCH  66  79
ENDBRANCH  40  41
ENDBRANCH  32  35
ENDBRANCH  30  31
ENDBRANCH  29  30
ENDBRANCH   1  29
TORSDOF 13
ENDMDL
MODEL 3
REMARK VINA RESULT:     -11.5      4.669      9.163
REMARK SMILES CS(=O)(=O)c1ccc(-c2cc(Cl)cnc2-c2ccc(C(=O)NCCCNC(=O)c3ccc(-c4c5nc(c(-c6ccccc6)c6ccc([nH]6)c(-c6ccccc6)c6nc(c(-c7ccccc7)c7ccc4[nH]7)C=C6)C=C5)cc3)nc2)cc1
REMARK SMILES IDX 23 1 22 2 20 3 21 4 19 6 16 7 17 8 78 9 18 10 77 11 15 12
REMARK SMILES IDX 9 13 10 14 11 15 14 16 12 17 13 18 8 19 5 20 6 21 80 22 7 23
REMARK SMILES IDX 79 24 2 25 1 26 3 27 4 28 24 29 25 30 26 31 27 32 28 34
REMARK SMILES IDX 29 35 30 36 76 37 31 38 75 39 32 40 33 41 34 42 69 43 35 44
REMARK SMILES IDX 74 45 68 46 70 47 36 48 73 49 67 50 66 51 37 53 59 54 44 55
REMARK SMILES IDX 58 56 45 57 48 58 57 59 71 60 46 61 47 62 56 64 72 65 49 66
REMARK SMILES IDX 38 67 39 68 43 69 40 70 42 71 41 72 60 73 61 74 65 75 62 76
REMARK SMILES IDX 64 77 63 78 50 79 51 80 55 81 52 82 54 83 53 84
REMARK H PARENT 22 5 26 33 70 52 48 63
REMARK Flexibility Score: inf
ROOT
ATOM      1  C   UNL A   1      38.237  20.565  25.060  1.00  0.00     0.118 C 
ENDROOT
BRANCH   1   2
ATOM      2  N   UNL A   1      38.773  21.813  25.572  1.00  0.00    -0.351 N 
ATOM      3  C   UNL A   1      38.213  23.043  25.842  1.00  0.00     0.269 C 
ATOM      4  O   UNL A   1      38.977  23.888  26.317  1.00  0.00    -0.268 OA
ATOM      5  H   UNL A   1      39.738  21.773  25.767  1.00  0.00     0.163 HD
BRANCH   3   6
ATOM      6  C   UNL A   1      36.760  23.378  25.625  1.00  0.00     0.128 A 
ATOM      7  C   UNL A   1      34.173  24.191  25.033  1.00  0.00     0.019 A 
ATOM      8  C   UNL A   1      34.504  23.781  26.327  1.00  0.00     0.014 A 
ATOM      9  C   UNL A   1      35.170  24.082  24.074  1.00  0.00     0.122 A 
ATOM     10  C   UNL A   1      35.796  23.347  26.622  1.00  0.00     0.035 A 
ATOM     11  N   UNL A   1      36.446  23.713  24.343  1.00  0.00    -0.250 NA
BRANCH   7  12
ATOM     12  C   UNL A   1      32.861  24.770  24.736  1.00  0.00     0.080 A 
ATOM     13  C   UNL A   1      31.793  23.993  24.229  1.00  0.00     0.010 A 
ATOM     14  C   UNL A   1      30.635  24.681  23.836  1.00  0.00     0.033 A 
ATOM     15  C   UNL A   1      30.566  26.063  23.974  1.00  0.00     0.060 A 
ATOM     16  N   UNL A   1      32.793  26.115  24.904  1.00  0.00    -0.254 NA
ATOM     17  Cl  UNL A   1      29.170  26.921  23.466  1.00  0.00    -0.083 Cl
ATOM     18  C   UNL A   1      31.650  26.729  24.520  1.00  0.00     0.132 A 
BRANCH  13  19
ATOM     19  C   UNL A   1      31.880  22.526  24.085  1.00  0.00    -0.016 A 
ATOM     20  C   UNL A   1      32.269  19.755  23.828  1.00  0.00     0.067 A 
ATOM     21  C   UNL A   1      32.117  20.314  25.096  1.00  0.00     0.021 A 
ATOM     22  C   UNL A   1      32.213  20.553  22.686  1.00  0.00     0.021 A 
ATOM     23  C   UNL A   1      31.905  21.688  25.217  1.00  0.00     0.010 A 
ATOM     24  C   UNL A   1      32.016  21.932  22.817  1.00  0.00     0.010 A 
BRANCH  20  25
ATOM     25  S   UNL A   1      32.609  18.016  23.684  1.00  0.00     0.175 S 
ATOM     26  C   UNL A   1      34.312  17.884  24.162  1.00  0.00     0.163 C 
ATOM     27  O   UNL A   1      32.498  17.680  22.274  1.00  0.00    -0.224 OA
ATOM     28  O   UNL A   1      31.810  17.330  24.675  1.00  0.00    -0.224 OA
ENDBRANCH  20  25
ENDBRANCH  13  19
ENDBRANCH   7  12
ENDBRANCH   3   6
ENDBRANCH   1   2
BRANCH   1  29
ATOM     29  C   UNL A   1      39.167  19.395  25.389  1.00  0.00     0.042 C 
BRANCH  29  30
ATOM     30  C   UNL A   1      40.160  19.709  26.507  1.00  0.00     0.118 C 
BRANCH  30  31
ATOM     31  N   UNL A   1      41.522  19.337  26.146  1.00  0.00    -0.352 N 
ATOM     32  C   UNL A   1      42.641  20.115  25.984  1.00  0.00     0.251 C 
ATOM     33  H   UNL A   1      41.662  18.375  25.994  1.00  0.00     0.163 HD
ATOM     34  O   UNL A   1      43.634  19.650  25.432  1.00  0.00    -0.269 OA
BRANCH  32  35
ATOM     35  C   UNL A   1      42.657  21.514  26.458  1.00  0.00     0.039 A 
ATOM     36  C   UNL A   1      42.582  21.764  27.832  1.00  0.00     0.014 A 
ATOM     37  C   UNL A   1      42.717  22.576  25.554  1.00  0.00     0.014 A 
ATOM     38  C   UNL A   1      42.654  23.077  28.301  1.00  0.00     0.010 A 
ATOM     39  C   UNL A   1      42.858  23.879  26.025  1.00  0.00     0.010 A 
ATOM     40  C   UNL A   1      42.844  24.139  27.404  1.00  0.00    -0.014 A 
BRANCH  40  41
ATOM     41  C   UNL A   1      43.084  25.523  27.882  1.00  0.00     0.031 A 
ATOM     42  C   UNL A   1      44.468  25.972  28.257  1.00  0.00     0.074 A 
ATOM     43  C   UNL A   1      42.032  26.346  28.062  1.00  0.00     0.049 A 
ATOM     44  N   UNL A   1      44.849  27.098  28.805  1.00  0.00    -0.248 NA
ATOM     45  C   UNL A   1      45.566  25.025  28.001  1.00  0.00     0.031 C 
ATOM     46  C   UNL A   1      40.636  26.014  27.766  1.00  0.00     0.029 A 
ATOM     47  N   UNL A   1      41.969  27.624  28.559  1.00  0.00    -0.354 N 
ATOM     48  C   UNL A   1      46.224  26.993  28.965  1.00  0.00     0.074 A 
ATOM     49  C   UNL A   1      46.606  25.676  28.502  1.00  0.00     0.031 C 
ATOM     50  C   UNL A   1      39.858  27.063  28.078  1.00  0.00     0.029 A 
ATOM     51  C   UNL A   1      40.689  28.118  28.645  1.00  0.00     0.049 A 
ATOM     52  H   UNL A   1      42.765  28.138  28.828  1.00  0.00     0.167 HD
ATOM     53  C   UNL A   1      47.093  27.919  29.437  1.00  0.00     0.031 A 
ATOM     54  C   UNL A   1      40.230  29.278  29.151  1.00  0.00     0.031 A 
ATOM     55  C   UNL A   1      46.709  29.224  29.906  1.00  0.00     0.049 A 
ATOM     56  C   UNL A   1      41.211  30.262  29.726  1.00  0.00     0.074 A 
ATOM     57  C   UNL A   1      47.519  30.246  30.368  1.00  0.00     0.029 A 
ATOM     58  N   UNL A   1      45.404  29.683  29.976  1.00  0.00    -0.354 N 
ATOM     59  N   UNL A   1      42.516  30.175  29.807  1.00  0.00    -0.248 NA
ATOM     60  C   UNL A   1      40.655  31.506  30.279  1.00  0.00     0.031 C 
ATOM     61  C   UNL A   1      46.699  31.303  30.774  1.00  0.00     0.029 A 
ATOM     62  C   UNL A   1      45.383  30.962  30.508  1.00  0.00     0.049 A 
ATOM     63  H   UNL A   1      44.608  29.177  29.691  1.00  0.00     0.167 HD
ATOM     64  C   UNL A   1      42.938  31.356  30.404  1.00  0.00     0.074 A 
ATOM     65  C   UNL A   1      41.754  32.155  30.638  1.00  0.00     0.031 C 
ATOM     66  C   UNL A   1      44.194  31.741  30.736  1.00  0.00     0.031 A 
BRANCH  53  67
ATOM     67  C   UNL A   1      48.551  27.552  29.471  1.00  0.00    -0.014 A 
ATOM     68  C   UNL A   1      49.109  26.907  30.587  1.00  0.00     0.009 A 
ATOM     69  C   UNL A   1      49.364  27.797  28.353  1.00  0.00     0.009 A 
ATOM     70  C   UNL A   1      50.457  26.544  30.594  1.00  0.00     0.001 A 
ATOM     71  C   UNL A   1      50.704  27.407  28.352  1.00  0.00     0.001 A 
ATOM     72  C   UNL A   1      51.252  26.788  29.475  1.00  0.00     0.000 A 
ENDBRANCH  53  67
BRANCH  54  73
ATOM     73  C   UNL A   1      38.770  29.562  29.172  1.00  0.00    -0.014 A 
ATOM     74  C   UNL A   1      37.994  29.246  30.298  1.00  0.00     0.009 A 
ATOM     75  C   UNL A   1      38.140  30.131  28.054  1.00  0.00     0.009 A 
ATOM     76  C   UNL A   1      36.613  29.461  30.288  1.00  0.00     0.001 A 
ATOM     77  C   UNL A   1      36.766  30.376  28.061  1.00  0.00     0.001 A 
ATOM     78  C   UNL A   1      36.001  30.029  29.173  1.00  0.00     0.000 A 
ENDBRANCH  54  73
BRANCH  66  79
ATOM     79  C   UNL A   1      44.354  33.092  31.375  1.00  0.00    -0.014 A 
ATOM     80  C   UNL A   1      44.500  34.248  30.594  1.00  0.00     0.009 A 
ATOM     81  C   UNL A   1      44.297  33.215  32.772  1.00  0.00     0.009 A 
ATOM     82  C   UNL A   1      44.612  35.499  31.202  1.00  0.00     0.001 A 
ATOM     83  C   UNL A   1      44.378  34.470  33.375  1.00  0.00     0.001 A 
ATOM     84  C   UNL A   1      44.542  35.611  32.590  1.00  0.00     0.000 A 
ENDBRANCH  66  79
ENDBRANCH  40  41
ENDBRANCH  32  35
ENDBRANCH  30  31
ENDBRANCH  29  30
ENDBRANCH   1  29
TORSDOF 13
ENDMDL
