MODEL 1
REMARK VINA RESULT:     -13.6      0.000      0.000
REMARK SMILES Cc1ccc(S(=O)(=O)n2cc(C(=O)C(=O)N[C@@H](Cc3c[nH]c4ccccc34)C(=O)NCCCNC(=O)c3ccc(-c4c5nc(c(-c6ccccc6)c6ccc([nH]6)c(-c6ccccc6)c6nc(c(-c7ccccc7)c7ccc4[nH]7)C=C6)C=C5)cc3)c3ccccc32)cc1
REMARK SMILES IDX 28 1 29 2 30 3 17 5 16 6 14 7 15 8 12 10 13 11 11 12 9 13
REMARK SMILES IDX 10 14 90 15 85 16 89 17 86 18 88 19 87 20 6 21 7 22 8 23
REMARK SMILES IDX 5 24 1 25 2 26 3 27 92 28 4 29 91 30 18 31 19 32 20 33 27 34
REMARK SMILES IDX 21 35 22 36 26 37 23 39 25 40 24 41 31 42 32 43 33 44 34 45
REMARK SMILES IDX 35 46 36 48 37 49 38 50 84 51 39 52 83 53 40 54 41 55 42 56
REMARK SMILES IDX 77 57 43 58 82 59 76 60 78 61 44 62 81 63 75 64 74 65 45 67
REMARK SMILES IDX 67 68 52 69 66 70 53 71 56 72 65 73 79 74 54 75 55 76 64 78
REMARK SMILES IDX 80 79 57 80 46 81 47 82 51 83 48 84 50 85 49 86 68 87 69 88
REMARK SMILES IDX 73 89 70 90 72 91 71 92 58 93 59 94 63 95 60 96 62 97 61 98
REMARK H PARENT 30 4 16 9 21 38 34 47 78 66 56 77
REMARK Flexibility Score: inf
ROOT
ATOM      1  C   UNL A   1      35.762  23.173  23.709  1.00  0.00     0.242 C 
ATOM      2  O   UNL A   1      35.530  24.079  22.897  1.00  0.00    -0.273 OA
ATOM      3  N   UNL A   1      37.003  23.190  24.264  1.00  0.00    -0.354 N 
ATOM      4  H   UNL A   1      37.709  23.505  23.654  1.00  0.00     0.163 HD
ENDROOT
BRANCH   1   5
ATOM      5  C   UNL A   1      34.624  22.195  24.094  1.00  0.00     0.176 C 
BRANCH   5   6
ATOM      6  N   UNL A   1      33.457  22.166  23.192  1.00  0.00    -0.337 N 
ATOM      7  C   UNL A   1      32.116  22.478  23.442  1.00  0.00     0.293 C 
ATOM      8  O   UNL A   1      31.258  22.223  22.613  1.00  0.00    -0.265 OA
ATOM      9  H   UNL A   1      33.652  21.882  22.269  1.00  0.00     0.164 HD
BRANCH   7  10
ATOM     10  C   UNL A   1      31.716  23.206  24.736  1.00  0.00     0.252 C 
ATOM     11  O   UNL A   1      30.862  22.631  25.412  1.00  0.00    -0.283 OA
BRANCH  10  12
ATOM     12  C   UNL A   1      32.217  24.546  25.119  1.00  0.00     0.054 A 
ATOM     13  N   UNL A   1      32.910  26.458  26.148  1.00  0.00    -0.240 N 
ATOM     14  C   UNL A   1      32.357  25.187  26.363  1.00  0.00     0.117 A 
ATOM     15  C   UNL A   1      33.289  26.522  24.795  1.00  0.00     0.065 A 
ATOM     16  C   UNL A   1      32.541  25.544  24.145  1.00  0.00     0.012 A 
ATOM     17  C   UNL A   1      33.975  27.521  24.076  1.00  0.00     0.028 A 
ATOM     18  C   UNL A   1      32.301  25.695  22.762  1.00  0.00     0.011 A 
ATOM     19  C   UNL A   1      33.664  27.690  22.728  1.00  0.00     0.002 A 
ATOM     20  C   UNL A   1      32.800  26.814  22.088  1.00  0.00     0.001 A 
BRANCH  13  21
ATOM     21  S   UNL A   1      32.262  27.997  26.692  1.00  0.00     0.268 S 
ATOM     22  O   UNL A   1      31.605  27.653  27.941  1.00  0.00    -0.201 OA
ATOM     23  O   UNL A   1      31.492  28.427  25.531  1.00  0.00    -0.201 OA
BRANCH  21  24
ATOM     24  C   UNL A   1      33.154  29.473  27.038  1.00  0.00     0.088 A 
ATOM     25  C   UNL A   1      36.071  32.411  28.298  1.00  0.00     0.044 C 
ATOM     26  C   UNL A   1      35.044  31.428  27.813  1.00  0.00    -0.051 A 
ATOM     27  C   UNL A   1      35.458  30.119  27.620  1.00  0.00     0.005 A 
ATOM     28  C   UNL A   1      33.684  31.751  27.598  1.00  0.00     0.005 A 
ATOM     29  C   UNL A   1      34.530  29.170  27.228  1.00  0.00     0.022 A 
ATOM     30  C   UNL A   1      32.725  30.775  27.214  1.00  0.00     0.022 A 
ENDBRANCH  21  24
ENDBRANCH  13  21
ENDBRANCH  10  12
ENDBRANCH   7  10
ENDBRANCH   5   6
BRANCH   5  31
ATOM     31  C   UNL A   1      35.136  20.793  24.546  1.00  0.00     0.072 C 
BRANCH  31  32
ATOM     32  C   UNL A   1      34.155  19.812  25.141  1.00  0.00    -0.020 A 
ATOM     33  C   UNL A   1      33.382  20.025  26.273  1.00  0.00     0.087 A 
ATOM     34  C   UNL A   1      33.831  18.489  24.682  1.00  0.00     0.003 A 
ATOM     35  N   UNL A   1      32.721  18.864  26.579  1.00  0.00    -0.361 N 
ATOM     36  C   UNL A   1      33.044  17.886  25.668  1.00  0.00     0.046 A 
ATOM     37  C   UNL A   1      34.199  17.714  23.565  1.00  0.00     0.010 A 
ATOM     38  H   UNL A   1      32.106  18.746  27.339  1.00  0.00     0.166 HD
ATOM     39  C   UNL A   1      32.709  16.526  25.647  1.00  0.00     0.026 A 
ATOM     40  C   UNL A   1      33.903  16.346  23.543  1.00  0.00     0.001 A 
ATOM     41  C   UNL A   1      33.192  15.758  24.584  1.00  0.00     0.002 A 
ENDBRANCH  31  32
ENDBRANCH   5  31
ENDBRANCH   1   5
BRANCH   3  42
ATOM     42  C   UNL A   1      37.488  22.831  25.584  1.00  0.00     0.117 C 
BRANCH  42  43
ATOM     43  C   UNL A   1      38.602  21.801  25.601  1.00  0.00     0.042 C 
BRANCH  43  44
ATOM     44  C   UNL A   1      39.596  22.065  26.723  1.00  0.00     0.118 C 
BRANCH  44  45
ATOM     45  N   UNL A   1      40.936  22.512  26.338  1.00  0.00    -0.352 N 
ATOM     46  C   UNL A   1      41.404  23.820  26.238  1.00  0.00     0.251 C 
ATOM     47  H   UNL A   1      41.584  21.803  26.122  1.00  0.00     0.163 HD
ATOM     48  O   UNL A   1      42.564  24.063  25.925  1.00  0.00    -0.269 OA
BRANCH  46  49
ATOM     49  C   UNL A   1      40.495  24.917  26.661  1.00  0.00     0.039 A 
ATOM     50  C   UNL A   1      40.677  26.153  26.034  1.00  0.00     0.014 A 
ATOM     51  C   UNL A   1      39.899  24.835  27.914  1.00  0.00     0.014 A 
ATOM     52  C   UNL A   1      40.608  27.307  26.807  1.00  0.00     0.010 A 
ATOM     53  C   UNL A   1      39.962  25.959  28.714  1.00  0.00     0.010 A 
ATOM     54  C   UNL A   1      40.413  27.173  28.183  1.00  0.00    -0.014 A 
BRANCH  54  55
ATOM     55  C   UNL A   1      40.803  28.211  29.133  1.00  0.00     0.031 A 
ATOM     56  C   UNL A   1      39.803  29.192  29.589  1.00  0.00     0.074 A 
ATOM     57  C   UNL A   1      42.068  28.319  29.606  1.00  0.00     0.049 A 
ATOM     58  N   UNL A   1      40.076  30.428  29.848  1.00  0.00    -0.248 NA
ATOM     59  C   UNL A   1      38.394  28.860  29.742  1.00  0.00     0.031 C 
ATOM     60  C   UNL A   1      42.530  29.203  30.677  1.00  0.00     0.029 A 
ATOM     61  N   UNL A   1      43.251  27.816  29.065  1.00  0.00    -0.354 N 
ATOM     62  C   UNL A   1      38.983  30.946  30.499  1.00  0.00     0.074 A 
ATOM     63  C   UNL A   1      37.931  29.974  30.313  1.00  0.00     0.031 C 
ATOM     64  C   UNL A   1      43.840  29.437  30.506  1.00  0.00     0.029 A 
ATOM     65  C   UNL A   1      44.240  28.794  29.270  1.00  0.00     0.049 A 
ATOM     66  H   UNL A   1      43.370  26.943  28.626  1.00  0.00     0.167 HD
ATOM     67  C   UNL A   1      39.113  32.060  31.272  1.00  0.00     0.031 A 
ATOM     68  C   UNL A   1      44.964  29.365  28.263  1.00  0.00     0.031 A 
ATOM     69  C   UNL A   1      40.478  32.588  31.275  1.00  0.00     0.049 A 
ATOM     70  C   UNL A   1      44.804  30.873  28.178  1.00  0.00     0.074 A 
ATOM     71  C   UNL A   1      41.509  32.577  32.202  1.00  0.00     0.029 A 
ATOM     72  N   UNL A   1      41.046  33.007  30.082  1.00  0.00    -0.354 N 
ATOM     73  N   UNL A   1      44.066  31.586  28.982  1.00  0.00    -0.248 NA
ATOM     74  C   UNL A   1      45.356  31.676  27.086  1.00  0.00     0.031 C 
ATOM     75  C   UNL A   1      42.697  33.021  31.557  1.00  0.00     0.029 A 
ATOM     76  C   UNL A   1      42.386  33.307  30.242  1.00  0.00     0.049 A 
ATOM     77  H   UNL A   1      40.558  33.080  29.230  1.00  0.00     0.167 HD
ATOM     78  C   UNL A   1      43.960  32.868  28.504  1.00  0.00     0.074 A 
ATOM     79  C   UNL A   1      44.794  32.874  27.316  1.00  0.00     0.031 C 
ATOM     80  C   UNL A   1      43.144  33.793  29.096  1.00  0.00     0.031 A 
BRANCH  67  81
ATOM     81  C   UNL A   1      38.047  32.484  32.254  1.00  0.00    -0.014 A 
ATOM     82  C   UNL A   1      37.071  33.418  31.870  1.00  0.00     0.009 A 
ATOM     83  C   UNL A   1      37.978  32.035  33.584  1.00  0.00     0.009 A 
ATOM     84  C   UNL A   1      36.166  33.968  32.788  1.00  0.00     0.001 A 
ATOM     85  C   UNL A   1      37.113  32.615  34.522  1.00  0.00     0.001 A 
ATOM     86  C   UNL A   1      36.215  33.594  34.124  1.00  0.00     0.000 A 
ENDBRANCH  67  81
BRANCH  68  87
ATOM     87  C   UNL A   1      45.153  28.463  27.094  1.00  0.00    -0.014 A 
ATOM     88  C   UNL A   1      46.220  27.545  27.143  1.00  0.00     0.009 A 
ATOM     89  C   UNL A   1      44.097  28.224  26.204  1.00  0.00     0.009 A 
ATOM     90  C   UNL A   1      46.157  26.342  26.437  1.00  0.00     0.001 A 
ATOM     91  C   UNL A   1      44.048  27.025  25.485  1.00  0.00     0.001 A 
ATOM     92  C   UNL A   1      45.050  26.066  25.638  1.00  0.00     0.000 A 
ENDBRANCH  68  87
BRANCH  80  93
ATOM     93  C   UNL A   1      42.927  35.227  28.650  1.00  0.00    -0.014 A 
ATOM     94  C   UNL A   1      43.280  36.357  29.396  1.00  0.00     0.009 A 
ATOM     95  C   UNL A   1      42.244  35.478  27.435  1.00  0.00     0.009 A 
ATOM     96  C   UNL A   1      43.048  37.657  28.916  1.00  0.00     0.001 A 
ATOM     97  C   UNL A   1      41.993  36.768  26.959  1.00  0.00     0.001 A 
ATOM     98  C   UNL A   1      42.413  37.862  27.694  1.00  0.00     0.000 A 
ENDBRANCH  80  93
ENDBRANCH  54  55
ENDBRANCH  46  49
ENDBRANCH  44  45
ENDBRANCH  43  44
ENDBRANCH  42  43
ENDBRANCH   3  42
TORSDOF 17
ENDMDL
MODEL 2
REMARK VINA RESULT:     -13.6      3.194      9.380
REMARK SMILES Cc1ccc(S(=O)(=O)n2cc(C(=O)C(=O)N[C@@H](Cc3c[nH]c4ccccc34)C(=O)NCCCNC(=O)c3ccc(-c4c5nc(c(-c6ccccc6)c6ccc([nH]6)c(-c6ccccc6)c6nc(c(-c7ccccc7)c7ccc4[nH]7)C=C6)C=C5)cc3)c3ccccc32)cc1
REMARK SMILES IDX 28 1 29 2 30 3 17 5 16 6 14 7 15 8 12 10 13 11 11 12 9 13
REMARK SMILES IDX 10 14 90 15 85 16 89 17 86 18 88 19 87 20 6 21 7 22 8 23
REMARK SMILES IDX 5 24 1 25 2 26 3 27 92 28 4 29 91 30 18 31 19 32 20 33 27 34
REMARK SMILES IDX 21 35 22 36 26 37 23 39 25 40 24 41 31 42 32 43 33 44 34 45
REMARK SMILES IDX 35 46 36 48 37 49 38 50 84 51 39 52 83 53 40 54 41 55 42 56
REMARK SMILES IDX 77 57 43 58 82 59 76 60 78 61 44 62 81 63 75 64 74 65 45 67
REMARK SMILES IDX 67 68 52 69 66 70 53 71 56 72 65 73 79 74 54 75 55 76 64 78
REMARK SMILES IDX 80 79 57 80 46 81 47 82 51 83 48 84 50 85 49 86 68 87 69 88
REMARK SMILES IDX 73 89 70 90 72 91 71 92 58 93 59 94 63 95 60 96 62 97 61 98
REMARK H PARENT 30 4 16 9 21 38 34 47 78 66 56 77
REMARK Flexibility Score: inf
ROOT
ATOM      1  C   UNL A   1      32.109  28.357  27.232  1.00  0.00     0.242 C 
ATOM      2  O   UNL A   1      31.333  27.791  28.014  1.00  0.00    -0.273 OA
ATOM      3  N   UNL A   1      33.222  28.894  27.800  1.00  0.00    -0.354 N 
ATOM      4  H   UNL A   1      33.074  29.254  28.704  1.00  0.00     0.163 HD
ENDROOT
BRANCH   1   5
ATOM      5  C   UNL A   1      31.815  28.313  25.712  1.00  0.00     0.176 C 
BRANCH   5   6
ATOM      6  N   UNL A   1      30.932  27.225  25.250  1.00  0.00    -0.337 N 
ATOM      7  C   UNL A   1      31.170  26.200  24.328  1.00  0.00     0.293 C 
ATOM      8  O   UNL A   1      30.255  25.493  23.940  1.00  0.00    -0.265 OA
ATOM      9  H   UNL A   1      30.034  27.218  25.656  1.00  0.00     0.164 HD
BRANCH   7  10
ATOM     10  C   UNL A   1      32.600  25.911  23.840  1.00  0.00     0.252 C 
ATOM     11  O   UNL A   1      32.899  26.432  22.766  1.00  0.00    -0.283 OA
BRANCH  10  12
ATOM     12  C   UNL A   1      33.538  24.993  24.529  1.00  0.00     0.054 A 
ATOM     13  N   UNL A   1      35.294  23.750  25.279  1.00  0.00    -0.240 N 
ATOM     14  C   UNL A   1      34.889  24.674  24.306  1.00  0.00     0.117 A 
ATOM     15  C   UNL A   1      34.250  23.649  26.215  1.00  0.00     0.065 A 
ATOM     16  C   UNL A   1      33.107  24.097  25.558  1.00  0.00     0.012 A 
ATOM     17  C   UNL A   1      34.169  22.946  27.434  1.00  0.00     0.028 A 
ATOM     18  C   UNL A   1      31.851  23.646  26.020  1.00  0.00     0.011 A 
ATOM     19  C   UNL A   1      32.925  22.455  27.827  1.00  0.00     0.002 A 
ATOM     20  C   UNL A   1      31.783  22.763  27.101  1.00  0.00     0.001 A 
BRANCH  13  21
ATOM     21  S   UNL A   1      36.043  22.185  25.002  1.00  0.00     0.268 S 
ATOM     22  O   UNL A   1      36.939  22.045  26.137  1.00  0.00    -0.201 OA
ATOM     23  O   UNL A   1      36.563  22.334  23.648  1.00  0.00    -0.201 OA
BRANCH  21  24
ATOM     24  C   UNL A   1      35.244  20.625  24.859  1.00  0.00     0.088 A 
ATOM     25  C   UNL A   1      34.247  16.473  24.148  1.00  0.00     0.044 C 
ATOM     26  C   UNL A   1      34.553  17.915  24.443  1.00  0.00    -0.051 A 
ATOM     27  C   UNL A   1      35.886  18.261  24.605  1.00  0.00     0.005 A 
ATOM     28  C   UNL A   1      33.572  18.931  24.508  1.00  0.00     0.005 A 
ATOM     29  C   UNL A   1      36.216  19.588  24.822  1.00  0.00     0.022 A 
ATOM     30  C   UNL A   1      33.908  20.297  24.711  1.00  0.00     0.022 A 
ENDBRANCH  21  24
ENDBRANCH  13  21
ENDBRANCH  10  12
ENDBRANCH   7  10
ENDBRANCH   5   6
BRANCH   5  31
ATOM     31  C   UNL A   1      31.501  29.713  25.099  1.00  0.00     0.072 C 
BRANCH  31  32
ATOM     32  C   UNL A   1      30.901  29.788  23.716  1.00  0.00    -0.020 A 
ATOM     33  C   UNL A   1      31.483  29.306  22.553  1.00  0.00     0.087 A 
ATOM     34  C   UNL A   1      29.645  30.365  23.322  1.00  0.00     0.003 A 
ATOM     35  N   UNL A   1      30.706  29.678  21.486  1.00  0.00    -0.361 N 
ATOM     36  C   UNL A   1      29.620  30.397  21.925  1.00  0.00     0.046 A 
ATOM     37  C   UNL A   1      28.563  30.942  24.017  1.00  0.00     0.010 A 
ATOM     38  H   UNL A   1      30.897  29.462  20.545  1.00  0.00     0.166 HD
ATOM     39  C   UNL A   1      28.632  31.074  21.198  1.00  0.00     0.026 A 
ATOM     40  C   UNL A   1      27.586  31.651  23.309  1.00  0.00     0.001 A 
ATOM     41  C   UNL A   1      27.637  31.737  21.922  1.00  0.00     0.002 A 
ENDBRANCH  31  32
ENDBRANCH   5  31
ENDBRANCH   1   5
BRANCH   3  42
ATOM     42  C   UNL A   1      34.587  29.036  27.330  1.00  0.00     0.117 C 
BRANCH  42  43
ATOM     43  C   UNL A   1      35.089  30.466  27.239  1.00  0.00     0.042 C 
BRANCH  43  44
ATOM     44  C   UNL A   1      35.024  31.172  28.587  1.00  0.00     0.118 C 
BRANCH  44  45
ATOM     45  N   UNL A   1      34.010  32.215  28.746  1.00  0.00    -0.352 N 
ATOM     46  C   UNL A   1      34.132  33.431  29.413  1.00  0.00     0.251 C 
ATOM     47  H   UNL A   1      33.134  32.035  28.332  1.00  0.00     0.163 HD
ATOM     48  O   UNL A   1      33.209  34.235  29.455  1.00  0.00    -0.269 OA
BRANCH  46  49
ATOM     49  C   UNL A   1      35.468  33.793  29.956  1.00  0.00     0.039 A 
ATOM     50  C   UNL A   1      36.404  34.276  29.038  1.00  0.00     0.014 A 
ATOM     51  C   UNL A   1      35.877  33.207  31.148  1.00  0.00     0.014 A 
ATOM     52  C   UNL A   1      37.721  33.841  29.140  1.00  0.00     0.010 A 
ATOM     53  C   UNL A   1      37.147  32.664  31.178  1.00  0.00     0.010 A 
ATOM     54  C   UNL A   1      38.035  32.900  30.122  1.00  0.00    -0.014 A 
BRANCH  54  55
ATOM     55  C   UNL A   1      39.200  32.026  30.024  1.00  0.00     0.031 A 
ATOM     56  C   UNL A   1      39.024  30.619  29.629  1.00  0.00     0.074 A 
ATOM     57  C   UNL A   1      40.454  32.461  30.302  1.00  0.00     0.049 A 
ATOM     58  N   UNL A   1      39.737  29.647  30.094  1.00  0.00    -0.248 NA
ATOM     59  C   UNL A   1      37.983  30.190  28.705  1.00  0.00     0.031 C 
ATOM     60  C   UNL A   1      41.703  31.732  30.079  1.00  0.00     0.029 A 
ATOM     61  N   UNL A   1      40.851  33.565  31.056  1.00  0.00    -0.354 N 
ATOM     62  C   UNL A   1      39.479  28.553  29.304  1.00  0.00     0.074 A 
ATOM     63  C   UNL A   1      38.310  28.908  28.531  1.00  0.00     0.031 C 
ATOM     64  C   UNL A   1      42.631  32.199  30.928  1.00  0.00     0.029 A 
ATOM     65  C   UNL A   1      41.985  33.171  31.788  1.00  0.00     0.049 A 
ATOM     66  H   UNL A   1      40.419  34.450  31.071  1.00  0.00     0.167 HD
ATOM     67  C   UNL A   1      40.366  27.522  29.254  1.00  0.00     0.031 A 
ATOM     68  C   UNL A   1      42.065  33.221  33.150  1.00  0.00     0.031 A 
ATOM     69  C   UNL A   1      41.525  27.732  30.123  1.00  0.00     0.049 A 
ATOM     70  C   UNL A   1      42.327  31.871  33.793  1.00  0.00     0.074 A 
ATOM     71  C   UNL A   1      42.849  28.070  29.890  1.00  0.00     0.029 A 
ATOM     72  N   UNL A   1      41.333  27.871  31.489  1.00  0.00    -0.354 N 
ATOM     73  N   UNL A   1      42.479  30.755  33.138  1.00  0.00    -0.248 NA
ATOM     74  C   UNL A   1      42.295  31.655  35.241  1.00  0.00     0.031 C 
ATOM     75  C   UNL A   1      43.457  28.387  31.137  1.00  0.00     0.029 A 
ATOM     76  C   UNL A   1      42.505  28.235  32.126  1.00  0.00     0.049 A 
ATOM     77  H   UNL A   1      40.473  27.730  31.946  1.00  0.00     0.167 HD
ATOM     78  C   UNL A   1      42.475  29.696  34.012  1.00  0.00     0.074 A 
ATOM     79  C   UNL A   1      42.364  30.315  35.320  1.00  0.00     0.031 C 
ATOM     80  C   UNL A   1      42.501  28.400  33.574  1.00  0.00     0.031 A 
BRANCH  67  81
ATOM     81  C   UNL A   1      40.303  26.461  28.182  1.00  0.00    -0.014 A 
ATOM     82  C   UNL A   1      39.352  25.429  28.271  1.00  0.00     0.009 A 
ATOM     83  C   UNL A   1      41.180  26.394  27.086  1.00  0.00     0.009 A 
ATOM     84  C   UNL A   1      39.361  24.334  27.397  1.00  0.00     0.001 A 
ATOM     85  C   UNL A   1      41.231  25.279  26.239  1.00  0.00     0.001 A 
ATOM     86  C   UNL A   1      40.328  24.240  26.405  1.00  0.00     0.000 A 
ENDBRANCH  67  81
BRANCH  68  87
ATOM     87  C   UNL A   1      41.231  34.300  33.746  1.00  0.00    -0.014 A 
ATOM     88  C   UNL A   1      39.959  33.946  34.237  1.00  0.00     0.009 A 
ATOM     89  C   UNL A   1      41.822  35.488  34.198  1.00  0.00     0.009 A 
ATOM     90  C   UNL A   1      39.365  34.677  35.269  1.00  0.00     0.001 A 
ATOM     91  C   UNL A   1      41.214  36.225  35.219  1.00  0.00     0.001 A 
ATOM     92  C   UNL A   1      40.014  35.795  35.786  1.00  0.00     0.000 A 
ENDBRANCH  68  87
BRANCH  80  93
ATOM     93  C   UNL A   1      42.478  27.152  34.436  1.00  0.00    -0.014 A 
ATOM     94  C   UNL A   1      41.484  26.847  35.372  1.00  0.00     0.009 A 
ATOM     95  C   UNL A   1      43.568  26.250  34.377  1.00  0.00     0.009 A 
ATOM     96  C   UNL A   1      41.530  25.668  36.135  1.00  0.00     0.001 A 
ATOM     97  C   UNL A   1      43.630  25.084  35.146  1.00  0.00     0.001 A 
ATOM     98  C   UNL A   1      42.597  24.784  36.016  1.00  0.00     0.000 A 
ENDBRANCH  80  93
ENDBRANCH  54  55
ENDBRANCH  46  49
ENDBRANCH  44  45
ENDBRANCH  43  44
ENDBRANCH  42  43
ENDBRANCH   3  42
TORSDOF 17
ENDMDL
MODEL 3
REMARK VINA RESULT:     -13.4      3.354      9.262
REMARK SMILES Cc1ccc(S(=O)(=O)n2cc(C(=O)C(=O)N[C@@H](Cc3c[nH]c4ccccc34)C(=O)NCCCNC(=O)c3ccc(-c4c5nc(c(-c6ccccc6)c6ccc([nH]6)c(-c6ccccc6)c6nc(c(-c7ccccc7)c7ccc4[nH]7)C=C6)C=C5)cc3)c3ccccc32)cc1
REMARK SMILES IDX 28 1 29 2 30 3 17 5 16 6 14 7 15 8 12 10 13 11 11 12 9 13
REMARK SMILES IDX 10 14 90 15 85 16 89 17 86 18 88 19 87 20 6 21 7 22 8 23
REMARK SMILES IDX 5 24 1 25 2 26 3 27 92 28 4 29 91 30 18 31 19 32 20 33 27 34
REMARK SMILES IDX 21 35 22 36 26 37 23 39 25 40 24 41 31 42 32 43 33 44 34 45
REMARK SMILES IDX 35 46 36 48 37 49 38 50 84 51 39 52 83 53 40 54 41 55 42 56
REMARK SMILES IDX 77 57 43 58 82 59 76 60 78 61 44 62 81 63 75 64 74 65 45 67
REMARK SMILES IDX 67 68 52 69 66 70 53 71 56 72 65 73 79 74 54 75 55 76 64 78
REMARK SMILES IDX 80 79 57 80 46 81 47 82 51 83 48 84 50 85 49 86 68 87 69 88
REMARK SMILES IDX 73 89 70 90 72 91 71 92 58 93 59 94 63 95 60 96 62 97 61 98
REMARK H PARENT 30 4 16 9 21 38 34 47 78 66 56 77
REMARK Flexibility Score: inf
ROOT
ATOM      1  C   UNL A   1      31.841  26.499  25.915  1.00  0.00     0.242 C 
ATOM      2  O   UNL A   1      31.840  25.426  26.535  1.00  0.00    -0.273 OA
ATOM      3  N   UNL A   1      32.719  27.434  26.368  1.00  0.00    -0.354 N 
ATOM      4  H   UNL A   1      32.845  27.422  27.344  1.00  0.00     0.163 HD
ENDROOT
BRANCH   1   5
ATOM      5  C   UNL A   1      30.955  26.642  24.653  1.00  0.00     0.176 C 
BRANCH   5   6
ATOM      6  N   UNL A   1      30.271  25.418  24.194  1.00  0.00    -0.337 N 
ATOM      7  C   UNL A   1      30.725  24.391  23.360  1.00  0.00     0.293 C 
ATOM      8  O   UNL A   1      29.951  23.542  22.948  1.00  0.00    -0.265 OA
ATOM      9  H   UNL A   1      29.351  25.306  24.528  1.00  0.00     0.164 HD
BRANCH   7  10
ATOM     10  C   UNL A   1      32.217  24.280  23.005  1.00  0.00     0.252 C 
ATOM     11  O   UNL A   1      32.537  24.800  21.936  1.00  0.00    -0.283 OA
BRANCH  10  12
ATOM     12  C   UNL A   1      33.204  23.521  23.809  1.00  0.00     0.054 A 
ATOM     13  N   UNL A   1      34.924  22.777  25.105  1.00  0.00    -0.240 N 
ATOM     14  C   UNL A   1      34.382  23.905  24.473  1.00  0.00     0.117 A 
ATOM     15  C   UNL A   1      33.977  21.743  24.990  1.00  0.00     0.065 A 
ATOM     16  C   UNL A   1      33.158  22.095  23.921  1.00  0.00     0.012 A 
ATOM     17  C   UNL A   1      33.965  20.439  25.526  1.00  0.00     0.028 A 
ATOM     18  C   UNL A   1      32.472  21.067  23.237  1.00  0.00     0.011 A 
ATOM     19  C   UNL A   1      33.339  19.434  24.792  1.00  0.00     0.002 A 
ATOM     20  C   UNL A   1      32.638  19.738  23.634  1.00  0.00     0.001 A 
BRANCH  13  21
ATOM     21  S   UNL A   1      36.557  22.153  24.934  1.00  0.00     0.268 S 
ATOM     22  O   UNL A   1      36.866  22.421  23.540  1.00  0.00    -0.201 OA
ATOM     23  O   UNL A   1      36.411  20.788  25.424  1.00  0.00    -0.201 OA
BRANCH  21  24
ATOM     24  C   UNL A   1      37.992  22.651  25.822  1.00  0.00     0.088 A 
ATOM     25  C   UNL A   1      41.659  22.808  28.115  1.00  0.00     0.044 C 
ATOM     26  C   UNL A   1      40.404  22.805  27.289  1.00  0.00    -0.051 A 
ATOM     27  C   UNL A   1      40.095  21.638  26.607  1.00  0.00     0.005 A 
ATOM     28  C   UNL A   1      39.507  23.895  27.216  1.00  0.00     0.005 A 
ATOM     29  C   UNL A   1      38.919  21.574  25.879  1.00  0.00     0.022 A 
ATOM     30  C   UNL A   1      38.289  23.826  26.486  1.00  0.00     0.022 A 
ENDBRANCH  21  24
ENDBRANCH  13  21
ENDBRANCH  10  12
ENDBRANCH   7  10
ENDBRANCH   5   6
BRANCH   5  31
ATOM     31  C   UNL A   1      30.065  27.924  24.661  1.00  0.00     0.072 C 
BRANCH  31  32
ATOM     32  C   UNL A   1      30.062  28.821  23.447  1.00  0.00    -0.020 A 
ATOM     33  C   UNL A   1      30.991  28.793  22.418  1.00  0.00     0.087 A 
ATOM     34  C   UNL A   1      29.134  29.867  23.116  1.00  0.00     0.003 A 
ATOM     35  N   UNL A   1      30.739  29.840  21.569  1.00  0.00    -0.361 N 
ATOM     36  C   UNL A   1      29.658  30.559  22.021  1.00  0.00     0.046 A 
ATOM     37  C   UNL A   1      27.940  30.346  23.693  1.00  0.00     0.010 A 
ATOM     38  H   UNL A   1      31.255  30.047  20.757  1.00  0.00     0.166 HD
ATOM     39  C   UNL A   1      29.116  31.763  21.553  1.00  0.00     0.026 A 
ATOM     40  C   UNL A   1      27.405  31.564  23.261  1.00  0.00     0.001 A 
ATOM     41  C   UNL A   1      28.001  32.274  22.224  1.00  0.00     0.002 A 
ENDBRANCH  31  32
ENDBRANCH   5  31
ENDBRANCH   1   5
BRANCH   3  42
ATOM     42  C   UNL A   1      33.504  28.446  25.688  1.00  0.00     0.117 C 
BRANCH  42  43
ATOM     43  C   UNL A   1      33.190  29.877  26.085  1.00  0.00     0.042 C 
BRANCH  43  44
ATOM     44  C   UNL A   1      33.567  30.155  27.533  1.00  0.00     0.118 C 
BRANCH  44  45
ATOM     45  N   UNL A   1      34.417  31.320  27.790  1.00  0.00    -0.352 N 
ATOM     46  C   UNL A   1      35.774  31.335  28.100  1.00  0.00     0.251 C 
ATOM     47  H   UNL A   1      33.974  32.198  27.739  1.00  0.00     0.163 HD
ATOM     48  O   UNL A   1      36.380  32.387  28.271  1.00  0.00    -0.269 OA
BRANCH  46  49
ATOM     49  C   UNL A   1      36.506  30.042  28.079  1.00  0.00     0.039 A 
ATOM     50  C   UNL A   1      36.726  29.429  29.315  1.00  0.00     0.014 A 
ATOM     51  C   UNL A   1      37.327  29.766  26.991  1.00  0.00     0.014 A 
ATOM     52  C   UNL A   1      37.965  28.846  29.557  1.00  0.00     0.010 A 
ATOM     53  C   UNL A   1      38.602  29.311  27.267  1.00  0.00     0.010 A 
ATOM     54  C   UNL A   1      38.949  28.947  28.573  1.00  0.00    -0.014 A 
BRANCH  54  55
ATOM     55  C   UNL A   1      40.373  28.829  28.875  1.00  0.00     0.031 A 
ATOM     56  C   UNL A   1      41.159  27.743  28.266  1.00  0.00     0.074 A 
ATOM     57  C   UNL A   1      41.005  29.683  29.717  1.00  0.00     0.049 A 
ATOM     58  N   UNL A   1      42.131  27.138  28.863  1.00  0.00    -0.248 NA
ATOM     59  C   UNL A   1      40.871  27.218  26.938  1.00  0.00     0.031 C 
ATOM     60  C   UNL A   1      42.446  29.766  29.960  1.00  0.00     0.029 A 
ATOM     61  N   UNL A   1      40.460  30.506  30.702  1.00  0.00    -0.354 N 
ATOM     62  C   UNL A   1      42.787  26.402  27.906  1.00  0.00     0.074 A 
ATOM     63  C   UNL A   1      41.908  26.397  26.759  1.00  0.00     0.031 C 
ATOM     64  C   UNL A   1      42.646  30.294  31.177  1.00  0.00     0.029 A 
ATOM     65  C   UNL A   1      41.346  30.476  31.793  1.00  0.00     0.049 A 
ATOM     66  H   UNL A   1      39.616  31.010  30.643  1.00  0.00     0.167 HD
ATOM     67  C   UNL A   1      44.074  26.008  28.111  1.00  0.00     0.031 A 
ATOM     68  C   UNL A   1      40.990  30.086  33.051  1.00  0.00     0.031 A 
ATOM     69  C   UNL A   1      44.593  26.432  29.412  1.00  0.00     0.049 A 
ATOM     70  C   UNL A   1      41.782  28.897  33.566  1.00  0.00     0.074 A 
ATOM     71  C   UNL A   1      45.482  27.417  29.815  1.00  0.00     0.029 A 
ATOM     72  N   UNL A   1      43.976  25.982  30.568  1.00  0.00    -0.354 N 
ATOM     73  N   UNL A   1      42.727  28.292  32.903  1.00  0.00    -0.248 NA
ATOM     74  C   UNL A   1      41.467  28.208  34.819  1.00  0.00     0.031 C 
ATOM     75  C   UNL A   1      45.409  27.534  31.231  1.00  0.00     0.029 A 
ATOM     76  C   UNL A   1      44.483  26.616  31.687  1.00  0.00     0.049 A 
ATOM     77  H   UNL A   1      43.266  25.300  30.590  1.00  0.00     0.167 HD
ATOM     78  C   UNL A   1      43.082  27.134  33.548  1.00  0.00     0.074 A 
ATOM     79  C   UNL A   1      42.267  27.131  34.748  1.00  0.00     0.031 C 
ATOM     80  C   UNL A   1      43.972  26.249  33.001  1.00  0.00     0.031 A 
BRANCH  67  81
ATOM     81  C   UNL A   1      44.941  25.489  26.989  1.00  0.00    -0.014 A 
ATOM     82  C   UNL A   1      44.951  24.117  26.686  1.00  0.00     0.009 A 
ATOM     83  C   UNL A   1      45.807  26.292  26.226  1.00  0.00     0.009 A 
ATOM     84  C   UNL A   1      45.857  23.564  25.773  1.00  0.00     0.001 A 
ATOM     85  C   UNL A   1      46.752  25.744  25.349  1.00  0.00     0.001 A 
ATOM     86  C   UNL A   1      46.786  24.374  25.134  1.00  0.00     0.000 A 
ENDBRANCH  67  81
BRANCH  68  87
ATOM     87  C   UNL A   1      39.560  30.354  33.364  1.00  0.00    -0.014 A 
ATOM     88  C   UNL A   1      39.164  31.699  33.508  1.00  0.00     0.009 A 
ATOM     89  C   UNL A   1      38.580  29.388  33.099  1.00  0.00     0.009 A 
ATOM     90  C   UNL A   1      37.849  32.087  33.237  1.00  0.00     0.001 A 
ATOM     91  C   UNL A   1      37.262  29.780  32.846  1.00  0.00     0.001 A 
ATOM     92  C   UNL A   1      36.909  31.130  32.868  1.00  0.00     0.000 A 
ENDBRANCH  68  87
BRANCH  80  93
ATOM     93  C   UNL A   1      44.424  24.932  33.603  1.00  0.00    -0.014 A 
ATOM     94  C   UNL A   1      43.565  23.935  34.080  1.00  0.00     0.009 A 
ATOM     95  C   UNL A   1      45.808  24.695  33.789  1.00  0.00     0.009 A 
ATOM     96  C   UNL A   1      44.059  22.738  34.624  1.00  0.00     0.001 A 
ATOM     97  C   UNL A   1      46.307  23.514  34.346  1.00  0.00     0.001 A 
ATOM     98  C   UNL A   1      45.428  22.524  34.749  1.00  0.00     0.000 A 
ENDBRANCH  80  93
ENDBRANCH  54  55
ENDBRANCH  46  49
ENDBRANCH  44  45
ENDBRANCH  43  44
ENDBRANCH  42  43
ENDBRANCH   3  42
TORSDOF 17
ENDMDL
