MODEL 1
REMARK VINA RESULT:     -10.4      0.000      0.000
REMARK SMILES CC[C@@](C)(NS(=O)(=O)Cc1ccccc1)C(=O)NCCCNC(=O)c1ccc(-c2c3nc(c(-c4ccccc4)c4ccc([nH]4)c(-c4ccccc4)c4nc(c(-c5ccccc5)c5ccc2[nH]5)C=C4)C=C3)cc1
REMARK SMILES IDX 19 1 18 2 16 3 17 4 3 6 4 7 2 8 1 9 5 10 6 12 7 13 8 14 9 15
REMARK SMILES IDX 10 16 11 17 15 18 12 19 14 20 13 21 20 22 21 23 22 24 23 25
REMARK SMILES IDX 24 27 25 28 26 29 72 30 27 31 71 32 28 33 29 34 30 35 65 36
REMARK SMILES IDX 31 37 70 38 64 39 66 40 32 41 69 42 63 43 62 44 33 46 55 47
REMARK SMILES IDX 40 48 54 49 41 50 44 51 53 52 67 53 42 54 43 55 52 57 68 58
REMARK SMILES IDX 45 59 34 60 35 61 39 62 36 63 38 64 37 65 56 66 57 67 61 68
REMARK SMILES IDX 58 69 60 70 59 71 46 72 47 73 51 74 48 75 50 76 49 77
REMARK H PARENT 18 5 5 11 22 26 66 45 44 56
REMARK Flexibility Score: inf
ROOT
ATOM      1  C   UNL A   1      36.457  20.514  24.855  1.00  0.00     0.117 C 
ENDROOT
BRANCH   1   2
ATOM      2  N   UNL A   1      35.192  19.802  25.018  1.00  0.00    -0.354 N 
ATOM      3  C   UNL A   1      33.875  20.108  25.165  1.00  0.00     0.240 C 
ATOM      4  O   UNL A   1      33.164  19.102  25.316  1.00  0.00    -0.273 OA
ATOM      5  H   UNL A   1      35.333  18.828  25.022  1.00  0.00     0.163 HD
BRANCH   3   6
ATOM      6  C   UNL A   1      33.242  21.525  25.260  1.00  0.00     0.108 C 
ATOM      7  C   UNL A   1      31.713  21.539  25.316  1.00  0.00     0.040 C 
BRANCH   6   8
ATOM      8  C   UNL A   1      33.769  22.206  26.586  1.00  0.00     0.030 C 
ATOM      9  C   UNL A   1      34.724  23.382  26.444  1.00  0.00     0.006 C 
ENDBRANCH   6   8
BRANCH   6  10
ATOM     10  N   UNL A   1      33.764  22.471  24.227  1.00  0.00    -0.200 NA
ATOM     11  H   UNL A   1      34.643  22.057  23.916  1.00  0.00     0.142 HD
BRANCH  10  12
ATOM     12  S   UNL A   1      33.011  22.959  22.840  1.00  0.00     0.216 S 
ATOM     13  O   UNL A   1      34.053  23.472  21.978  1.00  0.00    -0.212 OA
ATOM     14  O   UNL A   1      32.243  21.811  22.409  1.00  0.00    -0.212 OA
BRANCH  12  15
ATOM     15  C   UNL A   1      31.895  24.294  23.277  1.00  0.00     0.189 C 
BRANCH  15  16
ATOM     16  C   UNL A   1      32.330  25.254  24.349  1.00  0.00    -0.032 A 
ATOM     17  C   UNL A   1      33.411  26.132  24.230  1.00  0.00     0.005 A 
ATOM     18  C   UNL A   1      31.489  25.377  25.473  1.00  0.00     0.005 A 
ATOM     19  C   UNL A   1      33.677  27.064  25.238  1.00  0.00     0.000 A 
ATOM     20  C   UNL A   1      31.749  26.313  26.472  1.00  0.00     0.000 A 
ATOM     21  C   UNL A   1      32.851  27.152  26.358  1.00  0.00     0.000 A 
ENDBRANCH  15  16
ENDBRANCH  12  15
ENDBRANCH  10  12
ENDBRANCH   6  10
ENDBRANCH   3   6
ENDBRANCH   1   2
BRANCH   1  22
ATOM     22  C   UNL A   1      37.721  19.648  25.001  1.00  0.00     0.042 C 
BRANCH  22  23
ATOM     23  C   UNL A   1      38.915  20.256  25.743  1.00  0.00     0.118 C 
BRANCH  23  24
ATOM     24  N   UNL A   1      40.018  19.327  25.847  1.00  0.00    -0.352 N 
ATOM     25  C   UNL A   1      41.351  19.579  26.059  1.00  0.00     0.251 C 
ATOM     26  H   UNL A   1      39.780  18.377  25.752  1.00  0.00     0.163 HD
ATOM     27  O   UNL A   1      42.167  18.694  25.809  1.00  0.00    -0.269 OA
BRANCH  25  28
ATOM     28  C   UNL A   1      41.839  20.880  26.589  1.00  0.00     0.039 A 
ATOM     29  C   UNL A   1      41.709  21.118  27.962  1.00  0.00     0.014 A 
ATOM     30  C   UNL A   1      42.285  21.913  25.755  1.00  0.00     0.014 A 
ATOM     31  C   UNL A   1      42.011  22.377  28.493  1.00  0.00     0.010 A 
ATOM     32  C   UNL A   1      42.637  23.159  26.298  1.00  0.00     0.010 A 
ATOM     33  C   UNL A   1      42.476  23.415  27.669  1.00  0.00    -0.014 A 
BRANCH  33  34
ATOM     34  C   UNL A   1      42.751  24.758  28.259  1.00  0.00     0.031 A 
ATOM     35  C   UNL A   1      44.155  25.179  28.616  1.00  0.00     0.074 A 
ATOM     36  C   UNL A   1      41.739  25.630  28.437  1.00  0.00     0.049 A 
ATOM     37  N   UNL A   1      44.589  26.348  29.026  1.00  0.00    -0.248 NA
ATOM     38  C   UNL A   1      45.206  24.156  28.513  1.00  0.00     0.031 C 
ATOM     39  C   UNL A   1      40.327  25.352  28.163  1.00  0.00     0.029 A 
ATOM     40  N   UNL A   1      41.742  26.935  28.868  1.00  0.00    -0.354 N 
ATOM     41  C   UNL A   1      45.957  26.201  29.226  1.00  0.00     0.074 A 
ATOM     42  C   UNL A   1      46.272  24.816  28.947  1.00  0.00     0.031 C 
ATOM     43  C   UNL A   1      39.610  26.463  28.387  1.00  0.00     0.029 A 
ATOM     44  C   UNL A   1      40.500  27.524  28.850  1.00  0.00     0.049 A 
ATOM     45  H   UNL A   1      42.556  27.404  29.163  1.00  0.00     0.167 HD
ATOM     46  C   UNL A   1      46.873  27.132  29.589  1.00  0.00     0.031 A 
ATOM     47  C   UNL A   1      40.117  28.778  29.159  1.00  0.00     0.031 A 
ATOM     48  C   UNL A   1      46.568  28.510  29.876  1.00  0.00     0.049 A 
ATOM     49  C   UNL A   1      41.150  29.788  29.578  1.00  0.00     0.074 A 
ATOM     50  C   UNL A   1      47.438  29.536  30.209  1.00  0.00     0.029 A 
ATOM     51  N   UNL A   1      45.294  29.056  29.874  1.00  0.00    -0.354 N 
ATOM     52  N   UNL A   1      42.448  29.648  29.684  1.00  0.00    -0.248 NA
ATOM     53  C   UNL A   1      40.660  31.136  29.901  1.00  0.00     0.031 C 
ATOM     54  C   UNL A   1      46.684  30.686  30.468  1.00  0.00     0.029 A 
ATOM     55  C   UNL A   1      45.351  30.395  30.228  1.00  0.00     0.049 A 
ATOM     56  H   UNL A   1      44.470  28.564  29.654  1.00  0.00     0.167 HD
ATOM     57  C   UNL A   1      42.934  30.896  30.058  1.00  0.00     0.074 A 
ATOM     58  C   UNL A   1      41.793  31.783  30.135  1.00  0.00     0.031 C 
ATOM     59  C   UNL A   1      44.211  31.271  30.313  1.00  0.00     0.031 A 
BRANCH  46  60
ATOM     60  C   UNL A   1      48.308  26.685  29.710  1.00  0.00    -0.014 A 
ATOM     61  C   UNL A   1      48.749  25.938  30.815  1.00  0.00     0.009 A 
ATOM     62  C   UNL A   1      49.221  26.973  28.682  1.00  0.00     0.009 A 
ATOM     63  C   UNL A   1      50.081  25.526  30.907  1.00  0.00     0.001 A 
ATOM     64  C   UNL A   1      50.544  26.532  28.761  1.00  0.00     0.001 A 
ATOM     65  C   UNL A   1      50.975  25.818  29.878  1.00  0.00     0.000 A 
ENDBRANCH  46  60
BRANCH  47  66
ATOM     66  C   UNL A   1      38.682  29.163  29.062  1.00  0.00    -0.014 A 
ATOM     67  C   UNL A   1      38.159  29.690  27.872  1.00  0.00     0.009 A 
ATOM     68  C   UNL A   1      37.832  29.021  30.170  1.00  0.00     0.009 A 
ATOM     69  C   UNL A   1      36.822  30.095  27.802  1.00  0.00     0.001 A 
ATOM     70  C   UNL A   1      36.490  29.394  30.088  1.00  0.00     0.001 A 
ATOM     71  C   UNL A   1      35.988  29.941  28.908  1.00  0.00     0.000 A 
ENDBRANCH  47  66
BRANCH  59  72
ATOM     72  C   UNL A   1      44.444  32.715  30.670  1.00  0.00    -0.014 A 
ATOM     73  C   UNL A   1      44.429  33.154  32.003  1.00  0.00     0.009 A 
ATOM     74  C   UNL A   1      44.696  33.649  29.653  1.00  0.00     0.009 A 
ATOM     75  C   UNL A   1      44.613  34.506  32.305  1.00  0.00     0.001 A 
ATOM     76  C   UNL A   1      44.914  34.993  29.960  1.00  0.00     0.001 A 
ATOM     77  C   UNL A   1      44.859  35.422  31.284  1.00  0.00     0.000 A 
ENDBRANCH  59  72
ENDBRANCH  33  34
ENDBRANCH  25  28
ENDBRANCH  23  24
ENDBRANCH  22  23
ENDBRANCH   1  22
TORSDOF 15
ENDMDL
MODEL 2
REMARK VINA RESULT:     -10.2      4.087      9.007
REMARK SMILES CC[C@@](C)(NS(=O)(=O)Cc1ccccc1)C(=O)NCCCNC(=O)c1ccc(-c2c3nc(c(-c4ccccc4)c4ccc([nH]4)c(-c4ccccc4)c4nc(c(-c5ccccc5)c5ccc2[nH]5)C=C4)C=C3)cc1
REMARK SMILES IDX 19 1 18 2 16 3 17 4 3 6 4 7 2 8 1 9 5 10 6 12 7 13 8 14 9 15
REMARK SMILES IDX 10 16 11 17 15 18 12 19 14 20 13 21 20 22 21 23 22 24 23 25
REMARK SMILES IDX 24 27 25 28 26 29 72 30 27 31 71 32 28 33 29 34 30 35 65 36
REMARK SMILES IDX 31 37 70 38 64 39 66 40 32 41 69 42 63 43 62 44 33 46 55 47
REMARK SMILES IDX 40 48 54 49 41 50 44 51 53 52 67 53 42 54 43 55 52 57 68 58
REMARK SMILES IDX 45 59 34 60 35 61 39 62 36 63 38 64 37 65 56 66 57 67 61 68
REMARK SMILES IDX 58 69 60 70 59 71 46 72 47 73 51 74 48 75 50 76 49 77
REMARK H PARENT 18 5 5 11 22 26 66 45 44 56
REMARK Flexibility Score: inf
ROOT
ATOM      1  C   UNL A   1      31.478  30.530  25.901  1.00  0.00     0.117 C 
ENDROOT
BRANCH   1   2
ATOM      2  N   UNL A   1      31.449  29.467  26.903  1.00  0.00    -0.354 N 
ATOM      3  C   UNL A   1      31.653  28.124  26.953  1.00  0.00     0.240 C 
ATOM      4  O   UNL A   1      31.458  27.651  28.083  1.00  0.00    -0.273 OA
ATOM      5  H   UNL A   1      31.218  29.824  27.791  1.00  0.00     0.163 HD
BRANCH   3   6
ATOM      6  C   UNL A   1      31.985  27.176  25.765  1.00  0.00     0.108 C 
ATOM      7  C   UNL A   1      31.069  27.329  24.550  1.00  0.00     0.040 C 
BRANCH   6   8
ATOM      8  C   UNL A   1      33.459  27.491  25.288  1.00  0.00     0.030 C 
ATOM      9  C   UNL A   1      33.684  27.733  23.802  1.00  0.00     0.006 C 
ENDBRANCH   6   8
BRANCH   6  10
ATOM     10  N   UNL A   1      32.119  25.745  26.177  1.00  0.00    -0.200 NA
ATOM     11  H   UNL A   1      32.561  25.779  27.096  1.00  0.00     0.142 HD
BRANCH  10  12
ATOM     12  S   UNL A   1      30.913  24.627  26.328  1.00  0.00     0.216 S 
ATOM     13  O   UNL A   1      31.269  23.804  27.464  1.00  0.00    -0.212 OA
ATOM     14  O   UNL A   1      29.691  25.399  26.374  1.00  0.00    -0.212 OA
BRANCH  12  15
ATOM     15  C   UNL A   1      30.926  23.619  24.843  1.00  0.00     0.189 C 
BRANCH  15  16
ATOM     16  C   UNL A   1      32.242  23.404  24.149  1.00  0.00    -0.032 A 
ATOM     17  C   UNL A   1      32.690  24.154  23.058  1.00  0.00     0.005 A 
ATOM     18  C   UNL A   1      33.137  22.494  24.748  1.00  0.00     0.005 A 
ATOM     19  C   UNL A   1      33.975  23.953  22.544  1.00  0.00     0.000 A 
ATOM     20  C   UNL A   1      34.421  22.302  24.241  1.00  0.00     0.000 A 
ATOM     21  C   UNL A   1      34.837  23.027  23.131  1.00  0.00     0.000 A 
ENDBRANCH  15  16
ENDBRANCH  12  15
ENDBRANCH  10  12
ENDBRANCH   6  10
ENDBRANCH   3   6
ENDBRANCH   1   2
BRANCH   1  22
ATOM     22  C   UNL A   1      31.438  31.962  26.463  1.00  0.00     0.042 C 
BRANCH  22  23
ATOM     23  C   UNL A   1      32.692  32.480  27.173  1.00  0.00     0.118 C 
BRANCH  23  24
ATOM     24  N   UNL A   1      32.537  33.847  27.618  1.00  0.00    -0.352 N 
ATOM     25  C   UNL A   1      33.198  34.518  28.617  1.00  0.00     0.251 C 
ATOM     26  H   UNL A   1      31.859  34.373  27.136  1.00  0.00     0.163 HD
ATOM     27  O   UNL A   1      32.716  35.565  29.046  1.00  0.00    -0.269 OA
BRANCH  25  28
ATOM     28  C   UNL A   1      34.480  34.027  29.189  1.00  0.00     0.039 A 
ATOM     29  C   UNL A   1      35.655  34.274  28.470  1.00  0.00     0.014 A 
ATOM     30  C   UNL A   1      34.534  33.218  30.331  1.00  0.00     0.014 A 
ATOM     31  C   UNL A   1      36.867  33.709  28.881  1.00  0.00     0.010 A 
ATOM     32  C   UNL A   1      35.761  32.695  30.771  1.00  0.00     0.010 A 
ATOM     33  C   UNL A   1      36.937  32.909  30.034  1.00  0.00    -0.014 A 
BRANCH  33  34
ATOM     34  C   UNL A   1      38.237  32.288  30.424  1.00  0.00     0.031 A 
ATOM     35  C   UNL A   1      39.086  32.882  31.520  1.00  0.00     0.074 A 
ATOM     36  C   UNL A   1      38.643  31.153  29.820  1.00  0.00     0.049 A 
ATOM     37  N   UNL A   1      40.181  32.408  32.066  1.00  0.00    -0.248 NA
ATOM     38  C   UNL A   1      38.661  34.179  32.067  1.00  0.00     0.031 C 
ATOM     39  C   UNL A   1      37.939  30.481  28.726  1.00  0.00     0.029 A 
ATOM     40  N   UNL A   1      39.733  30.351  30.056  1.00  0.00    -0.354 N 
ATOM     41  C   UNL A   1      40.572  33.344  33.017  1.00  0.00     0.074 A 
ATOM     42  C   UNL A   1      39.629  34.438  32.935  1.00  0.00     0.031 C 
ATOM     43  C   UNL A   1      38.587  29.348  28.418  1.00  0.00     0.029 A 
ATOM     44  C   UNL A   1      39.769  29.225  29.268  1.00  0.00     0.049 A 
ATOM     45  H   UNL A   1      40.423  30.561  30.725  1.00  0.00     0.167 HD
ATOM     46  C   UNL A   1      41.606  33.293  33.893  1.00  0.00     0.031 A 
ATOM     47  C   UNL A   1      40.643  28.201  29.236  1.00  0.00     0.031 A 
ATOM     48  C   UNL A   1      42.554  32.212  33.976  1.00  0.00     0.049 A 
ATOM     49  C   UNL A   1      41.793  28.177  30.204  1.00  0.00     0.074 A 
ATOM     50  C   UNL A   1      43.608  32.053  34.861  1.00  0.00     0.029 A 
ATOM     51  N   UNL A   1      42.570  31.107  33.140  1.00  0.00    -0.354 N 
ATOM     52  N   UNL A   1      42.099  29.033  31.148  1.00  0.00    -0.248 NA
ATOM     53  C   UNL A   1      42.710  27.031  30.112  1.00  0.00     0.031 C 
ATOM     54  C   UNL A   1      44.297  30.885  34.520  1.00  0.00     0.029 A 
ATOM     55  C   UNL A   1      43.631  30.278  33.468  1.00  0.00     0.049 A 
ATOM     56  H   UNL A   1      41.922  30.936  32.418  1.00  0.00     0.167 HD
ATOM     57  C   UNL A   1      43.224  28.515  31.780  1.00  0.00     0.074 A 
ATOM     58  C   UNL A   1      43.529  27.260  31.128  1.00  0.00     0.031 C 
ATOM     59  C   UNL A   1      43.937  29.035  32.809  1.00  0.00     0.031 A 
BRANCH  46  60
ATOM     60  C   UNL A   1      41.778  34.458  34.834  1.00  0.00    -0.014 A 
ATOM     61  C   UNL A   1      41.264  34.423  36.140  1.00  0.00     0.009 A 
ATOM     62  C   UNL A   1      42.507  35.587  34.425  1.00  0.00     0.009 A 
ATOM     63  C   UNL A   1      41.440  35.509  37.002  1.00  0.00     0.001 A 
ATOM     64  C   UNL A   1      42.709  36.658  35.299  1.00  0.00     0.001 A 
ATOM     65  C   UNL A   1      42.167  36.622  36.583  1.00  0.00     0.000 A 
ENDBRANCH  46  60
BRANCH  47  66
ATOM     66  C   UNL A   1      40.456  27.091  28.262  1.00  0.00    -0.014 A 
ATOM     67  C   UNL A   1      39.700  25.958  28.601  1.00  0.00     0.009 A 
ATOM     68  C   UNL A   1      41.048  27.154  26.991  1.00  0.00     0.009 A 
ATOM     69  C   UNL A   1      39.568  24.898  27.699  1.00  0.00     0.001 A 
ATOM     70  C   UNL A   1      40.885  26.109  26.079  1.00  0.00     0.001 A 
ATOM     71  C   UNL A   1      40.155  24.977  26.438  1.00  0.00     0.000 A 
ENDBRANCH  47  66
BRANCH  59  72
ATOM     72  C   UNL A   1      45.102  28.226  33.313  1.00  0.00    -0.014 A 
ATOM     73  C   UNL A   1      46.398  28.409  32.805  1.00  0.00     0.009 A 
ATOM     74  C   UNL A   1      44.900  27.273  34.324  1.00  0.00     0.009 A 
ATOM     75  C   UNL A   1      47.457  27.621  33.265  1.00  0.00     0.001 A 
ATOM     76  C   UNL A   1      45.966  26.512  34.807  1.00  0.00     0.001 A 
ATOM     77  C   UNL A   1      47.240  26.676  34.267  1.00  0.00     0.000 A 
ENDBRANCH  59  72
ENDBRANCH  33  34
ENDBRANCH  25  28
ENDBRANCH  23  24
ENDBRANCH  22  23
ENDBRANCH   1  22
TORSDOF 15
ENDMDL
MODEL 3
REMARK VINA RESULT:     -10.2      2.931      7.697
REMARK SMILES CC[C@@](C)(NS(=O)(=O)Cc1ccccc1)C(=O)NCCCNC(=O)c1ccc(-c2c3nc(c(-c4ccccc4)c4ccc([nH]4)c(-c4ccccc4)c4nc(c(-c5ccccc5)c5ccc2[nH]5)C=C4)C=C3)cc1
REMARK SMILES IDX 19 1 18 2 16 3 17 4 3 6 4 7 2 8 1 9 5 10 6 12 7 13 8 14 9 15
REMARK SMILES IDX 10 16 11 17 15 18 12 19 14 20 13 21 20 22 21 23 22 24 23 25
REMARK SMILES IDX 24 27 25 28 26 29 72 30 27 31 71 32 28 33 29 34 30 35 65 36
REMARK SMILES IDX 31 37 70 38 64 39 66 40 32 41 69 42 63 43 62 44 33 46 55 47
REMARK SMILES IDX 40 48 54 49 41 50 44 51 53 52 67 53 42 54 43 55 52 57 68 58
REMARK SMILES IDX 45 59 34 60 35 61 39 62 36 63 38 64 37 65 56 66 57 67 61 68
REMARK SMILES IDX 58 69 60 70 59 71 46 72 47 73 51 74 48 75 50 76 49 77
REMARK H PARENT 18 5 5 11 22 26 66 45 44 56
REMARK Flexibility Score: inf
ROOT
ATOM      1  C   UNL A   1      33.144  29.148  24.805  1.00  0.00     0.117 C 
ENDROOT
BRANCH   1   2
ATOM      2  N   UNL A   1      33.632  28.884  23.454  1.00  0.00    -0.354 N 
ATOM      3  C   UNL A   1      33.653  27.847  22.575  1.00  0.00     0.240 C 
ATOM      4  O   UNL A   1      34.250  28.123  21.523  1.00  0.00    -0.273 OA
ATOM      5  H   UNL A   1      34.068  29.681  23.074  1.00  0.00     0.163 HD
BRANCH   3   6
ATOM      6  C   UNL A   1      33.118  26.405  22.806  1.00  0.00     0.108 C 
ATOM      7  C   UNL A   1      32.545  25.728  21.560  1.00  0.00     0.040 C 
BRANCH   6   8
ATOM      8  C   UNL A   1      34.322  25.515  23.315  1.00  0.00     0.030 C 
ATOM      9  C   UNL A   1      34.176  24.003  23.209  1.00  0.00     0.006 C 
ENDBRANCH   6   8
BRANCH   6  10
ATOM     10  N   UNL A   1      32.180  26.306  23.966  1.00  0.00    -0.200 NA
ATOM     11  H   UNL A   1      32.501  27.020  24.621  1.00  0.00     0.142 HD
BRANCH  10  12
ATOM     12  S   UNL A   1      30.536  26.460  23.944  1.00  0.00     0.216 S 
ATOM     13  O   UNL A   1      30.017  25.166  23.554  1.00  0.00    -0.212 OA
ATOM     14  O   UNL A   1      30.193  26.993  25.245  1.00  0.00    -0.212 OA
BRANCH  12  15
ATOM     15  C   UNL A   1      30.128  27.665  22.678  1.00  0.00     0.189 C 
BRANCH  15  16
ATOM     16  C   UNL A   1      29.350  28.883  23.089  1.00  0.00    -0.032 A 
ATOM     17  C   UNL A   1      29.927  30.078  23.526  1.00  0.00     0.005 A 
ATOM     18  C   UNL A   1      27.958  28.857  22.862  1.00  0.00     0.005 A 
ATOM     19  C   UNL A   1      29.127  31.195  23.787  1.00  0.00     0.000 A 
ATOM     20  C   UNL A   1      27.163  29.974  23.112  1.00  0.00     0.000 A 
ATOM     21  C   UNL A   1      27.749  31.142  23.584  1.00  0.00     0.000 A 
ENDBRANCH  15  16
ENDBRANCH  12  15
ENDBRANCH  10  12
ENDBRANCH   6  10
ENDBRANCH   3   6
ENDBRANCH   1   2
BRANCH   1  22
ATOM     22  C   UNL A   1      33.956  28.492  25.936  1.00  0.00     0.042 C 
BRANCH  22  23
ATOM     23  C   UNL A   1      33.507  28.755  27.376  1.00  0.00     0.118 C 
BRANCH  23  24
ATOM     24  N   UNL A   1      33.660  30.144  27.746  1.00  0.00    -0.352 N 
ATOM     25  C   UNL A   1      34.702  30.764  28.391  1.00  0.00     0.251 C 
ATOM     26  H   UNL A   1      32.909  30.731  27.501  1.00  0.00     0.163 HD
ATOM     27  O   UNL A   1      34.515  31.873  28.886  1.00  0.00    -0.269 OA
BRANCH  25  28
ATOM     28  C   UNL A   1      36.049  30.143  28.501  1.00  0.00     0.039 A 
ATOM     29  C   UNL A   1      36.415  29.584  29.731  1.00  0.00     0.014 A 
ATOM     30  C   UNL A   1      36.999  30.221  27.476  1.00  0.00     0.014 A 
ATOM     31  C   UNL A   1      37.718  29.122  29.938  1.00  0.00     0.010 A 
ATOM     32  C   UNL A   1      38.292  29.708  27.669  1.00  0.00     0.010 A 
ATOM     33  C   UNL A   1      38.676  29.180  28.912  1.00  0.00    -0.014 A 
BRANCH  33  34
ATOM     34  C   UNL A   1      40.069  28.715  29.176  1.00  0.00     0.031 A 
ATOM     35  C   UNL A   1      40.523  27.338  28.759  1.00  0.00     0.074 A 
ATOM     36  C   UNL A   1      40.954  29.551  29.755  1.00  0.00     0.049 A 
ATOM     37  N   UNL A   1      41.726  26.815  28.804  1.00  0.00    -0.248 NA
ATOM     38  C   UNL A   1      39.496  26.425  28.239  1.00  0.00     0.031 C 
ATOM     39  C   UNL A   1      40.651  30.901  30.235  1.00  0.00     0.029 A 
ATOM     40  N   UNL A   1      42.294  29.399  30.018  1.00  0.00    -0.354 N 
ATOM     41  C   UNL A   1      41.599  25.519  28.317  1.00  0.00     0.074 A 
ATOM     42  C   UNL A   1      40.194  25.316  28.035  1.00  0.00     0.031 C 
ATOM     43  C   UNL A   1      41.778  31.468  30.690  1.00  0.00     0.029 A 
ATOM     44  C   UNL A   1      42.879  30.516  30.564  1.00  0.00     0.049 A 
ATOM     45  H   UNL A   1      42.790  28.568  29.834  1.00  0.00     0.167 HD
ATOM     46  C   UNL A   1      42.561  24.588  28.103  1.00  0.00     0.031 A 
ATOM     47  C   UNL A   1      44.156  30.759  30.915  1.00  0.00     0.031 A 
ATOM     48  C   UNL A   1      43.960  24.778  28.387  1.00  0.00     0.049 A 
ATOM     49  C   UNL A   1      45.202  29.702  30.686  1.00  0.00     0.074 A 
ATOM     50  C   UNL A   1      45.014  23.906  28.162  1.00  0.00     0.029 A 
ATOM     51  N   UNL A   1      44.503  25.914  28.966  1.00  0.00    -0.354 N 
ATOM     52  N   UNL A   1      45.074  28.513  30.151  1.00  0.00    -0.248 NA
ATOM     53  C   UNL A   1      46.575  30.034  31.095  1.00  0.00     0.031 C 
ATOM     54  C   UNL A   1      46.183  24.490  28.661  1.00  0.00     0.029 A 
ATOM     55  C   UNL A   1      45.870  25.754  29.133  1.00  0.00     0.049 A 
ATOM     56  H   UNL A   1      43.992  26.716  29.221  1.00  0.00     0.167 HD
ATOM     57  C   UNL A   1      46.352  27.966  30.133  1.00  0.00     0.074 A 
ATOM     58  C   UNL A   1      47.242  28.964  30.686  1.00  0.00     0.031 C 
ATOM     59  C   UNL A   1      46.750  26.747  29.694  1.00  0.00     0.031 A 
BRANCH  46  60
ATOM     60  C   UNL A   1      42.128  23.258  27.540  1.00  0.00    -0.014 A 
ATOM     61  C   UNL A   1      42.181  22.997  26.161  1.00  0.00     0.009 A 
ATOM     62  C   UNL A   1      41.708  22.234  28.405  1.00  0.00     0.009 A 
ATOM     63  C   UNL A   1      41.784  21.755  25.657  1.00  0.00     0.001 A 
ATOM     64  C   UNL A   1      41.342  20.983  27.902  1.00  0.00     0.001 A 
ATOM     65  C   UNL A   1      41.371  20.749  26.528  1.00  0.00     0.000 A 
ENDBRANCH  46  60
BRANCH  47  66
ATOM     66  C   UNL A   1      44.531  32.073  31.505  1.00  0.00    -0.014 A 
ATOM     67  C   UNL A   1      44.479  32.279  32.892  1.00  0.00     0.009 A 
ATOM     68  C   UNL A   1      44.926  33.136  30.678  1.00  0.00     0.009 A 
ATOM     69  C   UNL A   1      44.787  33.530  33.436  1.00  0.00     0.001 A 
ATOM     70  C   UNL A   1      45.266  34.374  31.226  1.00  0.00     0.001 A 
ATOM     71  C   UNL A   1      45.185  34.574  32.603  1.00  0.00     0.000 A 
ENDBRANCH  47  66
BRANCH  59  72
ATOM     72  C   UNL A   1      48.221  26.438  29.768  1.00  0.00    -0.014 A 
ATOM     73  C   UNL A   1      48.786  25.814  30.893  1.00  0.00     0.009 A 
ATOM     74  C   UNL A   1      49.055  26.765  28.687  1.00  0.00     0.009 A 
ATOM     75  C   UNL A   1      50.160  25.570  30.951  1.00  0.00     0.001 A 
ATOM     76  C   UNL A   1      50.422  26.489  28.734  1.00  0.00     0.001 A 
ATOM     77  C   UNL A   1      50.975  25.904  29.871  1.00  0.00     0.000 A 
ENDBRANCH  59  72
ENDBRANCH  33  34
ENDBRANCH  25  28
ENDBRANCH  23  24
ENDBRANCH  22  23
ENDBRANCH   1  22
TORSDOF 15
ENDMDL
