MODEL 1
REMARK VINA RESULT:     -14.3      0.000      0.000
REMARK SMILES Cc1ccc(S(=O)(=O)n2cc(C(=O)C(=O)N[C@H](Cc3c[nH]c4ccccc34)C(=O)NCC(=O)NCCCNC(=O)c3ccc(-c4c5nc(c(-c6ccccc6)c6ccc([nH]6)c(-c6ccccc6)c6nc(c(-c7ccccc7)c7ccc4[nH]7)C=C6)C=C5)cc3)c3ccccc32)cc1
REMARK SMILES IDX 32 1 33 2 34 3 31 5 30 6 28 7 29 8 17 10 16 11 14 12 15 13
REMARK SMILES IDX 12 15 13 16 11 17 9 18 10 19 94 20 89 21 93 22 90 23 92 24
REMARK SMILES IDX 91 25 6 26 7 27 8 28 5 29 1 30 2 31 3 32 96 33 4 34 95 35
REMARK SMILES IDX 18 36 19 37 20 38 27 39 21 40 22 41 26 42 23 44 25 45 24 46
REMARK SMILES IDX 35 47 36 48 37 49 38 50 39 51 40 53 41 54 42 55 88 56 43 57
REMARK SMILES IDX 87 58 44 59 45 60 46 61 81 62 47 63 86 64 80 65 82 66 48 67
REMARK SMILES IDX 85 68 79 69 78 70 49 72 71 73 56 74 70 75 57 76 60 77 69 78
REMARK SMILES IDX 83 79 58 80 59 81 68 83 84 84 61 85 50 86 51 87 55 88 52 89
REMARK SMILES IDX 54 90 53 91 72 92 73 93 77 94 74 95 76 96 75 97 62 98 63 99
REMARK SMILES IDX 67 100 64 101 66 102 65 103
REMARK H PARENT 34 4 30 9 16 14 21 43 38 52 82 71 60 82
REMARK Flexibility Score: inf
ROOT
ATOM      1  C   UNL A   1      33.381  29.006  27.243  1.00  0.00     0.239 C 
ATOM      2  O   UNL A   1      34.086  28.067  26.865  1.00  0.00    -0.273 OA
ATOM      3  N   UNL A   1      33.999  30.196  27.503  1.00  0.00    -0.355 N 
ATOM      4  H   UNL A   1      34.983  30.173  27.473  1.00  0.00     0.163 HD
ENDROOT
BRANCH   1   5
ATOM      5  C   UNL A   1      31.852  28.875  27.253  1.00  0.00     0.216 C 
BRANCH   5   6
ATOM      6  N   UNL A   1      31.378  27.513  27.299  1.00  0.00    -0.345 N 
ATOM      7  C   UNL A   1      31.219  26.529  26.391  1.00  0.00     0.243 C 
ATOM      8  O   UNL A   1      30.798  25.480  26.896  1.00  0.00    -0.273 OA
ATOM      9  H   UNL A   1      31.107  27.237  28.205  1.00  0.00     0.164 HD
BRANCH   7  10
ATOM     10  C   UNL A   1      31.502  26.600  24.857  1.00  0.00     0.176 C 
BRANCH  10  11
ATOM     11  N   UNL A   1      32.494  27.591  24.300  1.00  0.00    -0.337 N 
ATOM     12  C   UNL A   1      33.466  27.578  23.302  1.00  0.00     0.293 C 
ATOM     13  O   UNL A   1      34.191  28.557  23.150  1.00  0.00    -0.265 OA
ATOM     14  H   UNL A   1      32.441  28.463  24.753  1.00  0.00     0.164 HD
BRANCH  12  15
ATOM     15  C   UNL A   1      33.616  26.380  22.368  1.00  0.00     0.252 C 
ATOM     16  O   UNL A   1      33.793  26.679  21.186  1.00  0.00    -0.283 OA
BRANCH  15  17
ATOM     17  C   UNL A   1      33.568  24.950  22.727  1.00  0.00     0.054 A 
ATOM     18  N   UNL A   1      33.308  22.719  23.009  1.00  0.00    -0.240 N 
ATOM     19  C   UNL A   1      32.857  23.837  22.273  1.00  0.00     0.117 A 
ATOM     20  C   UNL A   1      34.539  23.085  23.555  1.00  0.00     0.065 A 
ATOM     21  C   UNL A   1      34.352  24.437  23.808  1.00  0.00     0.012 A 
ATOM     22  C   UNL A   1      35.528  22.331  24.194  1.00  0.00     0.028 A 
ATOM     23  C   UNL A   1      34.938  24.989  24.955  1.00  0.00     0.011 A 
ATOM     24  C   UNL A   1      36.059  22.898  25.357  1.00  0.00     0.002 A 
ATOM     25  C   UNL A   1      35.732  24.189  25.765  1.00  0.00     0.001 A 
BRANCH  18  26
ATOM     26  S   UNL A   1      32.234  21.925  24.210  1.00  0.00     0.268 S 
ATOM     27  O   UNL A   1      30.887  22.174  23.731  1.00  0.00    -0.201 OA
ATOM     28  O   UNL A   1      32.679  22.422  25.502  1.00  0.00    -0.201 OA
BRANCH  26  29
ATOM     29  C   UNL A   1      32.460  20.175  24.313  1.00  0.00     0.088 A 
ATOM     30  C   UNL A   1      33.562  16.024  23.931  1.00  0.00     0.044 C 
ATOM     31  C   UNL A   1      33.174  17.467  24.089  1.00  0.00    -0.051 A 
ATOM     32  C   UNL A   1      32.612  18.127  22.999  1.00  0.00     0.005 A 
ATOM     33  C   UNL A   1      33.348  18.167  25.299  1.00  0.00     0.005 A 
ATOM     34  C   UNL A   1      32.263  19.467  23.110  1.00  0.00     0.022 A 
ATOM     35  C   UNL A   1      32.998  19.526  25.417  1.00  0.00     0.022 A 
ENDBRANCH  26  29
ENDBRANCH  18  26
ENDBRANCH  15  17
ENDBRANCH  12  15
ENDBRANCH  10  11
BRANCH  10  36
ATOM     36  C   UNL A   1      30.369  26.176  23.863  1.00  0.00     0.072 C 
BRANCH  36  37
ATOM     37  C   UNL A   1      29.206  27.088  23.531  1.00  0.00    -0.020 A 
ATOM     38  C   UNL A   1      27.892  26.839  23.897  1.00  0.00     0.087 A 
ATOM     39  C   UNL A   1      29.194  28.397  22.920  1.00  0.00     0.003 A 
ATOM     40  N   UNL A   1      27.115  27.908  23.535  1.00  0.00    -0.361 N 
ATOM     41  C   UNL A   1      27.864  28.812  22.826  1.00  0.00     0.046 A 
ATOM     42  C   UNL A   1      30.175  29.270  22.402  1.00  0.00     0.010 A 
ATOM     43  H   UNL A   1      26.160  28.013  23.750  1.00  0.00     0.166 HD
ATOM     44  C   UNL A   1      27.453  29.964  22.143  1.00  0.00     0.026 A 
ATOM     45  C   UNL A   1      29.788  30.441  21.731  1.00  0.00     0.001 A 
ATOM     46  C   UNL A   1      28.444  30.768  21.581  1.00  0.00     0.002 A 
ENDBRANCH  36  37
ENDBRANCH  10  36
ENDBRANCH   7  10
ENDBRANCH   5   6
ENDBRANCH   1   5
BRANCH   3  47
ATOM     47  C   UNL A   1      33.420  31.491  27.818  1.00  0.00     0.117 C 
BRANCH  47  48
ATOM     48  C   UNL A   1      34.378  32.356  28.613  1.00  0.00     0.042 C 
BRANCH  48  49
ATOM     49  C   UNL A   1      35.716  32.506  27.902  1.00  0.00     0.118 C 
BRANCH  49  50
ATOM     50  N   UNL A   1      36.828  32.504  28.844  1.00  0.00    -0.352 N 
ATOM     51  C   UNL A   1      37.545  31.487  29.467  1.00  0.00     0.251 C 
ATOM     52  H   UNL A   1      37.134  33.407  29.091  1.00  0.00     0.163 HD
ATOM     53  O   UNL A   1      38.308  31.740  30.360  1.00  0.00    -0.269 OA
BRANCH  51  54
ATOM     54  C   UNL A   1      37.529  30.140  28.826  1.00  0.00     0.039 A 
ATOM     55  C   UNL A   1      37.584  29.097  29.756  1.00  0.00     0.014 A 
ATOM     56  C   UNL A   1      38.067  29.989  27.559  1.00  0.00     0.014 A 
ATOM     57  C   UNL A   1      38.524  28.097  29.566  1.00  0.00     0.010 A 
ATOM     58  C   UNL A   1      39.096  29.079  27.427  1.00  0.00     0.010 A 
ATOM     59  C   UNL A   1      39.387  28.203  28.480  1.00  0.00    -0.014 A 
BRANCH  59  60
ATOM     60  C   UNL A   1      40.690  27.543  28.465  1.00  0.00     0.031 A 
ATOM     61  C   UNL A   1      40.759  26.079  28.292  1.00  0.00     0.074 A 
ATOM     62  C   UNL A   1      41.831  28.244  28.667  1.00  0.00     0.049 A 
ATOM     63  N   UNL A   1      41.705  25.333  28.756  1.00  0.00    -0.248 NA
ATOM     64  C   UNL A   1      39.695  25.325  27.640  1.00  0.00     0.031 C 
ATOM     65  C   UNL A   1      43.203  27.769  28.497  1.00  0.00     0.029 A 
ATOM     66  N   UNL A   1      42.001  29.481  29.263  1.00  0.00    -0.354 N 
ATOM     67  C   UNL A   1      41.533  24.077  28.223  1.00  0.00     0.074 A 
ATOM     68  C   UNL A   1      40.223  24.101  27.618  1.00  0.00     0.031 C 
ATOM     69  C   UNL A   1      44.028  28.563  29.202  1.00  0.00     0.029 A 
ATOM     70  C   UNL A   1      43.205  29.491  29.961  1.00  0.00     0.049 A 
ATOM     71  H   UNL A   1      41.371  30.235  29.201  1.00  0.00     0.167 HD
ATOM     72  C   UNL A   1      42.575  23.199  28.218  1.00  0.00     0.031 A 
ATOM     73  C   UNL A   1      43.274  29.665  31.314  1.00  0.00     0.031 A 
ATOM     74  C   UNL A   1      43.723  23.706  28.968  1.00  0.00     0.049 A 
ATOM     75  C   UNL A   1      43.868  28.476  32.048  1.00  0.00     0.074 A 
ATOM     76  C   UNL A   1      44.925  24.284  28.592  1.00  0.00     0.029 A 
ATOM     77  N   UNL A   1      43.595  23.930  30.336  1.00  0.00    -0.354 N 
ATOM     78  N   UNL A   1      44.029  27.294  31.519  1.00  0.00    -0.248 NA
ATOM     79  C   UNL A   1      44.268  28.514  33.453  1.00  0.00     0.031 C 
ATOM     80  C   UNL A   1      45.483  24.923  29.730  1.00  0.00     0.029 A 
ATOM     81  C   UNL A   1      44.635  24.710  30.803  1.00  0.00     0.049 A 
ATOM     82  H   UNL A   1      42.863  23.579  30.895  1.00  0.00     0.167 HD
ATOM     83  C   UNL A   1      44.498  26.425  32.468  1.00  0.00     0.074 A 
ATOM     84  C   UNL A   1      44.656  27.242  33.658  1.00  0.00     0.031 C 
ATOM     85  C   UNL A   1      44.689  25.099  32.206  1.00  0.00     0.031 A 
BRANCH  72  86
ATOM     86  C   UNL A   1      42.637  22.038  27.250  1.00  0.00    -0.014 A 
ATOM     87  C   UNL A   1      41.870  20.886  27.495  1.00  0.00     0.009 A 
ATOM     88  C   UNL A   1      43.491  21.975  26.136  1.00  0.00     0.009 A 
ATOM     89  C   UNL A   1      42.038  19.709  26.751  1.00  0.00     0.001 A 
ATOM     90  C   UNL A   1      43.703  20.791  25.417  1.00  0.00     0.001 A 
ATOM     91  C   UNL A   1      42.983  19.650  25.736  1.00  0.00     0.000 A 
ENDBRANCH  72  86
BRANCH  73  92
ATOM     92  C   UNL A   1      42.230  30.560  31.885  1.00  0.00    -0.014 A 
ATOM     93  C   UNL A   1      41.029  29.985  32.331  1.00  0.00     0.009 A 
ATOM     94  C   UNL A   1      42.524  31.863  32.294  1.00  0.00     0.009 A 
ATOM     95  C   UNL A   1      40.217  30.620  33.273  1.00  0.00     0.001 A 
ATOM     96  C   UNL A   1      41.699  32.514  33.222  1.00  0.00     0.001 A 
ATOM     97  C   UNL A   1      40.572  31.876  33.743  1.00  0.00     0.000 A 
ENDBRANCH  73  92
BRANCH  85  98
ATOM     98  C   UNL A   1      44.998  24.040  33.232  1.00  0.00    -0.014 A 
ATOM     99  C   UNL A   1      46.231  23.912  33.885  1.00  0.00     0.009 A 
ATOM    100  C   UNL A   1      43.952  23.201  33.679  1.00  0.00     0.009 A 
ATOM    101  C   UNL A   1      46.425  22.960  34.897  1.00  0.00     0.001 A 
ATOM    102  C   UNL A   1      44.129  22.282  34.716  1.00  0.00     0.001 A 
ATOM    103  C   UNL A   1      45.372  22.153  35.318  1.00  0.00     0.000 A 
ENDBRANCH  85  98
ENDBRANCH  59  60
ENDBRANCH  51  54
ENDBRANCH  49  50
ENDBRANCH  48  49
ENDBRANCH  47  48
ENDBRANCH   3  47
TORSDOF 19
ENDMDL
MODEL 2
REMARK VINA RESULT:     -13.8      2.724      4.587
REMARK SMILES Cc1ccc(S(=O)(=O)n2cc(C(=O)C(=O)N[C@H](Cc3c[nH]c4ccccc34)C(=O)NCC(=O)NCCCNC(=O)c3ccc(-c4c5nc(c(-c6ccccc6)c6ccc([nH]6)c(-c6ccccc6)c6nc(c(-c7ccccc7)c7ccc4[nH]7)C=C6)C=C5)cc3)c3ccccc32)cc1
REMARK SMILES IDX 32 1 33 2 34 3 31 5 30 6 28 7 29 8 17 10 16 11 14 12 15 13
REMARK SMILES IDX 12 15 13 16 11 17 9 18 10 19 94 20 89 21 93 22 90 23 92 24
REMARK SMILES IDX 91 25 6 26 7 27 8 28 5 29 1 30 2 31 3 32 96 33 4 34 95 35
REMARK SMILES IDX 18 36 19 37 20 38 27 39 21 40 22 41 26 42 23 44 25 45 24 46
REMARK SMILES IDX 35 47 36 48 37 49 38 50 39 51 40 53 41 54 42 55 88 56 43 57
REMARK SMILES IDX 87 58 44 59 45 60 46 61 81 62 47 63 86 64 80 65 82 66 48 67
REMARK SMILES IDX 85 68 79 69 78 70 49 72 71 73 56 74 70 75 57 76 60 77 69 78
REMARK SMILES IDX 83 79 58 80 59 81 68 83 84 84 61 85 50 86 51 87 55 88 52 89
REMARK SMILES IDX 54 90 53 91 72 92 73 93 77 94 74 95 76 96 75 97 62 98 63 99
REMARK SMILES IDX 67 100 64 101 66 102 65 103
REMARK H PARENT 34 4 30 9 16 14 21 43 38 52 82 71 60 82
REMARK Flexibility Score: inf
ROOT
ATOM      1  C   UNL A   1      34.800  31.851  27.713  1.00  0.00     0.239 C 
ATOM      2  O   UNL A   1      35.971  31.478  27.606  1.00  0.00    -0.273 OA
ATOM      3  N   UNL A   1      34.579  33.159  28.034  1.00  0.00    -0.355 N 
ATOM      4  H   UNL A   1      35.386  33.676  28.266  1.00  0.00     0.163 HD
ENDROOT
BRANCH   1   5
ATOM      5  C   UNL A   1      33.647  30.911  27.331  1.00  0.00     0.216 C 
BRANCH   5   6
ATOM      6  N   UNL A   1      34.050  29.543  27.116  1.00  0.00    -0.345 N 
ATOM      7  C   UNL A   1      33.496  28.470  26.515  1.00  0.00     0.243 C 
ATOM      8  O   UNL A   1      34.234  27.477  26.541  1.00  0.00    -0.273 OA
ATOM      9  H   UNL A   1      34.937  29.345  27.495  1.00  0.00     0.164 HD
BRANCH   7  10
ATOM     10  C   UNL A   1      32.091  28.384  25.836  1.00  0.00     0.176 C 
BRANCH  10  11
ATOM     11  N   UNL A   1      31.026  27.465  26.382  1.00  0.00    -0.337 N 
ATOM     12  C   UNL A   1      30.539  26.199  26.065  1.00  0.00     0.293 C 
ATOM     13  O   UNL A   1      29.571  25.753  26.673  1.00  0.00    -0.265 OA
ATOM     14  H   UNL A   1      30.558  27.858  27.155  1.00  0.00     0.164 HD
BRANCH  12  15
ATOM     15  C   UNL A   1      31.219  25.341  25.001  1.00  0.00     0.252 C 
ATOM     16  O   UNL A   1      30.501  25.061  24.041  1.00  0.00    -0.283 OA
BRANCH  15  17
ATOM     17  C   UNL A   1      32.603  24.829  25.012  1.00  0.00     0.054 A 
ATOM     18  N   UNL A   1      34.793  24.289  24.816  1.00  0.00    -0.240 N 
ATOM     19  C   UNL A   1      33.763  25.091  24.278  1.00  0.00     0.117 A 
ATOM     20  C   UNL A   1      34.363  23.906  26.088  1.00  0.00     0.065 A 
ATOM     21  C   UNL A   1      32.992  23.781  25.903  1.00  0.00     0.012 A 
ATOM     22  C   UNL A   1      35.038  23.290  27.145  1.00  0.00     0.028 A 
ATOM     23  C   UNL A   1      32.318  22.762  26.587  1.00  0.00     0.011 A 
ATOM     24  C   UNL A   1      34.346  22.250  27.775  1.00  0.00     0.002 A 
ATOM     25  C   UNL A   1      33.021  21.952  27.468  1.00  0.00     0.001 A 
BRANCH  18  26
ATOM     26  S   UNL A   1      35.460  22.911  23.875  1.00  0.00     0.268 S 
ATOM     27  O   UNL A   1      36.771  22.667  24.446  1.00  0.00    -0.201 OA
ATOM     28  O   UNL A   1      35.303  23.294  22.481  1.00  0.00    -0.201 OA
BRANCH  26  29
ATOM     29  C   UNL A   1      34.514  21.426  24.029  1.00  0.00     0.088 A 
ATOM     30  C   UNL A   1      32.302  17.928  25.240  1.00  0.00     0.044 C 
ATOM     31  C   UNL A   1      33.057  19.149  24.797  1.00  0.00    -0.051 A 
ATOM     32  C   UNL A   1      34.392  19.277  25.175  1.00  0.00     0.005 A 
ATOM     33  C   UNL A   1      32.469  20.156  24.008  1.00  0.00     0.005 A 
ATOM     34  C   UNL A   1      35.110  20.406  24.798  1.00  0.00     0.022 A 
ATOM     35  C   UNL A   1      33.191  21.303  23.624  1.00  0.00     0.022 A 
ENDBRANCH  26  29
ENDBRANCH  18  26
ENDBRANCH  15  17
ENDBRANCH  12  15
ENDBRANCH  10  11
BRANCH  10  36
ATOM     36  C   UNL A   1      31.976  28.686  24.305  1.00  0.00     0.072 C 
BRANCH  36  37
ATOM     37  C   UNL A   1      30.639  28.882  23.621  1.00  0.00    -0.020 A 
ATOM     38  C   UNL A   1      29.966  27.887  22.927  1.00  0.00     0.087 A 
ATOM     39  C   UNL A   1      29.745  30.017  23.631  1.00  0.00     0.003 A 
ATOM     40  N   UNL A   1      28.746  28.366  22.527  1.00  0.00    -0.361 N 
ATOM     41  C   UNL A   1      28.642  29.699  22.835  1.00  0.00     0.046 A 
ATOM     42  C   UNL A   1      29.765  31.304  24.210  1.00  0.00     0.010 A 
ATOM     43  H   UNL A   1      28.047  27.834  22.084  1.00  0.00     0.166 HD
ATOM     44  C   UNL A   1      27.643  30.616  22.483  1.00  0.00     0.026 A 
ATOM     45  C   UNL A   1      28.764  32.233  23.889  1.00  0.00     0.001 A 
ATOM     46  C   UNL A   1      27.733  31.901  23.016  1.00  0.00     0.002 A 
ENDBRANCH  36  37
ENDBRANCH  10  36
ENDBRANCH   7  10
ENDBRANCH   5   6
ENDBRANCH   1   5
BRANCH   3  47
ATOM     47  C   UNL A   1      33.332  33.903  28.085  1.00  0.00     0.117 C 
BRANCH  47  48
ATOM     48  C   UNL A   1      33.490  35.214  28.831  1.00  0.00     0.042 C 
BRANCH  48  49
ATOM     49  C   UNL A   1      32.942  35.119  30.248  1.00  0.00     0.118 C 
BRANCH  49  50
ATOM     50  N   UNL A   1      33.821  35.775  31.209  1.00  0.00    -0.352 N 
ATOM     51  C   UNL A   1      34.411  35.355  32.397  1.00  0.00     0.251 C 
ATOM     52  H   UNL A   1      34.039  36.704  30.969  1.00  0.00     0.163 HD
ATOM     53  O   UNL A   1      34.954  36.148  33.119  1.00  0.00    -0.269 OA
BRANCH  51  54
ATOM     54  C   UNL A   1      34.573  33.887  32.605  1.00  0.00     0.039 A 
ATOM     55  C   UNL A   1      35.331  33.581  33.740  1.00  0.00     0.014 A 
ATOM     56  C   UNL A   1      34.574  33.045  31.505  1.00  0.00     0.014 A 
ATOM     57  C   UNL A   1      36.382  32.688  33.607  1.00  0.00     0.010 A 
ATOM     58  C   UNL A   1      35.695  32.262  31.324  1.00  0.00     0.010 A 
ATOM     59  C   UNL A   1      36.651  32.171  32.344  1.00  0.00    -0.014 A 
BRANCH  59  60
ATOM     60  C   UNL A   1      37.974  31.669  31.984  1.00  0.00     0.031 A 
ATOM     61  C   UNL A   1      38.091  30.375  31.283  1.00  0.00     0.074 A 
ATOM     62  C   UNL A   1      39.096  32.340  32.334  1.00  0.00     0.049 A 
ATOM     63  N   UNL A   1      39.114  29.591  31.364  1.00  0.00    -0.248 NA
ATOM     64  C   UNL A   1      37.001  29.821  30.489  1.00  0.00     0.031 C 
ATOM     65  C   UNL A   1      40.463  32.071  31.892  1.00  0.00     0.029 A 
ATOM     66  N   UNL A   1      39.270  33.290  33.325  1.00  0.00    -0.354 N 
ATOM     67  C   UNL A   1      38.946  28.601  30.425  1.00  0.00     0.074 A 
ATOM     68  C   UNL A   1      37.580  28.734  29.979  1.00  0.00     0.031 C 
ATOM     69  C   UNL A   1      41.320  32.623  32.769  1.00  0.00     0.029 A 
ATOM     70  C   UNL A   1      40.539  33.146  33.879  1.00  0.00     0.049 A 
ATOM     71  H   UNL A   1      38.603  33.962  33.594  1.00  0.00     0.167 HD
ATOM     72  C   UNL A   1      40.021  27.871  30.015  1.00  0.00     0.031 A 
ATOM     73  C   UNL A   1      40.742  32.827  35.191  1.00  0.00     0.031 A 
ATOM     74  C   UNL A   1      41.217  28.166  30.803  1.00  0.00     0.049 A 
ATOM     75  C   UNL A   1      41.464  31.507  35.389  1.00  0.00     0.074 A 
ATOM     76  C   UNL A   1      42.345  28.936  30.567  1.00  0.00     0.029 A 
ATOM     77  N   UNL A   1      41.223  27.873  32.163  1.00  0.00    -0.354 N 
ATOM     78  N   UNL A   1      41.623  30.612  34.454  1.00  0.00    -0.248 NA
ATOM     79  C   UNL A   1      42.008  31.070  36.674  1.00  0.00     0.031 C 
ATOM     80  C   UNL A   1      42.989  29.167  31.811  1.00  0.00     0.029 A 
ATOM     81  C   UNL A   1      42.269  28.515  32.797  1.00  0.00     0.049 A 
ATOM     82  H   UNL A   1      40.571  27.287  32.613  1.00  0.00     0.167 HD
ATOM     83  C   UNL A   1      42.229  29.500  34.979  1.00  0.00     0.074 A 
ATOM     84  C   UNL A   1      42.473  29.845  36.367  1.00  0.00     0.031 C 
ATOM     85  C   UNL A   1      42.453  28.378  34.236  1.00  0.00     0.031 A 
BRANCH  72  86
ATOM     86  C   UNL A   1      40.034  27.145  28.688  1.00  0.00    -0.014 A 
ATOM     87  C   UNL A   1      39.429  25.880  28.580  1.00  0.00     0.009 A 
ATOM     88  C   UNL A   1      40.699  27.601  27.537  1.00  0.00     0.009 A 
ATOM     89  C   UNL A   1      39.584  25.076  27.442  1.00  0.00     0.001 A 
ATOM     90  C   UNL A   1      40.902  26.788  26.414  1.00  0.00     0.001 A 
ATOM     91  C   UNL A   1      40.354  25.515  26.373  1.00  0.00     0.000 A 
ENDBRANCH  72  86
BRANCH  73  92
ATOM     92  C   UNL A   1      39.723  33.370  36.132  1.00  0.00    -0.014 A 
ATOM     93  C   UNL A   1      38.697  32.517  36.569  1.00  0.00     0.009 A 
ATOM     94  C   UNL A   1      39.936  34.556  36.841  1.00  0.00     0.009 A 
ATOM     95  C   UNL A   1      38.002  32.754  37.756  1.00  0.00     0.001 A 
ATOM     96  C   UNL A   1      39.224  34.809  38.022  1.00  0.00     0.001 A 
ATOM     97  C   UNL A   1      38.291  33.889  38.502  1.00  0.00     0.000 A 
ENDBRANCH  73  92
BRANCH  85  98
ATOM     98  C   UNL A   1      42.916  27.049  34.776  1.00  0.00    -0.014 A 
ATOM     99  C   UNL A   1      44.258  26.719  35.011  1.00  0.00     0.009 A 
ATOM    100  C   UNL A   1      41.947  26.115  35.206  1.00  0.00     0.009 A 
ATOM    101  C   UNL A   1      44.615  25.498  35.600  1.00  0.00     0.001 A 
ATOM    102  C   UNL A   1      42.297  24.916  35.833  1.00  0.00     0.001 A 
ATOM    103  C   UNL A   1      43.636  24.602  36.019  1.00  0.00     0.000 A 
ENDBRANCH  85  98
ENDBRANCH  59  60
ENDBRANCH  51  54
ENDBRANCH  49  50
ENDBRANCH  48  49
ENDBRANCH  47  48
ENDBRANCH   3  47
TORSDOF 19
ENDMDL
MODEL 3
REMARK VINA RESULT:     -13.0      2.602      4.412
REMARK SMILES Cc1ccc(S(=O)(=O)n2cc(C(=O)C(=O)N[C@H](Cc3c[nH]c4ccccc34)C(=O)NCC(=O)NCCCNC(=O)c3ccc(-c4c5nc(c(-c6ccccc6)c6ccc([nH]6)c(-c6ccccc6)c6nc(c(-c7ccccc7)c7ccc4[nH]7)C=C6)C=C5)cc3)c3ccccc32)cc1
REMARK SMILES IDX 32 1 33 2 34 3 31 5 30 6 28 7 29 8 17 10 16 11 14 12 15 13
REMARK SMILES IDX 12 15 13 16 11 17 9 18 10 19 94 20 89 21 93 22 90 23 92 24
REMARK SMILES IDX 91 25 6 26 7 27 8 28 5 29 1 30 2 31 3 32 96 33 4 34 95 35
REMARK SMILES IDX 18 36 19 37 20 38 27 39 21 40 22 41 26 42 23 44 25 45 24 46
REMARK SMILES IDX 35 47 36 48 37 49 38 50 39 51 40 53 41 54 42 55 88 56 43 57
REMARK SMILES IDX 87 58 44 59 45 60 46 61 81 62 47 63 86 64 80 65 82 66 48 67
REMARK SMILES IDX 85 68 79 69 78 70 49 72 71 73 56 74 70 75 57 76 60 77 69 78
REMARK SMILES IDX 83 79 58 80 59 81 68 83 84 84 61 85 50 86 51 87 55 88 52 89
REMARK SMILES IDX 54 90 53 91 72 92 73 93 77 94 74 95 76 96 75 97 62 98 63 99
REMARK SMILES IDX 67 100 64 101 66 102 65 103
REMARK H PARENT 34 4 30 9 16 14 21 43 38 52 82 71 60 82
REMARK Flexibility Score: inf
ROOT
ATOM      1  C   UNL A   1      32.624  30.075  26.475  1.00  0.00     0.239 C 
ATOM      2  O   UNL A   1      31.509  30.093  25.946  1.00  0.00    -0.273 OA
ATOM      3  N   UNL A   1      33.051  31.217  27.089  1.00  0.00    -0.355 N 
ATOM      4  H   UNL A   1      32.472  32.004  26.961  1.00  0.00     0.163 HD
ENDROOT
BRANCH   1   5
ATOM      5  C   UNL A   1      33.416  28.764  26.575  1.00  0.00     0.216 C 
BRANCH   5   6
ATOM      6  N   UNL A   1      33.514  28.039  25.331  1.00  0.00    -0.345 N 
ATOM      7  C   UNL A   1      32.658  27.322  24.576  1.00  0.00     0.243 C 
ATOM      8  O   UNL A   1      33.183  26.892  23.541  1.00  0.00    -0.273 OA
ATOM      9  H   UNL A   1      34.418  28.077  24.943  1.00  0.00     0.164 HD
BRANCH   7  10
ATOM     10  C   UNL A   1      31.159  27.008  24.882  1.00  0.00     0.176 C 
BRANCH  10  11
ATOM     11  N   UNL A   1      30.780  25.886  25.817  1.00  0.00    -0.337 N 
ATOM     12  C   UNL A   1      30.666  24.501  25.722  1.00  0.00     0.293 C 
ATOM     13  O   UNL A   1      30.236  23.862  26.678  1.00  0.00    -0.265 OA
ATOM     14  H   UNL A   1      30.561  26.214  26.720  1.00  0.00     0.164 HD
BRANCH  12  15
ATOM     15  C   UNL A   1      31.107  23.762  24.461  1.00  0.00     0.252 C 
ATOM     16  O   UNL A   1      30.366  23.928  23.491  1.00  0.00    -0.283 OA
BRANCH  15  17
ATOM     17  C   UNL A   1      32.289  22.895  24.297  1.00  0.00     0.054 A 
ATOM     18  N   UNL A   1      33.899  21.357  23.887  1.00  0.00    -0.240 N 
ATOM     19  C   UNL A   1      32.507  21.589  23.849  1.00  0.00     0.117 A 
ATOM     20  C   UNL A   1      34.502  22.615  23.933  1.00  0.00     0.065 A 
ATOM     21  C   UNL A   1      33.590  23.345  24.685  1.00  0.00     0.012 A 
ATOM     22  C   UNL A   1      35.835  23.008  23.780  1.00  0.00     0.028 A 
ATOM     23  C   UNL A   1      34.080  24.310  25.573  1.00  0.00     0.011 A 
ATOM     24  C   UNL A   1      36.296  23.943  24.713  1.00  0.00     0.002 A 
ATOM     25  C   UNL A   1      35.446  24.550  25.633  1.00  0.00     0.001 A 
BRANCH  18  26
ATOM     26  S   UNL A   1      34.600  20.218  25.087  1.00  0.00     0.268 S 
ATOM     27  O   UNL A   1      34.285  20.796  26.381  1.00  0.00    -0.201 OA
ATOM     28  O   UNL A   1      35.977  20.021  24.663  1.00  0.00    -0.201 OA
BRANCH  26  29
ATOM     29  C   UNL A   1      33.888  18.601  25.026  1.00  0.00     0.088 A 
ATOM     30  C   UNL A   1      32.800  14.443  25.380  1.00  0.00     0.044 C 
ATOM     31  C   UNL A   1      33.154  15.898  25.254  1.00  0.00    -0.051 A 
ATOM     32  C   UNL A   1      34.392  16.236  24.711  1.00  0.00     0.005 A 
ATOM     33  C   UNL A   1      32.278  16.925  25.654  1.00  0.00     0.005 A 
ATOM     34  C   UNL A   1      34.755  17.573  24.603  1.00  0.00     0.022 A 
ATOM     35  C   UNL A   1      32.641  18.282  25.548  1.00  0.00     0.022 A 
ENDBRANCH  26  29
ENDBRANCH  18  26
ENDBRANCH  15  17
ENDBRANCH  12  15
ENDBRANCH  10  11
BRANCH  10  36
ATOM     36  C   UNL A   1      30.082  27.350  23.798  1.00  0.00     0.072 C 
BRANCH  36  37
ATOM     37  C   UNL A   1      30.091  28.661  23.040  1.00  0.00    -0.020 A 
ATOM     38  C   UNL A   1      31.004  28.979  22.044  1.00  0.00     0.087 A 
ATOM     39  C   UNL A   1      29.154  29.760  23.068  1.00  0.00     0.003 A 
ATOM     40  N   UNL A   1      30.666  30.189  21.497  1.00  0.00    -0.361 N 
ATOM     41  C   UNL A   1      29.619  30.740  22.189  1.00  0.00     0.046 A 
ATOM     42  C   UNL A   1      27.965  30.045  23.774  1.00  0.00     0.010 A 
ATOM     43  H   UNL A   1      31.110  30.602  20.721  1.00  0.00     0.166 HD
ATOM     44  C   UNL A   1      29.052  32.016  22.072  1.00  0.00     0.026 A 
ATOM     45  C   UNL A   1      27.367  31.310  23.657  1.00  0.00     0.001 A 
ATOM     46  C   UNL A   1      27.919  32.290  22.838  1.00  0.00     0.002 A 
ENDBRANCH  36  37
ENDBRANCH  10  36
ENDBRANCH   7  10
ENDBRANCH   5   6
ENDBRANCH   1   5
BRANCH   3  47
ATOM     47  C   UNL A   1      34.233  31.445  27.903  1.00  0.00     0.117 C 
BRANCH  47  48
ATOM     48  C   UNL A   1      34.184  32.790  28.600  1.00  0.00     0.042 C 
BRANCH  48  49
ATOM     49  C   UNL A   1      35.041  32.797  29.859  1.00  0.00     0.118 C 
BRANCH  49  50
ATOM     50  N   UNL A   1      34.230  32.970  31.059  1.00  0.00    -0.352 N 
ATOM     51  C   UNL A   1      34.542  33.263  32.382  1.00  0.00     0.251 C 
ATOM     52  H   UNL A   1      33.265  32.853  30.900  1.00  0.00     0.163 HD
ATOM     53  O   UNL A   1      33.705  33.170  33.240  1.00  0.00    -0.269 OA
BRANCH  51  54
ATOM     54  C   UNL A   1      35.846  33.936  32.650  1.00  0.00     0.039 A 
ATOM     55  C   UNL A   1      36.480  34.372  31.482  1.00  0.00     0.014 A 
ATOM     56  C   UNL A   1      36.586  33.559  33.759  1.00  0.00     0.014 A 
ATOM     57  C   UNL A   1      37.810  34.032  31.290  1.00  0.00     0.010 A 
ATOM     58  C   UNL A   1      37.864  33.096  33.524  1.00  0.00     0.010 A 
ATOM     59  C   UNL A   1      38.433  33.243  32.253  1.00  0.00    -0.014 A 
BRANCH  59  60
ATOM     60  C   UNL A   1      39.596  32.418  31.936  1.00  0.00     0.031 A 
ATOM     61  C   UNL A   1      39.416  31.189  31.139  1.00  0.00     0.074 A 
ATOM     62  C   UNL A   1      40.824  32.730  32.410  1.00  0.00     0.049 A 
ATOM     63  N   UNL A   1      40.178  30.149  31.219  1.00  0.00    -0.248 NA
ATOM     64  C   UNL A   1      38.286  31.009  30.236  1.00  0.00     0.031 C 
ATOM     65  C   UNL A   1      42.100  32.122  32.034  1.00  0.00     0.029 A 
ATOM     66  N   UNL A   1      41.167  33.532  33.485  1.00  0.00    -0.354 N 
ATOM     67  C   UNL A   1      39.826  29.305  30.193  1.00  0.00     0.074 A 
ATOM     68  C   UNL A   1      38.589  29.838  29.674  1.00  0.00     0.031 C 
ATOM     69  C   UNL A   1      42.998  32.360  33.006  1.00  0.00     0.029 A 
ATOM     70  C   UNL A   1      42.299  33.008  34.104  1.00  0.00     0.049 A 
ATOM     71  H   UNL A   1      40.687  34.343  33.767  1.00  0.00     0.167 HD
ATOM     72  C   UNL A   1      40.693  28.333  29.792  1.00  0.00     0.031 A 
ATOM     73  C   UNL A   1      42.298  32.565  35.396  1.00  0.00     0.031 A 
ATOM     74  C   UNL A   1      41.855  28.237  30.675  1.00  0.00     0.049 A 
ATOM     75  C   UNL A   1      42.617  31.087  35.529  1.00  0.00     0.074 A 
ATOM     76  C   UNL A   1      43.165  28.678  30.575  1.00  0.00     0.029 A 
ATOM     77  N   UNL A   1      41.669  27.869  32.005  1.00  0.00    -0.354 N 
ATOM     78  N   UNL A   1      42.604  30.242  34.534  1.00  0.00    -0.248 NA
ATOM     79  C   UNL A   1      42.913  30.437  36.805  1.00  0.00     0.031 C 
ATOM     80  C   UNL A   1      43.742  28.644  31.872  1.00  0.00     0.029 A 
ATOM     81  C   UNL A   1      42.793  28.156  32.753  1.00  0.00     0.049 A 
ATOM     82  H   UNL A   1      40.847  27.459  32.362  1.00  0.00     0.167 HD
ATOM     83  C   UNL A   1      42.840  28.976  35.003  1.00  0.00     0.074 A 
ATOM     84  C   UNL A   1      43.053  29.153  36.427  1.00  0.00     0.031 C 
ATOM     85  C   UNL A   1      42.812  27.884  34.185  1.00  0.00     0.031 A 
BRANCH  72  86
ATOM     86  C   UNL A   1      40.620  27.716  28.413  1.00  0.00    -0.014 A 
ATOM     87  C   UNL A   1      39.953  26.491  28.234  1.00  0.00     0.009 A 
ATOM     88  C   UNL A   1      41.258  28.234  27.273  1.00  0.00     0.009 A 
ATOM     89  C   UNL A   1      40.025  25.774  27.030  1.00  0.00     0.001 A 
ATOM     90  C   UNL A   1      41.378  27.506  26.082  1.00  0.00     0.001 A 
ATOM     91  C   UNL A   1      40.771  26.264  25.966  1.00  0.00     0.000 A 
ENDBRANCH  72  86
BRANCH  73  92
ATOM     92  C   UNL A   1      41.390  33.308  36.312  1.00  0.00    -0.014 A 
ATOM     93  C   UNL A   1      41.700  34.643  36.622  1.00  0.00     0.009 A 
ATOM     94  C   UNL A   1      40.100  32.853  36.596  1.00  0.00     0.009 A 
ATOM     95  C   UNL A   1      40.724  35.540  37.057  1.00  0.00     0.001 A 
ATOM     96  C   UNL A   1      39.122  33.746  37.055  1.00  0.00     0.001 A 
ATOM     97  C   UNL A   1      39.422  35.096  37.244  1.00  0.00     0.000 A 
ENDBRANCH  73  92
BRANCH  85  98
ATOM     98  C   UNL A   1      42.851  26.448  34.641  1.00  0.00    -0.014 A 
ATOM     99  C   UNL A   1      41.972  25.897  35.583  1.00  0.00     0.009 A 
ATOM    100  C   UNL A   1      43.730  25.553  33.992  1.00  0.00     0.009 A 
ATOM    101  C   UNL A   1      42.004  24.531  35.897  1.00  0.00     0.001 A 
ATOM    102  C   UNL A   1      43.735  24.183  34.270  1.00  0.00     0.001 A 
ATOM    103  C   UNL A   1      42.878  23.674  35.234  1.00  0.00     0.000 A 
ENDBRANCH  85  98
ENDBRANCH  59  60
ENDBRANCH  51  54
ENDBRANCH  49  50
ENDBRANCH  48  49
ENDBRANCH  47  48
ENDBRANCH   3  47
TORSDOF 19
ENDMDL
