MODEL 1
REMARK VINA RESULT:     -11.7      0.000      0.000
REMARK SMILES COc1cccc(C(=O)NNC(=O)[C@H]2CC(C)=C(C)C[C@@H]2C(=O)NCCCNC(=O)c2ccc(-c3c4nc(c(-c5ccccc5)c5ccc([nH]5)c(-c5ccccc5)c5nc(c(-c6ccccc6)c6ccc3[nH]6)C=C5)C=C4)cc2)c1
REMARK SMILES IDX 25 1 24 2 22 3 23 4 21 6 14 7 15 8 16 9 20 10 17 11 18 12
REMARK SMILES IDX 19 13 12 14 11 15 13 17 10 18 8 19 9 20 7 22 3 23 4 24 79 25
REMARK SMILES IDX 5 26 6 27 2 28 1 29 26 30 27 31 28 32 29 33 30 35 31 36
REMARK SMILES IDX 32 37 78 38 33 39 77 40 34 41 35 42 36 43 71 44 37 45 76 46
REMARK SMILES IDX 70 47 72 48 38 49 75 50 69 51 68 52 39 54 61 55 46 56 60 57
REMARK SMILES IDX 47 58 50 59 59 60 73 61 48 62 49 63 58 65 74 66 51 67 40 68
REMARK SMILES IDX 41 69 45 70 42 71 44 72 43 73 62 74 63 75 67 76 64 77 66 78
REMARK SMILES IDX 65 79 52 80 53 81 57 82 54 83 56 84 55 85
REMARK H PARENT 24 5 11 16 10 21 28 34 72 53 50 64
REMARK Flexibility Score: inf
ROOT
ATOM      1  C   UNL A   1      31.595  28.385  27.040  1.00  0.00     0.117 C 
ENDROOT
BRANCH   1   2
ATOM      2  N   UNL A   1      31.069  27.028  26.994  1.00  0.00    -0.356 N 
ATOM      3  C   UNL A   1      31.401  25.945  26.236  1.00  0.00     0.224 C 
ATOM      4  O   UNL A   1      30.823  24.890  26.521  1.00  0.00    -0.275 OA
ATOM      5  H   UNL A   1      30.336  26.861  27.630  1.00  0.00     0.163 HD
BRANCH   3   6
ATOM      6  C   UNL A   1      32.308  26.038  24.997  1.00  0.00     0.095 C 
ATOM      7  C   UNL A   1      31.454  26.118  23.700  1.00  0.00     0.097 C 
ATOM      8  C   UNL A   1      31.758  25.094  22.586  1.00  0.00     0.045 C 
ATOM      9  C   UNL A   1      33.005  24.248  22.675  1.00  0.00    -0.074 C 
ATOM     10  C   UNL A   1      33.433  25.012  24.974  1.00  0.00     0.045 C 
ATOM     11  C   UNL A   1      33.219  23.298  21.526  1.00  0.00     0.039 C 
ATOM     12  C   UNL A   1      33.806  24.265  23.748  1.00  0.00    -0.074 C 
ATOM     13  C   UNL A   1      35.063  23.443  23.910  1.00  0.00     0.039 C 
BRANCH   7  14
ATOM     14  C   UNL A   1      31.600  27.564  23.211  1.00  0.00     0.242 C 
ATOM     15  N   UNL A   1      30.572  28.450  23.466  1.00  0.00    -0.267 N 
ATOM     16  H   UNL A   1      30.794  29.405  23.552  1.00  0.00     0.191 HD
ATOM     17  O   UNL A   1      32.649  27.996  22.731  1.00  0.00    -0.273 OA
BRANCH  15  18
ATOM     18  N   UNL A   1      29.241  28.070  23.610  1.00  0.00    -0.263 N 
ATOM     19  C   UNL A   1      28.139  28.758  23.126  1.00  0.00     0.269 C 
ATOM     20  O   UNL A   1      27.015  28.281  23.293  1.00  0.00    -0.267 OA
ATOM     21  H   UNL A   1      29.066  27.235  24.102  1.00  0.00     0.191 HD
BRANCH  19  22
ATOM     22  C   UNL A   1      28.249  30.115  22.501  1.00  0.00     0.045 A 
ATOM     23  C   UNL A   1      28.464  32.533  22.581  1.00  0.00     0.119 A 
ATOM     24  C   UNL A   1      28.164  32.604  21.219  1.00  0.00     0.046 A 
ATOM     25  C   UNL A   1      28.566  31.284  23.204  1.00  0.00     0.060 A 
ATOM     26  C   UNL A   1      27.954  31.441  20.481  1.00  0.00     0.005 A 
ATOM     27  C   UNL A   1      27.983  30.203  21.124  1.00  0.00     0.014 A 
BRANCH  23  28
ATOM     28  O   UNL A   1      28.622  33.746  23.193  1.00  0.00    -0.497 OA
ATOM     29  C   UNL A   1      29.946  34.124  23.552  1.00  0.00     0.278 C 
ENDBRANCH  23  28
ENDBRANCH  19  22
ENDBRANCH  15  18
ENDBRANCH   7  14
ENDBRANCH   3   6
ENDBRANCH   1   2
BRANCH   1  30
ATOM     30  C   UNL A   1      33.055  28.476  27.417  1.00  0.00     0.042 C 
BRANCH  30  31
ATOM     31  C   UNL A   1      33.756  29.683  26.836  1.00  0.00     0.118 C 
BRANCH  31  32
ATOM     32  N   UNL A   1      33.759  30.828  27.740  1.00  0.00    -0.352 N 
ATOM     33  C   UNL A   1      34.683  31.215  28.680  1.00  0.00     0.251 C 
ATOM     34  H   UNL A   1      32.974  31.417  27.663  1.00  0.00     0.163 HD
ATOM     35  O   UNL A   1      34.408  32.109  29.480  1.00  0.00    -0.269 OA
BRANCH  33  36
ATOM     36  C   UNL A   1      35.991  30.533  28.756  1.00  0.00     0.039 A 
ATOM     37  C   UNL A   1      36.878  30.622  27.682  1.00  0.00     0.014 A 
ATOM     38  C   UNL A   1      36.352  29.825  29.901  1.00  0.00     0.014 A 
ATOM     39  C   UNL A   1      38.160  30.079  27.802  1.00  0.00     0.010 A 
ATOM     40  C   UNL A   1      37.666  29.420  30.076  1.00  0.00     0.010 A 
ATOM     41  C   UNL A   1      38.580  29.521  29.020  1.00  0.00    -0.014 A 
BRANCH  41  42
ATOM     42  C   UNL A   1      39.955  28.998  29.214  1.00  0.00     0.031 A 
ATOM     43  C   UNL A   1      41.016  29.888  29.809  1.00  0.00     0.074 A 
ATOM     44  C   UNL A   1      40.270  27.757  28.791  1.00  0.00     0.049 A 
ATOM     45  N   UNL A   1      42.291  29.653  29.980  1.00  0.00    -0.248 NA
ATOM     46  C   UNL A   1      40.594  31.235  30.235  1.00  0.00     0.031 C 
ATOM     47  C   UNL A   1      39.346  26.812  28.158  1.00  0.00     0.029 A 
ATOM     48  N   UNL A   1      41.461  27.078  28.830  1.00  0.00    -0.354 N 
ATOM     49  C   UNL A   1      42.820  30.824  30.510  1.00  0.00     0.074 A 
ATOM     50  C   UNL A   1      41.749  31.791  30.563  1.00  0.00     0.031 C 
ATOM     51  C   UNL A   1      39.995  25.662  27.910  1.00  0.00     0.029 A 
ATOM     52  C   UNL A   1      41.387  25.805  28.316  1.00  0.00     0.049 A 
ATOM     53  H   UNL A   1      42.291  27.466  29.191  1.00  0.00     0.167 HD
ATOM     54  C   UNL A   1      44.078  31.067  30.947  1.00  0.00     0.031 A 
ATOM     55  C   UNL A   1      42.339  24.863  28.184  1.00  0.00     0.031 A 
ATOM     56  C   UNL A   1      45.139  30.100  30.911  1.00  0.00     0.049 A 
ATOM     57  C   UNL A   1      43.736  25.166  28.652  1.00  0.00     0.074 A 
ATOM     58  C   UNL A   1      46.438  30.227  31.371  1.00  0.00     0.029 A 
ATOM     59  N   UNL A   1      45.022  28.823  30.384  1.00  0.00    -0.354 N 
ATOM     60  N   UNL A   1      44.204  26.257  29.211  1.00  0.00    -0.248 NA
ATOM     61  C   UNL A   1      44.734  24.101  28.480  1.00  0.00     0.031 C 
ATOM     62  C   UNL A   1      47.121  29.044  31.074  1.00  0.00     0.029 A 
ATOM     63  C   UNL A   1      46.230  28.158  30.488  1.00  0.00     0.049 A 
ATOM     64  H   UNL A   1      44.200  28.445  29.995  1.00  0.00     0.167 HD
ATOM     65  C   UNL A   1      45.539  25.997  29.488  1.00  0.00     0.074 A 
ATOM     66  C   UNL A   1      45.802  24.640  29.052  1.00  0.00     0.031 C 
ATOM     67  C   UNL A   1      46.468  26.807  30.054  1.00  0.00     0.031 A 
BRANCH  54  68
ATOM     68  C   UNL A   1      44.364  32.433  31.507  1.00  0.00    -0.014 A 
ATOM     69  C   UNL A   1      44.118  32.732  32.858  1.00  0.00     0.009 A 
ATOM     70  C   UNL A   1      44.911  33.429  30.682  1.00  0.00     0.009 A 
ATOM     71  C   UNL A   1      44.376  34.009  33.360  1.00  0.00     0.001 A 
ATOM     72  C   UNL A   1      45.199  34.695  31.195  1.00  0.00     0.001 A 
ATOM     73  C   UNL A   1      44.921  34.987  32.530  1.00  0.00     0.000 A 
ENDBRANCH  54  68
BRANCH  55  74
ATOM     74  C   UNL A   1      42.008  23.535  27.602  1.00  0.00    -0.014 A 
ATOM     75  C   UNL A   1      41.456  22.524  28.406  1.00  0.00     0.009 A 
ATOM     76  C   UNL A   1      42.260  23.260  26.249  1.00  0.00     0.009 A 
ATOM     77  C   UNL A   1      41.199  21.257  27.876  1.00  0.00     0.001 A 
ATOM     78  C   UNL A   1      41.971  22.002  25.714  1.00  0.00     0.001 A 
ATOM     79  C   UNL A   1      41.454  20.999  26.531  1.00  0.00     0.000 A 
ENDBRANCH  55  74
BRANCH  67  80
ATOM     80  C   UNL A   1      47.839  26.231  30.276  1.00  0.00    -0.014 A 
ATOM     81  C   UNL A   1      48.241  25.758  31.534  1.00  0.00     0.009 A 
ATOM     82  C   UNL A   1      48.724  26.121  29.192  1.00  0.00     0.009 A 
ATOM     83  C   UNL A   1      49.518  25.222  31.710  1.00  0.00     0.001 A 
ATOM     84  C   UNL A   1      49.988  25.554  29.363  1.00  0.00     0.001 A 
ATOM     85  C   UNL A   1      50.387  25.115  30.624  1.00  0.00     0.000 A 
ENDBRANCH  67  80
ENDBRANCH  41  42
ENDBRANCH  33  36
ENDBRANCH  31  32
ENDBRANCH  30  31
ENDBRANCH   1  30
TORSDOF 14
ENDMDL
MODEL 2
REMARK VINA RESULT:     -11.7      1.976      4.982
REMARK SMILES COc1cccc(C(=O)NNC(=O)[C@H]2CC(C)=C(C)C[C@@H]2C(=O)NCCCNC(=O)c2ccc(-c3c4nc(c(-c5ccccc5)c5ccc([nH]5)c(-c5ccccc5)c5nc(c(-c6ccccc6)c6ccc3[nH]6)C=C5)C=C4)cc2)c1
REMARK SMILES IDX 25 1 24 2 22 3 23 4 21 6 14 7 15 8 16 9 20 10 17 11 18 12
REMARK SMILES IDX 19 13 12 14 11 15 13 17 10 18 8 19 9 20 7 22 3 23 4 24 79 25
REMARK SMILES IDX 5 26 6 27 2 28 1 29 26 30 27 31 28 32 29 33 30 35 31 36
REMARK SMILES IDX 32 37 78 38 33 39 77 40 34 41 35 42 36 43 71 44 37 45 76 46
REMARK SMILES IDX 70 47 72 48 38 49 75 50 69 51 68 52 39 54 61 55 46 56 60 57
REMARK SMILES IDX 47 58 50 59 59 60 73 61 48 62 49 63 58 65 74 66 51 67 40 68
REMARK SMILES IDX 41 69 45 70 42 71 44 72 43 73 62 74 63 75 67 76 64 77 66 78
REMARK SMILES IDX 65 79 52 80 53 81 57 82 54 83 56 84 55 85
REMARK H PARENT 24 5 11 16 10 21 28 34 72 53 50 64
REMARK Flexibility Score: inf
ROOT
ATOM      1  C   UNL A   1      31.396  28.188  26.905  1.00  0.00     0.117 C 
ENDROOT
BRANCH   1   2
ATOM      2  N   UNL A   1      30.702  26.911  26.998  1.00  0.00    -0.356 N 
ATOM      3  C   UNL A   1      30.627  25.849  26.147  1.00  0.00     0.224 C 
ATOM      4  O   UNL A   1      30.029  24.855  26.576  1.00  0.00    -0.275 OA
ATOM      5  H   UNL A   1      30.191  26.792  27.831  1.00  0.00     0.163 HD
BRANCH   3   6
ATOM      6  C   UNL A   1      31.099  25.914  24.685  1.00  0.00     0.095 C 
ATOM      7  C   UNL A   1      32.581  25.458  24.569  1.00  0.00     0.097 C 
ATOM      8  C   UNL A   1      33.565  26.415  23.862  1.00  0.00     0.045 C 
ATOM      9  C   UNL A   1      33.029  27.600  23.097  1.00  0.00    -0.074 C 
ATOM     10  C   UNL A   1      30.764  27.223  23.982  1.00  0.00     0.045 C 
ATOM     11  C   UNL A   1      34.070  28.456  22.426  1.00  0.00     0.039 C 
ATOM     12  C   UNL A   1      31.729  27.927  23.103  1.00  0.00    -0.074 C 
ATOM     13  C   UNL A   1      31.123  29.099  22.370  1.00  0.00     0.039 C 
BRANCH   7  14
ATOM     14  C   UNL A   1      32.528  24.082  23.893  1.00  0.00     0.242 C 
ATOM     15  N   UNL A   1      32.007  23.021  24.606  1.00  0.00    -0.267 N 
ATOM     16  H   UNL A   1      31.584  22.288  24.103  1.00  0.00     0.191 HD
ATOM     17  O   UNL A   1      32.797  23.921  22.702  1.00  0.00    -0.273 OA
BRANCH  15  18
ATOM     18  N   UNL A   1      32.041  22.930  25.994  1.00  0.00    -0.263 N 
ATOM     19  C   UNL A   1      33.174  22.741  26.772  1.00  0.00     0.269 C 
ATOM     20  O   UNL A   1      33.060  22.721  27.998  1.00  0.00    -0.267 OA
ATOM     21  H   UNL A   1      31.181  23.007  26.468  1.00  0.00     0.191 HD
BRANCH  19  22
ATOM     22  C   UNL A   1      34.518  22.452  26.178  1.00  0.00     0.045 A 
ATOM     23  C   UNL A   1      36.247  20.970  25.334  1.00  0.00     0.119 A 
ATOM     24  C   UNL A   1      37.154  22.032  25.331  1.00  0.00     0.046 A 
ATOM     25  C   UNL A   1      34.916  21.198  25.698  1.00  0.00     0.060 A 
ATOM     26  C   UNL A   1      36.746  23.311  25.701  1.00  0.00     0.005 A 
ATOM     27  C   UNL A   1      35.435  23.516  26.135  1.00  0.00     0.014 A 
BRANCH  23  28
ATOM     28  O   UNL A   1      36.783  19.764  24.974  1.00  0.00    -0.497 OA
ATOM     29  C   UNL A   1      38.202  19.669  24.934  1.00  0.00     0.278 C 
ENDBRANCH  23  28
ENDBRANCH  19  22
ENDBRANCH  15  18
ENDBRANCH   7  14
ENDBRANCH   3   6
ENDBRANCH   1   2
BRANCH   1  30
ATOM     30  C   UNL A   1      32.801  28.176  27.457  1.00  0.00     0.042 C 
BRANCH  30  31
ATOM     31  C   UNL A   1      33.703  29.222  26.841  1.00  0.00     0.118 C 
BRANCH  31  32
ATOM     32  N   UNL A   1      33.731  30.467  27.601  1.00  0.00    -0.352 N 
ATOM     33  C   UNL A   1      34.683  30.963  28.458  1.00  0.00     0.251 C 
ATOM     34  H   UNL A   1      32.942  31.043  27.480  1.00  0.00     0.163 HD
ATOM     35  O   UNL A   1      34.431  31.946  29.154  1.00  0.00    -0.269 OA
BRANCH  33  36
ATOM     36  C   UNL A   1      35.995  30.294  28.572  1.00  0.00     0.039 A 
ATOM     37  C   UNL A   1      36.887  30.337  27.498  1.00  0.00     0.014 A 
ATOM     38  C   UNL A   1      36.356  29.644  29.751  1.00  0.00     0.014 A 
ATOM     39  C   UNL A   1      38.172  29.809  27.650  1.00  0.00     0.010 A 
ATOM     40  C   UNL A   1      37.671  29.258  29.951  1.00  0.00     0.010 A 
ATOM     41  C   UNL A   1      38.590  29.313  28.895  1.00  0.00    -0.014 A 
BRANCH  41  42
ATOM     42  C   UNL A   1      39.968  28.810  29.120  1.00  0.00     0.031 A 
ATOM     43  C   UNL A   1      41.001  29.713  29.742  1.00  0.00     0.074 A 
ATOM     44  C   UNL A   1      40.310  27.575  28.701  1.00  0.00     0.049 A 
ATOM     45  N   UNL A   1      42.275  29.496  29.943  1.00  0.00    -0.248 NA
ATOM     46  C   UNL A   1      40.549  31.052  30.163  1.00  0.00     0.031 C 
ATOM     47  C   UNL A   1      39.416  26.619  28.043  1.00  0.00     0.029 A 
ATOM     48  N   UNL A   1      41.510  26.914  28.765  1.00  0.00    -0.354 N 
ATOM     49  C   UNL A   1      42.774  30.673  30.489  1.00  0.00     0.074 A 
ATOM     50  C   UNL A   1      41.688  31.624  30.520  1.00  0.00     0.031 C 
ATOM     51  C   UNL A   1      40.086  25.479  27.806  1.00  0.00     0.029 A 
ATOM     52  C   UNL A   1      41.467  25.642  28.245  1.00  0.00     0.049 A 
ATOM     53  H   UNL A   1      42.325  27.312  29.147  1.00  0.00     0.167 HD
ATOM     54  C   UNL A   1      44.018  30.932  30.956  1.00  0.00     0.031 A 
ATOM     55  C   UNL A   1      42.435  24.714  28.133  1.00  0.00     0.031 A 
ATOM     56  C   UNL A   1      45.094  29.980  30.942  1.00  0.00     0.049 A 
ATOM     57  C   UNL A   1      43.816  25.035  28.635  1.00  0.00     0.074 A 
ATOM     58  C   UNL A   1      46.379  30.125  31.433  1.00  0.00     0.029 A 
ATOM     59  N   UNL A   1      45.007  28.704  30.409  1.00  0.00    -0.354 N 
ATOM     60  N   UNL A   1      44.254  26.130  29.208  1.00  0.00    -0.248 NA
ATOM     61  C   UNL A   1      44.833  23.985  28.483  1.00  0.00     0.031 C 
ATOM     62  C   UNL A   1      47.086  28.952  31.149  1.00  0.00     0.029 A 
ATOM     63  C   UNL A   1      46.222  28.056  30.540  1.00  0.00     0.049 A 
ATOM     64  H   UNL A   1      44.201  28.315  29.999  1.00  0.00     0.167 HD
ATOM     65  C   UNL A   1      45.587  25.889  29.516  1.00  0.00     0.074 A 
ATOM     66  C   UNL A   1      45.879  24.538  29.082  1.00  0.00     0.031 C 
ATOM     67  C   UNL A   1      46.490  26.710  30.106  1.00  0.00     0.031 A 
BRANCH  54  68
ATOM     68  C   UNL A   1      44.271  32.300  31.527  1.00  0.00    -0.014 A 
ATOM     69  C   UNL A   1      44.713  33.358  30.714  1.00  0.00     0.009 A 
ATOM     70  C   UNL A   1      44.040  32.545  32.890  1.00  0.00     0.009 A 
ATOM     71  C   UNL A   1      44.956  34.619  31.261  1.00  0.00     0.001 A 
ATOM     72  C   UNL A   1      44.252  33.816  33.428  1.00  0.00     0.001 A 
ATOM     73  C   UNL A   1      44.720  34.849  32.616  1.00  0.00     0.000 A 
ENDBRANCH  54  68
BRANCH  55  74
ATOM     74  C   UNL A   1      42.136  23.383  27.539  1.00  0.00    -0.014 A 
ATOM     75  C   UNL A   1      41.541  22.375  28.315  1.00  0.00     0.009 A 
ATOM     76  C   UNL A   1      42.464  23.102  26.203  1.00  0.00     0.009 A 
ATOM     77  C   UNL A   1      41.314  21.106  27.777  1.00  0.00     0.001 A 
ATOM     78  C   UNL A   1      42.206  21.842  25.658  1.00  0.00     0.001 A 
ATOM     79  C   UNL A   1      41.644  20.842  26.450  1.00  0.00     0.000 A 
ENDBRANCH  55  74
BRANCH  67  80
ATOM     80  C   UNL A   1      47.863  26.153  30.359  1.00  0.00    -0.014 A 
ATOM     81  C   UNL A   1      48.838  26.120  29.351  1.00  0.00     0.009 A 
ATOM     82  C   UNL A   1      48.196  25.694  31.643  1.00  0.00     0.009 A 
ATOM     83  C   UNL A   1      50.108  25.603  29.614  1.00  0.00     0.001 A 
ATOM     84  C   UNL A   1      49.476  25.208  31.913  1.00  0.00     0.001 A 
ATOM     85  C   UNL A   1      50.427  25.154  30.896  1.00  0.00     0.000 A 
ENDBRANCH  67  80
ENDBRANCH  41  42
ENDBRANCH  33  36
ENDBRANCH  31  32
ENDBRANCH  30  31
ENDBRANCH   1  30
TORSDOF 14
ENDMDL
MODEL 3
REMARK VINA RESULT:     -11.6      2.243      4.915
REMARK SMILES COc1cccc(C(=O)NNC(=O)[C@H]2CC(C)=C(C)C[C@@H]2C(=O)NCCCNC(=O)c2ccc(-c3c4nc(c(-c5ccccc5)c5ccc([nH]5)c(-c5ccccc5)c5nc(c(-c6ccccc6)c6ccc3[nH]6)C=C5)C=C4)cc2)c1
REMARK SMILES IDX 25 1 24 2 22 3 23 4 21 6 14 7 15 8 16 9 20 10 17 11 18 12
REMARK SMILES IDX 19 13 12 14 11 15 13 17 10 18 8 19 9 20 7 22 3 23 4 24 79 25
REMARK SMILES IDX 5 26 6 27 2 28 1 29 26 30 27 31 28 32 29 33 30 35 31 36
REMARK SMILES IDX 32 37 78 38 33 39 77 40 34 41 35 42 36 43 71 44 37 45 76 46
REMARK SMILES IDX 70 47 72 48 38 49 75 50 69 51 68 52 39 54 61 55 46 56 60 57
REMARK SMILES IDX 47 58 50 59 59 60 73 61 48 62 49 63 58 65 74 66 51 67 40 68
REMARK SMILES IDX 41 69 45 70 42 71 44 72 43 73 62 74 63 75 67 76 64 77 66 78
REMARK SMILES IDX 65 79 52 80 53 81 57 82 54 83 56 84 55 85
REMARK H PARENT 24 5 11 16 10 21 28 34 72 53 50 64
REMARK Flexibility Score: inf
ROOT
ATOM      1  C   UNL A   1      31.789  28.172  26.886  1.00  0.00     0.117 C 
ENDROOT
BRANCH   1   2
ATOM      2  N   UNL A   1      30.846  27.069  27.011  1.00  0.00    -0.356 N 
ATOM      3  C   UNL A   1      30.500  26.064  26.159  1.00  0.00     0.224 C 
ATOM      4  O   UNL A   1      29.730  25.211  26.617  1.00  0.00    -0.275 OA
ATOM      5  H   UNL A   1      30.369  27.046  27.872  1.00  0.00     0.163 HD
BRANCH   3   6
ATOM      6  C   UNL A   1      30.893  26.055  24.672  1.00  0.00     0.095 C 
ATOM      7  C   UNL A   1      32.303  25.428  24.483  1.00  0.00     0.097 C 
ATOM      8  C   UNL A   1      33.349  26.255  23.705  1.00  0.00     0.045 C 
ATOM      9  C   UNL A   1      32.910  27.485  22.949  1.00  0.00    -0.074 C 
ATOM     10  C   UNL A   1      30.671  27.385  23.965  1.00  0.00     0.045 C 
ATOM     11  C   UNL A   1      34.003  28.205  22.205  1.00  0.00     0.039 C 
ATOM     12  C   UNL A   1      31.659  27.960  23.020  1.00  0.00    -0.074 C 
ATOM     13  C   UNL A   1      31.151  29.186  22.299  1.00  0.00     0.039 C 
BRANCH   7  14
ATOM     14  C   UNL A   1      32.053  24.059  23.838  1.00  0.00     0.242 C 
ATOM     15  N   UNL A   1      31.380  23.102  24.571  1.00  0.00    -0.267 N 
ATOM     16  H   UNL A   1      30.857  22.426  24.081  1.00  0.00     0.191 HD
ATOM     17  O   UNL A   1      32.300  23.833  22.653  1.00  0.00    -0.273 OA
BRANCH  15  18
ATOM     18  N   UNL A   1      31.395  23.039  25.960  1.00  0.00    -0.263 N 
ATOM     19  C   UNL A   1      32.501  22.772  26.754  1.00  0.00     0.269 C 
ATOM     20  O   UNL A   1      32.376  22.788  27.979  1.00  0.00    -0.267 OA
ATOM     21  H   UNL A   1      30.541  23.199  26.424  1.00  0.00     0.191 HD
BRANCH  19  22
ATOM     22  C   UNL A   1      33.820  22.357  26.179  1.00  0.00     0.045 A 
ATOM     23  C   UNL A   1      36.088  22.778  25.418  1.00  0.00     0.119 A 
ATOM     24  C   UNL A   1      36.130  21.506  24.841  1.00  0.00     0.046 A 
ATOM     25  C   UNL A   1      34.957  23.175  26.138  1.00  0.00     0.060 A 
ATOM     26  C   UNL A   1      35.048  20.638  24.968  1.00  0.00     0.005 A 
ATOM     27  C   UNL A   1      33.894  21.068  25.623  1.00  0.00     0.014 A 
BRANCH  23  28
ATOM     28  O   UNL A   1      37.204  23.539  25.199  1.00  0.00    -0.497 OA
ATOM     29  C   UNL A   1      38.345  23.266  26.004  1.00  0.00     0.278 C 
ENDBRANCH  23  28
ENDBRANCH  19  22
ENDBRANCH  15  18
ENDBRANCH   7  14
ENDBRANCH   3   6
ENDBRANCH   1   2
BRANCH   1  30
ATOM     30  C   UNL A   1      33.241  27.761  26.937  1.00  0.00     0.042 C 
BRANCH  30  31
ATOM     31  C   UNL A   1      34.180  28.776  26.325  1.00  0.00     0.118 C 
BRANCH  31  32
ATOM     32  N   UNL A   1      33.877  30.145  26.729  1.00  0.00    -0.352 N 
ATOM     33  C   UNL A   1      34.502  30.961  27.640  1.00  0.00     0.251 C 
ATOM     34  H   UNL A   1      33.103  30.548  26.274  1.00  0.00     0.163 HD
ATOM     35  O   UNL A   1      33.975  32.019  27.980  1.00  0.00    -0.269 OA
BRANCH  33  36
ATOM     36  C   UNL A   1      35.788  30.550  28.241  1.00  0.00     0.039 A 
ATOM     37  C   UNL A   1      35.791  29.810  29.425  1.00  0.00     0.014 A 
ATOM     38  C   UNL A   1      36.992  30.876  27.620  1.00  0.00     0.014 A 
ATOM     39  C   UNL A   1      36.999  29.320  29.926  1.00  0.00     0.010 A 
ATOM     40  C   UNL A   1      38.167  30.267  28.032  1.00  0.00     0.010 A 
ATOM     41  C   UNL A   1      38.190  29.501  29.204  1.00  0.00    -0.014 A 
BRANCH  41  42
ATOM     42  C   UNL A   1      39.483  28.937  29.663  1.00  0.00     0.031 A 
ATOM     43  C   UNL A   1      40.315  29.696  30.664  1.00  0.00     0.074 A 
ATOM     44  C   UNL A   1      39.943  27.787  29.132  1.00  0.00     0.049 A 
ATOM     45  N   UNL A   1      41.508  29.421  31.125  1.00  0.00    -0.248 NA
ATOM     46  C   UNL A   1      39.747  30.951  31.189  1.00  0.00     0.031 C 
ATOM     47  C   UNL A   1      39.256  26.979  28.121  1.00  0.00     0.029 A 
ATOM     48  N   UNL A   1      41.106  27.099  29.368  1.00  0.00    -0.354 N 
ATOM     49  C   UNL A   1      41.835  30.474  31.972  1.00  0.00     0.074 A 
ATOM     50  C   UNL A   1      40.753  31.428  31.905  1.00  0.00     0.031 C 
ATOM     51  C   UNL A   1      39.988  25.884  27.860  1.00  0.00     0.029 A 
ATOM     52  C   UNL A   1      41.218  25.938  28.640  1.00  0.00     0.049 A 
ATOM     53  H   UNL A   1      41.796  27.408  29.999  1.00  0.00     0.167 HD
ATOM     54  C   UNL A   1      42.923  30.621  32.764  1.00  0.00     0.031 A 
ATOM     55  C   UNL A   1      42.205  25.023  28.605  1.00  0.00     0.031 A 
ATOM     56  C   UNL A   1      43.991  29.664  32.845  1.00  0.00     0.049 A 
ATOM     57  C   UNL A   1      43.416  25.223  29.474  1.00  0.00     0.074 A 
ATOM     58  C   UNL A   1      45.116  29.694  33.649  1.00  0.00     0.029 A 
ATOM     59  N   UNL A   1      44.063  28.502  32.093  1.00  0.00    -0.354 N 
ATOM     60  N   UNL A   1      43.679  26.193  30.318  1.00  0.00    -0.248 NA
ATOM     61  C   UNL A   1      44.463  24.195  29.392  1.00  0.00     0.031 C 
ATOM     62  C   UNL A   1      45.897  28.574  33.345  1.00  0.00     0.029 A 
ATOM     63  C   UNL A   1      45.225  27.816  32.398  1.00  0.00     0.049 A 
ATOM     64  H   UNL A   1      43.389  28.208  31.439  1.00  0.00     0.167 HD
ATOM     65  C   UNL A   1      44.903  25.873  30.892  1.00  0.00     0.074 A 
ATOM     66  C   UNL A   1      45.321  24.612  30.313  1.00  0.00     0.031 C 
ATOM     67  C   UNL A   1      45.619  26.560  31.816  1.00  0.00     0.031 A 
BRANCH  54  68
ATOM     68  C   UNL A   1      43.001  31.864  33.608  1.00  0.00    -0.014 A 
ATOM     69  C   UNL A   1      43.651  33.021  33.143  1.00  0.00     0.009 A 
ATOM     70  C   UNL A   1      42.395  31.891  34.873  1.00  0.00     0.009 A 
ATOM     71  C   UNL A   1      43.726  34.162  33.943  1.00  0.00     0.001 A 
ATOM     72  C   UNL A   1      42.442  33.045  35.657  1.00  0.00     0.001 A 
ATOM     73  C   UNL A   1      43.118  34.175  35.197  1.00  0.00     0.000 A 
ENDBRANCH  54  68
BRANCH  55  74
ATOM     74  C   UNL A   1      42.087  23.823  27.735  1.00  0.00    -0.014 A 
ATOM     75  C   UNL A   1      42.548  23.857  26.409  1.00  0.00     0.009 A 
ATOM     76  C   UNL A   1      41.495  22.644  28.213  1.00  0.00     0.009 A 
ATOM     77  C   UNL A   1      42.386  22.752  25.572  1.00  0.00     0.001 A 
ATOM     78  C   UNL A   1      41.363  21.528  27.383  1.00  0.00     0.001 A 
ATOM     79  C   UNL A   1      41.796  21.588  26.060  1.00  0.00     0.000 A 
ENDBRANCH  55  74
BRANCH  67  80
ATOM     80  C   UNL A   1      46.902  25.939  32.291  1.00  0.00    -0.014 A 
ATOM     81  C   UNL A   1      48.122  26.189  31.646  1.00  0.00     0.009 A 
ATOM     82  C   UNL A   1      46.891  25.123  33.434  1.00  0.00     0.009 A 
ATOM     83  C   UNL A   1      49.300  25.604  32.112  1.00  0.00     0.001 A 
ATOM     84  C   UNL A   1      48.076  24.566  33.919  1.00  0.00     0.001 A 
ATOM     85  C   UNL A   1      49.277  24.799  33.251  1.00  0.00     0.000 A 
ENDBRANCH  67  80
ENDBRANCH  41  42
ENDBRANCH  33  36
ENDBRANCH  31  32
ENDBRANCH  30  31
ENDBRANCH   1  30
TORSDOF 14
ENDMDL
