MODEL 1
REMARK VINA RESULT:     -12.0      0.000      0.000
REMARK SMILES CC(C)CSc1cc2c(cc1Cl)C=C(C(=O)NCCCNC(=O)c1ccc(-c3c4nc(c(-c5ccccc5)c5ccc([nH]5)c(-c5ccccc5)c5nc(c(-c6ccccc6)c6ccc3[nH]6)C=C5)C=C4)cc1)[C@H](C(F)(F)F)O2
REMARK SMILES IDX 18 1 17 2 15 3 16 4 14 6 6 7 7 8 11 9 8 10 10 11 12 12 9 13
REMARK SMILES IDX 77 14 13 15 72 16 5 17 4 18 2 19 1 20 3 21 73 22 74 23 75 24
REMARK SMILES IDX 76 25 19 26 20 27 21 28 22 29 23 31 24 32 25 33 71 34 26 35
REMARK SMILES IDX 70 36 27 37 28 38 29 39 64 40 30 41 69 42 63 43 65 44 31 45
REMARK SMILES IDX 68 46 62 47 61 48 32 50 54 51 39 52 53 53 40 54 43 55 52 56
REMARK SMILES IDX 66 57 41 58 42 59 51 61 67 62 44 63 33 64 34 65 38 66 35 67
REMARK SMILES IDX 37 68 36 69 55 70 56 71 60 72 57 73 59 74 58 75 45 76 46 77
REMARK SMILES IDX 50 78 47 79 49 80 48 81
REMARK H PARENT 17 5 21 30 65 49 43 60
REMARK Flexibility Score: inf
ROOT
ATOM      1  C   UNL A   1      31.521  30.761  26.269  1.00  0.00     0.118 C 
ENDROOT
BRANCH   1   2
ATOM      2  N   UNL A   1      31.224  30.413  24.887  1.00  0.00    -0.352 N 
ATOM      3  C   UNL A   1      31.256  29.305  24.111  1.00  0.00     0.251 C 
ATOM      4  O   UNL A   1      30.799  29.445  22.974  1.00  0.00    -0.270 OA
ATOM      5  H   UNL A   1      30.915  31.197  24.379  1.00  0.00     0.163 HD
BRANCH   3   6
ATOM      6  C   UNL A   1      31.798  27.979  24.526  1.00  0.00     0.067 C 
ATOM      7  C   UNL A   1      32.322  23.336  26.439  1.00  0.00     0.030 A 
ATOM      8  C   UNL A   1      33.184  24.258  25.834  1.00  0.00     0.063 A 
ATOM      9  C   UNL A   1      30.960  23.659  26.547  1.00  0.00     0.055 A 
ATOM     10  C   UNL A   1      32.716  25.502  25.424  1.00  0.00     0.129 A 
ATOM     11  C   UNL A   1      30.491  24.913  26.125  1.00  0.00     0.033 A 
ATOM     12  Cl  UNL A   1      29.790  22.556  27.183  1.00  0.00    -0.083 Cl
ATOM     13  C   UNL A   1      31.376  25.848  25.579  1.00  0.00     0.019 A 
ATOM     14  O   UNL A   1      33.654  26.365  24.940  1.00  0.00    -0.475 OA
ATOM     15  C   UNL A   1      30.943  27.188  25.202  1.00  0.00     0.025 C 
ATOM     16  C   UNL A   1      33.159  27.468  24.137  1.00  0.00     0.314 C 
BRANCH   7  17
ATOM     17  S   UNL A   1      33.091  21.834  27.027  1.00  0.00    -0.124 SA
BRANCH  17  18
ATOM     18  C   UNL A   1      34.836  22.093  26.531  1.00  0.00     0.078 C 
BRANCH  18  19
ATOM     19  C   UNL A   1      35.367  21.196  25.394  1.00  0.00    -0.007 C 
ATOM     20  C   UNL A   1      34.306  20.284  24.775  1.00  0.00     0.008 C 
ATOM     21  C   UNL A   1      35.940  22.091  24.287  1.00  0.00     0.008 C 
ENDBRANCH  18  19
ENDBRANCH  17  18
ENDBRANCH   7  17
BRANCH  16  22
ATOM     22  C   UNL A   1      33.280  27.116  22.646  1.00  0.00     0.429 C 
ATOM     23  F   UNL A   1      33.807  28.124  21.914  1.00  0.00    -0.167 F 
ATOM     24  F   UNL A   1      34.103  26.048  22.487  1.00  0.00    -0.167 F 
ATOM     25  F   UNL A   1      32.093  26.800  22.085  1.00  0.00    -0.167 F 
ENDBRANCH  16  22
ENDBRANCH   3   6
ENDBRANCH   1   2
BRANCH   1  26
ATOM     26  C   UNL A   1      31.384  32.259  26.521  1.00  0.00     0.042 C 
BRANCH  26  27
ATOM     27  C   UNL A   1      32.571  32.836  27.283  1.00  0.00     0.118 C 
BRANCH  27  28
ATOM     28  N   UNL A   1      32.374  34.241  27.621  1.00  0.00    -0.352 N 
ATOM     29  C   UNL A   1      32.978  35.017  28.583  1.00  0.00     0.251 C 
ATOM     30  H   UNL A   1      31.701  34.708  27.073  1.00  0.00     0.163 HD
ATOM     31  O   UNL A   1      32.502  36.109  28.871  1.00  0.00    -0.269 OA
BRANCH  29  32
ATOM     32  C   UNL A   1      34.184  34.526  29.286  1.00  0.00     0.039 A 
ATOM     33  C   UNL A   1      35.444  34.649  28.701  1.00  0.00     0.014 A 
ATOM     34  C   UNL A   1      34.057  33.942  30.549  1.00  0.00     0.014 A 
ATOM     35  C   UNL A   1      36.532  34.005  29.272  1.00  0.00     0.010 A 
ATOM     36  C   UNL A   1      35.182  33.400  31.182  1.00  0.00     0.010 A 
ATOM     37  C   UNL A   1      36.421  33.378  30.524  1.00  0.00    -0.014 A 
BRANCH  37  38
ATOM     38  C   UNL A   1      37.620  32.728  31.118  1.00  0.00     0.031 A 
ATOM     39  C   UNL A   1      38.171  33.178  32.445  1.00  0.00     0.074 A 
ATOM     40  C   UNL A   1      38.172  31.674  30.484  1.00  0.00     0.049 A 
ATOM     41  N   UNL A   1      39.176  32.685  33.125  1.00  0.00    -0.248 NA
ATOM     42  C   UNL A   1      37.519  34.327  33.095  1.00  0.00     0.031 C 
ATOM     43  C   UNL A   1      37.717  31.133  29.200  1.00  0.00     0.029 A 
ATOM     44  N   UNL A   1      39.206  30.846  30.843  1.00  0.00    -0.354 N 
ATOM     45  C   UNL A   1      39.287  33.471  34.266  1.00  0.00     0.074 A 
ATOM     46  C   UNL A   1      38.273  34.497  34.173  1.00  0.00     0.031 C 
ATOM     47  C   UNL A   1      38.413  30.023  28.919  1.00  0.00     0.029 A 
ATOM     48  C   UNL A   1      39.422  29.821  29.952  1.00  0.00     0.049 A 
ATOM     49  H   UNL A   1      39.741  30.973  31.659  1.00  0.00     0.167 HD
ATOM     50  C   UNL A   1      40.148  33.339  35.302  1.00  0.00     0.031 A 
ATOM     51  C   UNL A   1      40.336  28.831  29.949  1.00  0.00     0.031 A 
ATOM     52  C   UNL A   1      41.147  32.305  35.396  1.00  0.00     0.049 A 
ATOM     53  C   UNL A   1      41.314  28.740  31.086  1.00  0.00     0.074 A 
ATOM     54  C   UNL A   1      42.047  32.075  36.423  1.00  0.00     0.029 A 
ATOM     55  N   UNL A   1      41.378  31.331  34.436  1.00  0.00    -0.354 N 
ATOM     56  N   UNL A   1      41.390  29.480  32.165  1.00  0.00    -0.248 NA
ATOM     57  C   UNL A   1      42.328  27.681  31.007  1.00  0.00     0.031 C 
ATOM     58  C   UNL A   1      42.873  31.015  36.050  1.00  0.00     0.029 A 
ATOM     59  C   UNL A   1      42.431  30.523  34.832  1.00  0.00     0.049 A 
ATOM     60  H   UNL A   1      40.869  31.228  33.599  1.00  0.00     0.167 HD
ATOM     61  C   UNL A   1      42.448  28.967  32.903  1.00  0.00     0.074 A 
ATOM     62  C   UNL A   1      42.966  27.837  32.160  1.00  0.00     0.031 C 
ATOM     63  C   UNL A   1      42.945  29.400  34.087  1.00  0.00     0.031 A 
BRANCH  50  64
ATOM     64  C   UNL A   1      40.073  34.335  36.430  1.00  0.00    -0.014 A 
ATOM     65  C   UNL A   1      39.278  34.054  37.554  1.00  0.00     0.009 A 
ATOM     66  C   UNL A   1      40.686  35.594  36.334  1.00  0.00     0.009 A 
ATOM     67  C   UNL A   1      39.077  35.018  38.544  1.00  0.00     0.001 A 
ATOM     68  C   UNL A   1      40.510  36.545  37.343  1.00  0.00     0.001 A 
ATOM     69  C   UNL A   1      39.697  36.261  38.439  1.00  0.00     0.000 A 
ENDBRANCH  50  64
BRANCH  51  70
ATOM     70  C   UNL A   1      40.348  27.853  28.828  1.00  0.00    -0.014 A 
ATOM     71  C   UNL A   1      41.043  28.137  27.639  1.00  0.00     0.009 A 
ATOM     72  C   UNL A   1      39.610  26.664  28.908  1.00  0.00     0.009 A 
ATOM     73  C   UNL A   1      40.966  27.275  26.544  1.00  0.00     0.001 A 
ATOM     74  C   UNL A   1      39.567  25.782  27.824  1.00  0.00     0.001 A 
ATOM     75  C   UNL A   1      40.232  26.095  26.639  1.00  0.00     0.000 A 
ENDBRANCH  51  70
BRANCH  63  76
ATOM     76  C   UNL A   1      44.108  28.653  34.681  1.00  0.00    -0.014 A 
ATOM     77  C   UNL A   1      45.410  28.909  34.219  1.00  0.00     0.009 A 
ATOM     78  C   UNL A   1      43.910  27.622  35.611  1.00  0.00     0.009 A 
ATOM     79  C   UNL A   1      46.485  28.132  34.655  1.00  0.00     0.001 A 
ATOM     80  C   UNL A   1      44.993  26.871  36.075  1.00  0.00     0.001 A 
ATOM     81  C   UNL A   1      46.275  27.118  35.587  1.00  0.00     0.000 A 
ENDBRANCH  63  76
ENDBRANCH  37  38
ENDBRANCH  29  32
ENDBRANCH  27  28
ENDBRANCH  26  27
ENDBRANCH   1  26
TORSDOF 14
ENDMDL
MODEL 2
REMARK VINA RESULT:     -12.0      3.706      7.547
REMARK SMILES CC(C)CSc1cc2c(cc1Cl)C=C(C(=O)NCCCNC(=O)c1ccc(-c3c4nc(c(-c5ccccc5)c5ccc([nH]5)c(-c5ccccc5)c5nc(c(-c6ccccc6)c6ccc3[nH]6)C=C5)C=C4)cc1)[C@H](C(F)(F)F)O2
REMARK SMILES IDX 18 1 17 2 15 3 16 4 14 6 6 7 7 8 11 9 8 10 10 11 12 12 9 13
REMARK SMILES IDX 77 14 13 15 72 16 5 17 4 18 2 19 1 20 3 21 73 22 74 23 75 24
REMARK SMILES IDX 76 25 19 26 20 27 21 28 22 29 23 31 24 32 25 33 71 34 26 35
REMARK SMILES IDX 70 36 27 37 28 38 29 39 64 40 30 41 69 42 63 43 65 44 31 45
REMARK SMILES IDX 68 46 62 47 61 48 32 50 54 51 39 52 53 53 40 54 43 55 52 56
REMARK SMILES IDX 66 57 41 58 42 59 51 61 67 62 44 63 33 64 34 65 38 66 35 67
REMARK SMILES IDX 37 68 36 69 55 70 56 71 60 72 57 73 59 74 58 75 45 76 46 77
REMARK SMILES IDX 50 78 47 79 49 80 48 81
REMARK H PARENT 17 5 21 30 65 49 43 60
REMARK Flexibility Score: inf
ROOT
ATOM      1  C   UNL A   1      33.156  29.241  24.963  1.00  0.00     0.118 C 
ENDROOT
BRANCH   1   2
ATOM      2  N   UNL A   1      33.634  28.938  23.622  1.00  0.00    -0.352 N 
ATOM      3  C   UNL A   1      33.643  27.874  22.786  1.00  0.00     0.251 C 
ATOM      4  O   UNL A   1      34.076  28.099  21.653  1.00  0.00    -0.270 OA
ATOM      5  H   UNL A   1      34.068  29.720  23.211  1.00  0.00     0.163 HD
BRANCH   3   6
ATOM      6  C   UNL A   1      33.189  26.498  23.139  1.00  0.00     0.067 C 
ATOM      7  C   UNL A   1      32.929  21.787  24.935  1.00  0.00     0.030 A 
ATOM      8  C   UNL A   1      32.104  22.585  24.134  1.00  0.00     0.063 A 
ATOM      9  C   UNL A   1      34.110  22.345  25.452  1.00  0.00     0.055 A 
ATOM     10  C   UNL A   1      32.488  23.878  23.791  1.00  0.00     0.129 A 
ATOM     11  C   UNL A   1      34.487  23.652  25.108  1.00  0.00     0.033 A 
ATOM     12  Cl  UNL A   1      35.150  21.484  26.532  1.00  0.00    -0.083 Cl
ATOM     13  C   UNL A   1      33.683  24.417  24.257  1.00  0.00     0.019 A 
ATOM     14  O   UNL A   1      31.664  24.536  22.926  1.00  0.00    -0.475 OA
ATOM     15  C   UNL A   1      34.080  25.748  23.815  1.00  0.00     0.025 C 
ATOM     16  C   UNL A   1      31.799  25.981  22.884  1.00  0.00     0.314 C 
BRANCH   7  17
ATOM     17  S   UNL A   1      32.367  20.110  25.187  1.00  0.00    -0.124 SA
BRANCH  17  18
ATOM     18  C   UNL A   1      33.527  19.167  24.126  1.00  0.00     0.078 C 
BRANCH  18  19
ATOM     19  C   UNL A   1      32.963  17.901  23.448  1.00  0.00    -0.007 C 
ATOM     20  C   UNL A   1      32.344  18.157  22.072  1.00  0.00     0.008 C 
ATOM     21  C   UNL A   1      34.099  16.883  23.284  1.00  0.00     0.008 C 
ENDBRANCH  18  19
ENDBRANCH  17  18
ENDBRANCH   7  17
BRANCH  16  22
ATOM     22  C   UNL A   1      30.730  26.626  23.778  1.00  0.00     0.429 C 
ATOM     23  F   UNL A   1      30.339  27.841  23.331  1.00  0.00    -0.167 F 
ATOM     24  F   UNL A   1      29.618  25.846  23.808  1.00  0.00    -0.167 F 
ATOM     25  F   UNL A   1      31.142  26.789  25.053  1.00  0.00    -0.167 F 
ENDBRANCH  16  22
ENDBRANCH   3   6
ENDBRANCH   1   2
BRANCH   1  26
ATOM     26  C   UNL A   1      34.004  28.566  26.036  1.00  0.00     0.042 C 
BRANCH  26  27
ATOM     27  C   UNL A   1      33.483  28.826  27.444  1.00  0.00     0.118 C 
BRANCH  27  28
ATOM     28  N   UNL A   1      33.599  30.231  27.820  1.00  0.00    -0.352 N 
ATOM     29  C   UNL A   1      34.626  30.903  28.442  1.00  0.00     0.251 C 
ATOM     30  H   UNL A   1      32.817  30.786  27.593  1.00  0.00     0.163 HD
ATOM     31  O   UNL A   1      34.434  32.027  28.890  1.00  0.00    -0.269 OA
BRANCH  29  32
ATOM     32  C   UNL A   1      35.951  30.263  28.592  1.00  0.00     0.039 A 
ATOM     33  C   UNL A   1      36.308  29.646  29.790  1.00  0.00     0.014 A 
ATOM     34  C   UNL A   1      36.848  30.271  27.520  1.00  0.00     0.014 A 
ATOM     35  C   UNL A   1      37.618  29.234  29.989  1.00  0.00     0.010 A 
ATOM     36  C   UNL A   1      38.133  29.742  27.683  1.00  0.00     0.010 A 
ATOM     37  C   UNL A   1      38.548  29.268  28.937  1.00  0.00    -0.014 A 
BRANCH  37  38
ATOM     38  C   UNL A   1      39.935  28.786  29.180  1.00  0.00     0.031 A 
ATOM     39  C   UNL A   1      40.371  27.417  28.731  1.00  0.00     0.074 A 
ATOM     40  C   UNL A   1      40.826  29.621  29.751  1.00  0.00     0.049 A 
ATOM     41  N   UNL A   1      41.556  26.864  28.820  1.00  0.00    -0.248 NA
ATOM     42  C   UNL A   1      39.357  26.553  28.104  1.00  0.00     0.031 C 
ATOM     43  C   UNL A   1      40.527  30.980  30.213  1.00  0.00     0.029 A 
ATOM     44  N   UNL A   1      42.166  29.474  30.005  1.00  0.00    -0.354 N 
ATOM     45  C   UNL A   1      41.423  25.589  28.282  1.00  0.00     0.074 A 
ATOM     46  C   UNL A   1      40.038  25.433  27.900  1.00  0.00     0.031 C 
ATOM     47  C   UNL A   1      41.661  31.565  30.620  1.00  0.00     0.029 A 
ATOM     48  C   UNL A   1      42.752  30.601  30.534  1.00  0.00     0.049 A 
ATOM     49  H   UNL A   1      42.661  28.642  29.827  1.00  0.00     0.167 HD
ATOM     50  C   UNL A   1      42.375  24.642  28.109  1.00  0.00     0.031 A 
ATOM     51  C   UNL A   1      44.019  30.838  30.922  1.00  0.00     0.031 A 
ATOM     52  C   UNL A   1      43.758  24.810  28.476  1.00  0.00     0.049 A 
ATOM     53  C   UNL A   1      45.043  29.750  30.768  1.00  0.00     0.074 A 
ATOM     54  C   UNL A   1      44.801  23.914  28.313  1.00  0.00     0.029 A 
ATOM     55  N   UNL A   1      44.292  25.940  29.076  1.00  0.00    -0.354 N 
ATOM     56  N   UNL A   1      44.904  28.559  30.238  1.00  0.00    -0.248 NA
ATOM     57  C   UNL A   1      46.397  30.036  31.261  1.00  0.00     0.031 C 
ATOM     58  C   UNL A   1      45.946  24.469  28.885  1.00  0.00     0.029 A 
ATOM     59  C   UNL A   1      45.641  25.748  29.322  1.00  0.00     0.049 A 
ATOM     60  H   UNL A   1      43.787  26.758  29.292  1.00  0.00     0.167 HD
ATOM     61  C   UNL A   1      46.153  27.959  30.317  1.00  0.00     0.074 A 
ATOM     62  C   UNL A   1      47.043  28.928  30.923  1.00  0.00     0.031 C 
ATOM     63  C   UNL A   1      46.522  26.715  29.927  1.00  0.00     0.031 A 
BRANCH  50  64
ATOM     64  C   UNL A   1      41.973  23.322  27.503  1.00  0.00    -0.014 A 
ATOM     65  C   UNL A   1      41.457  22.307  28.327  1.00  0.00     0.009 A 
ATOM     66  C   UNL A   1      42.211  23.037  26.150  1.00  0.00     0.009 A 
ATOM     67  C   UNL A   1      41.212  21.031  27.817  1.00  0.00     0.001 A 
ATOM     68  C   UNL A   1      41.934  21.768  25.634  1.00  0.00     0.001 A 
ATOM     69  C   UNL A   1      41.448  20.763  26.470  1.00  0.00     0.000 A 
ENDBRANCH  50  64
BRANCH  51  70
ATOM     70  C   UNL A   1      44.372  32.170  31.485  1.00  0.00    -0.014 A 
ATOM     71  C   UNL A   1      44.925  33.169  30.664  1.00  0.00     0.009 A 
ATOM     72  C   UNL A   1      44.225  32.429  32.855  1.00  0.00     0.009 A 
ATOM     73  C   UNL A   1      45.360  34.378  31.208  1.00  0.00     0.001 A 
ATOM     74  C   UNL A   1      44.624  33.656  33.390  1.00  0.00     0.001 A 
ATOM     75  C   UNL A   1      45.205  34.623  32.570  1.00  0.00     0.000 A 
ENDBRANCH  51  70
BRANCH  63  76
ATOM     76  C   UNL A   1      47.959  26.311  30.124  1.00  0.00    -0.014 A 
ATOM     77  C   UNL A   1      48.380  25.818  31.371  1.00  0.00     0.009 A 
ATOM     78  C   UNL A   1      48.916  26.520  29.120  1.00  0.00     0.009 A 
ATOM     79  C   UNL A   1      49.731  25.568  31.617  1.00  0.00     0.001 A 
ATOM     80  C   UNL A   1      50.262  26.232  29.357  1.00  0.00     0.001 A 
ATOM     81  C   UNL A   1      50.669  25.770  30.608  1.00  0.00     0.000 A 
ENDBRANCH  63  76
ENDBRANCH  37  38
ENDBRANCH  29  32
ENDBRANCH  27  28
ENDBRANCH  26  27
ENDBRANCH   1  26
TORSDOF 14
ENDMDL
MODEL 3
REMARK VINA RESULT:     -11.9      4.763      9.620
REMARK SMILES CC(C)CSc1cc2c(cc1Cl)C=C(C(=O)NCCCNC(=O)c1ccc(-c3c4nc(c(-c5ccccc5)c5ccc([nH]5)c(-c5ccccc5)c5nc(c(-c6ccccc6)c6ccc3[nH]6)C=C5)C=C4)cc1)[C@H](C(F)(F)F)O2
REMARK SMILES IDX 18 1 17 2 15 3 16 4 14 6 6 7 7 8 11 9 8 10 10 11 12 12 9 13
REMARK SMILES IDX 77 14 13 15 72 16 5 17 4 18 2 19 1 20 3 21 73 22 74 23 75 24
REMARK SMILES IDX 76 25 19 26 20 27 21 28 22 29 23 31 24 32 25 33 71 34 26 35
REMARK SMILES IDX 70 36 27 37 28 38 29 39 64 40 30 41 69 42 63 43 65 44 31 45
REMARK SMILES IDX 68 46 62 47 61 48 32 50 54 51 39 52 53 53 40 54 43 55 52 56
REMARK SMILES IDX 66 57 41 58 42 59 51 61 67 62 44 63 33 64 34 65 38 66 35 67
REMARK SMILES IDX 37 68 36 69 55 70 56 71 60 72 57 73 59 74 58 75 45 76 46 77
REMARK SMILES IDX 50 78 47 79 49 80 48 81
REMARK H PARENT 17 5 21 30 65 49 43 60
REMARK Flexibility Score: inf
ROOT
ATOM      1  C   UNL A   1      36.248  21.224  25.034  1.00  0.00     0.118 C 
ENDROOT
BRANCH   1   2
ATOM      2  N   UNL A   1      35.448  21.350  26.243  1.00  0.00    -0.352 N 
ATOM      3  C   UNL A   1      34.288  21.943  26.611  1.00  0.00     0.251 C 
ATOM      4  O   UNL A   1      33.912  21.694  27.760  1.00  0.00    -0.270 OA
ATOM      5  H   UNL A   1      35.863  20.875  26.999  1.00  0.00     0.163 HD
BRANCH   3   6
ATOM      6  C   UNL A   1      33.474  22.850  25.752  1.00  0.00     0.067 C 
ATOM      7  C   UNL A   1      31.679  26.865  23.273  1.00  0.00     0.030 A 
ATOM      8  C   UNL A   1      31.252  25.545  23.454  1.00  0.00     0.063 A 
ATOM      9  C   UNL A   1      32.907  27.258  23.831  1.00  0.00     0.055 A 
ATOM     10  C   UNL A   1      31.989  24.664  24.241  1.00  0.00     0.129 A 
ATOM     11  C   UNL A   1      33.649  26.364  24.617  1.00  0.00     0.033 A 
ATOM     12  Cl  UNL A   1      33.578  28.833  23.584  1.00  0.00    -0.083 Cl
ATOM     13  C   UNL A   1      33.179  25.066  24.841  1.00  0.00     0.019 A 
ATOM     14  O   UNL A   1      31.437  23.432  24.437  1.00  0.00    -0.475 OA
ATOM     15  C   UNL A   1      33.881  24.133  25.714  1.00  0.00     0.025 C 
ATOM     16  C   UNL A   1      32.342  22.386  24.877  1.00  0.00     0.314 C 
BRANCH   7  17
ATOM     17  S   UNL A   1      30.569  27.913  22.345  1.00  0.00    -0.124 SA
BRANCH  17  18
ATOM     18  C   UNL A   1      29.937  29.032  23.652  1.00  0.00     0.078 C 
BRANCH  18  19
ATOM     19  C   UNL A   1      28.878  30.066  23.218  1.00  0.00    -0.007 C 
ATOM     20  C   UNL A   1      29.219  30.794  21.915  1.00  0.00     0.008 C 
ATOM     21  C   UNL A   1      27.535  29.348  23.031  1.00  0.00     0.008 C 
ENDBRANCH  18  19
ENDBRANCH  17  18
ENDBRANCH   7  17
BRANCH  16  22
ATOM     22  C   UNL A   1      32.799  21.556  23.669  1.00  0.00     0.429 C 
ATOM     23  F   UNL A   1      33.166  20.300  24.008  1.00  0.00    -0.167 F 
ATOM     24  F   UNL A   1      31.782  21.437  22.776  1.00  0.00    -0.167 F 
ATOM     25  F   UNL A   1      33.844  22.111  23.018  1.00  0.00    -0.167 F 
ENDBRANCH  16  22
ENDBRANCH   3   6
ENDBRANCH   1   2
BRANCH   1  26
ATOM     26  C   UNL A   1      37.309  20.136  25.164  1.00  0.00     0.042 C 
BRANCH  26  27
ATOM     27  C   UNL A   1      38.700  20.700  25.422  1.00  0.00     0.118 C 
BRANCH  27  28
ATOM     28  N   UNL A   1      39.692  19.647  25.608  1.00  0.00    -0.352 N 
ATOM     29  C   UNL A   1      41.006  19.724  26.009  1.00  0.00     0.251 C 
ATOM     30  H   UNL A   1      39.370  18.736  25.415  1.00  0.00     0.163 HD
ATOM     31  O   UNL A   1      41.743  18.755  25.869  1.00  0.00    -0.269 OA
BRANCH  29  32
ATOM     32  C   UNL A   1      41.536  20.980  26.585  1.00  0.00     0.039 A 
ATOM     33  C   UNL A   1      41.526  21.186  27.964  1.00  0.00     0.014 A 
ATOM     34  C   UNL A   1      42.056  21.963  25.739  1.00  0.00     0.014 A 
ATOM     35  C   UNL A   1      41.831  22.439  28.474  1.00  0.00     0.010 A 
ATOM     36  C   UNL A   1      42.481  23.185  26.270  1.00  0.00     0.010 A 
ATOM     37  C   UNL A   1      42.321  23.456  27.638  1.00  0.00    -0.014 A 
BRANCH  37  38
ATOM     38  C   UNL A   1      42.669  24.776  28.229  1.00  0.00     0.031 A 
ATOM     39  C   UNL A   1      44.096  25.132  28.548  1.00  0.00     0.074 A 
ATOM     40  C   UNL A   1      41.692  25.687  28.413  1.00  0.00     0.049 A 
ATOM     41  N   UNL A   1      44.575  26.258  29.018  1.00  0.00    -0.248 NA
ATOM     42  C   UNL A   1      45.120  24.101  28.316  1.00  0.00     0.031 C 
ATOM     43  C   UNL A   1      40.272  25.466  28.125  1.00  0.00     0.029 A 
ATOM     44  N   UNL A   1      41.741  26.988  28.846  1.00  0.00    -0.354 N 
ATOM     45  C   UNL A   1      45.944  26.063  29.155  1.00  0.00     0.074 A 
ATOM     46  C   UNL A   1      46.219  24.702  28.753  1.00  0.00     0.031 C 
ATOM     47  C   UNL A   1      39.601  26.609  28.314  1.00  0.00     0.029 A 
ATOM     48  C   UNL A   1      40.521  27.621  28.821  1.00  0.00     0.049 A 
ATOM     49  H   UNL A   1      42.570  27.425  29.147  1.00  0.00     0.167 HD
ATOM     50  C   UNL A   1      46.886  26.945  29.564  1.00  0.00     0.031 A 
ATOM     51  C   UNL A   1      40.167  28.871  29.176  1.00  0.00     0.031 A 
ATOM     52  C   UNL A   1      46.607  28.305  29.947  1.00  0.00     0.049 A 
ATOM     53  C   UNL A   1      41.225  29.812  29.678  1.00  0.00     0.074 A 
ATOM     54  C   UNL A   1      47.503  29.281  30.350  1.00  0.00     0.029 A 
ATOM     55  N   UNL A   1      45.347  28.883  29.976  1.00  0.00    -0.354 N 
ATOM     56  N   UNL A   1      42.517  29.616  29.781  1.00  0.00    -0.248 NA
ATOM     57  C   UNL A   1      40.780  31.144  30.110  1.00  0.00     0.031 C 
ATOM     58  C   UNL A   1      46.778  30.421  30.698  1.00  0.00     0.029 A 
ATOM     59  C   UNL A   1      45.439  30.190  30.425  1.00  0.00     0.049 A 
ATOM     60  H   UNL A   1      44.511  28.431  29.715  1.00  0.00     0.167 HD
ATOM     61  C   UNL A   1      43.043  30.803  30.272  1.00  0.00     0.074 A 
ATOM     62  C   UNL A   1      41.933  31.721  30.422  1.00  0.00     0.031 C 
ATOM     63  C   UNL A   1      44.331  31.099  30.575  1.00  0.00     0.031 A 
BRANCH  50  64
ATOM     64  C   UNL A   1      48.318  26.483  29.636  1.00  0.00    -0.014 A 
ATOM     65  C   UNL A   1      48.806  25.911  30.823  1.00  0.00     0.009 A 
ATOM     66  C   UNL A   1      49.215  26.719  28.582  1.00  0.00     0.009 A 
ATOM     67  C   UNL A   1      50.162  25.608  30.964  1.00  0.00     0.001 A 
ATOM     68  C   UNL A   1      50.565  26.383  28.713  1.00  0.00     0.001 A 
ATOM     69  C   UNL A   1      51.040  25.841  29.907  1.00  0.00     0.000 A 
ENDBRANCH  50  64
BRANCH  51  70
ATOM     70  C   UNL A   1      38.743  29.288  29.057  1.00  0.00    -0.014 A 
ATOM     71  C   UNL A   1      37.874  29.185  30.157  1.00  0.00     0.009 A 
ATOM     72  C   UNL A   1      38.226  29.724  27.829  1.00  0.00     0.009 A 
ATOM     73  C   UNL A   1      36.514  29.469  30.021  1.00  0.00     0.001 A 
ATOM     74  C   UNL A   1      36.872  30.045  27.705  1.00  0.00     0.001 A 
ATOM     75  C   UNL A   1      36.015  29.904  28.796  1.00  0.00     0.000 A 
ENDBRANCH  51  70
BRANCH  63  76
ATOM     76  C   UNL A   1      44.635  32.478  31.093  1.00  0.00    -0.014 A 
ATOM     77  C   UNL A   1      44.539  32.743  32.470  1.00  0.00     0.009 A 
ATOM     78  C   UNL A   1      44.907  33.540  30.216  1.00  0.00     0.009 A 
ATOM     79  C   UNL A   1      44.682  34.044  32.956  1.00  0.00     0.001 A 
ATOM     80  C   UNL A   1      45.087  34.834  30.710  1.00  0.00     0.001 A 
ATOM     81  C   UNL A   1      44.961  35.086  32.075  1.00  0.00     0.000 A 
ENDBRANCH  63  76
ENDBRANCH  37  38
ENDBRANCH  29  32
ENDBRANCH  27  28
ENDBRANCH  26  27
ENDBRANCH   1  26
TORSDOF 14
ENDMDL
