MODEL 1
REMARK VINA RESULT:      -9.6      0.000      0.000
REMARK SMILES C#CCN(CC(=O)NCCCNC(=O)c1ccc(-c2c3nc(c(-c4ccccc4)c4ccc([nH]4)c(-c4ccccc4)c4nc(c(-c5ccccc5)c5ccc2[nH]5)C=C4)C=C3)cc1)C(=O)N[C@@H]1CCOC1
REMARK SMILES IDX 9 1 8 2 6 3 7 4 5 6 4 7 3 8 2 9 1 10 63 11 64 12 65 13 66 15
REMARK SMILES IDX 67 16 70 17 68 18 69 19 10 20 11 21 12 22 13 23 14 25 15 26
REMARK SMILES IDX 16 27 62 28 17 29 61 30 18 31 19 32 20 33 55 34 21 35 60 36
REMARK SMILES IDX 54 37 56 38 22 39 59 40 53 41 52 42 23 44 45 45 30 46 44 47
REMARK SMILES IDX 31 48 34 49 43 50 57 51 32 52 33 53 42 55 58 56 35 57 24 58
REMARK SMILES IDX 25 59 29 60 26 61 28 62 27 63 46 64 47 65 51 66 48 67 50 68
REMARK SMILES IDX 49 69 36 70 37 71 41 72 38 73 40 74 39 75
REMARK H PARENT 8 5 65 14 12 24 56 43 34 54
REMARK Flexibility Score: inf
ROOT
ATOM      1  C   UNL A   1      31.434  30.812  26.284  1.00  0.00     0.117 C 
ENDROOT
BRANCH   1   2
ATOM      2  N   UNL A   1      30.974  30.444  24.961  1.00  0.00    -0.354 N 
ATOM      3  C   UNL A   1      31.039  29.255  24.302  1.00  0.00     0.239 C 
ATOM      4  O   UNL A   1      30.059  28.974  23.599  1.00  0.00    -0.273 OA
ATOM      5  H   UNL A   1      30.543  31.171  24.457  1.00  0.00     0.163 HD
BRANCH   3   6
ATOM      6  C   UNL A   1      32.155  28.204  24.486  1.00  0.00     0.222 C 
BRANCH   6   7
ATOM      7  N   UNL A   1      32.334  27.575  25.782  1.00  0.00    -0.304 N 
BRANCH   7   8
ATOM      8  C   UNL A   1      33.715  27.441  26.212  1.00  0.00     0.211 C 
BRANCH   8   9
ATOM      9  C   UNL A   1      34.308  28.692  26.841  1.00  0.00    -0.085 C 
ATOM     10  C   UNL A   1      34.817  29.764  27.380  1.00  0.00     0.006 C 
ENDBRANCH   8   9
ENDBRANCH   7   8
BRANCH   7  11
ATOM     11  C   UNL A   1      31.403  27.086  26.625  1.00  0.00     0.318 C 
ATOM     12  O   UNL A   1      31.040  27.744  27.611  1.00  0.00    -0.249 OA
ATOM     13  N   UNL A   1      30.790  25.912  26.567  1.00  0.00    -0.333 N 
ATOM     14  H   UNL A   1      30.270  25.846  27.399  1.00  0.00     0.165 HD
BRANCH  13  15
ATOM     15  C   UNL A   1      30.524  24.656  25.834  1.00  0.00     0.112 C 
ATOM     16  C   UNL A   1      31.288  23.566  26.591  1.00  0.00     0.056 C 
ATOM     17  C   UNL A   1      31.092  24.365  24.458  1.00  0.00     0.185 C 
ATOM     18  C   UNL A   1      32.679  23.698  25.990  1.00  0.00     0.162 C 
ATOM     19  O   UNL A   1      32.494  24.120  24.633  1.00  0.00    -0.379 OA
ENDBRANCH  13  15
ENDBRANCH   7  11
ENDBRANCH   6   7
ENDBRANCH   3   6
ENDBRANCH   1   2
BRANCH   1  20
ATOM     20  C   UNL A   1      31.370  32.302  26.601  1.00  0.00     0.042 C 
BRANCH  20  21
ATOM     21  C   UNL A   1      32.698  32.951  26.979  1.00  0.00     0.118 C 
BRANCH  21  22
ATOM     22  N   UNL A   1      32.541  34.120  27.830  1.00  0.00    -0.352 N 
ATOM     23  C   UNL A   1      33.212  34.568  28.937  1.00  0.00     0.251 C 
ATOM     24  H   UNL A   1      31.802  34.709  27.554  1.00  0.00     0.163 HD
ATOM     25  O   UNL A   1      32.720  35.503  29.567  1.00  0.00    -0.269 OA
BRANCH  23  26
ATOM     26  C   UNL A   1      34.494  33.987  29.411  1.00  0.00     0.039 A 
ATOM     27  C   UNL A   1      35.651  34.279  28.674  1.00  0.00     0.014 A 
ATOM     28  C   UNL A   1      34.577  33.072  30.462  1.00  0.00     0.014 A 
ATOM     29  C   UNL A   1      36.875  33.685  29.000  1.00  0.00     0.010 A 
ATOM     30  C   UNL A   1      35.813  32.529  30.832  1.00  0.00     0.010 A 
ATOM     31  C   UNL A   1      36.972  32.814  30.094  1.00  0.00    -0.014 A 
BRANCH  31  32
ATOM     32  C   UNL A   1      38.267  32.175  30.446  1.00  0.00     0.031 A 
ATOM     33  C   UNL A   1      39.203  32.829  31.430  1.00  0.00     0.074 A 
ATOM     34  C   UNL A   1      38.624  31.012  29.868  1.00  0.00     0.049 A 
ATOM     35  N   UNL A   1      40.386  32.436  31.831  1.00  0.00    -0.248 NA
ATOM     36  C   UNL A   1      38.756  34.097  32.028  1.00  0.00     0.031 C 
ATOM     37  C   UNL A   1      37.828  30.274  28.885  1.00  0.00     0.029 A 
ATOM     38  N   UNL A   1      39.751  30.245  30.026  1.00  0.00    -0.354 N 
ATOM     39  C   UNL A   1      40.833  33.417  32.709  1.00  0.00     0.074 A 
ATOM     40  C   UNL A   1      39.808  34.437  32.759  1.00  0.00     0.031 C 
ATOM     41  C   UNL A   1      38.480  29.150  28.547  1.00  0.00     0.029 A 
ATOM     42  C   UNL A   1      39.751  29.102  29.264  1.00  0.00     0.049 A 
ATOM     43  H   UNL A   1      40.490  30.490  30.629  1.00  0.00     0.167 HD
ATOM     44  C   UNL A   1      41.986  33.461  33.421  1.00  0.00     0.031 A 
ATOM     45  C   UNL A   1      40.670  28.125  29.151  1.00  0.00     0.031 A 
ATOM     46  C   UNL A   1      43.001  32.443  33.402  1.00  0.00     0.049 A 
ATOM     47  C   UNL A   1      41.939  28.197  29.951  1.00  0.00     0.074 A 
ATOM     48  C   UNL A   1      44.177  32.382  34.130  1.00  0.00     0.029 A 
ATOM     49  N   UNL A   1      42.959  31.303  32.616  1.00  0.00    -0.354 N 
ATOM     50  N   UNL A   1      42.325  29.112  30.804  1.00  0.00    -0.248 NA
ATOM     51  C   UNL A   1      42.893  27.092  29.775  1.00  0.00     0.031 C 
ATOM     52  C   UNL A   1      44.862  31.218  33.762  1.00  0.00     0.029 A 
ATOM     53  C   UNL A   1      44.094  30.540  32.830  1.00  0.00     0.049 A 
ATOM     54  H   UNL A   1      42.230  31.069  31.996  1.00  0.00     0.167 HD
ATOM     55  C   UNL A   1      43.557  28.686  31.281  1.00  0.00     0.074 A 
ATOM     56  C   UNL A   1      43.849  27.425  30.632  1.00  0.00     0.031 C 
ATOM     57  C   UNL A   1      44.375  29.289  32.178  1.00  0.00     0.031 A 
BRANCH  44  58
ATOM     58  C   UNL A   1      42.213  34.667  34.286  1.00  0.00    -0.014 A 
ATOM     59  C   UNL A   1      41.814  34.678  35.632  1.00  0.00     0.009 A 
ATOM     60  C   UNL A   1      42.865  35.792  33.760  1.00  0.00     0.009 A 
ATOM     61  C   UNL A   1      42.036  35.807  36.424  1.00  0.00     0.001 A 
ATOM     62  C   UNL A   1      43.105  36.911  34.560  1.00  0.00     0.001 A 
ATOM     63  C   UNL A   1      42.684  36.920  35.889  1.00  0.00     0.000 A 
ENDBRANCH  44  58
BRANCH  45  64
ATOM     64  C   UNL A   1      40.417  26.974  28.250  1.00  0.00    -0.014 A 
ATOM     65  C   UNL A   1      40.879  26.996  26.926  1.00  0.00     0.009 A 
ATOM     66  C   UNL A   1      39.709  25.852  28.708  1.00  0.00     0.009 A 
ATOM     67  C   UNL A   1      40.620  25.924  26.069  1.00  0.00     0.001 A 
ATOM     68  C   UNL A   1      39.470  24.773  27.854  1.00  0.00     0.001 A 
ATOM     69  C   UNL A   1      39.918  24.813  26.535  1.00  0.00     0.000 A 
ENDBRANCH  45  64
BRANCH  57  70
ATOM     70  C   UNL A   1      45.649  28.578  32.526  1.00  0.00    -0.014 A 
ATOM     71  C   UNL A   1      45.684  27.618  33.548  1.00  0.00     0.009 A 
ATOM     72  C   UNL A   1      46.821  28.854  31.806  1.00  0.00     0.009 A 
ATOM     73  C   UNL A   1      46.878  26.965  33.859  1.00  0.00     0.001 A 
ATOM     74  C   UNL A   1      48.008  28.186  32.107  1.00  0.00     0.001 A 
ATOM     75  C   UNL A   1      48.037  27.247  33.137  1.00  0.00     0.000 A 
ENDBRANCH  57  70
ENDBRANCH  31  32
ENDBRANCH  23  26
ENDBRANCH  21  22
ENDBRANCH  20  21
ENDBRANCH   1  20
TORSDOF 15
ENDMDL
MODEL 2
REMARK VINA RESULT:      -9.5      0.742      6.167
REMARK SMILES C#CCN(CC(=O)NCCCNC(=O)c1ccc(-c2c3nc(c(-c4ccccc4)c4ccc([nH]4)c(-c4ccccc4)c4nc(c(-c5ccccc5)c5ccc2[nH]5)C=C4)C=C3)cc1)C(=O)N[C@@H]1CCOC1
REMARK SMILES IDX 9 1 8 2 6 3 7 4 5 6 4 7 3 8 2 9 1 10 63 11 64 12 65 13 66 15
REMARK SMILES IDX 67 16 70 17 68 18 69 19 10 20 11 21 12 22 13 23 14 25 15 26
REMARK SMILES IDX 16 27 62 28 17 29 61 30 18 31 19 32 20 33 55 34 21 35 60 36
REMARK SMILES IDX 54 37 56 38 22 39 59 40 53 41 52 42 23 44 45 45 30 46 44 47
REMARK SMILES IDX 31 48 34 49 43 50 57 51 32 52 33 53 42 55 58 56 35 57 24 58
REMARK SMILES IDX 25 59 29 60 26 61 28 62 27 63 46 64 47 65 51 66 48 67 50 68
REMARK SMILES IDX 49 69 36 70 37 71 41 72 38 73 40 74 39 75
REMARK H PARENT 8 5 65 14 12 24 56 43 34 54
REMARK Flexibility Score: inf
ROOT
ATOM      1  C   UNL A   1      31.338  30.647  26.082  1.00  0.00     0.117 C 
ENDROOT
BRANCH   1   2
ATOM      2  N   UNL A   1      30.772  30.300  24.795  1.00  0.00    -0.354 N 
ATOM      3  C   UNL A   1      30.767  29.117  24.122  1.00  0.00     0.239 C 
ATOM      4  O   UNL A   1      29.732  28.859  23.493  1.00  0.00    -0.273 OA
ATOM      5  H   UNL A   1      30.316  31.039  24.333  1.00  0.00     0.163 HD
BRANCH   3   6
ATOM      6  C   UNL A   1      31.877  28.048  24.209  1.00  0.00     0.222 C 
BRANCH   6   7
ATOM      7  N   UNL A   1      32.204  27.465  25.497  1.00  0.00    -0.304 N 
BRANCH   7   8
ATOM      8  C   UNL A   1      33.623  27.399  25.798  1.00  0.00     0.211 C 
BRANCH   8   9
ATOM      9  C   UNL A   1      34.124  28.483  26.739  1.00  0.00    -0.085 C 
ATOM     10  C   UNL A   1      34.554  29.413  27.546  1.00  0.00     0.006 C 
ENDBRANCH   8   9
ENDBRANCH   7   8
BRANCH   7  11
ATOM     11  C   UNL A   1      31.378  26.964  26.438  1.00  0.00     0.318 C 
ATOM     12  O   UNL A   1      31.025  27.661  27.401  1.00  0.00    -0.249 OA
ATOM     13  N   UNL A   1      30.869  25.742  26.504  1.00  0.00    -0.333 N 
ATOM     14  H   UNL A   1      30.413  25.694  27.376  1.00  0.00     0.165 HD
BRANCH  13  15
ATOM     15  C   UNL A   1      30.666  24.417  25.881  1.00  0.00     0.112 C 
ATOM     16  C   UNL A   1      31.603  23.462  26.624  1.00  0.00     0.056 C 
ATOM     17  C   UNL A   1      31.131  24.085  24.475  1.00  0.00     0.185 C 
ATOM     18  C   UNL A   1      32.913  23.684  25.881  1.00  0.00     0.162 C 
ATOM     19  O   UNL A   1      32.561  23.989  24.525  1.00  0.00    -0.379 OA
ENDBRANCH  13  15
ENDBRANCH   7  11
ENDBRANCH   6   7
ENDBRANCH   3   6
ENDBRANCH   1   2
BRANCH   1  20
ATOM     20  C   UNL A   1      31.377  32.140  26.391  1.00  0.00     0.042 C 
BRANCH  20  21
ATOM     21  C   UNL A   1      32.686  32.655  26.982  1.00  0.00     0.118 C 
BRANCH  21  22
ATOM     22  N   UNL A   1      32.548  33.943  27.643  1.00  0.00    -0.352 N 
ATOM     23  C   UNL A   1      33.189  34.523  28.706  1.00  0.00     0.251 C 
ATOM     24  H   UNL A   1      31.850  34.513  27.247  1.00  0.00     0.163 HD
ATOM     25  O   UNL A   1      32.714  35.561  29.166  1.00  0.00    -0.269 OA
BRANCH  23  26
ATOM     26  C   UNL A   1      34.420  33.967  29.324  1.00  0.00     0.039 A 
ATOM     27  C   UNL A   1      35.641  34.225  28.685  1.00  0.00     0.014 A 
ATOM     28  C   UNL A   1      34.401  33.104  30.421  1.00  0.00     0.014 A 
ATOM     29  C   UNL A   1      36.828  33.649  29.153  1.00  0.00     0.010 A 
ATOM     30  C   UNL A   1      35.596  32.581  30.931  1.00  0.00     0.010 A 
ATOM     31  C   UNL A   1      36.819  32.832  30.292  1.00  0.00    -0.014 A 
BRANCH  31  32
ATOM     32  C   UNL A   1      38.075  32.213  30.793  1.00  0.00     0.031 A 
ATOM     33  C   UNL A   1      38.630  30.972  30.144  1.00  0.00     0.074 A 
ATOM     34  C   UNL A   1      38.715  32.751  31.849  1.00  0.00     0.049 A 
ATOM     35  N   UNL A   1      39.692  30.276  30.467  1.00  0.00    -0.248 NA
ATOM     36  C   UNL A   1      37.887  30.434  28.995  1.00  0.00     0.031 C 
ATOM     37  C   UNL A   1      38.284  33.939  32.587  1.00  0.00     0.029 A 
ATOM     38  N   UNL A   1      39.869  32.364  32.485  1.00  0.00    -0.354 N 
ATOM     39  C   UNL A   1      39.731  29.210  29.576  1.00  0.00     0.074 A 
ATOM     40  C   UNL A   1      38.571  29.333  28.720  1.00  0.00     0.031 C 
ATOM     41  C   UNL A   1      39.174  34.199  33.559  1.00  0.00     0.029 A 
ATOM     42  C   UNL A   1      40.220  33.180  33.532  1.00  0.00     0.049 A 
ATOM     43  H   UNL A   1      40.395  31.576  32.216  1.00  0.00     0.167 HD
ATOM     44  C   UNL A   1      40.654  28.223  29.468  1.00  0.00     0.031 A 
ATOM     45  C   UNL A   1      41.264  33.117  34.379  1.00  0.00     0.031 A 
ATOM     46  C   UNL A   1      41.826  28.103  30.295  1.00  0.00     0.049 A 
ATOM     47  C   UNL A   1      42.274  32.015  34.239  1.00  0.00     0.074 A 
ATOM     48  C   UNL A   1      42.841  27.163  30.222  1.00  0.00     0.029 A 
ATOM     49  N   UNL A   1      42.142  28.952  31.342  1.00  0.00    -0.354 N 
ATOM     50  N   UNL A   1      42.315  31.039  33.366  1.00  0.00    -0.248 NA
ATOM     51  C   UNL A   1      43.388  32.013  35.199  1.00  0.00     0.031 C 
ATOM     52  C   UNL A   1      43.757  27.427  31.247  1.00  0.00     0.029 A 
ATOM     53  C   UNL A   1      43.327  28.550  31.934  1.00  0.00     0.049 A 
ATOM     54  H   UNL A   1      41.603  29.726  31.625  1.00  0.00     0.167 HD
ATOM     55  C   UNL A   1      43.465  30.319  33.659  1.00  0.00     0.074 A 
ATOM     56  C   UNL A   1      44.100  30.975  34.782  1.00  0.00     0.031 C 
ATOM     57  C   UNL A   1      43.949  29.210  33.051  1.00  0.00     0.031 A 
BRANCH  44  58
ATOM     58  C   UNL A   1      40.427  27.181  28.411  1.00  0.00    -0.014 A 
ATOM     59  C   UNL A   1      41.001  27.308  27.136  1.00  0.00     0.009 A 
ATOM     60  C   UNL A   1      39.660  26.044  28.704  1.00  0.00     0.009 A 
ATOM     61  C   UNL A   1      40.782  26.328  26.165  1.00  0.00     0.001 A 
ATOM     62  C   UNL A   1      39.461  25.056  27.738  1.00  0.00     0.001 A 
ATOM     63  C   UNL A   1      40.016  25.202  26.467  1.00  0.00     0.000 A 
ENDBRANCH  44  58
BRANCH  45  64
ATOM     64  C   UNL A   1      41.422  34.148  35.435  1.00  0.00    -0.014 A 
ATOM     65  C   UNL A   1      40.811  33.979  36.686  1.00  0.00     0.009 A 
ATOM     66  C   UNL A   1      42.179  35.305  35.195  1.00  0.00     0.009 A 
ATOM     67  C   UNL A   1      40.939  34.959  37.672  1.00  0.00     0.001 A 
ATOM     68  C   UNL A   1      42.321  36.274  36.190  1.00  0.00     0.001 A 
ATOM     69  C   UNL A   1      41.695  36.104  37.425  1.00  0.00     0.000 A 
ENDBRANCH  45  64
BRANCH  57  70
ATOM     70  C   UNL A   1      45.241  28.653  33.572  1.00  0.00    -0.014 A 
ATOM     71  C   UNL A   1      46.473  29.104  33.075  1.00  0.00     0.009 A 
ATOM     72  C   UNL A   1      45.225  27.689  34.591  1.00  0.00     0.009 A 
ATOM     73  C   UNL A   1      47.667  28.576  33.571  1.00  0.00     0.001 A 
ATOM     74  C   UNL A   1      46.420  27.178  35.098  1.00  0.00     0.001 A 
ATOM     75  C   UNL A   1      47.639  27.617  34.583  1.00  0.00     0.000 A 
ENDBRANCH  57  70
ENDBRANCH  31  32
ENDBRANCH  23  26
ENDBRANCH  21  22
ENDBRANCH  20  21
ENDBRANCH   1  20
TORSDOF 15
ENDMDL
MODEL 3
REMARK VINA RESULT:      -9.4      2.867      7.443
REMARK SMILES C#CCN(CC(=O)NCCCNC(=O)c1ccc(-c2c3nc(c(-c4ccccc4)c4ccc([nH]4)c(-c4ccccc4)c4nc(c(-c5ccccc5)c5ccc2[nH]5)C=C4)C=C3)cc1)C(=O)N[C@@H]1CCOC1
REMARK SMILES IDX 9 1 8 2 6 3 7 4 5 6 4 7 3 8 2 9 1 10 63 11 64 12 65 13 66 15
REMARK SMILES IDX 67 16 70 17 68 18 69 19 10 20 11 21 12 22 13 23 14 25 15 26
REMARK SMILES IDX 16 27 62 28 17 29 61 30 18 31 19 32 20 33 55 34 21 35 60 36
REMARK SMILES IDX 54 37 56 38 22 39 59 40 53 41 52 42 23 44 45 45 30 46 44 47
REMARK SMILES IDX 31 48 34 49 43 50 57 51 32 52 33 53 42 55 58 56 35 57 24 58
REMARK SMILES IDX 25 59 29 60 26 61 28 62 27 63 46 64 47 65 51 66 48 67 50 68
REMARK SMILES IDX 49 69 36 70 37 71 41 72 38 73 40 74 39 75
REMARK H PARENT 8 5 65 14 12 24 56 43 34 54
REMARK Flexibility Score: inf
ROOT
ATOM      1  C   UNL A   1      33.247  27.900  24.691  1.00  0.00     0.117 C 
ENDROOT
BRANCH   1   2
ATOM      2  N   UNL A   1      33.824  27.358  23.478  1.00  0.00    -0.354 N 
ATOM      3  C   UNL A   1      33.660  26.142  22.889  1.00  0.00     0.239 C 
ATOM      4  O   UNL A   1      33.632  26.143  21.651  1.00  0.00    -0.273 OA
ATOM      5  H   UNL A   1      34.432  27.968  23.003  1.00  0.00     0.163 HD
BRANCH   3   6
ATOM      6  C   UNL A   1      33.370  24.827  23.644  1.00  0.00     0.222 C 
BRANCH   6   7
ATOM      7  N   UNL A   1      34.477  24.050  24.169  1.00  0.00    -0.304 N 
BRANCH   7   8
ATOM      8  C   UNL A   1      35.080  24.581  25.379  1.00  0.00     0.211 C 
BRANCH   8   9
ATOM      9  C   UNL A   1      36.477  24.060  25.675  1.00  0.00    -0.085 C 
ATOM     10  C   UNL A   1      37.675  23.613  25.928  1.00  0.00     0.006 C 
ENDBRANCH   8   9
ENDBRANCH   7   8
BRANCH   7  11
ATOM     11  C   UNL A   1      35.030  22.920  23.682  1.00  0.00     0.318 C 
ATOM     12  O   UNL A   1      35.684  22.944  22.628  1.00  0.00    -0.249 OA
ATOM     13  N   UNL A   1      34.953  21.696  24.183  1.00  0.00    -0.333 N 
ATOM     14  H   UNL A   1      35.370  21.110  23.511  1.00  0.00     0.165 HD
BRANCH  13  15
ATOM     15  C   UNL A   1      34.534  20.800  25.281  1.00  0.00     0.112 C 
ATOM     16  C   UNL A   1      33.917  19.574  24.602  1.00  0.00     0.056 C 
ATOM     17  C   UNL A   1      33.370  21.111  26.204  1.00  0.00     0.185 C 
ATOM     18  C   UNL A   1      32.493  20.047  24.357  1.00  0.00     0.162 C 
ATOM     19  O   UNL A   1      32.174  20.941  25.432  1.00  0.00    -0.379 OA
ENDBRANCH  13  15
ENDBRANCH   7  11
ENDBRANCH   6   7
ENDBRANCH   3   6
ENDBRANCH   1   2
BRANCH   1  20
ATOM     20  C   UNL A   1      34.255  28.372  25.734  1.00  0.00     0.042 C 
BRANCH  20  21
ATOM     21  C   UNL A   1      33.713  28.520  27.152  1.00  0.00     0.118 C 
BRANCH  21  22
ATOM     22  N   UNL A   1      33.653  29.902  27.600  1.00  0.00    -0.352 N 
ATOM     23  C   UNL A   1      34.519  30.697  28.304  1.00  0.00     0.251 C 
ATOM     24  H   UNL A   1      32.819  30.360  27.347  1.00  0.00     0.163 HD
ATOM     25  O   UNL A   1      34.103  31.782  28.708  1.00  0.00    -0.269 OA
BRANCH  23  26
ATOM     26  C   UNL A   1      35.924  30.317  28.599  1.00  0.00     0.039 A 
ATOM     27  C   UNL A   1      36.870  30.477  27.575  1.00  0.00     0.014 A 
ATOM     28  C   UNL A   1      36.315  29.697  29.787  1.00  0.00     0.014 A 
ATOM     29  C   UNL A   1      38.189  30.045  27.748  1.00  0.00     0.010 A 
ATOM     30  C   UNL A   1      37.650  29.326  29.987  1.00  0.00     0.010 A 
ATOM     31  C   UNL A   1      38.597  29.478  28.963  1.00  0.00    -0.014 A 
BRANCH  31  32
ATOM     32  C   UNL A   1      39.997  29.014  29.154  1.00  0.00     0.031 A 
ATOM     33  C   UNL A   1      40.412  27.631  28.722  1.00  0.00     0.074 A 
ATOM     34  C   UNL A   1      40.902  29.825  29.735  1.00  0.00     0.049 A 
ATOM     35  N   UNL A   1      41.577  27.044  28.839  1.00  0.00    -0.248 NA
ATOM     36  C   UNL A   1      39.379  26.795  28.092  1.00  0.00     0.031 C 
ATOM     37  C   UNL A   1      40.638  31.181  30.219  1.00  0.00     0.029 A 
ATOM     38  N   UNL A   1      42.230  29.623  30.018  1.00  0.00    -0.354 N 
ATOM     39  C   UNL A   1      41.411  25.766  28.319  1.00  0.00     0.074 A 
ATOM     40  C   UNL A   1      40.027  25.652  27.913  1.00  0.00     0.031 C 
ATOM     41  C   UNL A   1      41.774  31.698  30.715  1.00  0.00     0.029 A 
ATOM     42  C   UNL A   1      42.836  30.701  30.614  1.00  0.00     0.049 A 
ATOM     43  H   UNL A   1      42.704  28.784  29.813  1.00  0.00     0.167 HD
ATOM     44  C   UNL A   1      42.329  24.778  28.178  1.00  0.00     0.031 A 
ATOM     45  C   UNL A   1      44.104  30.872  31.034  1.00  0.00     0.031 A 
ATOM     46  C   UNL A   1      43.713  24.886  28.552  1.00  0.00     0.049 A 
ATOM     47  C   UNL A   1      45.102  29.763  30.865  1.00  0.00     0.074 A 
ATOM     48  C   UNL A   1      44.725  23.952  28.397  1.00  0.00     0.029 A 
ATOM     49  N   UNL A   1      44.284  25.997  29.151  1.00  0.00    -0.354 N 
ATOM     50  N   UNL A   1      44.935  28.577  30.336  1.00  0.00    -0.248 NA
ATOM     51  C   UNL A   1      46.466  30.023  31.347  1.00  0.00     0.031 C 
ATOM     52  C   UNL A   1      45.902  24.489  28.932  1.00  0.00     0.029 A 
ATOM     53  C   UNL A   1      45.628  25.767  29.386  1.00  0.00     0.049 A 
ATOM     54  H   UNL A   1      43.804  26.827  29.376  1.00  0.00     0.167 HD
ATOM     55  C   UNL A   1      46.175  27.956  30.403  1.00  0.00     0.074 A 
ATOM     56  C   UNL A   1      47.088  28.900  31.013  1.00  0.00     0.031 C 
ATOM     57  C   UNL A   1      46.526  26.713  29.996  1.00  0.00     0.031 A 
BRANCH  44  58
ATOM     58  C   UNL A   1      41.855  23.479  27.592  1.00  0.00    -0.014 A 
ATOM     59  C   UNL A   1      41.981  23.216  26.219  1.00  0.00     0.009 A 
ATOM     60  C   UNL A   1      41.310  22.494  28.428  1.00  0.00     0.009 A 
ATOM     61  C   UNL A   1      41.538  22.002  25.691  1.00  0.00     0.001 A 
ATOM     62  C   UNL A   1      40.889  21.271  27.900  1.00  0.00     0.001 A 
ATOM     63  C   UNL A   1      40.996  21.029  26.532  1.00  0.00     0.000 A 
ENDBRANCH  44  58
BRANCH  45  64
ATOM     64  C   UNL A   1      44.512  32.161  31.645  1.00  0.00    -0.014 A 
ATOM     65  C   UNL A   1      44.421  32.347  33.032  1.00  0.00     0.009 A 
ATOM     66  C   UNL A   1      44.990  33.210  30.845  1.00  0.00     0.009 A 
ATOM     67  C   UNL A   1      44.782  33.568  33.606  1.00  0.00     0.001 A 
ATOM     68  C   UNL A   1      45.369  34.423  31.424  1.00  0.00     0.001 A 
ATOM     69  C   UNL A   1      45.258  34.603  32.802  1.00  0.00     0.000 A 
ENDBRANCH  45  64
BRANCH  57  70
ATOM     70  C   UNL A   1      47.961  26.314  30.174  1.00  0.00    -0.014 A 
ATOM     71  C   UNL A   1      48.409  25.751  31.378  1.00  0.00     0.009 A 
ATOM     72  C   UNL A   1      48.867  26.478  29.116  1.00  0.00     0.009 A 
ATOM     73  C   UNL A   1      49.748  25.384  31.528  1.00  0.00     0.001 A 
ATOM     74  C   UNL A   1      50.200  26.093  29.262  1.00  0.00     0.001 A 
ATOM     75  C   UNL A   1      50.641  25.553  30.470  1.00  0.00     0.000 A 
ENDBRANCH  57  70
ENDBRANCH  31  32
ENDBRANCH  23  26
ENDBRANCH  21  22
ENDBRANCH  20  21
ENDBRANCH   1  20
TORSDOF 15
ENDMDL
