MODEL 1
REMARK VINA RESULT:     -12.3      0.000      0.000
REMARK SMILES CC1(C)[C@@](C)(C(=O)NCCCNC(=O)c2ccc(-c3c4nc(c(-c5ccccc5)c5ccc([nH]5)c(-c5ccccc5)c5nc(c(-c6ccccc6)c6ccc3[nH]6)C=C5)C=C4)cc2)CC[C@]1(C)C(=O)Nc1ccc(Cl)cc1Cl
REMARK SMILES IDX 10 1 9 2 8 3 6 4 7 5 4 7 1 8 2 9 3 10 65 11 5 12 63 13 64 14
REMARK SMILES IDX 66 15 67 16 68 17 69 18 70 20 71 21 76 22 72 23 75 24 77 25
REMARK SMILES IDX 73 26 74 27 11 28 12 29 13 30 14 32 15 33 16 34 62 35 17 36
REMARK SMILES IDX 61 37 18 38 19 39 20 40 55 41 21 42 60 43 54 44 56 45 22 46
REMARK SMILES IDX 59 47 53 48 52 49 23 51 45 52 30 53 44 54 31 55 34 56 43 57
REMARK SMILES IDX 57 58 32 59 33 60 42 62 58 63 35 64 24 65 25 66 29 67 26 68
REMARK SMILES IDX 28 69 27 70 46 71 47 72 51 73 48 74 50 75 49 76 36 77 37 78
REMARK SMILES IDX 41 79 38 80 40 81 39 82
REMARK H PARENT 8 6 69 19 12 31 56 50 34 61
REMARK Flexibility Score: inf
ROOT
ATOM      1  C   UNL A   1      37.310  19.623  24.990  1.00  0.00     0.042 C 
ENDROOT
BRANCH   1   2
ATOM      2  C   UNL A   1      36.043  20.490  24.975  1.00  0.00     0.117 C 
BRANCH   2   3
ATOM      3  N   UNL A   1      36.190  21.752  24.253  1.00  0.00    -0.356 N 
ATOM      4  C   UNL A   1      35.643  22.998  24.318  1.00  0.00     0.226 C 
ATOM      5  O   UNL A   1      36.165  23.808  23.540  1.00  0.00    -0.274 OA
ATOM      6  H   UNL A   1      36.858  21.684  23.533  1.00  0.00     0.163 HD
BRANCH   4   7
ATOM      7  C   UNL A   1      34.474  23.435  25.264  1.00  0.00     0.052 C 
ATOM      8  C   UNL A   1      32.944  21.722  24.155  1.00  0.00     0.013 C 
ATOM      9  C   UNL A   1      33.004  23.109  24.764  1.00  0.00    -0.007 C 
ATOM     10  C   UNL A   1      32.027  23.123  25.973  1.00  0.00     0.013 C 
ATOM     11  C   UNL A   1      32.619  24.254  23.725  1.00  0.00     0.053 C 
ATOM     12  C   UNL A   1      34.817  22.935  26.687  1.00  0.00     0.022 C 
ATOM     13  C   UNL A   1      34.426  24.988  25.329  1.00  0.00     0.018 C 
ATOM     14  C   UNL A   1      33.352  25.486  24.356  1.00  0.00     0.018 C 
ATOM     15  C   UNL A   1      33.195  24.099  22.307  1.00  0.00     0.022 C 
BRANCH  11  16
ATOM     16  C   UNL A   1      31.073  24.572  23.624  1.00  0.00     0.230 C 
ATOM     17  O   UNL A   1      30.301  23.760  23.097  1.00  0.00    -0.274 OA
ATOM     18  N   UNL A   1      30.484  25.758  23.981  1.00  0.00    -0.324 N 
ATOM     19  H   UNL A   1      29.588  25.882  23.593  1.00  0.00     0.170 HD
BRANCH  18  20
ATOM     20  C   UNL A   1      30.896  26.830  24.784  1.00  0.00     0.060 A 
ATOM     21  C   UNL A   1      31.008  26.672  26.166  1.00  0.00     0.029 A 
ATOM     22  C   UNL A   1      31.140  28.100  24.223  1.00  0.00     0.066 A 
ATOM     23  C   UNL A   1      31.511  27.711  26.956  1.00  0.00     0.023 A 
ATOM     24  C   UNL A   1      31.702  29.119  25.000  1.00  0.00     0.043 A 
ATOM     25  Cl  UNL A   1      30.920  28.407  22.537  1.00  0.00    -0.082 Cl
ATOM     26  C   UNL A   1      31.903  28.909  26.361  1.00  0.00     0.042 A 
ATOM     27  Cl  UNL A   1      32.657  30.129  27.313  1.00  0.00    -0.084 Cl
ENDBRANCH  18  20
ENDBRANCH  11  16
ENDBRANCH   4   7
ENDBRANCH   2   3
ENDBRANCH   1   2
BRANCH   1  28
ATOM     28  C   UNL A   1      38.569  20.326  25.481  1.00  0.00     0.118 C 
BRANCH  28  29
ATOM     29  N   UNL A   1      39.657  19.388  25.673  1.00  0.00    -0.352 N 
ATOM     30  C   UNL A   1      40.974  19.608  25.986  1.00  0.00     0.251 C 
ATOM     31  H   UNL A   1      39.411  18.441  25.563  1.00  0.00     0.163 HD
ATOM     32  O   UNL A   1      41.779  18.689  25.804  1.00  0.00    -0.269 OA
BRANCH  30  33
ATOM     33  C   UNL A   1      41.466  20.898  26.534  1.00  0.00     0.039 A 
ATOM     34  C   UNL A   1      41.346  21.118  27.911  1.00  0.00     0.014 A 
ATOM     35  C   UNL A   1      41.928  21.939  25.721  1.00  0.00     0.014 A 
ATOM     36  C   UNL A   1      41.685  22.358  28.465  1.00  0.00     0.010 A 
ATOM     37  C   UNL A   1      42.346  23.150  26.284  1.00  0.00     0.010 A 
ATOM     38  C   UNL A   1      42.193  23.387  27.657  1.00  0.00    -0.014 A 
BRANCH  38  39
ATOM     39  C   UNL A   1      42.510  24.718  28.244  1.00  0.00     0.031 A 
ATOM     40  C   UNL A   1      43.921  25.067  28.647  1.00  0.00     0.074 A 
ATOM     41  C   UNL A   1      41.529  25.623  28.428  1.00  0.00     0.049 A 
ATOM     42  N   UNL A   1      44.390  26.199  29.115  1.00  0.00    -0.248 NA
ATOM     43  C   UNL A   1      44.931  24.004  28.533  1.00  0.00     0.031 C 
ATOM     44  C   UNL A   1      40.111  25.402  28.143  1.00  0.00     0.029 A 
ATOM     45  N   UNL A   1      41.581  26.914  28.890  1.00  0.00    -0.354 N 
ATOM     46  C   UNL A   1      45.737  25.975  29.373  1.00  0.00     0.074 A 
ATOM     47  C   UNL A   1      46.001  24.589  29.052  1.00  0.00     0.031 C 
ATOM     48  C   UNL A   1      39.432  26.531  28.400  1.00  0.00     0.029 A 
ATOM     49  C   UNL A   1      40.362  27.547  28.885  1.00  0.00     0.049 A 
ATOM     50  H   UNL A   1      42.411  27.346  29.196  1.00  0.00     0.167 HD
ATOM     51  C   UNL A   1      46.678  26.843  29.818  1.00  0.00     0.031 A 
ATOM     52  C   UNL A   1      40.028  28.810  29.216  1.00  0.00     0.031 A 
ATOM     53  C   UNL A   1      46.433  28.229  30.114  1.00  0.00     0.049 A 
ATOM     54  C   UNL A   1      41.094  29.772  29.652  1.00  0.00     0.074 A 
ATOM     55  C   UNL A   1      47.340  29.204  30.493  1.00  0.00     0.029 A 
ATOM     56  N   UNL A   1      45.190  28.838  30.064  1.00  0.00    -0.354 N 
ATOM     57  N   UNL A   1      42.380  29.568  29.802  1.00  0.00    -0.248 NA
ATOM     58  C   UNL A   1      40.664  31.149  29.942  1.00  0.00     0.031 C 
ATOM     59  C   UNL A   1      46.638  30.395  30.711  1.00  0.00     0.029 A 
ATOM     60  C   UNL A   1      45.301  30.171  30.423  1.00  0.00     0.049 A 
ATOM     61  H   UNL A   1      44.351  28.389  29.810  1.00  0.00     0.167 HD
ATOM     62  C   UNL A   1      42.916  30.790  30.183  1.00  0.00     0.074 A 
ATOM     63  C   UNL A   1      41.819  31.736  30.226  1.00  0.00     0.031 C 
ATOM     64  C   UNL A   1      44.204  31.101  30.469  1.00  0.00     0.031 A 
BRANCH  51  65
ATOM     65  C   UNL A   1      48.069  26.306  30.021  1.00  0.00    -0.014 A 
ATOM     66  C   UNL A   1      48.996  26.266  28.968  1.00  0.00     0.009 A 
ATOM     67  C   UNL A   1      48.463  25.853  31.290  1.00  0.00     0.009 A 
ATOM     68  C   UNL A   1      50.275  25.742  29.171  1.00  0.00     0.001 A 
ATOM     69  C   UNL A   1      49.751  25.356  31.497  1.00  0.00     0.001 A 
ATOM     70  C   UNL A   1      50.652  25.290  30.436  1.00  0.00     0.000 A 
ENDBRANCH  51  65
BRANCH  52  71
ATOM     71  C   UNL A   1      38.613  29.244  29.098  1.00  0.00    -0.014 A 
ATOM     72  C   UNL A   1      37.762  29.203  30.212  1.00  0.00     0.009 A 
ATOM     73  C   UNL A   1      38.116  29.727  27.878  1.00  0.00     0.009 A 
ATOM     74  C   UNL A   1      36.435  29.626  30.104  1.00  0.00     0.001 A 
ATOM     75  C   UNL A   1      36.796  30.170  27.778  1.00  0.00     0.001 A 
ATOM     76  C   UNL A   1      35.955  30.114  28.890  1.00  0.00     0.000 A 
ENDBRANCH  52  71
BRANCH  64  77
ATOM     77  C   UNL A   1      44.502  32.527  30.833  1.00  0.00    -0.014 A 
ATOM     78  C   UNL A   1      44.485  32.956  32.168  1.00  0.00     0.009 A 
ATOM     79  C   UNL A   1      44.840  33.446  29.826  1.00  0.00     0.009 A 
ATOM     80  C   UNL A   1      44.767  34.286  32.486  1.00  0.00     0.001 A 
ATOM     81  C   UNL A   1      45.145  34.769  30.150  1.00  0.00     0.001 A 
ATOM     82  C   UNL A   1      45.100  35.189  31.478  1.00  0.00     0.000 A 
ENDBRANCH  64  77
ENDBRANCH  38  39
ENDBRANCH  30  33
ENDBRANCH  28  29
ENDBRANCH   1  28
TORSDOF 12
ENDMDL
MODEL 2
REMARK VINA RESULT:     -12.2      3.458      8.606
REMARK SMILES CC1(C)[C@@](C)(C(=O)NCCCNC(=O)c2ccc(-c3c4nc(c(-c5ccccc5)c5ccc([nH]5)c(-c5ccccc5)c5nc(c(-c6ccccc6)c6ccc3[nH]6)C=C5)C=C4)cc2)CC[C@]1(C)C(=O)Nc1ccc(Cl)cc1Cl
REMARK SMILES IDX 10 1 9 2 8 3 6 4 7 5 4 7 1 8 2 9 3 10 65 11 5 12 63 13 64 14
REMARK SMILES IDX 66 15 67 16 68 17 69 18 70 20 71 21 76 22 72 23 75 24 77 25
REMARK SMILES IDX 73 26 74 27 11 28 12 29 13 30 14 32 15 33 16 34 62 35 17 36
REMARK SMILES IDX 61 37 18 38 19 39 20 40 55 41 21 42 60 43 54 44 56 45 22 46
REMARK SMILES IDX 59 47 53 48 52 49 23 51 45 52 30 53 44 54 31 55 34 56 43 57
REMARK SMILES IDX 57 58 32 59 33 60 42 62 58 63 35 64 24 65 25 66 29 67 26 68
REMARK SMILES IDX 28 69 27 70 46 71 47 72 51 73 48 74 50 75 49 76 36 77 37 78
REMARK SMILES IDX 41 79 38 80 40 81 39 82
REMARK H PARENT 8 6 69 19 12 31 56 50 34 61
REMARK Flexibility Score: inf
ROOT
ATOM      1  C   UNL A   1      31.240  31.574  26.119  1.00  0.00     0.042 C 
ENDROOT
BRANCH   1   2
ATOM      2  C   UNL A   1      31.427  30.210  25.438  1.00  0.00     0.117 C 
BRANCH   2   3
ATOM      3  N   UNL A   1      31.510  29.085  26.366  1.00  0.00    -0.356 N 
ATOM      4  C   UNL A   1      32.074  27.844  26.368  1.00  0.00     0.226 C 
ATOM      5  O   UNL A   1      31.967  27.254  27.452  1.00  0.00    -0.274 OA
ATOM      6  H   UNL A   1      31.035  29.271  27.209  1.00  0.00     0.163 HD
BRANCH   4   7
ATOM      7  C   UNL A   1      32.807  27.172  25.159  1.00  0.00     0.052 C 
ATOM      8  C   UNL A   1      30.646  27.256  23.808  1.00  0.00     0.013 C 
ATOM      9  C   UNL A   1      31.887  26.435  24.098  1.00  0.00    -0.007 C 
ATOM     10  C   UNL A   1      32.658  26.278  22.757  1.00  0.00     0.013 C 
ATOM     11  C   UNL A   1      31.548  25.006  24.714  1.00  0.00     0.053 C 
ATOM     12  C   UNL A   1      33.790  28.213  24.574  1.00  0.00     0.022 C 
ATOM     13  C   UNL A   1      33.665  25.984  25.681  1.00  0.00     0.018 C 
ATOM     14  C   UNL A   1      32.880  24.684  25.471  1.00  0.00     0.018 C 
ATOM     15  C   UNL A   1      30.439  24.976  25.780  1.00  0.00     0.022 C 
BRANCH  11  16
ATOM     16  C   UNL A   1      31.274  23.867  23.650  1.00  0.00     0.230 C 
ATOM     17  O   UNL A   1      30.206  23.841  23.024  1.00  0.00    -0.274 OA
ATOM     18  N   UNL A   1      32.092  22.792  23.414  1.00  0.00    -0.324 N 
ATOM     19  H   UNL A   1      31.642  22.054  22.942  1.00  0.00     0.170 HD
BRANCH  18  20
ATOM     20  C   UNL A   1      33.437  22.526  23.706  1.00  0.00     0.060 A 
ATOM     21  C   UNL A   1      34.450  23.235  23.060  1.00  0.00     0.029 A 
ATOM     22  C   UNL A   1      33.791  21.499  24.604  1.00  0.00     0.066 A 
ATOM     23  C   UNL A   1      35.787  23.039  23.421  1.00  0.00     0.023 A 
ATOM     24  C   UNL A   1      35.120  21.346  25.012  1.00  0.00     0.043 A 
ATOM     25  Cl  UNL A   1      32.600  20.504  25.363  1.00  0.00    -0.082 Cl
ATOM     26  C   UNL A   1      36.109  22.134  24.430  1.00  0.00     0.042 A 
ATOM     27  Cl  UNL A   1      37.738  22.003  24.973  1.00  0.00    -0.084 Cl
ENDBRANCH  18  20
ENDBRANCH  11  16
ENDBRANCH   4   7
ENDBRANCH   2   3
ENDBRANCH   1   2
BRANCH   1  28
ATOM     28  C   UNL A   1      32.348  31.970  27.087  1.00  0.00     0.118 C 
BRANCH  28  29
ATOM     29  N   UNL A   1      32.268  33.375  27.435  1.00  0.00    -0.352 N 
ATOM     30  C   UNL A   1      33.033  34.121  28.295  1.00  0.00     0.251 C 
ATOM     31  H   UNL A   1      31.550  33.873  26.982  1.00  0.00     0.163 HD
ATOM     32  O   UNL A   1      32.598  35.217  28.661  1.00  0.00    -0.269 OA
BRANCH  30  33
ATOM     33  C   UNL A   1      34.355  33.666  28.796  1.00  0.00     0.039 A 
ATOM     34  C   UNL A   1      35.475  33.873  27.982  1.00  0.00     0.014 A 
ATOM     35  C   UNL A   1      34.506  32.940  29.982  1.00  0.00     0.014 A 
ATOM     36  C   UNL A   1      36.725  33.363  28.351  1.00  0.00     0.010 A 
ATOM     37  C   UNL A   1      35.770  32.502  30.392  1.00  0.00     0.010 A 
ATOM     38  C   UNL A   1      36.887  32.675  29.563  1.00  0.00    -0.014 A 
BRANCH  38  39
ATOM     39  C   UNL A   1      38.209  32.096  29.930  1.00  0.00     0.031 A 
ATOM     40  C   UNL A   1      39.132  32.819  30.879  1.00  0.00     0.074 A 
ATOM     41  C   UNL A   1      38.596  30.917  29.405  1.00  0.00     0.049 A 
ATOM     42  N   UNL A   1      40.291  32.435  31.358  1.00  0.00    -0.248 NA
ATOM     43  C   UNL A   1      38.712  34.154  31.332  1.00  0.00     0.031 C 
ATOM     44  C   UNL A   1      37.836  30.137  28.427  1.00  0.00     0.029 A 
ATOM     45  N   UNL A   1      39.723  30.167  29.629  1.00  0.00    -0.354 N 
ATOM     46  C   UNL A   1      40.746  33.487  32.142  1.00  0.00     0.074 A 
ATOM     47  C   UNL A   1      39.761  34.542  32.042  1.00  0.00     0.031 C 
ATOM     48  C   UNL A   1      38.499  29.000  28.165  1.00  0.00     0.029 A 
ATOM     49  C   UNL A   1      39.737  28.980  28.939  1.00  0.00     0.049 A 
ATOM     50  H   UNL A   1      40.451  30.451  30.227  1.00  0.00     0.167 HD
ATOM     51  C   UNL A   1      41.870  33.568  32.895  1.00  0.00     0.031 A 
ATOM     52  C   UNL A   1      40.636  27.976  28.938  1.00  0.00     0.031 A 
ATOM     53  C   UNL A   1      42.842  32.515  33.025  1.00  0.00     0.049 A 
ATOM     54  C   UNL A   1      41.846  28.059  29.823  1.00  0.00     0.074 A 
ATOM     55  C   UNL A   1      43.970  32.475  33.827  1.00  0.00     0.029 A 
ATOM     56  N   UNL A   1      42.801  31.316  32.334  1.00  0.00    -0.354 N 
ATOM     57  N   UNL A   1      42.214  29.024  30.630  1.00  0.00    -0.248 NA
ATOM     58  C   UNL A   1      42.753  26.901  29.814  1.00  0.00     0.031 C 
ATOM     59  C   UNL A   1      44.633  31.265  33.590  1.00  0.00     0.029 A 
ATOM     60  C   UNL A   1      43.892  30.535  32.675  1.00  0.00     0.049 A 
ATOM     61  H   UNL A   1      42.098  31.057  31.694  1.00  0.00     0.167 HD
ATOM     62  C   UNL A   1      43.381  28.584  31.239  1.00  0.00     0.074 A 
ATOM     63  C   UNL A   1      43.652  27.258  30.721  1.00  0.00     0.031 C 
ATOM     64  C   UNL A   1      44.157  29.222  32.149  1.00  0.00     0.031 A 
BRANCH  51  65
ATOM     65  C   UNL A   1      42.112  34.855  33.636  1.00  0.00    -0.014 A 
ATOM     66  C   UNL A   1      41.555  35.083  34.904  1.00  0.00     0.009 A 
ATOM     67  C   UNL A   1      42.926  35.846  33.065  1.00  0.00     0.009 A 
ATOM     68  C   UNL A   1      41.772  36.293  35.565  1.00  0.00     0.001 A 
ATOM     69  C   UNL A   1      43.164  37.044  33.741  1.00  0.00     0.001 A 
ATOM     70  C   UNL A   1      42.578  37.272  34.984  1.00  0.00     0.000 A 
ENDBRANCH  51  65
BRANCH  52  71
ATOM     71  C   UNL A   1      40.390  26.778  28.097  1.00  0.00    -0.014 A 
ATOM     72  C   UNL A   1      40.954  26.682  26.816  1.00  0.00     0.009 A 
ATOM     73  C   UNL A   1      39.614  25.714  28.580  1.00  0.00     0.009 A 
ATOM     74  C   UNL A   1      40.735  25.549  26.030  1.00  0.00     0.001 A 
ATOM     75  C   UNL A   1      39.415  24.573  27.802  1.00  0.00     0.001 A 
ATOM     76  C   UNL A   1      39.971  24.493  26.525  1.00  0.00     0.000 A 
ENDBRANCH  52  71
BRANCH  64  77
ATOM     77  C   UNL A   1      45.362  28.486  32.660  1.00  0.00    -0.014 A 
ATOM     78  C   UNL A   1      46.609  28.607  32.031  1.00  0.00     0.009 A 
ATOM     79  C   UNL A   1      45.254  27.688  33.811  1.00  0.00     0.009 A 
ATOM     80  C   UNL A   1      47.719  27.917  32.523  1.00  0.00     0.001 A 
ATOM     81  C   UNL A   1      46.370  27.018  34.314  1.00  0.00     0.001 A 
ATOM     82  C   UNL A   1      47.599  27.126  33.665  1.00  0.00     0.000 A 
ENDBRANCH  64  77
ENDBRANCH  38  39
ENDBRANCH  30  33
ENDBRANCH  28  29
ENDBRANCH   1  28
TORSDOF 12
ENDMDL
MODEL 3
REMARK VINA RESULT:     -12.1      0.499      5.882
REMARK SMILES CC1(C)[C@@](C)(C(=O)NCCCNC(=O)c2ccc(-c3c4nc(c(-c5ccccc5)c5ccc([nH]5)c(-c5ccccc5)c5nc(c(-c6ccccc6)c6ccc3[nH]6)C=C5)C=C4)cc2)CC[C@]1(C)C(=O)Nc1ccc(Cl)cc1Cl
REMARK SMILES IDX 10 1 9 2 8 3 6 4 7 5 4 7 1 8 2 9 3 10 65 11 5 12 63 13 64 14
REMARK SMILES IDX 66 15 67 16 68 17 69 18 70 20 71 21 76 22 72 23 75 24 77 25
REMARK SMILES IDX 73 26 74 27 11 28 12 29 13 30 14 32 15 33 16 34 62 35 17 36
REMARK SMILES IDX 61 37 18 38 19 39 20 40 55 41 21 42 60 43 54 44 56 45 22 46
REMARK SMILES IDX 59 47 53 48 52 49 23 51 45 52 30 53 44 54 31 55 34 56 43 57
REMARK SMILES IDX 57 58 32 59 33 60 42 62 58 63 35 64 24 65 25 66 29 67 26 68
REMARK SMILES IDX 28 69 27 70 46 71 47 72 51 73 48 74 50 75 49 76 36 77 37 78
REMARK SMILES IDX 41 79 38 80 40 81 39 82
REMARK H PARENT 8 6 69 19 12 31 56 50 34 61
REMARK Flexibility Score: inf
ROOT
ATOM      1  C   UNL A   1      37.432  19.761  24.992  1.00  0.00     0.042 C 
ENDROOT
BRANCH   1   2
ATOM      2  C   UNL A   1      36.187  20.656  25.081  1.00  0.00     0.117 C 
BRANCH   2   3
ATOM      3  N   UNL A   1      36.218  21.814  24.189  1.00  0.00    -0.356 N 
ATOM      4  C   UNL A   1      35.620  23.036  24.134  1.00  0.00     0.226 C 
ATOM      5  O   UNL A   1      36.040  23.752  23.215  1.00  0.00    -0.274 OA
ATOM      6  H   UNL A   1      36.830  21.673  23.430  1.00  0.00     0.163 HD
BRANCH   4   7
ATOM      7  C   UNL A   1      34.509  23.555  25.109  1.00  0.00     0.052 C 
ATOM      8  C   UNL A   1      32.919  21.758  24.244  1.00  0.00     0.013 C 
ATOM      9  C   UNL A   1      33.012  23.191  24.729  1.00  0.00    -0.007 C 
ATOM     10  C   UNL A   1      32.110  23.310  25.990  1.00  0.00     0.013 C 
ATOM     11  C   UNL A   1      32.562  24.245  23.623  1.00  0.00     0.053 C 
ATOM     12  C   UNL A   1      34.939  23.176  26.546  1.00  0.00     0.022 C 
ATOM     13  C   UNL A   1      34.461  25.108  25.046  1.00  0.00     0.018 C 
ATOM     14  C   UNL A   1      33.328  25.524  24.101  1.00  0.00     0.018 C 
ATOM     15  C   UNL A   1      33.051  23.969  22.190  1.00  0.00     0.022 C 
BRANCH  11  16
ATOM     16  C   UNL A   1      31.011  24.558  23.589  1.00  0.00     0.230 C 
ATOM     17  O   UNL A   1      30.222  23.747  23.085  1.00  0.00    -0.274 OA
ATOM     18  N   UNL A   1      30.433  25.736  23.983  1.00  0.00    -0.324 N 
ATOM     19  H   UNL A   1      29.521  25.861  23.634  1.00  0.00     0.170 HD
BRANCH  18  20
ATOM     20  C   UNL A   1      30.873  26.802  24.781  1.00  0.00     0.060 A 
ATOM     21  C   UNL A   1      30.997  26.644  26.161  1.00  0.00     0.029 A 
ATOM     22  C   UNL A   1      31.136  28.066  24.215  1.00  0.00     0.066 A 
ATOM     23  C   UNL A   1      31.527  27.674  26.944  1.00  0.00     0.023 A 
ATOM     24  C   UNL A   1      31.726  29.075  24.984  1.00  0.00     0.043 A 
ATOM     25  Cl  UNL A   1      30.905  28.374  22.530  1.00  0.00    -0.082 Cl
ATOM     26  C   UNL A   1      31.937  28.863  26.344  1.00  0.00     0.042 A 
ATOM     27  Cl  UNL A   1      32.723  30.069  27.286  1.00  0.00    -0.084 Cl
ENDBRANCH  18  20
ENDBRANCH  11  16
ENDBRANCH   4   7
ENDBRANCH   2   3
ENDBRANCH   1   2
BRANCH   1  28
ATOM     28  C   UNL A   1      38.740  20.431  25.395  1.00  0.00     0.118 C 
BRANCH  28  29
ATOM     29  N   UNL A   1      39.762  19.449  25.701  1.00  0.00    -0.352 N 
ATOM     30  C   UNL A   1      41.073  19.619  26.068  1.00  0.00     0.251 C 
ATOM     31  H   UNL A   1      39.469  18.512  25.636  1.00  0.00     0.163 HD
ATOM     32  O   UNL A   1      41.832  18.648  25.985  1.00  0.00    -0.269 OA
BRANCH  30  33
ATOM     33  C   UNL A   1      41.609  20.913  26.561  1.00  0.00     0.039 A 
ATOM     34  C   UNL A   1      41.557  21.168  27.936  1.00  0.00     0.014 A 
ATOM     35  C   UNL A   1      42.050  21.926  25.702  1.00  0.00     0.014 A 
ATOM     36  C   UNL A   1      41.941  22.415  28.443  1.00  0.00     0.010 A 
ATOM     37  C   UNL A   1      42.511  23.143  26.215  1.00  0.00     0.010 A 
ATOM     38  C   UNL A   1      42.427  23.416  27.587  1.00  0.00    -0.014 A 
BRANCH  38  39
ATOM     39  C   UNL A   1      42.792  24.755  28.126  1.00  0.00     0.031 A 
ATOM     40  C   UNL A   1      41.735  25.804  28.367  1.00  0.00     0.074 A 
ATOM     41  C   UNL A   1      44.080  25.043  28.396  1.00  0.00     0.049 A 
ATOM     42  N   UNL A   1      41.862  27.001  28.889  1.00  0.00    -0.248 NA
ATOM     43  C   UNL A   1      40.363  25.479  27.947  1.00  0.00     0.031 C 
ATOM     44  C   UNL A   1      45.214  24.151  28.155  1.00  0.00     0.029 A 
ATOM     45  N   UNL A   1      44.648  26.168  28.941  1.00  0.00    -0.354 N 
ATOM     46  C   UNL A   1      40.599  27.575  28.835  1.00  0.00     0.074 A 
ATOM     47  C   UNL A   1      39.728  26.615  28.192  1.00  0.00     0.031 C 
ATOM     48  C   UNL A   1      46.338  24.747  28.586  1.00  0.00     0.029 A 
ATOM     49  C   UNL A   1      46.007  26.067  29.114  1.00  0.00     0.049 A 
ATOM     50  H   UNL A   1      44.132  26.970  29.185  1.00  0.00     0.167 HD
ATOM     51  C   UNL A   1      40.189  28.782  29.294  1.00  0.00     0.031 A 
ATOM     52  C   UNL A   1      46.889  26.931  29.653  1.00  0.00     0.031 A 
ATOM     53  C   UNL A   1      41.039  29.733  29.961  1.00  0.00     0.049 A 
ATOM     54  C   UNL A   1      46.406  28.239  30.208  1.00  0.00     0.074 A 
ATOM     55  C   UNL A   1      40.696  30.947  30.532  1.00  0.00     0.029 A 
ATOM     56  N   UNL A   1      42.403  29.576  30.144  1.00  0.00    -0.354 N 
ATOM     57  N   UNL A   1      45.190  28.727  30.233  1.00  0.00    -0.248 NA
ATOM     58  C   UNL A   1      47.417  29.106  30.833  1.00  0.00     0.031 C 
ATOM     59  C   UNL A   1      41.861  31.543  31.027  1.00  0.00     0.029 A 
ATOM     60  C   UNL A   1      42.921  30.679  30.803  1.00  0.00     0.049 A 
ATOM     61  H   UNL A   1      42.926  28.796  29.850  1.00  0.00     0.167 HD
ATOM     62  C   UNL A   1      45.284  29.946  30.891  1.00  0.00     0.074 A 
ATOM     63  C   UNL A   1      46.674  30.116  31.264  1.00  0.00     0.031 C 
ATOM     64  C   UNL A   1      44.304  30.842  31.163  1.00  0.00     0.031 A 
BRANCH  51  65
ATOM     65  C   UNL A   1      38.744  29.147  29.081  1.00  0.00    -0.014 A 
ATOM     66  C   UNL A   1      37.795  28.995  30.104  1.00  0.00     0.009 A 
ATOM     67  C   UNL A   1      38.332  29.668  27.844  1.00  0.00     0.009 A 
ATOM     68  C   UNL A   1      36.455  29.316  29.878  1.00  0.00     0.001 A 
ATOM     69  C   UNL A   1      36.997  30.015  27.631  1.00  0.00     0.001 A 
ATOM     70  C   UNL A   1      36.057  29.828  28.643  1.00  0.00     0.000 A 
ENDBRANCH  51  65
BRANCH  52  71
ATOM     71  C   UNL A   1      48.323  26.553  29.733  1.00  0.00    -0.014 A 
ATOM     72  C   UNL A   1      49.221  26.961  28.736  1.00  0.00     0.009 A 
ATOM     73  C   UNL A   1      48.804  25.807  30.819  1.00  0.00     0.009 A 
ATOM     74  C   UNL A   1      50.573  26.619  28.819  1.00  0.00     0.001 A 
ATOM     75  C   UNL A   1      50.159  25.484  30.911  1.00  0.00     0.001 A 
ATOM     76  C   UNL A   1      51.041  25.886  29.908  1.00  0.00     0.000 A 
ENDBRANCH  52  71
BRANCH  64  77
ATOM     77  C   UNL A   1      44.696  32.078  31.921  1.00  0.00    -0.014 A 
ATOM     78  C   UNL A   1      45.092  33.246  31.252  1.00  0.00     0.009 A 
ATOM     79  C   UNL A   1      44.633  32.084  33.323  1.00  0.00     0.009 A 
ATOM     80  C   UNL A   1      45.450  34.386  31.974  1.00  0.00     0.001 A 
ATOM     81  C   UNL A   1      44.969  33.233  34.041  1.00  0.00     0.001 A 
ATOM     82  C   UNL A   1      45.385  34.380  33.366  1.00  0.00     0.000 A 
ENDBRANCH  64  77
ENDBRANCH  38  39
ENDBRANCH  30  33
ENDBRANCH  28  29
ENDBRANCH   1  28
TORSDOF 12
ENDMDL
