MODEL 1
REMARK VINA RESULT:     -13.5      0.000      0.000
REMARK SMILES O=C(COc1cccc(NC(=O)c2ccc3c(c2)C(=O)N(c2ccccc2-c2ccccc2)C3=O)c1)NCCCNC(=O)c1ccc(-c2c3nc(c(-c4ccccc4)c4ccc([nH]4)c(-c4ccccc4)c4nc(c(-c5ccccc5)c5ccc2[nH]5)C=C4)C=C3)cc1
REMARK SMILES IDX 1 1 2 2 37 3 3 5 4 6 5 7 6 8 36 9 7 10 9 11 8 12 10 13 11 14
REMARK SMILES IDX 12 16 13 17 14 18 18 19 15 20 17 21 16 22 19 23 34 24 20 25
REMARK SMILES IDX 21 26 35 27 22 28 23 29 27 30 24 31 26 32 25 33 28 34 29 35
REMARK SMILES IDX 33 36 30 37 32 38 31 39 38 40 39 41 40 42 41 43 42 44 43 46
REMARK SMILES IDX 44 47 45 48 91 49 46 50 90 51 47 52 48 53 49 54 84 55 50 56
REMARK SMILES IDX 89 57 83 58 85 59 51 60 88 61 82 62 81 63 52 65 74 66 59 67
REMARK SMILES IDX 73 68 60 69 63 70 72 71 86 72 61 73 62 74 71 76 87 77 64 78
REMARK SMILES IDX 53 79 54 80 58 81 55 82 57 83 56 84 75 85 76 86 80 87 77 88
REMARK SMILES IDX 79 89 78 90 65 91 66 92 70 93 67 94 69 95 68 96
REMARK H PARENT 37 4 10 15 41 45 85 64 63 75
REMARK Flexibility Score: inf
ROOT
ATOM      1  O   UNL A   1      36.384  32.985  28.028  1.00  0.00    -0.271 OA
ATOM      2  C   UNL A   1      35.271  32.545  28.293  1.00  0.00     0.257 C 
ATOM      3  N   UNL A   1      34.355  33.209  29.085  1.00  0.00    -0.353 N 
ATOM      4  H   UNL A   1      33.422  32.899  29.095  1.00  0.00     0.163 HD
ENDROOT
BRANCH   2   5
ATOM      5  C   UNL A   1      34.788  31.180  27.800  1.00  0.00     0.329 C 
BRANCH   5   6
ATOM      6  O   UNL A   1      33.400  31.113  27.493  1.00  0.00    -0.484 OA
BRANCH   6   7
ATOM      7  C   UNL A   1      32.998  30.045  26.733  1.00  0.00     0.122 A 
ATOM      8  C   UNL A   1      33.856  28.953  26.767  1.00  0.00     0.046 A 
ATOM      9  C   UNL A   1      31.911  30.056  25.842  1.00  0.00     0.072 A 
ATOM     10  C   UNL A   1      33.640  27.886  25.908  1.00  0.00     0.006 A 
ATOM     11  C   UNL A   1      31.690  28.993  24.954  1.00  0.00     0.045 A 
ATOM     12  C   UNL A   1      32.579  27.921  25.001  1.00  0.00     0.026 A 
BRANCH  11  13
ATOM     13  N   UNL A   1      30.655  29.138  23.993  1.00  0.00    -0.322 N 
ATOM     14  C   UNL A   1      30.484  28.628  22.714  1.00  0.00     0.255 C 
ATOM     15  H   UNL A   1      29.914  29.712  24.293  1.00  0.00     0.170 HD
ATOM     16  O   UNL A   1      29.639  29.079  21.948  1.00  0.00    -0.269 OA
BRANCH  14  17
ATOM     17  C   UNL A   1      31.211  27.406  22.332  1.00  0.00     0.041 A 
ATOM     18  C   UNL A   1      32.476  27.481  21.706  1.00  0.00     0.015 A 
ATOM     19  C   UNL A   1      30.727  26.220  22.877  1.00  0.00     0.028 A 
ATOM     20  C   UNL A   1      33.374  26.407  21.837  1.00  0.00     0.015 A 
ATOM     21  C   UNL A   1      31.640  25.200  22.989  1.00  0.00     0.054 A 
ATOM     22  C   UNL A   1      32.942  25.307  22.565  1.00  0.00     0.053 A 
ATOM     23  C   UNL A   1      31.537  24.048  23.855  1.00  0.00     0.266 C 
ATOM     24  C   UNL A   1      33.688  24.245  23.253  1.00  0.00     0.266 C 
ATOM     25  O   UNL A   1      30.436  23.640  24.172  1.00  0.00    -0.268 OA
ATOM     26  N   UNL A   1      32.826  23.675  24.172  1.00  0.00    -0.242 N 
ATOM     27  O   UNL A   1      34.830  23.987  22.919  1.00  0.00    -0.268 OA
BRANCH  26  28
ATOM     28  C   UNL A   1      33.140  22.879  25.332  1.00  0.00     0.060 A 
ATOM     29  C   UNL A   1      33.608  23.547  26.492  1.00  0.00     0.027 A 
ATOM     30  C   UNL A   1      33.157  21.458  25.371  1.00  0.00     0.006 A 
ATOM     31  C   UNL A   1      34.082  22.883  27.625  1.00  0.00     0.002 A 
ATOM     32  C   UNL A   1      33.608  20.807  26.553  1.00  0.00     0.011 A 
ATOM     33  C   UNL A   1      34.076  21.505  27.661  1.00  0.00     0.001 A 
BRANCH  30  34
ATOM     34  C   UNL A   1      32.887  20.547  24.250  1.00  0.00    -0.016 A 
ATOM     35  C   UNL A   1      32.340  21.024  23.048  1.00  0.00     0.009 A 
ATOM     36  C   UNL A   1      33.050  19.160  24.404  1.00  0.00     0.009 A 
ATOM     37  C   UNL A   1      32.020  20.146  22.010  1.00  0.00     0.001 A 
ATOM     38  C   UNL A   1      32.722  18.281  23.368  1.00  0.00     0.001 A 
ATOM     39  C   UNL A   1      32.217  18.777  22.168  1.00  0.00     0.000 A 
ENDBRANCH  30  34
ENDBRANCH  26  28
ENDBRANCH  14  17
ENDBRANCH  11  13
ENDBRANCH   6   7
ENDBRANCH   5   6
ENDBRANCH   2   5
BRANCH   3  40
ATOM     40  C   UNL A   1      34.723  34.345  29.899  1.00  0.00     0.117 C 
BRANCH  40  41
ATOM     41  C   UNL A   1      34.471  34.128  31.381  1.00  0.00     0.042 C 
BRANCH  41  42
ATOM     42  C   UNL A   1      34.813  32.728  31.877  1.00  0.00     0.118 C 
BRANCH  42  43
ATOM     43  N   UNL A   1      35.349  32.708  33.231  1.00  0.00    -0.352 N 
ATOM     44  C   UNL A   1      36.585  32.337  33.700  1.00  0.00     0.251 C 
ATOM     45  H   UNL A   1      34.719  33.009  33.926  1.00  0.00     0.163 HD
ATOM     46  O   UNL A   1      36.774  32.290  34.912  1.00  0.00    -0.269 OA
BRANCH  44  47
ATOM     47  C   UNL A   1      37.680  31.967  32.775  1.00  0.00     0.039 A 
ATOM     48  C   UNL A   1      38.694  31.130  33.250  1.00  0.00     0.014 A 
ATOM     49  C   UNL A   1      37.745  32.457  31.467  1.00  0.00     0.014 A 
ATOM     50  C   UNL A   1      39.731  30.737  32.401  1.00  0.00     0.010 A 
ATOM     51  C   UNL A   1      38.735  32.001  30.597  1.00  0.00     0.010 A 
ATOM     52  C   UNL A   1      39.742  31.140  31.056  1.00  0.00    -0.014 A 
BRANCH  52  53
ATOM     53  C   UNL A   1      40.796  30.651  30.130  1.00  0.00     0.031 A 
ATOM     54  C   UNL A   1      41.998  31.497  29.808  1.00  0.00     0.074 A 
ATOM     55  C   UNL A   1      40.655  29.442  29.549  1.00  0.00     0.049 A 
ATOM     56  N   UNL A   1      43.030  31.210  29.053  1.00  0.00    -0.248 NA
ATOM     57  C   UNL A   1      42.038  32.847  30.390  1.00  0.00     0.031 C 
ATOM     58  C   UNL A   1      39.512  28.544  29.726  1.00  0.00     0.029 A 
ATOM     59  N   UNL A   1      41.485  28.758  28.697  1.00  0.00    -0.354 N 
ATOM     60  C   UNL A   1      43.832  32.344  29.061  1.00  0.00     0.074 A 
ATOM     61  C   UNL A   1      43.144  33.341  29.853  1.00  0.00     0.031 C 
ATOM     62  C   UNL A   1      39.732  27.411  29.041  1.00  0.00     0.029 A 
ATOM     63  C   UNL A   1      41.017  27.512  28.356  1.00  0.00     0.049 A 
ATOM     64  H   UNL A   1      42.336  29.124  28.363  1.00  0.00     0.167 HD
ATOM     65  C   UNL A   1      45.042  32.535  28.482  1.00  0.00     0.031 A 
ATOM     66  C   UNL A   1      41.563  26.552  27.587  1.00  0.00     0.031 A 
ATOM     67  C   UNL A   1      45.736  31.544  27.701  1.00  0.00     0.049 A 
ATOM     68  C   UNL A   1      42.916  26.779  26.974  1.00  0.00     0.074 A 
ATOM     69  C   UNL A   1      46.990  31.624  27.122  1.00  0.00     0.029 A 
ATOM     70  N   UNL A   1      45.231  30.291  27.390  1.00  0.00    -0.354 N 
ATOM     71  N   UNL A   1      43.696  27.829  27.059  1.00  0.00    -0.248 NA
ATOM     72  C   UNL A   1      43.469  25.675  26.176  1.00  0.00     0.031 C 
ATOM     73  C   UNL A   1      47.227  30.436  26.422  1.00  0.00     0.029 A 
ATOM     74  C   UNL A   1      46.142  29.595  26.611  1.00  0.00     0.049 A 
ATOM     75  H   UNL A   1      44.356  29.947  27.678  1.00  0.00     0.167 HD
ATOM     76  C   UNL A   1      44.844  27.503  26.349  1.00  0.00     0.074 A 
ATOM     77  C   UNL A   1      44.665  26.151  25.859  1.00  0.00     0.031 C 
ATOM     78  C   UNL A   1      45.948  28.254  26.123  1.00  0.00     0.031 A 
BRANCH  65  79
ATOM     79  C   UNL A   1      45.696  33.876  28.676  1.00  0.00    -0.014 A 
ATOM     80  C   UNL A   1      45.480  34.927  27.770  1.00  0.00     0.009 A 
ATOM     81  C   UNL A   1      46.510  34.103  29.797  1.00  0.00     0.009 A 
ATOM     82  C   UNL A   1      46.097  36.165  27.961  1.00  0.00     0.001 A 
ATOM     83  C   UNL A   1      47.102  35.350  30.001  1.00  0.00     0.001 A 
ATOM     84  C   UNL A   1      46.904  36.377  29.079  1.00  0.00     0.000 A 
ENDBRANCH  65  79
BRANCH  66  85
ATOM     85  C   UNL A   1      40.849  25.265  27.386  1.00  0.00    -0.014 A 
ATOM     86  C   UNL A   1      41.239  24.118  28.096  1.00  0.00     0.009 A 
ATOM     87  C   UNL A   1      39.781  25.174  26.482  1.00  0.00     0.009 A 
ATOM     88  C   UNL A   1      40.591  22.900  27.882  1.00  0.00     0.001 A 
ATOM     89  C   UNL A   1      39.116  23.960  26.291  1.00  0.00     0.001 A 
ATOM     90  C   UNL A   1      39.529  22.822  26.983  1.00  0.00     0.000 A 
ENDBRANCH  66  85
BRANCH  78  91
ATOM     91  C   UNL A   1      47.058  27.616  25.336  1.00  0.00    -0.014 A 
ATOM     92  C   UNL A   1      48.000  26.775  25.950  1.00  0.00     0.009 A 
ATOM     93  C   UNL A   1      47.159  27.855  23.956  1.00  0.00     0.009 A 
ATOM     94  C   UNL A   1      49.048  26.226  25.208  1.00  0.00     0.001 A 
ATOM     95  C   UNL A   1      48.188  27.280  23.211  1.00  0.00     0.001 A 
ATOM     96  C   UNL A   1      49.139  26.477  23.839  1.00  0.00     0.000 A 
ENDBRANCH  78  91
ENDBRANCH  52  53
ENDBRANCH  44  47
ENDBRANCH  42  43
ENDBRANCH  41  42
ENDBRANCH  40  41
ENDBRANCH   3  40
TORSDOF 16
ENDMDL
MODEL 2
REMARK VINA RESULT:     -13.4      3.456      9.069
REMARK SMILES O=C(COc1cccc(NC(=O)c2ccc3c(c2)C(=O)N(c2ccccc2-c2ccccc2)C3=O)c1)NCCCNC(=O)c1ccc(-c2c3nc(c(-c4ccccc4)c4ccc([nH]4)c(-c4ccccc4)c4nc(c(-c5ccccc5)c5ccc2[nH]5)C=C4)C=C3)cc1
REMARK SMILES IDX 1 1 2 2 37 3 3 5 4 6 5 7 6 8 36 9 7 10 9 11 8 12 10 13 11 14
REMARK SMILES IDX 12 16 13 17 14 18 18 19 15 20 17 21 16 22 19 23 34 24 20 25
REMARK SMILES IDX 21 26 35 27 22 28 23 29 27 30 24 31 26 32 25 33 28 34 29 35
REMARK SMILES IDX 33 36 30 37 32 38 31 39 38 40 39 41 40 42 41 43 42 44 43 46
REMARK SMILES IDX 44 47 45 48 91 49 46 50 90 51 47 52 48 53 49 54 84 55 50 56
REMARK SMILES IDX 89 57 83 58 85 59 51 60 88 61 82 62 81 63 52 65 74 66 59 67
REMARK SMILES IDX 73 68 60 69 63 70 72 71 86 72 61 73 62 74 71 76 87 77 64 78
REMARK SMILES IDX 53 79 54 80 58 81 55 82 57 83 56 84 75 85 76 86 80 87 77 88
REMARK SMILES IDX 79 89 78 90 65 91 66 92 70 93 67 94 69 95 68 96
REMARK H PARENT 37 4 10 15 41 45 85 64 63 75
REMARK Flexibility Score: inf
ROOT
ATOM      1  O   UNL A   1      41.163  22.466  28.231  1.00  0.00    -0.271 OA
ATOM      2  C   UNL A   1      40.551  21.792  27.409  1.00  0.00     0.257 C 
ATOM      3  N   UNL A   1      40.751  20.437  27.231  1.00  0.00    -0.353 N 
ATOM      4  H   UNL A   1      40.097  19.926  26.703  1.00  0.00     0.163 HD
ENDROOT
BRANCH   2   5
ATOM      5  C   UNL A   1      39.519  22.396  26.456  1.00  0.00     0.329 C 
BRANCH   5   6
ATOM      6  O   UNL A   1      38.796  21.447  25.680  1.00  0.00    -0.484 OA
BRANCH   6   7
ATOM      7  C   UNL A   1      37.506  21.781  25.362  1.00  0.00     0.122 A 
ATOM      8  C   UNL A   1      37.186  23.119  25.561  1.00  0.00     0.046 A 
ATOM      9  C   UNL A   1      36.499  20.863  25.020  1.00  0.00     0.072 A 
ATOM     10  C   UNL A   1      35.870  23.534  25.435  1.00  0.00     0.006 A 
ATOM     11  C   UNL A   1      35.159  21.264  24.908  1.00  0.00     0.045 A 
ATOM     12  C   UNL A   1      34.869  22.609  25.131  1.00  0.00     0.026 A 
BRANCH  11  13
ATOM     13  N   UNL A   1      34.182  20.255  24.696  1.00  0.00    -0.322 N 
ATOM     14  C   UNL A   1      32.874  20.110  25.133  1.00  0.00     0.255 C 
ATOM     15  H   UNL A   1      34.494  19.516  24.126  1.00  0.00     0.170 HD
ATOM     16  O   UNL A   1      32.281  19.040  25.048  1.00  0.00    -0.269 OA
BRANCH  14  17
ATOM     17  C   UNL A   1      32.123  21.307  25.545  1.00  0.00     0.041 A 
ATOM     18  C   UNL A   1      32.162  21.762  26.883  1.00  0.00     0.015 A 
ATOM     19  C   UNL A   1      31.636  22.101  24.510  1.00  0.00     0.028 A 
ATOM     20  C   UNL A   1      31.930  23.122  27.154  1.00  0.00     0.015 A 
ATOM     21  C   UNL A   1      31.428  23.423  24.820  1.00  0.00     0.054 A 
ATOM     22  C   UNL A   1      31.645  23.944  26.073  1.00  0.00     0.053 A 
ATOM     23  C   UNL A   1      31.326  24.518  23.884  1.00  0.00     0.266 C 
ATOM     24  C   UNL A   1      31.767  25.397  25.899  1.00  0.00     0.266 C 
ATOM     25  O   UNL A   1      30.924  24.301  22.757  1.00  0.00    -0.268 OA
ATOM     26  N   UNL A   1      31.785  25.642  24.538  1.00  0.00    -0.242 N 
ATOM     27  O   UNL A   1      31.774  26.129  26.871  1.00  0.00    -0.268 OA
BRANCH  26  28
ATOM     28  C   UNL A   1      32.255  26.810  23.836  1.00  0.00     0.060 A 
ATOM     29  C   UNL A   1      33.654  27.025  23.762  1.00  0.00     0.027 A 
ATOM     30  C   UNL A   1      31.429  27.850  23.330  1.00  0.00     0.006 A 
ATOM     31  C   UNL A   1      34.229  28.187  23.241  1.00  0.00     0.002 A 
ATOM     32  C   UNL A   1      32.041  29.006  22.769  1.00  0.00     0.011 A 
ATOM     33  C   UNL A   1      33.420  29.181  22.734  1.00  0.00     0.001 A 
BRANCH  30  34
ATOM     34  C   UNL A   1      29.966  27.942  23.445  1.00  0.00    -0.016 A 
ATOM     35  C   UNL A   1      29.201  26.829  23.824  1.00  0.00     0.009 A 
ATOM     36  C   UNL A   1      29.293  29.111  23.053  1.00  0.00     0.009 A 
ATOM     37  C   UNL A   1      27.807  26.900  23.866  1.00  0.00     0.001 A 
ATOM     38  C   UNL A   1      27.897  29.180  23.086  1.00  0.00     0.001 A 
ATOM     39  C   UNL A   1      27.156  28.077  23.503  1.00  0.00     0.000 A 
ENDBRANCH  30  34
ENDBRANCH  26  28
ENDBRANCH  14  17
ENDBRANCH  11  13
ENDBRANCH   6   7
ENDBRANCH   5   6
ENDBRANCH   2   5
BRANCH   3  40
ATOM     40  C   UNL A   1      41.888  19.746  27.796  1.00  0.00     0.117 C 
BRANCH  40  41
ATOM     41  C   UNL A   1      42.600  18.849  26.800  1.00  0.00     0.042 C 
BRANCH  41  42
ATOM     42  C   UNL A   1      42.607  19.380  25.371  1.00  0.00     0.118 C 
BRANCH  42  43
ATOM     43  N   UNL A   1      43.773  18.965  24.604  1.00  0.00    -0.352 N 
ATOM     44  C   UNL A   1      44.904  19.658  24.248  1.00  0.00     0.251 C 
ATOM     45  H   UNL A   1      43.745  18.033  24.286  1.00  0.00     0.163 HD
ATOM     46  O   UNL A   1      45.713  19.131  23.488  1.00  0.00    -0.269 OA
BRANCH  44  47
ATOM     47  C   UNL A   1      45.153  21.032  24.741  1.00  0.00     0.039 A 
ATOM     48  C   UNL A   1      45.020  22.092  23.839  1.00  0.00     0.014 A 
ATOM     49  C   UNL A   1      45.546  21.290  26.057  1.00  0.00     0.014 A 
ATOM     50  C   UNL A   1      45.220  23.405  24.270  1.00  0.00     0.010 A 
ATOM     51  C   UNL A   1      45.666  22.604  26.507  1.00  0.00     0.010 A 
ATOM     52  C   UNL A   1      45.510  23.677  25.618  1.00  0.00    -0.014 A 
BRANCH  52  53
ATOM     53  C   UNL A   1      45.636  25.078  26.096  1.00  0.00     0.031 A 
ATOM     54  C   UNL A   1      46.958  25.795  26.053  1.00  0.00     0.074 A 
ATOM     55  C   UNL A   1      44.553  25.702  26.601  1.00  0.00     0.049 A 
ATOM     56  N   UNL A   1      47.237  27.029  26.394  1.00  0.00    -0.248 NA
ATOM     57  C   UNL A   1      48.122  25.023  25.591  1.00  0.00     0.031 C 
ATOM     58  C   UNL A   1      43.225  25.104  26.756  1.00  0.00     0.029 A 
ATOM     59  N   UNL A   1      44.397  26.982  27.071  1.00  0.00    -0.354 N 
ATOM     60  C   UNL A   1      48.604  27.176  26.197  1.00  0.00     0.074 A 
ATOM     61  C   UNL A   1      49.107  25.892  25.758  1.00  0.00     0.031 C 
ATOM     62  C   UNL A   1      42.381  26.028  27.241  1.00  0.00     0.029 A 
ATOM     63  C   UNL A   1      43.112  27.273  27.459  1.00  0.00     0.049 A 
ATOM     64  H   UNL A   1      45.136  27.631  27.123  1.00  0.00     0.167 HD
ATOM     65  C   UNL A   1      49.372  28.283  26.346  1.00  0.00     0.031 A 
ATOM     66  C   UNL A   1      42.576  28.415  27.927  1.00  0.00     0.031 A 
ATOM     67  C   UNL A   1      48.876  29.565  26.773  1.00  0.00     0.049 A 
ATOM     68  C   UNL A   1      43.443  29.635  28.062  1.00  0.00     0.074 A 
ATOM     69  C   UNL A   1      49.565  30.759  26.899  1.00  0.00     0.029 A 
ATOM     70  N   UNL A   1      47.565  29.819  27.145  1.00  0.00    -0.354 N 
ATOM     71  N   UNL A   1      44.719  29.776  27.795  1.00  0.00    -0.248 NA
ATOM     72  C   UNL A   1      42.786  30.858  28.544  1.00  0.00     0.031 C 
ATOM     73  C   UNL A   1      48.681  31.726  27.390  1.00  0.00     0.029 A 
ATOM     74  C   UNL A   1      47.429  31.147  27.518  1.00  0.00     0.049 A 
ATOM     75  H   UNL A   1      46.839  29.155  27.144  1.00  0.00     0.167 HD
ATOM     76  C   UNL A   1      45.011  31.109  28.051  1.00  0.00     0.074 A 
ATOM     77  C   UNL A   1      43.776  31.737  28.472  1.00  0.00     0.031 C 
ATOM     78  C   UNL A   1      46.196  31.757  27.945  1.00  0.00     0.031 A 
BRANCH  65  79
ATOM     79  C   UNL A   1      50.839  28.151  26.040  1.00  0.00    -0.014 A 
ATOM     80  C   UNL A   1      51.760  27.797  27.039  1.00  0.00     0.009 A 
ATOM     81  C   UNL A   1      51.303  28.350  24.730  1.00  0.00     0.009 A 
ATOM     82  C   UNL A   1      53.120  27.682  26.742  1.00  0.00     0.001 A 
ATOM     83  C   UNL A   1      52.658  28.206  24.429  1.00  0.00     0.001 A 
ATOM     84  C   UNL A   1      53.567  27.882  25.435  1.00  0.00     0.000 A 
ENDBRANCH  65  79
BRANCH  66  85
ATOM     85  C   UNL A   1      41.130  28.475  28.263  1.00  0.00    -0.014 A 
ATOM     86  C   UNL A   1      40.678  28.061  29.527  1.00  0.00     0.009 A 
ATOM     87  C   UNL A   1      40.197  28.938  27.325  1.00  0.00     0.009 A 
ATOM     88  C   UNL A   1      39.315  28.084  29.831  1.00  0.00     0.001 A 
ATOM     89  C   UNL A   1      38.837  28.986  27.644  1.00  0.00     0.001 A 
ATOM     90  C   UNL A   1      38.397  28.549  28.891  1.00  0.00     0.000 A 
ENDBRANCH  66  85
BRANCH  78  91
ATOM     91  C   UNL A   1      46.201  33.225  28.262  1.00  0.00    -0.014 A 
ATOM     92  C   UNL A   1      45.943  34.188  27.274  1.00  0.00     0.009 A 
ATOM     93  C   UNL A   1      46.462  33.652  29.574  1.00  0.00     0.009 A 
ATOM     94  C   UNL A   1      45.994  35.550  27.582  1.00  0.00     0.001 A 
ATOM     95  C   UNL A   1      46.482  35.011  29.887  1.00  0.00     0.001 A 
ATOM     96  C   UNL A   1      46.261  35.959  28.888  1.00  0.00     0.000 A 
ENDBRANCH  78  91
ENDBRANCH  52  53
ENDBRANCH  44  47
ENDBRANCH  42  43
ENDBRANCH  41  42
ENDBRANCH  40  41
ENDBRANCH   3  40
TORSDOF 16
ENDMDL
MODEL 3
REMARK VINA RESULT:     -13.4      5.067     11.046
REMARK SMILES O=C(COc1cccc(NC(=O)c2ccc3c(c2)C(=O)N(c2ccccc2-c2ccccc2)C3=O)c1)NCCCNC(=O)c1ccc(-c2c3nc(c(-c4ccccc4)c4ccc([nH]4)c(-c4ccccc4)c4nc(c(-c5ccccc5)c5ccc2[nH]5)C=C4)C=C3)cc1
REMARK SMILES IDX 1 1 2 2 37 3 3 5 4 6 5 7 6 8 36 9 7 10 9 11 8 12 10 13 11 14
REMARK SMILES IDX 12 16 13 17 14 18 18 19 15 20 17 21 16 22 19 23 34 24 20 25
REMARK SMILES IDX 21 26 35 27 22 28 23 29 27 30 24 31 26 32 25 33 28 34 29 35
REMARK SMILES IDX 33 36 30 37 32 38 31 39 38 40 39 41 40 42 41 43 42 44 43 46
REMARK SMILES IDX 44 47 45 48 91 49 46 50 90 51 47 52 48 53 49 54 84 55 50 56
REMARK SMILES IDX 89 57 83 58 85 59 51 60 88 61 82 62 81 63 52 65 74 66 59 67
REMARK SMILES IDX 73 68 60 69 63 70 72 71 86 72 61 73 62 74 71 76 87 77 64 78
REMARK SMILES IDX 53 79 54 80 58 81 55 82 57 83 56 84 75 85 76 86 80 87 77 88
REMARK SMILES IDX 79 89 78 90 65 91 66 92 70 93 67 94 69 95 68 96
REMARK H PARENT 37 4 10 15 41 45 85 64 63 75
REMARK Flexibility Score: inf
ROOT
ATOM      1  O   UNL A   1      41.567  21.592  26.066  1.00  0.00    -0.271 OA
ATOM      2  C   UNL A   1      42.108  22.662  26.324  1.00  0.00     0.257 C 
ATOM      3  N   UNL A   1      43.164  23.179  25.600  1.00  0.00    -0.353 N 
ATOM      4  H   UNL A   1      43.418  24.119  25.735  1.00  0.00     0.163 HD
ENDROOT
BRANCH   2   5
ATOM      5  C   UNL A   1      41.691  23.527  27.514  1.00  0.00     0.329 C 
BRANCH   5   6
ATOM      6  O   UNL A   1      40.386  24.085  27.419  1.00  0.00    -0.484 OA
BRANCH   6   7
ATOM      7  C   UNL A   1      40.305  25.452  27.470  1.00  0.00     0.122 A 
ATOM      8  C   UNL A   1      40.779  26.105  26.339  1.00  0.00     0.046 A 
ATOM      9  C   UNL A   1      39.941  26.193  28.607  1.00  0.00     0.072 A 
ATOM     10  C   UNL A   1      40.904  27.486  26.348  1.00  0.00     0.006 A 
ATOM     11  C   UNL A   1      40.080  27.589  28.638  1.00  0.00     0.045 A 
ATOM     12  C   UNL A   1      40.575  28.212  27.494  1.00  0.00     0.026 A 
BRANCH  11  13
ATOM     13  N   UNL A   1      39.822  28.253  29.867  1.00  0.00    -0.322 N 
ATOM     14  C   UNL A   1      39.210  29.460  30.171  1.00  0.00     0.255 C 
ATOM     15  H   UNL A   1      40.138  27.759  30.658  1.00  0.00     0.170 HD
ATOM     16  O   UNL A   1      39.314  29.974  31.279  1.00  0.00    -0.269 OA
BRANCH  14  17
ATOM     17  C   UNL A   1      38.273  30.048  29.200  1.00  0.00     0.041 A 
ATOM     18  C   UNL A   1      37.288  29.253  28.571  1.00  0.00     0.015 A 
ATOM     19  C   UNL A   1      38.229  31.439  29.168  1.00  0.00     0.028 A 
ATOM     20  C   UNL A   1      36.108  29.860  28.106  1.00  0.00     0.015 A 
ATOM     21  C   UNL A   1      37.056  31.988  28.709  1.00  0.00     0.054 A 
ATOM     22  C   UNL A   1      35.995  31.233  28.270  1.00  0.00     0.053 A 
ATOM     23  C   UNL A   1      36.591  33.335  28.942  1.00  0.00     0.266 C 
ATOM     24  C   UNL A   1      34.820  32.112  28.313  1.00  0.00     0.266 C 
ATOM     25  O   UNL A   1      37.404  34.221  29.128  1.00  0.00    -0.268 OA
ATOM     26  N   UNL A   1      35.213  33.285  28.932  1.00  0.00    -0.242 N 
ATOM     27  O   UNL A   1      33.775  31.759  27.798  1.00  0.00    -0.268 OA
BRANCH  26  28
ATOM     28  C   UNL A   1      34.395  34.297  29.553  1.00  0.00     0.060 A 
ATOM     29  C   UNL A   1      33.623  35.138  28.712  1.00  0.00     0.027 A 
ATOM     30  C   UNL A   1      34.404  34.624  30.936  1.00  0.00     0.006 A 
ATOM     31  C   UNL A   1      32.907  36.244  29.175  1.00  0.00     0.002 A 
ATOM     32  C   UNL A   1      33.634  35.733  31.387  1.00  0.00     0.011 A 
ATOM     33  C   UNL A   1      32.905  36.541  30.521  1.00  0.00     0.001 A 
BRANCH  30  34
ATOM     34  C   UNL A   1      35.250  34.019  31.974  1.00  0.00    -0.016 A 
ATOM     35  C   UNL A   1      35.217  32.637  32.217  1.00  0.00     0.009 A 
ATOM     36  C   UNL A   1      36.013  34.828  32.832  1.00  0.00     0.009 A 
ATOM     37  C   UNL A   1      35.971  32.074  33.249  1.00  0.00     0.001 A 
ATOM     38  C   UNL A   1      36.760  34.266  33.871  1.00  0.00     0.001 A 
ATOM     39  C   UNL A   1      36.747  32.887  34.072  1.00  0.00     0.000 A 
ENDBRANCH  30  34
ENDBRANCH  26  28
ENDBRANCH  14  17
ENDBRANCH  11  13
ENDBRANCH   6   7
ENDBRANCH   5   6
ENDBRANCH   2   5
BRANCH   3  40
ATOM     40  C   UNL A   1      43.908  22.384  24.650  1.00  0.00     0.117 C 
BRANCH  40  41
ATOM     41  C   UNL A   1      45.402  22.653  24.681  1.00  0.00     0.042 C 
BRANCH  41  42
ATOM     42  C   UNL A   1      45.796  23.911  25.447  1.00  0.00     0.118 C 
BRANCH  42  43
ATOM     43  N   UNL A   1      46.546  24.868  24.644  1.00  0.00    -0.352 N 
ATOM     44  C   UNL A   1      46.696  26.226  24.778  1.00  0.00     0.251 C 
ATOM     45  H   UNL A   1      47.023  24.475  23.877  1.00  0.00     0.163 HD
ATOM     46  O   UNL A   1      47.287  26.851  23.901  1.00  0.00    -0.269 OA
BRANCH  44  47
ATOM     47  C   UNL A   1      46.136  26.952  25.941  1.00  0.00     0.039 A 
ATOM     48  C   UNL A   1      44.746  26.992  26.090  1.00  0.00     0.014 A 
ATOM     49  C   UNL A   1      46.949  27.620  26.861  1.00  0.00     0.014 A 
ATOM     50  C   UNL A   1      44.180  27.644  27.187  1.00  0.00     0.010 A 
ATOM     51  C   UNL A   1      46.388  28.200  27.998  1.00  0.00     0.010 A 
ATOM     52  C   UNL A   1      44.997  28.224  28.171  1.00  0.00    -0.014 A 
BRANCH  52  53
ATOM     53  C   UNL A   1      44.398  28.840  29.383  1.00  0.00     0.031 A 
ATOM     54  C   UNL A   1      43.903  30.261  29.366  1.00  0.00     0.074 A 
ATOM     55  C   UNL A   1      44.324  28.121  30.521  1.00  0.00     0.049 A 
ATOM     56  N   UNL A   1      43.319  30.942  30.321  1.00  0.00    -0.248 NA
ATOM     57  C   UNL A   1      44.111  31.025  28.125  1.00  0.00     0.031 C 
ATOM     58  C   UNL A   1      44.819  26.753  30.694  1.00  0.00     0.029 A 
ATOM     59  N   UNL A   1      43.796  28.439  31.747  1.00  0.00    -0.354 N 
ATOM     60  C   UNL A   1      43.101  32.212  29.801  1.00  0.00     0.074 A 
ATOM     61  C   UNL A   1      43.661  32.223  28.467  1.00  0.00     0.031 C 
ATOM     62  C   UNL A   1      44.531  26.335  31.937  1.00  0.00     0.029 A 
ATOM     63  C   UNL A   1      43.859  27.412  32.657  1.00  0.00     0.049 A 
ATOM     64  H   UNL A   1      43.407  29.320  31.955  1.00  0.00     0.167 HD
ATOM     65  C   UNL A   1      42.472  33.268  30.371  1.00  0.00     0.031 A 
ATOM     66  C   UNL A   1      43.416  27.338  33.926  1.00  0.00     0.031 A 
ATOM     67  C   UNL A   1      41.904  33.261  31.694  1.00  0.00     0.049 A 
ATOM     68  C   UNL A   1      42.702  28.515  34.527  1.00  0.00     0.074 A 
ATOM     69  C   UNL A   1      41.199  34.263  32.337  1.00  0.00     0.029 A 
ATOM     70  N   UNL A   1      41.980  32.196  32.578  1.00  0.00    -0.354 N 
ATOM     71  N   UNL A   1      42.434  29.681  33.992  1.00  0.00    -0.248 NA
ATOM     72  C   UNL A   1      42.212  28.353  35.904  1.00  0.00     0.031 C 
ATOM     73  C   UNL A   1      40.885  33.821  33.627  1.00  0.00     0.029 A 
ATOM     74  C   UNL A   1      41.349  32.523  33.768  1.00  0.00     0.049 A 
ATOM     75  H   UNL A   1      42.418  31.334  32.389  1.00  0.00     0.167 HD
ATOM     76  C   UNL A   1      41.721  30.382  34.955  1.00  0.00     0.074 A 
ATOM     77  C   UNL A   1      41.581  29.502  36.097  1.00  0.00     0.031 C 
ATOM     78  C   UNL A   1      41.225  31.642  34.899  1.00  0.00     0.031 A 
BRANCH  65  79
ATOM     79  C   UNL A   1      42.364  34.529  29.556  1.00  0.00    -0.014 A 
ATOM     80  C   UNL A   1      41.236  34.787  28.762  1.00  0.00     0.009 A 
ATOM     81  C   UNL A   1      43.389  35.487  29.611  1.00  0.00     0.009 A 
ATOM     82  C   UNL A   1      41.152  35.960  28.009  1.00  0.00     0.001 A 
ATOM     83  C   UNL A   1      43.290  36.671  28.879  1.00  0.00     0.001 A 
ATOM     84  C   UNL A   1      42.178  36.904  28.072  1.00  0.00     0.000 A 
ENDBRANCH  65  79
BRANCH  66  85
ATOM     85  C   UNL A   1      43.595  26.085  34.703  1.00  0.00    -0.014 A 
ATOM     86  C   UNL A   1      44.751  25.887  35.475  1.00  0.00     0.009 A 
ATOM     87  C   UNL A   1      42.618  25.079  34.674  1.00  0.00     0.009 A 
ATOM     88  C   UNL A   1      44.937  24.696  36.178  1.00  0.00     0.001 A 
ATOM     89  C   UNL A   1      42.794  23.900  35.401  1.00  0.00     0.001 A 
ATOM     90  C   UNL A   1      43.958  23.705  36.144  1.00  0.00     0.000 A 
ENDBRANCH  66  85
BRANCH  78  91
ATOM     91  C   UNL A   1      40.460  32.127  36.098  1.00  0.00    -0.014 A 
ATOM     92  C   UNL A   1      39.088  31.866  36.245  1.00  0.00     0.009 A 
ATOM     93  C   UNL A   1      41.125  32.851  37.100  1.00  0.00     0.009 A 
ATOM     94  C   UNL A   1      38.388  32.363  37.347  1.00  0.00     0.001 A 
ATOM     95  C   UNL A   1      40.430  33.320  38.216  1.00  0.00     0.001 A 
ATOM     96  C   UNL A   1      39.060  33.086  38.332  1.00  0.00     0.000 A 
ENDBRANCH  78  91
ENDBRANCH  52  53
ENDBRANCH  44  47
ENDBRANCH  42  43
ENDBRANCH  41  42
ENDBRANCH  40  41
ENDBRANCH   3  40
TORSDOF 16
ENDMDL
