MODEL 1
REMARK VINA RESULT:     -10.6      0.000      0.000
REMARK SMILES CSc1ncccc1C(=O)N1CSC[C@H]1C(=O)NCCCNC(=O)c1ccc(-c2c3nc(c(-c4ccccc4)c4ccc([nH]4)c(-c4ccccc4)c4nc(c(-c5ccccc5)c5ccc2[nH]5)C=C4)C=C3)cc1
REMARK SMILES IDX 19 1 18 2 16 3 17 4 15 6 11 7 12 8 13 9 14 10 9 11 10 12
REMARK SMILES IDX 8 13 3 14 4 15 5 16 7 17 6 18 2 19 1 20 20 21 21 22 22 23
REMARK SMILES IDX 23 24 24 26 25 27 26 28 72 29 27 30 71 31 28 32 29 33 30 34
REMARK SMILES IDX 65 35 31 36 70 37 64 38 66 39 32 40 69 41 63 42 62 43 33 45
REMARK SMILES IDX 55 46 40 47 54 48 41 49 44 50 53 51 67 52 42 53 43 54 52 56
REMARK SMILES IDX 68 57 45 58 34 59 35 60 39 61 36 62 38 63 37 64 56 65 57 66
REMARK SMILES IDX 61 67 58 68 60 69 59 70 46 71 47 72 51 73 48 74 50 75 49 76
REMARK H PARENT 18 5 22 25 66 44 44 55
REMARK Flexibility Score: inf
ROOT
ATOM      1  C   UNL A   1      33.281  28.825  24.954  1.00  0.00     0.117 C 
ENDROOT
BRANCH   1   2
ATOM      2  N   UNL A   1      34.024  28.656  23.727  1.00  0.00    -0.354 N 
ATOM      3  C   UNL A   1      33.735  27.935  22.609  1.00  0.00     0.243 C 
ATOM      4  O   UNL A   1      34.386  28.209  21.594  1.00  0.00    -0.273 OA
ATOM      5  H   UNL A   1      34.880  29.142  23.694  1.00  0.00     0.163 HD
BRANCH   3   6
ATOM      6  C   UNL A   1      32.554  26.944  22.528  1.00  0.00     0.185 C 
ATOM      7  N   UNL A   1      32.619  25.742  23.371  1.00  0.00    -0.316 N 
ATOM      8  C   UNL A   1      31.595  25.622  24.382  1.00  0.00     0.190 C 
ATOM      9  S   UNL A   1      30.198  26.594  23.790  1.00  0.00    -0.138 SA
ATOM     10  C   UNL A   1      31.212  27.649  22.710  1.00  0.00     0.106 C 
BRANCH   7  11
ATOM     11  C   UNL A   1      33.531  24.772  22.973  1.00  0.00     0.257 C 
ATOM     12  O   UNL A   1      33.639  24.527  21.773  1.00  0.00    -0.269 OA
BRANCH  11  13
ATOM     13  C   UNL A   1      34.216  23.905  23.981  1.00  0.00     0.072 A 
ATOM     14  C   UNL A   1      33.834  22.581  24.239  1.00  0.00     0.108 A 
ATOM     15  N   UNL A   1      34.418  21.831  25.219  1.00  0.00    -0.249 NA
ATOM     16  C   UNL A   1      35.367  22.399  25.989  1.00  0.00     0.112 A 
ATOM     17  C   UNL A   1      35.166  24.471  24.850  1.00  0.00     0.018 A 
ATOM     18  C   UNL A   1      35.767  23.709  25.849  1.00  0.00     0.021 A 
BRANCH  14  19
ATOM     19  S   UNL A   1      32.539  21.688  23.400  1.00  0.00    -0.109 SA
ATOM     20  C   UNL A   1      32.288  20.381  24.638  1.00  0.00     0.092 C 
ENDBRANCH  14  19
ENDBRANCH  11  13
ENDBRANCH   7  11
ENDBRANCH   3   6
ENDBRANCH   1   2
BRANCH   1  21
ATOM     21  C   UNL A   1      33.852  28.025  26.117  1.00  0.00     0.042 C 
BRANCH  21  22
ATOM     22  C   UNL A   1      33.380  28.496  27.492  1.00  0.00     0.118 C 
BRANCH  22  23
ATOM     23  N   UNL A   1      33.418  29.946  27.626  1.00  0.00    -0.352 N 
ATOM     24  C   UNL A   1      34.380  30.787  28.121  1.00  0.00     0.251 C 
ATOM     25  H   UNL A   1      32.607  30.403  27.305  1.00  0.00     0.163 HD
ATOM     26  O   UNL A   1      34.089  31.965  28.319  1.00  0.00    -0.269 OA
BRANCH  24  27
ATOM     27  C   UNL A   1      35.752  30.318  28.422  1.00  0.00     0.039 A 
ATOM     28  C   UNL A   1      36.710  30.385  27.404  1.00  0.00     0.014 A 
ATOM     29  C   UNL A   1      36.088  29.741  29.650  1.00  0.00     0.014 A 
ATOM     30  C   UNL A   1      38.006  29.915  27.630  1.00  0.00     0.010 A 
ATOM     31  C   UNL A   1      37.400  29.335  29.898  1.00  0.00     0.010 A 
ATOM     32  C   UNL A   1      38.369  29.408  28.887  1.00  0.00    -0.014 A 
BRANCH  32  33
ATOM     33  C   UNL A   1      39.759  28.952  29.144  1.00  0.00     0.031 A 
ATOM     34  C   UNL A   1      40.744  29.851  29.840  1.00  0.00     0.074 A 
ATOM     35  C   UNL A   1      40.138  27.727  28.732  1.00  0.00     0.049 A 
ATOM     36  N   UNL A   1      41.993  29.613  30.157  1.00  0.00    -0.248 NA
ATOM     37  C   UNL A   1      40.276  31.194  30.214  1.00  0.00     0.031 C 
ATOM     38  C   UNL A   1      39.291  26.776  28.009  1.00  0.00     0.029 A 
ATOM     39  N   UNL A   1      41.335  27.071  28.867  1.00  0.00    -0.354 N 
ATOM     40  C   UNL A   1      42.459  30.775  30.760  1.00  0.00     0.074 A 
ATOM     41  C   UNL A   1      41.375  31.732  30.725  1.00  0.00     0.031 C 
ATOM     42  C   UNL A   1      39.984  25.646  27.793  1.00  0.00     0.029 A 
ATOM     43  C   UNL A   1      41.329  25.804  28.336  1.00  0.00     0.049 A 
ATOM     44  H   UNL A   1      42.123  27.470  29.303  1.00  0.00     0.167 HD
ATOM     45  C   UNL A   1      43.671  31.019  31.312  1.00  0.00     0.031 A 
ATOM     46  C   UNL A   1      42.297  24.870  28.298  1.00  0.00     0.031 A 
ATOM     47  C   UNL A   1      44.751  30.069  31.357  1.00  0.00     0.049 A 
ATOM     48  C   UNL A   1      43.629  25.163  28.928  1.00  0.00     0.074 A 
ATOM     49  C   UNL A   1      46.008  30.216  31.921  1.00  0.00     0.029 A 
ATOM     50  N   UNL A   1      44.698  28.792  30.821  1.00  0.00    -0.354 N 
ATOM     51  N   UNL A   1      44.031  26.249  29.540  1.00  0.00    -0.248 NA
ATOM     52  C   UNL A   1      44.632  24.091  28.876  1.00  0.00     0.031 C 
ATOM     53  C   UNL A   1      46.727  29.035  31.699  1.00  0.00     0.029 A 
ATOM     54  C   UNL A   1      45.903  28.142  31.035  1.00  0.00     0.049 A 
ATOM     55  H   UNL A   1      43.922  28.405  30.358  1.00  0.00     0.167 HD
ATOM     56  C   UNL A   1      45.327  25.985  29.964  1.00  0.00     0.074 A 
ATOM     57  C   UNL A   1      45.633  24.627  29.560  1.00  0.00     0.031 C 
ATOM     58  C   UNL A   1      46.190  26.794  30.624  1.00  0.00     0.031 A 
BRANCH  45  59
ATOM     59  C   UNL A   1      43.892  32.371  31.927  1.00  0.00    -0.014 A 
ATOM     60  C   UNL A   1      43.696  32.577  33.303  1.00  0.00     0.009 A 
ATOM     61  C   UNL A   1      44.345  33.439  31.138  1.00  0.00     0.009 A 
ATOM     62  C   UNL A   1      43.926  33.831  33.870  1.00  0.00     0.001 A 
ATOM     63  C   UNL A   1      44.596  34.687  31.713  1.00  0.00     0.001 A 
ATOM     64  C   UNL A   1      44.381  34.883  33.075  1.00  0.00     0.000 A 
ENDBRANCH  45  59
BRANCH  46  65
ATOM     65  C   UNL A   1      42.041  23.555  27.656  1.00  0.00    -0.014 A 
ATOM     66  C   UNL A   1      42.413  23.330  26.323  1.00  0.00     0.009 A 
ATOM     67  C   UNL A   1      41.403  22.528  28.368  1.00  0.00     0.009 A 
ATOM     68  C   UNL A   1      42.121  22.113  25.703  1.00  0.00     0.001 A 
ATOM     69  C   UNL A   1      41.137  21.303  27.753  1.00  0.00     0.001 A 
ATOM     70  C   UNL A   1      41.486  21.100  26.420  1.00  0.00     0.000 A 
ENDBRANCH  46  65
BRANCH  58  71
ATOM     71  C   UNL A   1      47.532  26.217  30.968  1.00  0.00    -0.014 A 
ATOM     72  C   UNL A   1      48.575  26.198  30.029  1.00  0.00     0.009 A 
ATOM     73  C   UNL A   1      47.757  25.693  32.250  1.00  0.00     0.009 A 
ATOM     74  C   UNL A   1      49.807  25.630  30.356  1.00  0.00     0.001 A 
ATOM     75  C   UNL A   1      48.997  25.148  32.582  1.00  0.00     0.001 A 
ATOM     76  C   UNL A   1      50.017  25.107  31.632  1.00  0.00     0.000 A 
ENDBRANCH  58  71
ENDBRANCH  32  33
ENDBRANCH  24  27
ENDBRANCH  22  23
ENDBRANCH  21  22
ENDBRANCH   1  21
TORSDOF 13
ENDMDL
MODEL 2
REMARK VINA RESULT:     -10.2      0.669      6.094
REMARK SMILES CSc1ncccc1C(=O)N1CSC[C@H]1C(=O)NCCCNC(=O)c1ccc(-c2c3nc(c(-c4ccccc4)c4ccc([nH]4)c(-c4ccccc4)c4nc(c(-c5ccccc5)c5ccc2[nH]5)C=C4)C=C3)cc1
REMARK SMILES IDX 19 1 18 2 16 3 17 4 15 6 11 7 12 8 13 9 14 10 9 11 10 12
REMARK SMILES IDX 8 13 3 14 4 15 5 16 7 17 6 18 2 19 1 20 20 21 21 22 22 23
REMARK SMILES IDX 23 24 24 26 25 27 26 28 72 29 27 30 71 31 28 32 29 33 30 34
REMARK SMILES IDX 65 35 31 36 70 37 64 38 66 39 32 40 69 41 63 42 62 43 33 45
REMARK SMILES IDX 55 46 40 47 54 48 41 49 44 50 53 51 67 52 42 53 43 54 52 56
REMARK SMILES IDX 68 57 45 58 34 59 35 60 39 61 36 62 38 63 37 64 56 65 57 66
REMARK SMILES IDX 61 67 58 68 60 69 59 70 46 71 47 72 51 73 48 74 50 75 49 76
REMARK H PARENT 18 5 22 25 66 44 44 55
REMARK Flexibility Score: inf
ROOT
ATOM      1  C   UNL A   1      33.364  28.805  24.863  1.00  0.00     0.117 C 
ENDROOT
BRANCH   1   2
ATOM      2  N   UNL A   1      34.025  28.612  23.593  1.00  0.00    -0.354 N 
ATOM      3  C   UNL A   1      33.651  27.889  22.502  1.00  0.00     0.243 C 
ATOM      4  O   UNL A   1      34.241  28.142  21.445  1.00  0.00    -0.273 OA
ATOM      5  H   UNL A   1      34.886  29.082  23.501  1.00  0.00     0.163 HD
BRANCH   3   6
ATOM      6  C   UNL A   1      32.450  26.920  22.505  1.00  0.00     0.185 C 
ATOM      7  N   UNL A   1      32.503  25.777  23.427  1.00  0.00    -0.316 N 
ATOM      8  C   UNL A   1      31.492  25.747  24.457  1.00  0.00     0.190 C 
ATOM      9  S   UNL A   1      30.107  26.707  23.820  1.00  0.00    -0.138 SA
ATOM     10  C   UNL A   1      31.126  27.664  22.657  1.00  0.00     0.106 C 
BRANCH   7  11
ATOM     11  C   UNL A   1      33.389  24.763  23.084  1.00  0.00     0.257 C 
ATOM     12  O   UNL A   1      33.424  24.388  21.914  1.00  0.00    -0.269 OA
BRANCH  11  13
ATOM     13  C   UNL A   1      34.133  24.006  24.138  1.00  0.00     0.072 A 
ATOM     14  C   UNL A   1      33.690  22.783  24.660  1.00  0.00     0.108 A 
ATOM     15  N   UNL A   1      34.339  22.146  25.678  1.00  0.00    -0.249 NA
ATOM     16  C   UNL A   1      35.420  22.736  26.225  1.00  0.00     0.112 A 
ATOM     17  C   UNL A   1      35.228  24.610  24.782  1.00  0.00     0.018 A 
ATOM     18  C   UNL A   1      35.895  23.963  25.819  1.00  0.00     0.021 A 
BRANCH  14  19
ATOM     19  S   UNL A   1      32.234  21.895  24.141  1.00  0.00    -0.109 SA
ATOM     20  C   UNL A   1      31.195  22.238  25.592  1.00  0.00     0.092 C 
ENDBRANCH  14  19
ENDBRANCH  11  13
ENDBRANCH   7  11
ENDBRANCH   3   6
ENDBRANCH   1   2
BRANCH   1  21
ATOM     21  C   UNL A   1      34.090  28.138  26.024  1.00  0.00     0.042 C 
BRANCH  21  22
ATOM     22  C   UNL A   1      33.510  28.470  27.398  1.00  0.00     0.118 C 
BRANCH  22  23
ATOM     23  N   UNL A   1      33.540  29.899  27.683  1.00  0.00    -0.352 N 
ATOM     24  C   UNL A   1      34.517  30.698  28.216  1.00  0.00     0.251 C 
ATOM     25  H   UNL A   1      32.710  30.375  27.452  1.00  0.00     0.163 HD
ATOM     26  O   UNL A   1      34.224  31.844  28.551  1.00  0.00    -0.269 OA
BRANCH  24  27
ATOM     27  C   UNL A   1      35.907  30.222  28.399  1.00  0.00     0.039 A 
ATOM     28  C   UNL A   1      36.265  29.691  29.643  1.00  0.00     0.014 A 
ATOM     29  C   UNL A   1      36.879  30.365  27.404  1.00  0.00     0.014 A 
ATOM     30  C   UNL A   1      37.575  29.268  29.874  1.00  0.00     0.010 A 
ATOM     31  C   UNL A   1      38.171  29.879  27.612  1.00  0.00     0.010 A 
ATOM     32  C   UNL A   1      38.534  29.336  28.852  1.00  0.00    -0.014 A 
BRANCH  32  33
ATOM     33  C   UNL A   1      39.916  28.842  29.080  1.00  0.00     0.031 A 
ATOM     34  C   UNL A   1      40.299  27.435  28.712  1.00  0.00     0.074 A 
ATOM     35  C   UNL A   1      40.827  29.663  29.639  1.00  0.00     0.049 A 
ATOM     36  N   UNL A   1      41.461  26.841  28.829  1.00  0.00    -0.248 NA
ATOM     37  C   UNL A   1      39.241  26.579  28.155  1.00  0.00     0.031 C 
ATOM     38  C   UNL A   1      40.571  31.037  30.080  1.00  0.00     0.029 A 
ATOM     39  N   UNL A   1      42.152  29.463  29.927  1.00  0.00    -0.354 N 
ATOM     40  C   UNL A   1      41.271  25.544  28.368  1.00  0.00     0.074 A 
ATOM     41  C   UNL A   1      39.874  25.422  28.011  1.00  0.00     0.031 C 
ATOM     42  C   UNL A   1      41.711  31.565  30.553  1.00  0.00     0.029 A 
ATOM     43  C   UNL A   1      42.768  30.562  30.474  1.00  0.00     0.049 A 
ATOM     44  H   UNL A   1      42.618  28.612  29.757  1.00  0.00     0.167 HD
ATOM     45  C   UNL A   1      42.179  24.548  28.233  1.00  0.00     0.031 A 
ATOM     46  C   UNL A   1      44.043  30.745  30.861  1.00  0.00     0.031 A 
ATOM     47  C   UNL A   1      43.571  24.664  28.580  1.00  0.00     0.049 A 
ATOM     48  C   UNL A   1      45.033  29.628  30.690  1.00  0.00     0.074 A 
ATOM     49  C   UNL A   1      44.575  23.718  28.452  1.00  0.00     0.029 A 
ATOM     50  N   UNL A   1      44.156  25.799  29.116  1.00  0.00    -0.354 N 
ATOM     51  N   UNL A   1      44.844  28.426  30.203  1.00  0.00    -0.248 NA
ATOM     52  C   UNL A   1      46.415  29.901  31.107  1.00  0.00     0.031 C 
ATOM     53  C   UNL A   1      45.763  24.273  28.940  1.00  0.00     0.029 A 
ATOM     54  C   UNL A   1      45.507  25.576  29.332  1.00  0.00     0.049 A 
ATOM     55  H   UNL A   1      43.684  26.639  29.314  1.00  0.00     0.167 HD
ATOM     56  C   UNL A   1      46.087  27.807  30.236  1.00  0.00     0.074 A 
ATOM     57  C   UNL A   1      47.025  28.775  30.768  1.00  0.00     0.031 C 
ATOM     58  C   UNL A   1      46.423  26.549  29.864  1.00  0.00     0.031 A 
BRANCH  45  59
ATOM     59  C   UNL A   1      41.695  23.241  27.674  1.00  0.00    -0.014 A 
ATOM     60  C   UNL A   1      41.434  23.098  26.302  1.00  0.00     0.009 A 
ATOM     61  C   UNL A   1      41.543  22.128  28.514  1.00  0.00     0.009 A 
ATOM     62  C   UNL A   1      41.007  21.873  25.787  1.00  0.00     0.001 A 
ATOM     63  C   UNL A   1      41.137  20.898  27.993  1.00  0.00     0.001 A 
ATOM     64  C   UNL A   1      40.864  20.773  26.632  1.00  0.00     0.000 A 
ENDBRANCH  45  59
BRANCH  46  65
ATOM     65  C   UNL A   1      44.471  32.048  31.433  1.00  0.00    -0.014 A 
ATOM     66  C   UNL A   1      44.939  33.071  30.595  1.00  0.00     0.009 A 
ATOM     67  C   UNL A   1      44.435  32.264  32.818  1.00  0.00     0.009 A 
ATOM     68  C   UNL A   1      45.394  34.275  31.138  1.00  0.00     0.001 A 
ATOM     69  C   UNL A   1      44.865  33.479  33.355  1.00  0.00     0.001 A 
ATOM     70  C   UNL A   1      45.354  34.478  32.516  1.00  0.00     0.000 A 
ENDBRANCH  46  65
BRANCH  58  71
ATOM     71  C   UNL A   1      47.867  26.164  29.999  1.00  0.00    -0.014 A 
ATOM     72  C   UNL A   1      48.391  25.735  31.229  1.00  0.00     0.009 A 
ATOM     73  C   UNL A   1      48.712  26.225  28.880  1.00  0.00     0.009 A 
ATOM     74  C   UNL A   1      49.743  25.411  31.343  1.00  0.00     0.001 A 
ATOM     75  C   UNL A   1      50.058  25.877  28.992  1.00  0.00     0.001 A 
ATOM     76  C   UNL A   1      50.575  25.481  30.225  1.00  0.00     0.000 A 
ENDBRANCH  58  71
ENDBRANCH  32  33
ENDBRANCH  24  27
ENDBRANCH  22  23
ENDBRANCH  21  22
ENDBRANCH   1  21
TORSDOF 13
ENDMDL
MODEL 3
REMARK VINA RESULT:     -10.2      2.451      7.586
REMARK SMILES CSc1ncccc1C(=O)N1CSC[C@H]1C(=O)NCCCNC(=O)c1ccc(-c2c3nc(c(-c4ccccc4)c4ccc([nH]4)c(-c4ccccc4)c4nc(c(-c5ccccc5)c5ccc2[nH]5)C=C4)C=C3)cc1
REMARK SMILES IDX 19 1 18 2 16 3 17 4 15 6 11 7 12 8 13 9 14 10 9 11 10 12
REMARK SMILES IDX 8 13 3 14 4 15 5 16 7 17 6 18 2 19 1 20 20 21 21 22 22 23
REMARK SMILES IDX 23 24 24 26 25 27 26 28 72 29 27 30 71 31 28 32 29 33 30 34
REMARK SMILES IDX 65 35 31 36 70 37 64 38 66 39 32 40 69 41 63 42 62 43 33 45
REMARK SMILES IDX 55 46 40 47 54 48 41 49 44 50 53 51 67 52 42 53 43 54 52 56
REMARK SMILES IDX 68 57 45 58 34 59 35 60 39 61 36 62 38 63 37 64 56 65 57 66
REMARK SMILES IDX 61 67 58 68 60 69 59 70 46 71 47 72 51 73 48 74 50 75 49 76
REMARK H PARENT 18 5 22 25 66 44 44 55
REMARK Flexibility Score: inf
ROOT
ATOM      1  C   UNL A   1      35.411  22.549  26.360  1.00  0.00     0.117 C 
ENDROOT
BRANCH   1   2
ATOM      2  N   UNL A   1      34.424  22.689  27.406  1.00  0.00    -0.354 N 
ATOM      3  C   UNL A   1      33.066  22.604  27.357  1.00  0.00     0.243 C 
ATOM      4  O   UNL A   1      32.485  22.457  28.439  1.00  0.00    -0.273 OA
ATOM      5  H   UNL A   1      34.794  22.878  28.299  1.00  0.00     0.163 HD
BRANCH   3   6
ATOM      6  C   UNL A   1      32.274  22.519  26.036  1.00  0.00     0.185 C 
ATOM      7  N   UNL A   1      32.358  23.667  25.121  1.00  0.00    -0.316 N 
ATOM      8  C   UNL A   1      32.959  23.407  23.834  1.00  0.00     0.190 C 
ATOM      9  S   UNL A   1      32.732  21.646  23.527  1.00  0.00    -0.138 SA
ATOM     10  C   UNL A   1      32.562  21.220  25.287  1.00  0.00     0.106 C 
BRANCH   7  11
ATOM     11  C   UNL A   1      31.676  24.810  25.519  1.00  0.00     0.257 C 
ATOM     12  O   UNL A   1      30.499  24.701  25.858  1.00  0.00    -0.269 OA
BRANCH  11  13
ATOM     13  C   UNL A   1      32.287  26.164  25.350  1.00  0.00     0.072 A 
ATOM     14  C   UNL A   1      32.026  26.991  24.248  1.00  0.00     0.108 A 
ATOM     15  N   UNL A   1      32.654  28.190  24.069  1.00  0.00    -0.249 NA
ATOM     16  C   UNL A   1      33.587  28.570  24.965  1.00  0.00     0.112 A 
ATOM     17  C   UNL A   1      33.311  26.577  26.222  1.00  0.00     0.018 A 
ATOM     18  C   UNL A   1      33.953  27.800  26.045  1.00  0.00     0.021 A 
BRANCH  14  19
ATOM     19  S   UNL A   1      30.904  26.622  22.912  1.00  0.00    -0.109 SA
ATOM     20  C   UNL A   1      29.956  28.172  22.941  1.00  0.00     0.092 C 
ENDBRANCH  14  19
ENDBRANCH  11  13
ENDBRANCH   7  11
ENDBRANCH   3   6
ENDBRANCH   1   2
BRANCH   1  21
ATOM     21  C   UNL A   1      36.033  23.873  25.940  1.00  0.00     0.042 C 
BRANCH  21  22
ATOM     22  C   UNL A   1      37.200  23.735  24.964  1.00  0.00     0.118 C 
BRANCH  22  23
ATOM     23  N   UNL A   1      38.190  22.766  25.415  1.00  0.00    -0.352 N 
ATOM     24  C   UNL A   1      39.356  22.919  26.119  1.00  0.00     0.251 C 
ATOM     25  H   UNL A   1      37.985  21.834  25.171  1.00  0.00     0.163 HD
ATOM     26  O   UNL A   1      40.128  21.965  26.198  1.00  0.00    -0.269 OA
BRANCH  24  27
ATOM     27  C   UNL A   1      39.710  24.196  26.781  1.00  0.00     0.039 A 
ATOM     28  C   UNL A   1      39.245  24.415  28.083  1.00  0.00     0.014 A 
ATOM     29  C   UNL A   1      40.413  25.207  26.119  1.00  0.00     0.014 A 
ATOM     30  C   UNL A   1      39.519  25.622  28.731  1.00  0.00     0.010 A 
ATOM     31  C   UNL A   1      40.745  26.385  26.792  1.00  0.00     0.010 A 
ATOM     32  C   UNL A   1      40.293  26.608  28.099  1.00  0.00    -0.014 A 
BRANCH  32  33
ATOM     33  C   UNL A   1      40.625  27.872  28.804  1.00  0.00     0.031 A 
ATOM     34  C   UNL A   1      39.612  28.977  28.915  1.00  0.00     0.074 A 
ATOM     35  C   UNL A   1      41.855  28.029  29.332  1.00  0.00     0.049 A 
ATOM     36  N   UNL A   1      39.726  30.142  29.504  1.00  0.00    -0.248 NA
ATOM     37  C   UNL A   1      38.309  28.757  28.269  1.00  0.00     0.031 C 
ATOM     38  C   UNL A   1      42.942  27.050  29.257  1.00  0.00     0.029 A 
ATOM     39  N   UNL A   1      42.395  29.071  30.042  1.00  0.00    -0.354 N 
ATOM     40  C   UNL A   1      38.516  30.793  29.295  1.00  0.00     0.074 A 
ATOM     41  C   UNL A   1      37.698  29.914  28.487  1.00  0.00     0.031 C 
ATOM     42  C   UNL A   1      44.007  27.525  29.922  1.00  0.00     0.029 A 
ATOM     43  C   UNL A   1      43.688  28.848  30.446  1.00  0.00     0.049 A 
ATOM     44  H   UNL A   1      41.902  29.900  30.243  1.00  0.00     0.167 HD
ATOM     45  C   UNL A   1      38.112  32.003  29.749  1.00  0.00     0.031 A 
ATOM     46  C   UNL A   1      44.523  29.622  31.164  1.00  0.00     0.031 A 
ATOM     47  C   UNL A   1      38.917  32.879  30.559  1.00  0.00     0.049 A 
ATOM     48  C   UNL A   1      44.045  30.954  31.666  1.00  0.00     0.074 A 
ATOM     49  C   UNL A   1      38.583  34.113  31.091  1.00  0.00     0.029 A 
ATOM     50  N   UNL A   1      40.216  32.608  30.957  1.00  0.00    -0.354 N 
ATOM     51  N   UNL A   1      42.878  31.528  31.501  1.00  0.00    -0.248 NA
ATOM     52  C   UNL A   1      44.996  31.736  32.467  1.00  0.00     0.031 C 
ATOM     53  C   UNL A   1      39.693  34.603  31.788  1.00  0.00     0.029 A 
ATOM     54  C   UNL A   1      40.701  33.656  31.723  1.00  0.00     0.049 A 
ATOM     55  H   UNL A   1      40.719  31.794  30.730  1.00  0.00     0.167 HD
ATOM     56  C   UNL A   1      42.948  32.729  32.195  1.00  0.00     0.074 A 
ATOM     57  C   UNL A   1      44.263  32.788  32.802  1.00  0.00     0.031 C 
ATOM     58  C   UNL A   1      42.010  33.699  32.317  1.00  0.00     0.031 A 
BRANCH  45  59
ATOM     59  C   UNL A   1      36.723  32.449  29.389  1.00  0.00    -0.014 A 
ATOM     60  C   UNL A   1      35.643  32.210  30.254  1.00  0.00     0.009 A 
ATOM     61  C   UNL A   1      36.497  33.156  28.199  1.00  0.00     0.009 A 
ATOM     62  C   UNL A   1      34.360  32.648  29.922  1.00  0.00     0.001 A 
ATOM     63  C   UNL A   1      35.217  33.613  27.880  1.00  0.00     0.001 A 
ATOM     64  C   UNL A   1      34.150  33.354  28.738  1.00  0.00     0.000 A 
ENDBRANCH  45  59
BRANCH  46  65
ATOM     65  C   UNL A   1      45.897  29.149  31.475  1.00  0.00    -0.014 A 
ATOM     66  C   UNL A   1      46.149  28.420  32.647  1.00  0.00     0.009 A 
ATOM     67  C   UNL A   1      46.964  29.445  30.613  1.00  0.00     0.009 A 
ATOM     68  C   UNL A   1      47.450  28.025  32.966  1.00  0.00     0.001 A 
ATOM     69  C   UNL A   1      48.259  29.025  30.924  1.00  0.00     0.001 A 
ATOM     70  C   UNL A   1      48.502  28.326  32.104  1.00  0.00     0.000 A 
ENDBRANCH  46  65
BRANCH  58  71
ATOM     71  C   UNL A   1      42.371  34.889  33.156  1.00  0.00    -0.014 A 
ATOM     72  C   UNL A   1      42.006  34.959  34.510  1.00  0.00     0.009 A 
ATOM     73  C   UNL A   1      43.094  35.949  32.587  1.00  0.00     0.009 A 
ATOM     74  C   UNL A   1      42.323  36.088  35.267  1.00  0.00     0.001 A 
ATOM     75  C   UNL A   1      43.431  37.065  33.353  1.00  0.00     0.001 A 
ATOM     76  C   UNL A   1      43.037  37.138  34.688  1.00  0.00     0.000 A 
ENDBRANCH  58  71
ENDBRANCH  32  33
ENDBRANCH  24  27
ENDBRANCH  22  23
ENDBRANCH  21  22
ENDBRANCH   1  21
TORSDOF 13
ENDMDL
