MODEL 1
REMARK VINA RESULT:     -11.1      0.000      0.000
REMARK SMILES CCc1cc(/C=C/C(=O)NCCCNC(=O)c2ccc(-c3c4nc(c(-c5ccccc5)c5ccc([nH]5)c(-c5ccccc5)c5nc(c(-c6ccccc6)c6ccc3[nH]6)C=C5)C=C4)cc2)cc(C(=O)c2ccccc2)c1
REMARK SMILES IDX 11 1 10 2 8 3 9 4 7 6 6 7 5 8 3 9 4 10 75 11 66 12 65 13
REMARK SMILES IDX 2 14 1 15 67 16 68 17 69 18 70 19 74 20 71 21 73 22 72 23
REMARK SMILES IDX 12 24 13 25 14 26 15 27 16 29 17 30 18 31 64 32 19 33 63 34
REMARK SMILES IDX 20 35 21 36 22 37 57 38 23 39 62 40 56 41 58 42 24 43 61 44
REMARK SMILES IDX 55 45 54 46 25 48 47 49 32 50 46 51 33 52 36 53 45 54 59 55
REMARK SMILES IDX 34 56 35 57 44 59 60 60 37 61 26 62 27 63 31 64 28 65 30 66
REMARK SMILES IDX 29 67 48 68 49 69 53 70 50 71 52 72 51 73 38 74 39 75 43 76
REMARK SMILES IDX 40 77 42 78 41 79
REMARK H PARENT 10 5 14 28 58 47 36 58
REMARK Flexibility Score: inf
ROOT
ATOM      1  C   UNL A   1      31.845  30.579  26.898  1.00  0.00     0.118 C 
ENDROOT
BRANCH   1   2
ATOM      2  N   UNL A   1      33.047  30.308  27.667  1.00  0.00    -0.352 N 
ATOM      3  C   UNL A   1      34.063  29.435  27.439  1.00  0.00     0.244 C 
ATOM      4  O   UNL A   1      35.059  29.463  28.160  1.00  0.00    -0.270 OA
ATOM      5  H   UNL A   1      33.140  30.844  28.487  1.00  0.00     0.163 HD
BRANCH   3   6
ATOM      6  C   UNL A   1      34.028  28.497  26.295  1.00  0.00     0.072 C 
ATOM      7  C   UNL A   1      33.860  27.172  26.416  1.00  0.00     0.014 C 
BRANCH   7   8
ATOM      8  C   UNL A   1      33.898  26.232  25.290  1.00  0.00    -0.024 A 
ATOM      9  C   UNL A   1      33.626  25.733  22.911  1.00  0.00    -0.047 A 
ATOM     10  C   UNL A   1      33.513  26.615  23.997  1.00  0.00     0.011 A 
ATOM     11  C   UNL A   1      34.100  24.437  23.147  1.00  0.00     0.016 A 
ATOM     12  C   UNL A   1      34.539  24.058  24.422  1.00  0.00     0.023 A 
ATOM     13  C   UNL A   1      34.422  24.950  25.492  1.00  0.00     0.020 A 
BRANCH   9  14
ATOM     14  C   UNL A   1      33.212  26.196  21.533  1.00  0.00     0.032 C 
ATOM     15  C   UNL A   1      31.752  25.922  21.187  1.00  0.00     0.009 C 
ENDBRANCH   9  14
BRANCH  12  16
ATOM     16  C   UNL A   1      35.129  22.713  24.672  1.00  0.00     0.193 C 
ATOM     17  O   UNL A   1      36.289  22.618  25.063  1.00  0.00    -0.289 OA
BRANCH  16  18
ATOM     18  C   UNL A   1      34.331  21.479  24.456  1.00  0.00     0.022 A 
ATOM     19  C   UNL A   1      34.890  20.249  24.812  1.00  0.00     0.012 A 
ATOM     20  C   UNL A   1      33.044  21.532  23.906  1.00  0.00     0.012 A 
ATOM     21  C   UNL A   1      34.145  19.079  24.664  1.00  0.00     0.001 A 
ATOM     22  C   UNL A   1      32.301  20.360  23.762  1.00  0.00     0.001 A 
ATOM     23  C   UNL A   1      32.848  19.136  24.149  1.00  0.00     0.000 A 
ENDBRANCH  16  18
ENDBRANCH  12  16
ENDBRANCH   7   8
ENDBRANCH   3   6
ENDBRANCH   1   2
BRANCH   1  24
ATOM     24  C   UNL A   1      31.521  32.072  26.859  1.00  0.00     0.042 C 
BRANCH  24  25
ATOM     25  C   UNL A   1      32.754  32.972  26.839  1.00  0.00     0.118 C 
BRANCH  25  26
ATOM     26  N   UNL A   1      32.580  34.161  27.657  1.00  0.00    -0.352 N 
ATOM     27  C   UNL A   1      33.206  34.542  28.816  1.00  0.00     0.251 C 
ATOM     28  H   UNL A   1      31.904  34.797  27.325  1.00  0.00     0.163 HD
ATOM     29  O   UNL A   1      32.756  35.486  29.459  1.00  0.00    -0.269 OA
BRANCH  27  30
ATOM     30  C   UNL A   1      34.410  33.834  29.306  1.00  0.00     0.039 A 
ATOM     31  C   UNL A   1      34.238  32.719  30.133  1.00  0.00     0.014 A 
ATOM     32  C   UNL A   1      35.698  34.300  29.027  1.00  0.00     0.014 A 
ATOM     33  C   UNL A   1      35.352  32.054  30.650  1.00  0.00     0.010 A 
ATOM     34  C   UNL A   1      36.810  33.598  29.490  1.00  0.00     0.010 A 
ATOM     35  C   UNL A   1      36.648  32.478  30.320  1.00  0.00    -0.014 A 
BRANCH  35  36
ATOM     36  C   UNL A   1      37.842  31.771  30.848  1.00  0.00     0.031 A 
ATOM     37  C   UNL A   1      38.378  32.104  32.215  1.00  0.00     0.074 A 
ATOM     38  C   UNL A   1      38.477  30.866  30.079  1.00  0.00     0.049 A 
ATOM     39  N   UNL A   1      39.435  31.630  32.826  1.00  0.00    -0.248 NA
ATOM     40  C   UNL A   1      37.646  33.122  32.987  1.00  0.00     0.031 C 
ATOM     41  C   UNL A   1      38.085  30.485  28.720  1.00  0.00     0.029 A 
ATOM     42  N   UNL A   1      39.594  30.109  30.327  1.00  0.00    -0.354 N 
ATOM     43  C   UNL A   1      39.509  32.309  34.036  1.00  0.00     0.074 A 
ATOM     44  C   UNL A   1      38.412  33.252  34.060  1.00  0.00     0.031 C 
ATOM     45  C   UNL A   1      38.937  29.553  28.263  1.00  0.00     0.029 A 
ATOM     46  C   UNL A   1      39.950  29.294  29.280  1.00  0.00     0.049 A 
ATOM     47  H   UNL A   1      40.091  30.145  31.176  1.00  0.00     0.167 HD
ATOM     48  C   UNL A   1      40.401  32.152  35.043  1.00  0.00     0.031 A 
ATOM     49  C   UNL A   1      40.981  28.438  29.152  1.00  0.00     0.031 A 
ATOM     50  C   UNL A   1      41.476  31.195  35.033  1.00  0.00     0.049 A 
ATOM     51  C   UNL A   1      41.937  28.260  30.297  1.00  0.00     0.074 A 
ATOM     52  C   UNL A   1      42.388  30.914  36.035  1.00  0.00     0.029 A 
ATOM     53  N   UNL A   1      41.779  30.363  33.968  1.00  0.00    -0.354 N 
ATOM     54  N   UNL A   1      41.949  28.859  31.463  1.00  0.00    -0.248 NA
ATOM     55  C   UNL A   1      43.012  27.275  30.114  1.00  0.00     0.031 C 
ATOM     56  C   UNL A   1      43.271  29.937  35.560  1.00  0.00     0.029 A 
ATOM     57  C   UNL A   1      42.875  29.577  34.282  1.00  0.00     0.049 A 
ATOM     58  H   UNL A   1      41.287  30.333  33.116  1.00  0.00     0.167 HD
ATOM     59  C   UNL A   1      43.012  28.303  32.161  1.00  0.00     0.074 A 
ATOM     60  C   UNL A   1      43.611  27.308  31.295  1.00  0.00     0.031 C 
ATOM     61  C   UNL A   1      43.455  28.590  33.410  1.00  0.00     0.031 A 
BRANCH  48  62
ATOM     62  C   UNL A   1      40.256  33.043  36.245  1.00  0.00    -0.014 A 
ATOM     63  C   UNL A   1      40.921  34.277  36.324  1.00  0.00     0.009 A 
ATOM     64  C   UNL A   1      39.402  32.665  37.294  1.00  0.00     0.009 A 
ATOM     65  C   UNL A   1      40.761  35.097  37.442  1.00  0.00     0.001 A 
ATOM     66  C   UNL A   1      39.223  33.499  38.399  1.00  0.00     0.001 A 
ATOM     67  C   UNL A   1      39.909  34.709  38.476  1.00  0.00     0.000 A 
ENDBRANCH  48  62
BRANCH  49  68
ATOM     68  C   UNL A   1      41.155  27.666  27.895  1.00  0.00    -0.014 A 
ATOM     69  C   UNL A   1      41.848  28.220  26.807  1.00  0.00     0.009 A 
ATOM     70  C   UNL A   1      40.622  26.373  27.772  1.00  0.00     0.009 A 
ATOM     71  C   UNL A   1      41.975  27.508  25.613  1.00  0.00     0.001 A 
ATOM     72  C   UNL A   1      40.776  25.653  26.587  1.00  0.00     0.001 A 
ATOM     73  C   UNL A   1      41.443  26.224  25.505  1.00  0.00     0.000 A 
ENDBRANCH  49  68
BRANCH  61  74
ATOM     74  C   UNL A   1      44.618  27.792  33.924  1.00  0.00    -0.014 A 
ATOM     75  C   UNL A   1      45.941  28.217  33.723  1.00  0.00     0.009 A 
ATOM     76  C   UNL A   1      44.384  26.612  34.646  1.00  0.00     0.009 A 
ATOM     77  C   UNL A   1      47.006  27.456  34.204  1.00  0.00     0.001 A 
ATOM     78  C   UNL A   1      45.450  25.866  35.150  1.00  0.00     0.001 A 
ATOM     79  C   UNL A   1      46.761  26.283  34.920  1.00  0.00     0.000 A 
ENDBRANCH  61  74
ENDBRANCH  35  36
ENDBRANCH  27  30
ENDBRANCH  25  26
ENDBRANCH  24  25
ENDBRANCH   1  24
TORSDOF 14
ENDMDL
MODEL 2
REMARK VINA RESULT:     -11.1      4.550     10.908
REMARK SMILES CCc1cc(/C=C/C(=O)NCCCNC(=O)c2ccc(-c3c4nc(c(-c5ccccc5)c5ccc([nH]5)c(-c5ccccc5)c5nc(c(-c6ccccc6)c6ccc3[nH]6)C=C5)C=C4)cc2)cc(C(=O)c2ccccc2)c1
REMARK SMILES IDX 11 1 10 2 8 3 9 4 7 6 6 7 5 8 3 9 4 10 75 11 66 12 65 13
REMARK SMILES IDX 2 14 1 15 67 16 68 17 69 18 70 19 74 20 71 21 73 22 72 23
REMARK SMILES IDX 12 24 13 25 14 26 15 27 16 29 17 30 18 31 64 32 19 33 63 34
REMARK SMILES IDX 20 35 21 36 22 37 57 38 23 39 62 40 56 41 58 42 24 43 61 44
REMARK SMILES IDX 55 45 54 46 25 48 47 49 32 50 46 51 33 52 36 53 45 54 59 55
REMARK SMILES IDX 34 56 35 57 44 59 60 60 37 61 26 62 27 63 31 64 28 65 30 66
REMARK SMILES IDX 29 67 48 68 49 69 53 70 50 71 52 72 51 73 38 74 39 75 43 76
REMARK SMILES IDX 40 77 42 78 41 79
REMARK H PARENT 10 5 14 28 58 47 36 58
REMARK Flexibility Score: inf
ROOT
ATOM      1  C   UNL A   1      43.017  21.737  27.731  1.00  0.00     0.118 C 
ENDROOT
BRANCH   1   2
ATOM      2  N   UNL A   1      43.282  22.214  29.077  1.00  0.00    -0.352 N 
ATOM      3  C   UNL A   1      44.097  23.207  29.518  1.00  0.00     0.244 C 
ATOM      4  O   UNL A   1      44.069  23.533  30.703  1.00  0.00    -0.270 OA
ATOM      5  H   UNL A   1      42.789  21.740  29.786  1.00  0.00     0.163 HD
BRANCH   3   6
ATOM      6  C   UNL A   1      44.970  23.955  28.585  1.00  0.00     0.072 C 
ATOM      7  C   UNL A   1      46.089  24.594  28.954  1.00  0.00     0.014 C 
BRANCH   7   8
ATOM      8  C   UNL A   1      46.915  25.397  28.044  1.00  0.00    -0.024 A 
ATOM      9  C   UNL A   1      49.035  25.837  26.906  1.00  0.00    -0.047 A 
ATOM     10  C   UNL A   1      48.272  25.112  27.836  1.00  0.00     0.011 A 
ATOM     11  C   UNL A   1      48.422  26.884  26.207  1.00  0.00     0.016 A 
ATOM     12  C   UNL A   1      47.055  27.144  26.365  1.00  0.00     0.023 A 
ATOM     13  C   UNL A   1      46.309  26.411  27.294  1.00  0.00     0.020 A 
BRANCH   9  14
ATOM     14  C   UNL A   1      50.491  25.484  26.706  1.00  0.00     0.032 C 
ATOM     15  C   UNL A   1      51.284  26.507  25.901  1.00  0.00     0.009 C 
ENDBRANCH   9  14
BRANCH  12  16
ATOM     16  C   UNL A   1      46.368  28.195  25.565  1.00  0.00     0.193 C 
ATOM     17  O   UNL A   1      46.184  28.026  24.363  1.00  0.00    -0.289 OA
BRANCH  16  18
ATOM     18  C   UNL A   1      45.895  29.451  26.202  1.00  0.00     0.022 A 
ATOM     19  C   UNL A   1      46.832  30.443  26.503  1.00  0.00     0.012 A 
ATOM     20  C   UNL A   1      44.542  29.649  26.504  1.00  0.00     0.012 A 
ATOM     21  C   UNL A   1      46.410  31.652  27.058  1.00  0.00     0.001 A 
ATOM     22  C   UNL A   1      44.123  30.859  27.057  1.00  0.00     0.001 A 
ATOM     23  C   UNL A   1      45.055  31.862  27.326  1.00  0.00     0.000 A 
ENDBRANCH  16  18
ENDBRANCH  12  16
ENDBRANCH   7   8
ENDBRANCH   3   6
ENDBRANCH   1   2
BRANCH   1  24
ATOM     24  C   UNL A   1      41.518  21.666  27.439  1.00  0.00     0.042 C 
BRANCH  24  25
ATOM     25  C   UNL A   1      41.165  21.878  25.969  1.00  0.00     0.118 C 
BRANCH  25  26
ATOM     26  N   UNL A   1      39.728  21.922  25.751  1.00  0.00    -0.352 N 
ATOM     27  C   UNL A   1      38.791  22.825  26.184  1.00  0.00     0.251 C 
ATOM     28  H   UNL A   1      39.369  21.185  25.204  1.00  0.00     0.163 HD
ATOM     29  O   UNL A   1      37.599  22.558  26.063  1.00  0.00    -0.269 OA
BRANCH  27  30
ATOM     30  C   UNL A   1      39.191  24.113  26.794  1.00  0.00     0.039 A 
ATOM     31  C   UNL A   1      39.943  25.009  26.027  1.00  0.00     0.014 A 
ATOM     32  C   UNL A   1      38.905  24.412  28.130  1.00  0.00     0.014 A 
ATOM     33  C   UNL A   1      40.377  26.214  26.585  1.00  0.00     0.010 A 
ATOM     34  C   UNL A   1      39.283  25.642  28.666  1.00  0.00     0.010 A 
ATOM     35  C   UNL A   1      40.036  26.548  27.905  1.00  0.00    -0.014 A 
BRANCH  35  36
ATOM     36  C   UNL A   1      40.476  27.832  28.506  1.00  0.00     0.031 A 
ATOM     37  C   UNL A   1      41.898  28.007  28.968  1.00  0.00     0.074 A 
ATOM     38  C   UNL A   1      39.584  28.825  28.686  1.00  0.00     0.049 A 
ATOM     39  N   UNL A   1      42.454  29.034  29.560  1.00  0.00    -0.248 NA
ATOM     40  C   UNL A   1      42.809  26.869  28.761  1.00  0.00     0.031 C 
ATOM     41  C   UNL A   1      38.166  28.767  28.323  1.00  0.00     0.029 A 
ATOM     42  N   UNL A   1      39.736  30.075  29.230  1.00  0.00    -0.354 N 
ATOM     43  C   UNL A   1      43.766  28.656  29.819  1.00  0.00     0.074 A 
ATOM     44  C   UNL A   1      43.915  27.295  29.353  1.00  0.00     0.031 C 
ATOM     45  C   UNL A   1      37.584  29.936  28.637  1.00  0.00     0.029 A 
ATOM     46  C   UNL A   1      38.576  30.811  29.251  1.00  0.00     0.049 A 
ATOM     47  H   UNL A   1      40.596  30.413  29.572  1.00  0.00     0.167 HD
ATOM     48  C   UNL A   1      44.762  29.382  30.382  1.00  0.00     0.031 A 
ATOM     49  C   UNL A   1      38.338  32.051  29.717  1.00  0.00     0.031 A 
ATOM     50  C   UNL A   1      44.624  30.746  30.820  1.00  0.00     0.049 A 
ATOM     51  C   UNL A   1      39.468  32.846  30.307  1.00  0.00     0.074 A 
ATOM     52  C   UNL A   1      45.593  31.586  31.339  1.00  0.00     0.029 A 
ATOM     53  N   UNL A   1      43.441  31.467  30.789  1.00  0.00    -0.354 N 
ATOM     54  N   UNL A   1      40.720  32.499  30.479  1.00  0.00    -0.248 NA
ATOM     55  C   UNL A   1      39.154  34.211  30.753  1.00  0.00     0.031 C 
ATOM     56  C   UNL A   1      44.987  32.806  31.659  1.00  0.00     0.029 A 
ATOM     57  C   UNL A   1      43.653  32.739  31.294  1.00  0.00     0.049 A 
ATOM     58  H   UNL A   1      42.580  31.126  30.456  1.00  0.00     0.167 HD
ATOM     59  C   UNL A   1      41.348  33.610  31.025  1.00  0.00     0.074 A 
ATOM     60  C   UNL A   1      40.344  34.647  31.140  1.00  0.00     0.031 C 
ATOM     61  C   UNL A   1      42.643  33.759  31.397  1.00  0.00     0.031 A 
BRANCH  48  62
ATOM     62  C   UNL A   1      46.095  28.711  30.561  1.00  0.00    -0.014 A 
ATOM     63  C   UNL A   1      46.306  27.769  31.581  1.00  0.00     0.009 A 
ATOM     64  C   UNL A   1      47.141  28.988  29.667  1.00  0.00     0.009 A 
ATOM     65  C   UNL A   1      47.547  27.145  31.722  1.00  0.00     0.001 A 
ATOM     66  C   UNL A   1      48.372  28.343  29.793  1.00  0.00     0.001 A 
ATOM     67  C   UNL A   1      48.578  27.429  30.825  1.00  0.00     0.000 A 
ENDBRANCH  48  62
BRANCH  49  68
ATOM     68  C   UNL A   1      36.972  32.629  29.629  1.00  0.00    -0.014 A 
ATOM     69  C   UNL A   1      36.070  32.496  30.696  1.00  0.00     0.009 A 
ATOM     70  C   UNL A   1      36.560  33.311  28.473  1.00  0.00     0.009 A 
ATOM     71  C   UNL A   1      34.774  33.006  30.594  1.00  0.00     0.001 A 
ATOM     72  C   UNL A   1      35.273  33.844  28.386  1.00  0.00     0.001 A 
ATOM     73  C   UNL A   1      34.378  33.682  29.442  1.00  0.00     0.000 A 
ENDBRANCH  49  68
BRANCH  61  74
ATOM     74  C   UNL A   1      43.052  35.103  31.929  1.00  0.00    -0.014 A 
ATOM     75  C   UNL A   1      43.642  36.068  31.098  1.00  0.00     0.009 A 
ATOM     76  C   UNL A   1      42.815  35.416  33.276  1.00  0.00     0.009 A 
ATOM     77  C   UNL A   1      44.020  37.307  31.615  1.00  0.00     0.001 A 
ATOM     78  C   UNL A   1      43.170  36.666  33.785  1.00  0.00     0.001 A 
ATOM     79  C   UNL A   1      43.781  37.607  32.957  1.00  0.00     0.000 A 
ENDBRANCH  61  74
ENDBRANCH  35  36
ENDBRANCH  27  30
ENDBRANCH  25  26
ENDBRANCH  24  25
ENDBRANCH   1  24
TORSDOF 14
ENDMDL
MODEL 3
REMARK VINA RESULT:     -11.1      7.977     12.759
REMARK SMILES CCc1cc(/C=C/C(=O)NCCCNC(=O)c2ccc(-c3c4nc(c(-c5ccccc5)c5ccc([nH]5)c(-c5ccccc5)c5nc(c(-c6ccccc6)c6ccc3[nH]6)C=C5)C=C4)cc2)cc(C(=O)c2ccccc2)c1
REMARK SMILES IDX 11 1 10 2 8 3 9 4 7 6 6 7 5 8 3 9 4 10 75 11 66 12 65 13
REMARK SMILES IDX 2 14 1 15 67 16 68 17 69 18 70 19 74 20 71 21 73 22 72 23
REMARK SMILES IDX 12 24 13 25 14 26 15 27 16 29 17 30 18 31 64 32 19 33 63 34
REMARK SMILES IDX 20 35 21 36 22 37 57 38 23 39 62 40 56 41 58 42 24 43 61 44
REMARK SMILES IDX 55 45 54 46 25 48 47 49 32 50 46 51 33 52 36 53 45 54 59 55
REMARK SMILES IDX 34 56 35 57 44 59 60 60 37 61 26 62 27 63 31 64 28 65 30 66
REMARK SMILES IDX 29 67 48 68 49 69 53 70 50 71 52 72 51 73 38 74 39 75 43 76
REMARK SMILES IDX 40 77 42 78 41 79
REMARK H PARENT 10 5 14 28 58 47 36 58
REMARK Flexibility Score: inf
ROOT
ATOM      1  C   UNL A   1      44.896  19.835  24.399  1.00  0.00     0.118 C 
ENDROOT
BRANCH   1   2
ATOM      2  N   UNL A   1      44.140  18.811  25.098  1.00  0.00    -0.352 N 
ATOM      3  C   UNL A   1      42.925  18.867  25.704  1.00  0.00     0.244 C 
ATOM      4  O   UNL A   1      42.409  17.834  26.125  1.00  0.00    -0.270 OA
ATOM      5  H   UNL A   1      44.580  17.931  25.138  1.00  0.00     0.163 HD
BRANCH   3   6
ATOM      6  C   UNL A   1      42.177  20.140  25.805  1.00  0.00     0.072 C 
ATOM      7  C   UNL A   1      40.893  20.228  26.181  1.00  0.00     0.014 C 
BRANCH   7   8
ATOM      8  C   UNL A   1      40.129  21.481  26.211  1.00  0.00    -0.024 A 
ATOM      9  C   UNL A   1      38.062  22.734  25.842  1.00  0.00    -0.047 A 
ATOM     10  C   UNL A   1      38.811  21.552  25.738  1.00  0.00     0.011 A 
ATOM     11  C   UNL A   1      38.669  23.866  26.399  1.00  0.00     0.016 A 
ATOM     12  C   UNL A   1      39.966  23.795  26.924  1.00  0.00     0.023 A 
ATOM     13  C   UNL A   1      40.697  22.608  26.815  1.00  0.00     0.020 A 
BRANCH   9  14
ATOM     14  C   UNL A   1      36.639  22.759  25.330  1.00  0.00     0.032 C 
ATOM     15  C   UNL A   1      35.905  24.075  25.566  1.00  0.00     0.009 C 
ENDBRANCH   9  14
BRANCH  12  16
ATOM     16  C   UNL A   1      40.594  24.964  27.600  1.00  0.00     0.193 C 
ATOM     17  O   UNL A   1      40.747  24.957  28.818  1.00  0.00    -0.289 OA
BRANCH  16  18
ATOM     18  C   UNL A   1      41.045  26.144  26.818  1.00  0.00     0.022 A 
ATOM     19  C   UNL A   1      40.599  27.412  27.201  1.00  0.00     0.012 A 
ATOM     20  C   UNL A   1      41.898  26.003  25.715  1.00  0.00     0.012 A 
ATOM     21  C   UNL A   1      41.045  28.541  26.514  1.00  0.00     0.001 A 
ATOM     22  C   UNL A   1      42.343  27.135  25.032  1.00  0.00     0.001 A 
ATOM     23  C   UNL A   1      41.923  28.403  25.437  1.00  0.00     0.000 A 
ENDBRANCH  16  18
ENDBRANCH  12  16
ENDBRANCH   7   8
ENDBRANCH   3   6
ENDBRANCH   1   2
BRANCH   1  24
ATOM     24  C   UNL A   1      45.943  20.484  25.304  1.00  0.00     0.042 C 
BRANCH  24  25
ATOM     25  C   UNL A   1      45.700  21.968  25.565  1.00  0.00     0.118 C 
BRANCH  25  26
ATOM     26  N   UNL A   1      44.656  22.188  26.553  1.00  0.00    -0.352 N 
ATOM     27  C   UNL A   1      44.429  23.256  27.383  1.00  0.00     0.251 C 
ATOM     28  H   UNL A   1      44.006  21.453  26.640  1.00  0.00     0.163 HD
ATOM     29  O   UNL A   1      43.612  23.146  28.292  1.00  0.00    -0.269 OA
BRANCH  27  30
ATOM     30  C   UNL A   1      45.152  24.535  27.203  1.00  0.00     0.039 A 
ATOM     31  C   UNL A   1      45.272  25.057  25.911  1.00  0.00     0.014 A 
ATOM     32  C   UNL A   1      45.778  25.181  28.273  1.00  0.00     0.014 A 
ATOM     33  C   UNL A   1      45.986  26.238  25.697  1.00  0.00     0.010 A 
ATOM     34  C   UNL A   1      46.436  26.393  28.069  1.00  0.00     0.010 A 
ATOM     35  C   UNL A   1      46.560  26.926  26.777  1.00  0.00    -0.014 A 
BRANCH  35  36
ATOM     36  C   UNL A   1      47.308  28.190  26.568  1.00  0.00     0.031 A 
ATOM     37  C   UNL A   1      48.800  28.166  26.368  1.00  0.00     0.074 A 
ATOM     38  C   UNL A   1      46.654  29.367  26.610  1.00  0.00     0.049 A 
ATOM     39  N   UNL A   1      49.630  29.168  26.219  1.00  0.00    -0.248 NA
ATOM     40  C   UNL A   1      49.448  26.844  26.358  1.00  0.00     0.031 C 
ATOM     41  C   UNL A   1      45.217  29.530  26.841  1.00  0.00     0.029 A 
ATOM     42  N   UNL A   1      47.116  30.651  26.471  1.00  0.00    -0.354 N 
ATOM     43  C   UNL A   1      50.895  28.601  26.127  1.00  0.00     0.074 A 
ATOM     44  C   UNL A   1      50.730  27.171  26.271  1.00  0.00     0.031 C 
ATOM     45  C   UNL A   1      44.913  30.838  26.808  1.00  0.00     0.029 A 
ATOM     46  C   UNL A   1      46.134  31.605  26.587  1.00  0.00     0.049 A 
ATOM     47  H   UNL A   1      48.062  30.869  26.302  1.00  0.00     0.167 HD
ATOM     48  C   UNL A   1      52.087  29.214  25.926  1.00  0.00     0.031 A 
ATOM     49  C   UNL A   1      46.210  32.947  26.527  1.00  0.00     0.031 A 
ATOM     50  C   UNL A   1      52.250  30.633  25.754  1.00  0.00     0.049 A 
ATOM     51  C   UNL A   1      47.539  33.600  26.271  1.00  0.00     0.074 A 
ATOM     52  C   UNL A   1      53.407  31.340  25.477  1.00  0.00     0.029 A 
ATOM     53  N   UNL A   1      51.224  31.560  25.841  1.00  0.00    -0.354 N 
ATOM     54  N   UNL A   1      48.715  33.043  26.115  1.00  0.00    -0.248 NA
ATOM     55  C   UNL A   1      47.547  35.065  26.167  1.00  0.00     0.031 C 
ATOM     56  C   UNL A   1      53.087  32.702  25.436  1.00  0.00     0.029 A 
ATOM     57  C   UNL A   1      51.724  32.835  25.639  1.00  0.00     0.049 A 
ATOM     58  H   UNL A   1      50.280  31.344  26.019  1.00  0.00     0.167 HD
ATOM     59  C   UNL A   1      49.597  34.086  25.866  1.00  0.00     0.074 A 
ATOM     60  C   UNL A   1      48.817  35.307  25.875  1.00  0.00     0.031 C 
ATOM     61  C   UNL A   1      50.933  34.038  25.648  1.00  0.00     0.031 A 
BRANCH  48  62
ATOM     62  C   UNL A   1      53.315  28.348  25.886  1.00  0.00    -0.014 A 
ATOM     63  C   UNL A   1      53.773  27.788  24.684  1.00  0.00     0.009 A 
ATOM     64  C   UNL A   1      54.052  28.130  27.061  1.00  0.00     0.009 A 
ATOM     65  C   UNL A   1      54.925  26.998  24.665  1.00  0.00     0.001 A 
ATOM     66  C   UNL A   1      55.218  27.363  27.035  1.00  0.00     0.001 A 
ATOM     67  C   UNL A   1      55.649  26.790  25.839  1.00  0.00     0.000 A 
ENDBRANCH  48  62
BRANCH  49  68
ATOM     68  C   UNL A   1      44.984  33.770  26.694  1.00  0.00    -0.014 A 
ATOM     69  C   UNL A   1      44.571  34.185  27.969  1.00  0.00     0.009 A 
ATOM     70  C   UNL A   1      44.215  34.138  25.578  1.00  0.00     0.009 A 
ATOM     71  C   UNL A   1      43.397  34.924  28.127  1.00  0.00     0.001 A 
ATOM     72  C   UNL A   1      43.057  34.901  25.737  1.00  0.00     0.001 A 
ATOM     73  C   UNL A   1      42.644  35.285  27.011  1.00  0.00     0.000 A 
ENDBRANCH  49  68
BRANCH  61  74
ATOM     74  C   UNL A   1      51.628  35.339  25.366  1.00  0.00    -0.014 A 
ATOM     75  C   UNL A   1      52.040  36.187  26.406  1.00  0.00     0.009 A 
ATOM     76  C   UNL A   1      51.898  35.707  24.039  1.00  0.00     0.009 A 
ATOM     77  C   UNL A   1      52.678  37.395  26.120  1.00  0.00     0.001 A 
ATOM     78  C   UNL A   1      52.560  36.902  23.756  1.00  0.00     0.001 A 
ATOM     79  C   UNL A   1      52.941  37.750  24.796  1.00  0.00     0.000 A 
ENDBRANCH  61  74
ENDBRANCH  35  36
ENDBRANCH  27  30
ENDBRANCH  25  26
ENDBRANCH  24  25
ENDBRANCH   1  24
TORSDOF 14
ENDMDL
