MODEL 1
REMARK VINA RESULT:     -12.2      0.000      0.000
REMARK SMILES Cc1cc2c(c(C)c1Cl)C=C(C(=O)NCCCNC(=O)c1ccc(-c3c4nc(c(-c5ccccc5)c5ccc([nH]5)c(-c5ccccc5)c5nc(c(-c6ccccc6)c6ccc3[nH]6)C=C5)C=C4)cc1)[C@@H](C(F)(F)F)O2
REMARK SMILES IDX 16 1 15 2 14 3 12 4 13 5 11 7 1 8 2 9 3 10 8 11 4 12 6 13
REMARK SMILES IDX 9 14 5 15 74 16 7 17 10 18 69 19 70 20 71 21 72 22 73 23
REMARK SMILES IDX 17 24 18 25 19 26 20 28 21 29 22 30 68 31 23 32 67 33 24 34
REMARK SMILES IDX 25 35 26 36 61 37 27 38 66 39 60 40 62 41 28 42 65 43 59 44
REMARK SMILES IDX 58 45 29 47 51 48 36 49 50 50 37 51 40 52 49 53 63 54 38 55
REMARK SMILES IDX 39 56 48 58 64 59 41 60 30 61 31 62 35 63 32 64 34 65 33 66
REMARK SMILES IDX 52 67 53 68 57 69 54 70 56 71 55 72 42 73 43 74 47 75 44 76
REMARK SMILES IDX 46 77 45 78
REMARK H PARENT 14 6 18 27 62 46 40 57
REMARK Flexibility Score: inf
ROOT
ATOM      1  C   UNL A   1      37.677  19.697  24.854  1.00  0.00     0.042 C 
ENDROOT
BRANCH   1   2
ATOM      2  C   UNL A   1      36.368  20.454  25.018  1.00  0.00     0.118 C 
BRANCH   2   3
ATOM      3  N   UNL A   1      35.220  19.563  24.949  1.00  0.00    -0.352 N 
ATOM      4  C   UNL A   1      33.872  19.676  24.945  1.00  0.00     0.251 C 
ATOM      5  O   UNL A   1      33.257  18.606  24.884  1.00  0.00    -0.270 OA
ATOM      6  H   UNL A   1      35.500  18.621  24.887  1.00  0.00     0.163 HD
BRANCH   4   7
ATOM      7  C   UNL A   1      33.120  20.962  25.010  1.00  0.00     0.067 C 
ATOM      8  C   UNL A   1      30.036  26.608  24.056  1.00  0.00     0.046 C 
ATOM      9  C   UNL A   1      30.860  25.354  23.949  1.00  0.00    -0.028 A 
ATOM     10  C   UNL A   1      30.826  24.449  25.012  1.00  0.00     0.052 A 
ATOM     11  C   UNL A   1      31.629  25.037  22.809  1.00  0.00     0.047 A 
ATOM     12  C   UNL A   1      31.561  23.272  24.958  1.00  0.00     0.128 A 
ATOM     13  C   UNL A   1      32.381  23.838  22.741  1.00  0.00    -0.021 A 
ATOM     14  Cl  UNL A   1      31.614  26.150  21.474  1.00  0.00    -0.084 Cl
ATOM     15  C   UNL A   1      32.336  22.947  23.840  1.00  0.00     0.022 A 
ATOM     16  O   UNL A   1      31.428  22.453  26.043  1.00  0.00    -0.475 OA
ATOM     17  C   UNL A   1      33.218  23.488  21.532  1.00  0.00     0.047 C 
ATOM     18  C   UNL A   1      33.037  21.657  23.860  1.00  0.00     0.026 C 
ATOM     19  C   UNL A   1      32.498  21.503  26.260  1.00  0.00     0.314 C 
BRANCH  19  20
ATOM     20  C   UNL A   1      33.533  22.104  27.232  1.00  0.00     0.429 C 
ATOM     21  F   UNL A   1      32.907  22.639  28.311  1.00  0.00    -0.167 F 
ATOM     22  F   UNL A   1      34.395  21.177  27.713  1.00  0.00    -0.167 F 
ATOM     23  F   UNL A   1      34.279  23.077  26.669  1.00  0.00    -0.167 F 
ENDBRANCH  19  20
ENDBRANCH   4   7
ENDBRANCH   2   3
ENDBRANCH   1   2
BRANCH   1  24
ATOM     24  C   UNL A   1      38.786  20.287  25.713  1.00  0.00     0.118 C 
BRANCH  24  25
ATOM     25  N   UNL A   1      39.931  19.384  25.813  1.00  0.00    -0.352 N 
ATOM     26  C   UNL A   1      41.253  19.656  26.053  1.00  0.00     0.251 C 
ATOM     27  H   UNL A   1      39.719  18.430  25.688  1.00  0.00     0.163 HD
ATOM     28  O   UNL A   1      42.108  18.805  25.815  1.00  0.00    -0.269 OA
BRANCH  26  29
ATOM     29  C   UNL A   1      41.646  20.969  26.592  1.00  0.00     0.039 A 
ATOM     30  C   UNL A   1      42.078  21.970  25.719  1.00  0.00     0.014 A 
ATOM     31  C   UNL A   1      41.605  21.203  27.969  1.00  0.00     0.014 A 
ATOM     32  C   UNL A   1      42.406  23.227  26.228  1.00  0.00     0.010 A 
ATOM     33  C   UNL A   1      41.824  22.481  28.459  1.00  0.00     0.010 A 
ATOM     34  C   UNL A   1      42.247  23.501  27.596  1.00  0.00    -0.014 A 
BRANCH  34  35
ATOM     35  C   UNL A   1      42.555  24.837  28.157  1.00  0.00     0.031 A 
ATOM     36  C   UNL A   1      43.970  25.180  28.534  1.00  0.00     0.074 A 
ATOM     37  C   UNL A   1      41.559  25.719  28.359  1.00  0.00     0.049 A 
ATOM     38  N   UNL A   1      44.436  26.286  29.054  1.00  0.00    -0.248 NA
ATOM     39  C   UNL A   1      44.990  24.138  28.327  1.00  0.00     0.031 C 
ATOM     40  C   UNL A   1      40.144  25.483  28.065  1.00  0.00     0.029 A 
ATOM     41  N   UNL A   1      41.586  27.000  28.849  1.00  0.00    -0.354 N 
ATOM     42  C   UNL A   1      45.795  26.069  29.236  1.00  0.00     0.074 A 
ATOM     43  C   UNL A   1      46.068  24.705  28.846  1.00  0.00     0.031 C 
ATOM     44  C   UNL A   1      39.448  26.601  28.327  1.00  0.00     0.029 A 
ATOM     45  C   UNL A   1      40.358  27.616  28.847  1.00  0.00     0.049 A 
ATOM     46  H   UNL A   1      42.408  27.435  29.173  1.00  0.00     0.167 HD
ATOM     47  C   UNL A   1      46.742  26.939  29.655  1.00  0.00     0.031 A 
ATOM     48  C   UNL A   1      40.008  28.863  29.214  1.00  0.00     0.031 A 
ATOM     49  C   UNL A   1      46.470  28.299  30.027  1.00  0.00     0.049 A 
ATOM     50  C   UNL A   1      41.072  29.800  29.716  1.00  0.00     0.074 A 
ATOM     51  C   UNL A   1      47.363  29.275  30.429  1.00  0.00     0.029 A 
ATOM     52  N   UNL A   1      45.208  28.872  30.040  1.00  0.00    -0.354 N 
ATOM     53  N   UNL A   1      42.362  29.598  29.826  1.00  0.00    -0.248 NA
ATOM     54  C   UNL A   1      40.632  31.137  30.139  1.00  0.00     0.031 C 
ATOM     55  C   UNL A   1      46.634  30.428  30.734  1.00  0.00     0.029 A 
ATOM     56  C   UNL A   1      45.295  30.185  30.467  1.00  0.00     0.049 A 
ATOM     57  H   UNL A   1      44.375  28.414  29.783  1.00  0.00     0.167 HD
ATOM     58  C   UNL A   1      42.893  30.787  30.309  1.00  0.00     0.074 A 
ATOM     59  C   UNL A   1      41.787  31.710  30.456  1.00  0.00     0.031 C 
ATOM     60  C   UNL A   1      44.181  31.087  30.603  1.00  0.00     0.031 A 
BRANCH  47  61
ATOM     61  C   UNL A   1      48.161  26.449  29.711  1.00  0.00    -0.014 A 
ATOM     62  C   UNL A   1      48.669  25.840  30.870  1.00  0.00     0.009 A 
ATOM     63  C   UNL A   1      48.988  26.555  28.583  1.00  0.00     0.009 A 
ATOM     64  C   UNL A   1      49.984  25.375  30.909  1.00  0.00     0.001 A 
ATOM     65  C   UNL A   1      50.294  26.060  28.613  1.00  0.00     0.001 A 
ATOM     66  C   UNL A   1      50.793  25.479  29.778  1.00  0.00     0.000 A 
ENDBRANCH  47  61
BRANCH  48  67
ATOM     67  C   UNL A   1      38.598  29.307  29.075  1.00  0.00    -0.014 A 
ATOM     68  C   UNL A   1      38.123  29.777  27.840  1.00  0.00     0.009 A 
ATOM     69  C   UNL A   1      37.709  29.241  30.160  1.00  0.00     0.009 A 
ATOM     70  C   UNL A   1      36.795  30.184  27.698  1.00  0.00     0.001 A 
ATOM     71  C   UNL A   1      36.374  29.623  30.009  1.00  0.00     0.001 A 
ATOM     72  C   UNL A   1      35.920  30.100  28.780  1.00  0.00     0.000 A 
ENDBRANCH  48  67
BRANCH  60  73
ATOM     73  C   UNL A   1      44.480  32.470  31.103  1.00  0.00    -0.014 A 
ATOM     74  C   UNL A   1      44.520  32.747  32.477  1.00  0.00     0.009 A 
ATOM     75  C   UNL A   1      44.836  33.477  30.191  1.00  0.00     0.009 A 
ATOM     76  C   UNL A   1      44.902  34.012  32.928  1.00  0.00     0.001 A 
ATOM     77  C   UNL A   1      45.244  34.730  30.646  1.00  0.00     0.001 A 
ATOM     78  C   UNL A   1      45.274  34.997  32.013  1.00  0.00     0.000 A 
ENDBRANCH  60  73
ENDBRANCH  34  35
ENDBRANCH  26  29
ENDBRANCH  24  25
ENDBRANCH   1  24
TORSDOF 11
ENDMDL
MODEL 2
REMARK VINA RESULT:     -12.2      0.278      5.929
REMARK SMILES Cc1cc2c(c(C)c1Cl)C=C(C(=O)NCCCNC(=O)c1ccc(-c3c4nc(c(-c5ccccc5)c5ccc([nH]5)c(-c5ccccc5)c5nc(c(-c6ccccc6)c6ccc3[nH]6)C=C5)C=C4)cc1)[C@@H](C(F)(F)F)O2
REMARK SMILES IDX 16 1 15 2 14 3 12 4 13 5 11 7 1 8 2 9 3 10 8 11 4 12 6 13
REMARK SMILES IDX 9 14 5 15 74 16 7 17 10 18 69 19 70 20 71 21 72 22 73 23
REMARK SMILES IDX 17 24 18 25 19 26 20 28 21 29 22 30 68 31 23 32 67 33 24 34
REMARK SMILES IDX 25 35 26 36 61 37 27 38 66 39 60 40 62 41 28 42 65 43 59 44
REMARK SMILES IDX 58 45 29 47 51 48 36 49 50 50 37 51 40 52 49 53 63 54 38 55
REMARK SMILES IDX 39 56 48 58 64 59 41 60 30 61 31 62 35 63 32 64 34 65 33 66
REMARK SMILES IDX 52 67 53 68 57 69 54 70 56 71 55 72 42 73 43 74 47 75 44 76
REMARK SMILES IDX 46 77 45 78
REMARK H PARENT 14 6 18 27 62 46 40 57
REMARK Flexibility Score: inf
ROOT
ATOM      1  C   UNL A   1      37.742  19.841  24.853  1.00  0.00     0.042 C 
ENDROOT
BRANCH   1   2
ATOM      2  C   UNL A   1      36.423  20.555  25.103  1.00  0.00     0.118 C 
BRANCH   2   3
ATOM      3  N   UNL A   1      35.291  19.647  24.988  1.00  0.00    -0.352 N 
ATOM      4  C   UNL A   1      33.943  19.740  24.947  1.00  0.00     0.251 C 
ATOM      5  O   UNL A   1      33.347  18.661  24.852  1.00  0.00    -0.270 OA
ATOM      6  H   UNL A   1      35.588  18.711  24.920  1.00  0.00     0.163 HD
BRANCH   4   7
ATOM      7  C   UNL A   1      33.168  21.012  25.009  1.00  0.00     0.067 C 
ATOM      8  C   UNL A   1      29.984  26.601  24.046  1.00  0.00     0.046 C 
ATOM      9  C   UNL A   1      30.830  25.361  23.940  1.00  0.00    -0.028 A 
ATOM     10  C   UNL A   1      30.815  24.460  25.007  1.00  0.00     0.052 A 
ATOM     11  C   UNL A   1      31.600  25.053  22.799  1.00  0.00     0.047 A 
ATOM     12  C   UNL A   1      31.570  23.295  24.954  1.00  0.00     0.128 A 
ATOM     13  C   UNL A   1      32.373  23.867  22.733  1.00  0.00    -0.021 A 
ATOM     14  Cl  UNL A   1      31.562  26.160  21.460  1.00  0.00    -0.084 Cl
ATOM     15  C   UNL A   1      32.347  22.979  23.835  1.00  0.00     0.022 A 
ATOM     16  O   UNL A   1      31.455  22.478  26.043  1.00  0.00    -0.475 OA
ATOM     17  C   UNL A   1      33.212  23.527  21.523  1.00  0.00     0.047 C 
ATOM     18  C   UNL A   1      33.070  21.702  23.857  1.00  0.00     0.026 C 
ATOM     19  C   UNL A   1      32.542  21.547  26.260  1.00  0.00     0.314 C 
BRANCH  19  20
ATOM     20  C   UNL A   1      33.569  22.169  27.226  1.00  0.00     0.429 C 
ATOM     21  F   UNL A   1      32.937  22.714  28.296  1.00  0.00    -0.167 F 
ATOM     22  F   UNL A   1      34.438  21.256  27.721  1.00  0.00    -0.167 F 
ATOM     23  F   UNL A   1      34.309  23.142  26.652  1.00  0.00    -0.167 F 
ENDBRANCH  19  20
ENDBRANCH   4   7
ENDBRANCH   2   3
ENDBRANCH   1   2
BRANCH   1  24
ATOM     24  C   UNL A   1      38.858  20.384  25.734  1.00  0.00     0.118 C 
BRANCH  24  25
ATOM     25  N   UNL A   1      39.952  19.425  25.874  1.00  0.00    -0.352 N 
ATOM     26  C   UNL A   1      41.285  19.634  26.113  1.00  0.00     0.251 C 
ATOM     27  H   UNL A   1      39.690  18.480  25.782  1.00  0.00     0.163 HD
ATOM     28  O   UNL A   1      42.095  18.731  25.911  1.00  0.00    -0.269 OA
BRANCH  26  29
ATOM     29  C   UNL A   1      41.746  20.943  26.608  1.00  0.00     0.039 A 
ATOM     30  C   UNL A   1      42.222  21.893  25.702  1.00  0.00     0.014 A 
ATOM     31  C   UNL A   1      41.725  21.222  27.977  1.00  0.00     0.014 A 
ATOM     32  C   UNL A   1      42.615  23.148  26.169  1.00  0.00     0.010 A 
ATOM     33  C   UNL A   1      42.009  22.502  28.425  1.00  0.00     0.010 A 
ATOM     34  C   UNL A   1      42.477  23.472  27.528  1.00  0.00    -0.014 A 
BRANCH  34  35
ATOM     35  C   UNL A   1      42.854  24.808  28.045  1.00  0.00     0.031 A 
ATOM     36  C   UNL A   1      41.796  25.857  28.246  1.00  0.00     0.074 A 
ATOM     37  C   UNL A   1      44.148  25.084  28.294  1.00  0.00     0.049 A 
ATOM     38  N   UNL A   1      41.929  27.087  28.671  1.00  0.00    -0.248 NA
ATOM     39  C   UNL A   1      40.412  25.487  27.901  1.00  0.00     0.031 C 
ATOM     40  C   UNL A   1      45.266  24.157  28.101  1.00  0.00     0.029 A 
ATOM     41  N   UNL A   1      44.742  26.223  28.775  1.00  0.00    -0.354 N 
ATOM     42  C   UNL A   1      40.652  27.632  28.639  1.00  0.00     0.074 A 
ATOM     43  C   UNL A   1      39.770  26.631  28.084  1.00  0.00     0.031 C 
ATOM     44  C   UNL A   1      46.400  24.744  28.514  1.00  0.00     0.029 A 
ATOM     45  C   UNL A   1      46.098  26.101  28.959  1.00  0.00     0.049 A 
ATOM     46  H   UNL A   1      44.243  27.049  28.970  1.00  0.00     0.167 HD
ATOM     47  C   UNL A   1      40.240  28.846  29.070  1.00  0.00     0.031 A 
ATOM     48  C   UNL A   1      46.994  26.982  29.441  1.00  0.00     0.031 A 
ATOM     49  C   UNL A   1      41.115  29.833  29.637  1.00  0.00     0.049 A 
ATOM     50  C   UNL A   1      46.519  28.341  29.875  1.00  0.00     0.074 A 
ATOM     51  C   UNL A   1      40.793  31.080  30.140  1.00  0.00     0.029 A 
ATOM     52  N   UNL A   1      42.486  29.681  29.775  1.00  0.00    -0.354 N 
ATOM     53  N   UNL A   1      45.299  28.819  29.895  1.00  0.00    -0.248 NA
ATOM     54  C   UNL A   1      47.543  29.278  30.360  1.00  0.00     0.031 C 
ATOM     55  C   UNL A   1      41.979  31.704  30.538  1.00  0.00     0.029 A 
ATOM     56  C   UNL A   1      43.030  30.822  30.335  1.00  0.00     0.049 A 
ATOM     57  H   UNL A   1      42.996  28.880  29.515  1.00  0.00     0.167 HD
ATOM     58  C   UNL A   1      45.404  30.104  30.412  1.00  0.00     0.074 A 
ATOM     59  C   UNL A   1      46.804  30.324  30.708  1.00  0.00     0.031 C 
ATOM     60  C   UNL A   1      44.427  31.018  30.623  1.00  0.00     0.031 A 
BRANCH  47  61
ATOM     61  C   UNL A   1      38.775  29.162  28.965  1.00  0.00    -0.014 A 
ATOM     62  C   UNL A   1      37.918  28.990  30.065  1.00  0.00     0.009 A 
ATOM     63  C   UNL A   1      38.250  29.678  27.771  1.00  0.00     0.009 A 
ATOM     64  C   UNL A   1      36.561  29.299  29.962  1.00  0.00     0.001 A 
ATOM     65  C   UNL A   1      36.898  30.017  27.680  1.00  0.00     0.001 A 
ATOM     66  C   UNL A   1      36.054  29.819  28.772  1.00  0.00     0.000 A 
ENDBRANCH  47  61
BRANCH  48  67
ATOM     67  C   UNL A   1      48.419  26.586  29.580  1.00  0.00    -0.014 A 
ATOM     68  C   UNL A   1      49.333  26.864  28.552  1.00  0.00     0.009 A 
ATOM     69  C   UNL A   1      48.884  25.956  30.746  1.00  0.00     0.009 A 
ATOM     70  C   UNL A   1      50.677  26.506  28.680  1.00  0.00     0.001 A 
ATOM     71  C   UNL A   1      50.234  25.624  30.883  1.00  0.00     0.001 A 
ATOM     72  C   UNL A   1      51.127  25.892  29.848  1.00  0.00     0.000 A 
ENDBRANCH  48  67
BRANCH  60  73
ATOM     73  C   UNL A   1      44.823  32.341  31.214  1.00  0.00    -0.014 A 
ATOM     74  C   UNL A   1      44.902  32.514  32.603  1.00  0.00     0.009 A 
ATOM     75  C   UNL A   1      45.230  33.385  30.369  1.00  0.00     0.009 A 
ATOM     76  C   UNL A   1      45.373  33.716  33.135  1.00  0.00     0.001 A 
ATOM     77  C   UNL A   1      45.726  34.574  30.904  1.00  0.00     0.001 A 
ATOM     78  C   UNL A   1      45.794  34.739  32.286  1.00  0.00     0.000 A 
ENDBRANCH  60  73
ENDBRANCH  34  35
ENDBRANCH  26  29
ENDBRANCH  24  25
ENDBRANCH   1  24
TORSDOF 11
ENDMDL
MODEL 3
REMARK VINA RESULT:     -12.1      2.869      7.615
REMARK SMILES Cc1cc2c(c(C)c1Cl)C=C(C(=O)NCCCNC(=O)c1ccc(-c3c4nc(c(-c5ccccc5)c5ccc([nH]5)c(-c5ccccc5)c5nc(c(-c6ccccc6)c6ccc3[nH]6)C=C5)C=C4)cc1)[C@@H](C(F)(F)F)O2
REMARK SMILES IDX 16 1 15 2 14 3 12 4 13 5 11 7 1 8 2 9 3 10 8 11 4 12 6 13
REMARK SMILES IDX 9 14 5 15 74 16 7 17 10 18 69 19 70 20 71 21 72 22 73 23
REMARK SMILES IDX 17 24 18 25 19 26 20 28 21 29 22 30 68 31 23 32 67 33 24 34
REMARK SMILES IDX 25 35 26 36 61 37 27 38 66 39 60 40 62 41 28 42 65 43 59 44
REMARK SMILES IDX 58 45 29 47 51 48 36 49 50 50 37 51 40 52 49 53 63 54 38 55
REMARK SMILES IDX 39 56 48 58 64 59 41 60 30 61 31 62 35 63 32 64 34 65 33 66
REMARK SMILES IDX 52 67 53 68 57 69 54 70 56 71 55 72 42 73 43 74 47 75 44 76
REMARK SMILES IDX 46 77 45 78
REMARK H PARENT 14 6 18 27 62 46 40 57
REMARK Flexibility Score: inf
ROOT
ATOM      1  C   UNL A   1      34.043  28.219  24.813  1.00  0.00     0.042 C 
ENDROOT
BRANCH   1   2
ATOM      2  C   UNL A   1      32.973  27.256  24.322  1.00  0.00     0.118 C 
BRANCH   2   3
ATOM      3  N   UNL A   1      32.143  26.773  25.416  1.00  0.00    -0.352 N 
ATOM      4  C   UNL A   1      31.911  25.598  26.043  1.00  0.00     0.251 C 
ATOM      5  O   UNL A   1      31.077  25.647  26.953  1.00  0.00    -0.270 OA
ATOM      6  H   UNL A   1      31.605  27.499  25.805  1.00  0.00     0.163 HD
BRANCH   4   7
ATOM      7  C   UNL A   1      32.574  24.304  25.713  1.00  0.00     0.067 C 
ATOM      8  C   UNL A   1      36.478  19.184  24.791  1.00  0.00     0.046 C 
ATOM      9  C   UNL A   1      35.875  20.531  25.082  1.00  0.00    -0.028 A 
ATOM     10  C   UNL A   1      34.484  20.649  25.064  1.00  0.00     0.052 A 
ATOM     11  C   UNL A   1      36.650  21.663  25.410  1.00  0.00     0.047 A 
ATOM     12  C   UNL A   1      33.877  21.869  25.335  1.00  0.00     0.128 A 
ATOM     13  C   UNL A   1      36.043  22.912  25.691  1.00  0.00    -0.021 A 
ATOM     14  Cl  UNL A   1      38.377  21.483  25.482  1.00  0.00    -0.084 Cl
ATOM     15  C   UNL A   1      34.630  23.003  25.652  1.00  0.00     0.022 A 
ATOM     16  O   UNL A   1      32.511  21.856  25.315  1.00  0.00    -0.475 OA
ATOM     17  C   UNL A   1      36.858  24.138  26.034  1.00  0.00     0.047 C 
ATOM     18  C   UNL A   1      33.893  24.232  25.972  1.00  0.00     0.026 C 
ATOM     19  C   UNL A   1      31.865  23.134  25.105  1.00  0.00     0.314 C 
BRANCH  19  20
ATOM     20  C   UNL A   1      31.573  23.324  23.603  1.00  0.00     0.429 C 
ATOM     21  F   UNL A   1      32.478  24.173  23.054  1.00  0.00    -0.167 F 
ATOM     22  F   UNL A   1      31.663  22.167  22.904  1.00  0.00    -0.167 F 
ATOM     23  F   UNL A   1      30.344  23.829  23.367  1.00  0.00    -0.167 F 
ENDBRANCH  19  20
ENDBRANCH   4   7
ENDBRANCH   2   3
ENDBRANCH   1   2
BRANCH   1  24
ATOM     24  C   UNL A   1      33.991  28.404  26.323  1.00  0.00     0.118 C 
BRANCH  24  25
ATOM     25  N   UNL A   1      33.798  29.806  26.689  1.00  0.00    -0.352 N 
ATOM     26  C   UNL A   1      34.490  30.592  27.574  1.00  0.00     0.251 C 
ATOM     27  H   UNL A   1      33.054  30.256  26.228  1.00  0.00     0.163 HD
ATOM     28  O   UNL A   1      34.007  31.653  27.962  1.00  0.00    -0.269 OA
BRANCH  26  29
ATOM     29  C   UNL A   1      35.812  30.160  28.061  1.00  0.00     0.039 A 
ATOM     30  C   UNL A   1      35.929  29.613  29.341  1.00  0.00     0.014 A 
ATOM     31  C   UNL A   1      36.942  30.315  27.254  1.00  0.00     0.014 A 
ATOM     32  C   UNL A   1      37.174  29.164  29.782  1.00  0.00     0.010 A 
ATOM     33  C   UNL A   1      38.152  29.768  27.649  1.00  0.00     0.010 A 
ATOM     34  C   UNL A   1      38.286  29.206  28.925  1.00  0.00    -0.014 A 
BRANCH  34  35
ATOM     35  C   UNL A   1      39.611  28.703  29.356  1.00  0.00     0.031 A 
ATOM     36  C   UNL A   1      40.444  29.515  30.309  1.00  0.00     0.074 A 
ATOM     37  C   UNL A   1      40.075  27.541  28.860  1.00  0.00     0.049 A 
ATOM     38  N   UNL A   1      41.633  29.254  30.788  1.00  0.00    -0.248 NA
ATOM     39  C   UNL A   1      39.883  30.798  30.764  1.00  0.00     0.031 C 
ATOM     40  C   UNL A   1      39.371  26.686  27.902  1.00  0.00     0.029 A 
ATOM     41  N   UNL A   1      41.247  26.870  29.104  1.00  0.00    -0.354 N 
ATOM     42  C   UNL A   1      41.957  30.339  31.593  1.00  0.00     0.074 A 
ATOM     43  C   UNL A   1      40.880  31.295  31.480  1.00  0.00     0.031 C 
ATOM     44  C   UNL A   1      40.098  25.579  27.683  1.00  0.00     0.029 A 
ATOM     45  C   UNL A   1      41.337  25.665  28.450  1.00  0.00     0.049 A 
ATOM     46  H   UNL A   1      41.955  27.220  29.691  1.00  0.00     0.167 HD
ATOM     47  C   UNL A   1      43.038  30.509  32.387  1.00  0.00     0.031 A 
ATOM     48  C   UNL A   1      42.305  24.730  28.475  1.00  0.00     0.031 A 
ATOM     49  C   UNL A   1      44.100  29.550  32.510  1.00  0.00     0.049 A 
ATOM     50  C   UNL A   1      43.518  24.961  29.334  1.00  0.00     0.074 A 
ATOM     51  C   UNL A   1      45.221  29.608  33.317  1.00  0.00     0.029 A 
ATOM     52  N   UNL A   1      44.166  28.358  31.806  1.00  0.00    -0.354 N 
ATOM     53  N   UNL A   1      43.781  25.965  30.135  1.00  0.00    -0.248 NA
ATOM     54  C   UNL A   1      44.563  23.928  29.298  1.00  0.00     0.031 C 
ATOM     55  C   UNL A   1      45.994  28.472  33.063  1.00  0.00     0.029 A 
ATOM     56  C   UNL A   1      45.324  27.681  32.142  1.00  0.00     0.049 A 
ATOM     57  H   UNL A   1      43.490  28.040  31.165  1.00  0.00     0.167 HD
ATOM     58  C   UNL A   1      45.010  25.676  30.714  1.00  0.00     0.074 A 
ATOM     59  C   UNL A   1      45.432  24.396  30.185  1.00  0.00     0.031 C 
ATOM     60  C   UNL A   1      45.723  26.406  31.604  1.00  0.00     0.031 A 
BRANCH  47  61
ATOM     61  C   UNL A   1      43.113  31.771  33.200  1.00  0.00    -0.014 A 
ATOM     62  C   UNL A   1      42.569  31.829  34.494  1.00  0.00     0.009 A 
ATOM     63  C   UNL A   1      43.770  32.900  32.689  1.00  0.00     0.009 A 
ATOM     64  C   UNL A   1      42.656  33.000  35.247  1.00  0.00     0.001 A 
ATOM     65  C   UNL A   1      43.883  34.061  33.457  1.00  0.00     0.001 A 
ATOM     66  C   UNL A   1      43.318  34.112  34.731  1.00  0.00     0.000 A 
ENDBRANCH  47  61
BRANCH  48  67
ATOM     67  C   UNL A   1      42.142  23.475  27.698  1.00  0.00    -0.014 A 
ATOM     68  C   UNL A   1      42.613  23.395  26.378  1.00  0.00     0.009 A 
ATOM     69  C   UNL A   1      41.543  22.342  28.273  1.00  0.00     0.009 A 
ATOM     70  C   UNL A   1      42.475  22.214  25.645  1.00  0.00     0.001 A 
ATOM     71  C   UNL A   1      41.431  21.154  27.547  1.00  0.00     0.001 A 
ATOM     72  C   UNL A   1      41.890  21.093  26.233  1.00  0.00     0.000 A 
ENDBRANCH  48  67
BRANCH  60  73
ATOM     73  C   UNL A   1      47.031  25.843  32.081  1.00  0.00    -0.014 A 
ATOM     74  C   UNL A   1      48.223  26.105  31.391  1.00  0.00     0.009 A 
ATOM     75  C   UNL A   1      47.083  25.139  33.295  1.00  0.00     0.009 A 
ATOM     76  C   UNL A   1      49.443  25.663  31.905  1.00  0.00     0.001 A 
ATOM     77  C   UNL A   1      48.307  24.724  33.819  1.00  0.00     0.001 A 
ATOM     78  C   UNL A   1      49.485  24.984  33.122  1.00  0.00     0.000 A 
ENDBRANCH  60  73
ENDBRANCH  34  35
ENDBRANCH  26  29
ENDBRANCH  24  25
ENDBRANCH   1  24
TORSDOF 11
ENDMDL
