MODEL 1
REMARK VINA RESULT:     -11.7      0.000      0.000
REMARK SMILES O=C(NCCCNC(=O)c1cccc(Nc2ccnc3ccc(Cl)cc23)c1)c1ccc(-c2c3nc(c(-c4ccccc4)c4ccc([nH]4)c(-c4ccccc4)c4nc(c(-c5ccccc5)c5ccc2[nH]5)C=C4)C=C3)cc1
REMARK SMILES IDX 5 1 4 2 3 3 1 4 2 5 28 7 29 8 75 9 30 10 74 11 31 12 32 13
REMARK SMILES IDX 33 14 68 15 34 16 73 17 67 18 69 19 35 20 72 21 66 22 65 23
REMARK SMILES IDX 36 25 58 26 43 27 57 28 44 29 47 30 56 31 70 32 45 33 46 34
REMARK SMILES IDX 55 36 71 37 48 38 37 39 38 40 42 41 39 42 41 43 40 44 59 45
REMARK SMILES IDX 60 46 64 47 61 48 63 49 62 50 49 51 50 52 54 53 51 54 53 55
REMARK SMILES IDX 52 56 6 57 7 58 8 59 9 61 10 62 11 63 27 64 12 65 14 66
REMARK SMILES IDX 13 67 15 68 16 70 17 71 26 72 18 73 20 74 25 75 19 76 21 77
REMARK SMILES IDX 23 78 22 79 24 80
REMARK H PARENT 3 6 69 24 47 35 7 60 15 69
REMARK Flexibility Score: inf
ROOT
ATOM      1  C   UNL A   1      33.794  29.006  25.691  1.00  0.00     0.042 C 
ENDROOT
BRANCH   1   2
ATOM      2  C   UNL A   1      33.578  28.972  27.205  1.00  0.00     0.118 C 
BRANCH   2   3
ATOM      3  N   UNL A   1      33.676  30.270  27.860  1.00  0.00    -0.352 N 
ATOM      4  O   UNL A   1      34.519  31.975  29.058  1.00  0.00    -0.269 OA
ATOM      5  C   UNL A   1      34.714  30.882  28.529  1.00  0.00     0.251 C 
ATOM      6  H   UNL A   1      32.852  30.807  27.817  1.00  0.00     0.163 HD
BRANCH   5   7
ATOM      7  C   UNL A   1      36.044  30.240  28.666  1.00  0.00     0.039 A 
ATOM      8  C   UNL A   1      36.435  29.596  29.839  1.00  0.00     0.014 A 
ATOM      9  C   UNL A   1      36.918  30.258  27.573  1.00  0.00     0.014 A 
ATOM     10  C   UNL A   1      37.749  29.152  29.985  1.00  0.00     0.010 A 
ATOM     11  C   UNL A   1      38.209  29.725  27.688  1.00  0.00     0.010 A 
ATOM     12  C   UNL A   1      38.658  29.218  28.915  1.00  0.00    -0.014 A 
BRANCH  12  13
ATOM     13  C   UNL A   1      40.060  28.752  29.111  1.00  0.00     0.031 A 
ATOM     14  C   UNL A   1      40.492  27.375  28.672  1.00  0.00     0.074 A 
ATOM     15  C   UNL A   1      40.970  29.594  29.640  1.00  0.00     0.049 A 
ATOM     16  N   UNL A   1      41.690  26.841  28.689  1.00  0.00    -0.248 NA
ATOM     17  C   UNL A   1      39.449  26.477  28.153  1.00  0.00     0.031 C 
ATOM     18  C   UNL A   1      40.688  30.951  30.114  1.00  0.00     0.029 A 
ATOM     19  N   UNL A   1      42.320  29.447  29.839  1.00  0.00    -0.354 N 
ATOM     20  C   UNL A   1      41.540  25.545  28.207  1.00  0.00     0.074 A 
ATOM     21  C   UNL A   1      40.131  25.362  27.933  1.00  0.00     0.031 C 
ATOM     22  C   UNL A   1      41.837  31.533  30.489  1.00  0.00     0.029 A 
ATOM     23  C   UNL A   1      42.926  30.574  30.341  1.00  0.00     0.049 A 
ATOM     24  H   UNL A   1      42.807  28.614  29.642  1.00  0.00     0.167 HD
ATOM     25  C   UNL A   1      42.485  24.596  28.001  1.00  0.00     0.031 A 
ATOM     26  C   UNL A   1      44.214  30.813  30.653  1.00  0.00     0.031 A 
ATOM     27  C   UNL A   1      43.890  24.774  28.268  1.00  0.00     0.049 A 
ATOM     28  C   UNL A   1      45.236  29.734  30.441  1.00  0.00     0.074 A 
ATOM     29  C   UNL A   1      44.929  23.883  28.052  1.00  0.00     0.029 A 
ATOM     30  N   UNL A   1      44.454  25.915  28.817  1.00  0.00    -0.354 N 
ATOM     31  N   UNL A   1      45.082  28.536  29.935  1.00  0.00    -0.248 NA
ATOM     32  C   UNL A   1      46.616  30.050  30.837  1.00  0.00     0.031 C 
ATOM     33  C   UNL A   1      46.110  24.462  28.526  1.00  0.00     0.029 A 
ATOM     34  C   UNL A   1      45.819  25.741  28.972  1.00  0.00     0.049 A 
ATOM     35  H   UNL A   1      43.956  26.730  29.060  1.00  0.00     0.167 HD
ATOM     36  C   UNL A   1      46.348  27.965  29.922  1.00  0.00     0.074 A 
ATOM     37  C   UNL A   1      47.260  28.957  30.454  1.00  0.00     0.031 C 
ATOM     38  C   UNL A   1      46.721  26.731  29.503  1.00  0.00     0.031 A 
BRANCH  25  39
ATOM     39  C   UNL A   1      42.029  23.256  27.484  1.00  0.00    -0.014 A 
ATOM     40  C   UNL A   1      42.127  22.920  26.124  1.00  0.00     0.009 A 
ATOM     41  C   UNL A   1      41.535  22.298  28.383  1.00  0.00     0.009 A 
ATOM     42  C   UNL A   1      41.704  21.667  25.672  1.00  0.00     0.001 A 
ATOM     43  C   UNL A   1      41.141  21.036  27.934  1.00  0.00     0.001 A 
ATOM     44  C   UNL A   1      41.216  20.726  26.578  1.00  0.00     0.000 A 
ENDBRANCH  25  39
BRANCH  26  45
ATOM     45  C   UNL A   1      44.612  32.138  31.198  1.00  0.00    -0.014 A 
ATOM     46  C   UNL A   1      44.515  32.405  32.573  1.00  0.00     0.009 A 
ATOM     47  C   UNL A   1      45.083  33.148  30.344  1.00  0.00     0.009 A 
ATOM     48  C   UNL A   1      44.857  33.662  33.076  1.00  0.00     0.001 A 
ATOM     49  C   UNL A   1      45.455  34.392  30.853  1.00  0.00     0.001 A 
ATOM     50  C   UNL A   1      45.332  34.653  32.217  1.00  0.00     0.000 A 
ENDBRANCH  26  45
BRANCH  38  51
ATOM     51  C   UNL A   1      48.188  26.403  29.556  1.00  0.00    -0.014 A 
ATOM     52  C   UNL A   1      48.764  25.783  30.676  1.00  0.00     0.009 A 
ATOM     53  C   UNL A   1      49.004  26.707  28.454  1.00  0.00     0.009 A 
ATOM     54  C   UNL A   1      50.135  25.517  30.708  1.00  0.00     0.001 A 
ATOM     55  C   UNL A   1      50.366  26.409  28.476  1.00  0.00     0.001 A 
ATOM     56  C   UNL A   1      50.933  25.827  29.608  1.00  0.00     0.000 A 
ENDBRANCH  38  51
ENDBRANCH  12  13
ENDBRANCH   5   7
ENDBRANCH   2   3
ENDBRANCH   1   2
BRANCH   1  57
ATOM     57  C   UNL A   1      33.050  27.957  24.871  1.00  0.00     0.118 C 
BRANCH  57  58
ATOM     58  N   UNL A   1      33.739  27.519  23.669  1.00  0.00    -0.352 N 
ATOM     59  C   UNL A   1      33.452  26.446  22.861  1.00  0.00     0.251 C 
ATOM     60  H   UNL A   1      34.514  28.063  23.399  1.00  0.00     0.163 HD
ATOM     61  O   UNL A   1      33.958  26.351  21.742  1.00  0.00    -0.269 OA
BRANCH  59  62
ATOM     62  C   UNL A   1      32.633  25.336  23.379  1.00  0.00     0.041 A 
ATOM     63  C   UNL A   1      31.329  25.259  22.880  1.00  0.00     0.014 A 
ATOM     64  C   UNL A   1      33.103  24.426  24.350  1.00  0.00     0.039 A 
ATOM     65  C   UNL A   1      30.494  24.238  23.304  1.00  0.00     0.003 A 
ATOM     66  C   UNL A   1      32.262  23.390  24.786  1.00  0.00     0.039 A 
ATOM     67  C   UNL A   1      30.965  23.312  24.233  1.00  0.00     0.026 A 
BRANCH  66  68
ATOM     68  N   UNL A   1      32.706  22.340  25.633  1.00  0.00    -0.355 N 
ATOM     69  H   UNL A   1      32.497  22.399  26.593  1.00  0.00     0.167 HD
BRANCH  68  70
ATOM     70  C   UNL A   1      33.434  21.206  25.174  1.00  0.00     0.050 A 
ATOM     71  C   UNL A   1      32.669  20.090  24.807  1.00  0.00     0.047 A 
ATOM     72  C   UNL A   1      34.855  21.074  25.215  1.00  0.00     0.025 A 
ATOM     73  C   UNL A   1      33.282  18.871  24.665  1.00  0.00     0.114 A 
ATOM     74  C   UNL A   1      35.371  19.799  24.857  1.00  0.00     0.072 A 
ATOM     75  C   UNL A   1      35.794  22.065  25.610  1.00  0.00     0.033 A 
ATOM     76  N   UNL A   1      34.612  18.720  24.649  1.00  0.00    -0.256 NA
ATOM     77  C   UNL A   1      36.737  19.605  24.733  1.00  0.00     0.030 A 
ATOM     78  C   UNL A   1      37.173  21.814  25.543  1.00  0.00     0.041 A 
ATOM     79  C   UNL A   1      37.648  20.604  25.054  1.00  0.00     0.023 A 
ATOM     80  Cl  UNL A   1      38.305  22.993  26.082  1.00  0.00    -0.084 Cl
ENDBRANCH  68  70
ENDBRANCH  66  68
ENDBRANCH  59  62
ENDBRANCH  57  58
ENDBRANCH   1  57
TORSDOF 12
ENDMDL
MODEL 2
REMARK VINA RESULT:     -11.5      1.697      2.062
REMARK SMILES O=C(NCCCNC(=O)c1cccc(Nc2ccnc3ccc(Cl)cc23)c1)c1ccc(-c2c3nc(c(-c4ccccc4)c4ccc([nH]4)c(-c4ccccc4)c4nc(c(-c5ccccc5)c5ccc2[nH]5)C=C4)C=C3)cc1
REMARK SMILES IDX 5 1 4 2 3 3 1 4 2 5 28 7 29 8 75 9 30 10 74 11 31 12 32 13
REMARK SMILES IDX 33 14 68 15 34 16 73 17 67 18 69 19 35 20 72 21 66 22 65 23
REMARK SMILES IDX 36 25 58 26 43 27 57 28 44 29 47 30 56 31 70 32 45 33 46 34
REMARK SMILES IDX 55 36 71 37 48 38 37 39 38 40 42 41 39 42 41 43 40 44 59 45
REMARK SMILES IDX 60 46 64 47 61 48 63 49 62 50 49 51 50 52 54 53 51 54 53 55
REMARK SMILES IDX 52 56 6 57 7 58 8 59 9 61 10 62 11 63 27 64 12 65 14 66
REMARK SMILES IDX 13 67 15 68 16 70 17 71 26 72 18 73 20 74 25 75 19 76 21 77
REMARK SMILES IDX 23 78 22 79 24 80
REMARK H PARENT 3 6 69 24 47 35 7 60 15 69
REMARK Flexibility Score: inf
ROOT
ATOM      1  C   UNL A   1      32.708  29.164  27.164  1.00  0.00     0.042 C 
ENDROOT
BRANCH   1   2
ATOM      2  C   UNL A   1      34.109  29.763  27.297  1.00  0.00     0.118 C 
BRANCH   2   3
ATOM      3  N   UNL A   1      34.253  30.734  28.374  1.00  0.00    -0.352 N 
ATOM      4  O   UNL A   1      35.156  31.866  30.092  1.00  0.00    -0.269 OA
ATOM      5  C   UNL A   1      35.312  31.032  29.203  1.00  0.00     0.251 C 
ATOM      6  H   UNL A   1      33.448  31.276  28.539  1.00  0.00     0.163 HD
BRANCH   5   7
ATOM      7  C   UNL A   1      36.620  30.342  29.081  1.00  0.00     0.039 A 
ATOM      8  C   UNL A   1      37.228  29.715  30.167  1.00  0.00     0.014 A 
ATOM      9  C   UNL A   1      37.244  30.296  27.828  1.00  0.00     0.014 A 
ATOM     10  C   UNL A   1      38.527  29.224  30.050  1.00  0.00     0.010 A 
ATOM     11  C   UNL A   1      38.512  29.717  27.689  1.00  0.00     0.010 A 
ATOM     12  C   UNL A   1      39.193  29.226  28.812  1.00  0.00    -0.014 A 
BRANCH  12  13
ATOM     13  C   UNL A   1      40.588  28.710  28.726  1.00  0.00     0.031 A 
ATOM     14  C   UNL A   1      40.869  27.279  28.342  1.00  0.00     0.074 A 
ATOM     15  C   UNL A   1      41.619  29.552  28.940  1.00  0.00     0.049 A 
ATOM     16  N   UNL A   1      42.022  26.689  28.138  1.00  0.00    -0.248 NA
ATOM     17  C   UNL A   1      39.709  26.389  28.174  1.00  0.00     0.031 C 
ATOM     18  C   UNL A   1      41.493  30.960  29.324  1.00  0.00     0.029 A 
ATOM     19  N   UNL A   1      42.974  29.357  28.836  1.00  0.00    -0.354 N 
ATOM     20  C   UNL A   1      41.729  25.363  27.839  1.00  0.00     0.074 A 
ATOM     21  C   UNL A   1      40.291  25.225  27.919  1.00  0.00     0.031 C 
ATOM     22  C   UNL A   1      42.713  31.516  29.362  1.00  0.00     0.029 A 
ATOM     23  C   UNL A   1      43.711  30.494  29.066  1.00  0.00     0.049 A 
ATOM     24  H   UNL A   1      43.379  28.486  28.619  1.00  0.00     0.167 HD
ATOM     25  C   UNL A   1      42.573  24.353  27.519  1.00  0.00     0.031 A 
ATOM     26  C   UNL A   1      45.042  30.697  29.045  1.00  0.00     0.031 A 
ATOM     27  C   UNL A   1      44.006  24.484  27.435  1.00  0.00     0.049 A 
ATOM     28  C   UNL A   1      45.957  29.553  28.715  1.00  0.00     0.074 A 
ATOM     29  C   UNL A   1      44.941  23.526  27.078  1.00  0.00     0.029 A 
ATOM     30  N   UNL A   1      44.713  25.642  27.719  1.00  0.00    -0.354 N 
ATOM     31  N   UNL A   1      45.656  28.322  28.385  1.00  0.00    -0.248 NA
ATOM     32  C   UNL A   1      47.399  29.835  28.747  1.00  0.00     0.031 C 
ATOM     33  C   UNL A   1      46.215  24.087  27.204  1.00  0.00     0.029 A 
ATOM     34  C   UNL A   1      46.072  25.415  27.571  1.00  0.00     0.049 A 
ATOM     35  H   UNL A   1      44.308  26.500  27.984  1.00  0.00     0.167 HD
ATOM     36  C   UNL A   1      46.868  27.689  28.139  1.00  0.00     0.074 A 
ATOM     37  C   UNL A   1      47.906  28.680  28.340  1.00  0.00     0.031 C 
ATOM     38  C   UNL A   1      47.099  26.405  27.774  1.00  0.00     0.031 A 
BRANCH  25  39
ATOM     39  C   UNL A   1      41.973  22.995  27.263  1.00  0.00    -0.014 A 
ATOM     40  C   UNL A   1      41.735  22.530  25.959  1.00  0.00     0.009 A 
ATOM     41  C   UNL A   1      41.682  22.149  28.345  1.00  0.00     0.009 A 
ATOM     42  C   UNL A   1      41.185  21.262  25.748  1.00  0.00     0.001 A 
ATOM     43  C   UNL A   1      41.161  20.872  28.131  1.00  0.00     0.001 A 
ATOM     44  C   UNL A   1      40.902  20.434  26.834  1.00  0.00     0.000 A 
ENDBRANCH  25  39
BRANCH  26  45
ATOM     45  C   UNL A   1      45.592  32.046  29.344  1.00  0.00    -0.014 A 
ATOM     46  C   UNL A   1      45.798  32.979  28.315  1.00  0.00     0.009 A 
ATOM     47  C   UNL A   1      45.922  32.405  30.660  1.00  0.00     0.009 A 
ATOM     48  C   UNL A   1      46.347  34.232  28.596  1.00  0.00     0.001 A 
ATOM     49  C   UNL A   1      46.440  33.670  30.942  1.00  0.00     0.001 A 
ATOM     50  C   UNL A   1      46.663  34.578  29.909  1.00  0.00     0.000 A 
ENDBRANCH  26  45
BRANCH  38  51
ATOM     51  C   UNL A   1      48.528  26.010  27.520  1.00  0.00    -0.014 A 
ATOM     52  C   UNL A   1      49.349  25.517  28.547  1.00  0.00     0.009 A 
ATOM     53  C   UNL A   1      49.055  26.120  26.224  1.00  0.00     0.009 A 
ATOM     54  C   UNL A   1      50.681  25.185  28.287  1.00  0.00     0.001 A 
ATOM     55  C   UNL A   1      50.375  25.756  25.961  1.00  0.00     0.001 A 
ATOM     56  C   UNL A   1      51.192  25.303  26.995  1.00  0.00     0.000 A 
ENDBRANCH  38  51
ENDBRANCH  12  13
ENDBRANCH   5   7
ENDBRANCH   2   3
ENDBRANCH   1   2
BRANCH   1  57
ATOM     57  C   UNL A   1      32.630  27.685  26.800  1.00  0.00     0.118 C 
BRANCH  57  58
ATOM     58  N   UNL A   1      31.313  27.088  26.949  1.00  0.00    -0.352 N 
ATOM     59  C   UNL A   1      30.679  26.195  26.120  1.00  0.00     0.251 C 
ATOM     60  H   UNL A   1      30.808  27.361  27.749  1.00  0.00     0.163 HD
ATOM     61  O   UNL A   1      29.683  25.581  26.503  1.00  0.00    -0.269 OA
BRANCH  59  62
ATOM     62  C   UNL A   1      31.116  26.058  24.719  1.00  0.00     0.041 A 
ATOM     63  C   UNL A   1      30.676  27.058  23.845  1.00  0.00     0.014 A 
ATOM     64  C   UNL A   1      31.891  24.972  24.260  1.00  0.00     0.039 A 
ATOM     65  C   UNL A   1      31.051  27.015  22.513  1.00  0.00     0.003 A 
ATOM     66  C   UNL A   1      32.273  24.920  22.911  1.00  0.00     0.039 A 
ATOM     67  C   UNL A   1      31.851  25.966  22.062  1.00  0.00     0.026 A 
BRANCH  66  68
ATOM     68  N   UNL A   1      33.183  23.955  22.402  1.00  0.00    -0.355 N 
ATOM     69  H   UNL A   1      33.679  24.173  21.581  1.00  0.00     0.167 HD
BRANCH  68  70
ATOM     70  C   UNL A   1      33.421  22.691  23.014  1.00  0.00     0.050 A 
ATOM     71  C   UNL A   1      32.444  21.709  22.797  1.00  0.00     0.047 A 
ATOM     72  C   UNL A   1      34.472  22.413  23.939  1.00  0.00     0.025 A 
ATOM     73  C   UNL A   1      32.426  20.592  23.592  1.00  0.00     0.114 A 
ATOM     74  C   UNL A   1      34.436  21.133  24.555  1.00  0.00     0.072 A 
ATOM     75  C   UNL A   1      35.518  23.292  24.332  1.00  0.00     0.033 A 
ATOM     76  N   UNL A   1      33.418  20.277  24.434  1.00  0.00    -0.256 NA
ATOM     77  C   UNL A   1      35.481  20.713  25.362  1.00  0.00     0.030 A 
ATOM     78  C   UNL A   1      36.524  22.861  25.210  1.00  0.00     0.041 A 
ATOM     79  C   UNL A   1      36.538  21.556  25.685  1.00  0.00     0.023 A 
ATOM     80  Cl  UNL A   1      37.752  23.947  25.734  1.00  0.00    -0.084 Cl
ENDBRANCH  68  70
ENDBRANCH  66  68
ENDBRANCH  59  62
ENDBRANCH  57  58
ENDBRANCH   1  57
TORSDOF 12
ENDMDL
MODEL 3
REMARK VINA RESULT:     -11.4      2.403      7.674
REMARK SMILES O=C(NCCCNC(=O)c1cccc(Nc2ccnc3ccc(Cl)cc23)c1)c1ccc(-c2c3nc(c(-c4ccccc4)c4ccc([nH]4)c(-c4ccccc4)c4nc(c(-c5ccccc5)c5ccc2[nH]5)C=C4)C=C3)cc1
REMARK SMILES IDX 5 1 4 2 3 3 1 4 2 5 28 7 29 8 75 9 30 10 74 11 31 12 32 13
REMARK SMILES IDX 33 14 68 15 34 16 73 17 67 18 69 19 35 20 72 21 66 22 65 23
REMARK SMILES IDX 36 25 58 26 43 27 57 28 44 29 47 30 56 31 70 32 45 33 46 34
REMARK SMILES IDX 55 36 71 37 48 38 37 39 38 40 42 41 39 42 41 43 40 44 59 45
REMARK SMILES IDX 60 46 64 47 61 48 63 49 62 50 49 51 50 52 54 53 51 54 53 55
REMARK SMILES IDX 52 56 6 57 7 58 8 59 9 61 10 62 11 63 27 64 12 65 14 66
REMARK SMILES IDX 13 67 15 68 16 70 17 71 26 72 18 73 20 74 25 75 19 76 21 77
REMARK SMILES IDX 23 78 22 79 24 80
REMARK H PARENT 3 6 69 24 47 35 7 60 15 69
REMARK Flexibility Score: inf
ROOT
ATOM      1  C   UNL A   1      37.671  19.984  24.718  1.00  0.00     0.042 C 
ENDROOT
BRANCH   1   2
ATOM      2  C   UNL A   1      38.766  20.287  25.742  1.00  0.00     0.118 C 
BRANCH   2   3
ATOM      3  N   UNL A   1      39.905  19.379  25.698  1.00  0.00    -0.352 N 
ATOM      4  O   UNL A   1      42.019  18.632  25.845  1.00  0.00    -0.269 OA
ATOM      5  C   UNL A   1      41.228  19.553  26.039  1.00  0.00     0.251 C 
ATOM      6  H   UNL A   1      39.690  18.478  25.364  1.00  0.00     0.163 HD
BRANCH   5   7
ATOM      7  C   UNL A   1      41.732  20.833  26.592  1.00  0.00     0.039 A 
ATOM      8  C   UNL A   1      41.804  21.068  27.965  1.00  0.00     0.014 A 
ATOM      9  C   UNL A   1      42.178  21.822  25.706  1.00  0.00     0.014 A 
ATOM     10  C   UNL A   1      42.127  22.339  28.438  1.00  0.00     0.010 A 
ATOM     11  C   UNL A   1      42.594  23.070  26.187  1.00  0.00     0.010 A 
ATOM     12  C   UNL A   1      42.517  23.362  27.557  1.00  0.00    -0.014 A 
BRANCH  12  13
ATOM     13  C   UNL A   1      42.838  24.714  28.095  1.00  0.00     0.031 A 
ATOM     14  C   UNL A   1      44.266  25.149  28.312  1.00  0.00     0.074 A 
ATOM     15  C   UNL A   1      41.837  25.583  28.340  1.00  0.00     0.049 A 
ATOM     16  N   UNL A   1      44.724  26.317  28.691  1.00  0.00    -0.248 NA
ATOM     17  C   UNL A   1      45.316  24.144  28.083  1.00  0.00     0.031 C 
ATOM     18  C   UNL A   1      40.410  25.293  28.179  1.00  0.00     0.029 A 
ATOM     19  N   UNL A   1      41.865  26.895  28.744  1.00  0.00    -0.354 N 
ATOM     20  C   UNL A   1      46.107  26.182  28.766  1.00  0.00     0.074 A 
ATOM     21  C   UNL A   1      46.411  24.810  28.422  1.00  0.00     0.031 C 
ATOM     22  C   UNL A   1      39.705  26.409  28.421  1.00  0.00     0.029 A 
ATOM     23  C   UNL A   1      40.621  27.474  28.811  1.00  0.00     0.049 A 
ATOM     24  H   UNL A   1      42.697  27.373  28.964  1.00  0.00     0.167 HD
ATOM     25  C   UNL A   1      47.040  27.113  29.082  1.00  0.00     0.031 A 
ATOM     26  C   UNL A   1      40.252  28.724  29.152  1.00  0.00     0.031 A 
ATOM     27  C   UNL A   1      46.743  28.481  29.421  1.00  0.00     0.049 A 
ATOM     28  C   UNL A   1      41.305  29.728  29.525  1.00  0.00     0.074 A 
ATOM     29  C   UNL A   1      47.626  29.508  29.716  1.00  0.00     0.029 A 
ATOM     30  N   UNL A   1      45.468  29.014  29.521  1.00  0.00    -0.354 N 
ATOM     31  N   UNL A   1      42.608  29.594  29.537  1.00  0.00    -0.248 NA
ATOM     32  C   UNL A   1      40.831  31.061  29.922  1.00  0.00     0.031 C 
ATOM     33  C   UNL A   1      46.883  30.643  30.052  1.00  0.00     0.029 A 
ATOM     34  C   UNL A   1      45.539  30.345  29.898  1.00  0.00     0.049 A 
ATOM     35  H   UNL A   1      44.634  28.519  29.347  1.00  0.00     0.167 HD
ATOM     36  C   UNL A   1      43.112  30.832  29.913  1.00  0.00     0.074 A 
ATOM     37  C   UNL A   1      41.973  31.709  30.100  1.00  0.00     0.031 C 
ATOM     38  C   UNL A   1      44.402  31.211  30.083  1.00  0.00     0.031 A 
BRANCH  25  39
ATOM     39  C   UNL A   1      48.481  26.676  29.107  1.00  0.00    -0.014 A 
ATOM     40  C   UNL A   1      49.063  26.123  30.260  1.00  0.00     0.009 A 
ATOM     41  C   UNL A   1      49.259  26.780  27.943  1.00  0.00     0.009 A 
ATOM     42  C   UNL A   1      50.400  25.718  30.254  1.00  0.00     0.001 A 
ATOM     43  C   UNL A   1      50.586  26.348  27.930  1.00  0.00     0.001 A 
ATOM     44  C   UNL A   1      51.159  25.827  29.089  1.00  0.00     0.000 A 
ENDBRANCH  25  39
BRANCH  26  45
ATOM     45  C   UNL A   1      38.813  29.099  29.152  1.00  0.00    -0.014 A 
ATOM     46  C   UNL A   1      38.202  29.591  27.987  1.00  0.00     0.009 A 
ATOM     47  C   UNL A   1      38.045  28.975  30.319  1.00  0.00     0.009 A 
ATOM     48  C   UNL A   1      36.859  29.975  28.002  1.00  0.00     0.001 A 
ATOM     49  C   UNL A   1      36.695  29.328  30.322  1.00  0.00     0.001 A 
ATOM     50  C   UNL A   1      36.105  29.839  29.167  1.00  0.00     0.000 A 
ENDBRANCH  26  45
BRANCH  38  51
ATOM     51  C   UNL A   1      44.654  32.649  30.443  1.00  0.00    -0.014 A 
ATOM     52  C   UNL A   1      44.752  33.068  31.779  1.00  0.00     0.009 A 
ATOM     53  C   UNL A   1      44.810  33.599  29.421  1.00  0.00     0.009 A 
ATOM     54  C   UNL A   1      44.957  34.416  32.084  1.00  0.00     0.001 A 
ATOM     55  C   UNL A   1      45.049  34.939  29.728  1.00  0.00     0.001 A 
ATOM     56  C   UNL A   1      45.109  35.349  31.059  1.00  0.00     0.000 A 
ENDBRANCH  38  51
ENDBRANCH  12  13
ENDBRANCH   5   7
ENDBRANCH   2   3
ENDBRANCH   1   2
BRANCH   1  57
ATOM     57  C   UNL A   1      36.277  20.520  25.029  1.00  0.00     0.118 C 
BRANCH  57  58
ATOM     58  N   UNL A   1      35.229  19.513  25.066  1.00  0.00    -0.352 N 
ATOM     59  C   UNL A   1      33.871  19.695  25.153  1.00  0.00     0.251 C 
ATOM     60  H   UNL A   1      35.534  18.578  25.024  1.00  0.00     0.163 HD
ATOM     61  O   UNL A   1      33.098  18.767  24.913  1.00  0.00    -0.269 OA
BRANCH  59  62
ATOM     62  C   UNL A   1      33.332  20.971  25.657  1.00  0.00     0.041 A 
ATOM     63  C   UNL A   1      33.639  21.276  26.987  1.00  0.00     0.014 A 
ATOM     64  C   UNL A   1      32.521  21.822  24.876  1.00  0.00     0.039 A 
ATOM     65  C   UNL A   1      33.184  22.463  27.538  1.00  0.00     0.003 A 
ATOM     66  C   UNL A   1      32.055  23.025  25.429  1.00  0.00     0.039 A 
ATOM     67  C   UNL A   1      32.416  23.327  26.760  1.00  0.00     0.026 A 
BRANCH  66  68
ATOM     68  N   UNL A   1      31.373  24.012  24.667  1.00  0.00    -0.355 N 
ATOM     69  H   UNL A   1      30.396  24.079  24.763  1.00  0.00     0.167 HD
BRANCH  68  70
ATOM     70  C   UNL A   1      32.022  24.909  23.772  1.00  0.00     0.050 A 
ATOM     71  C   UNL A   1      32.155  24.468  22.447  1.00  0.00     0.047 A 
ATOM     72  C   UNL A   1      32.673  26.121  24.155  1.00  0.00     0.025 A 
ATOM     73  C   UNL A   1      33.032  25.109  21.610  1.00  0.00     0.114 A 
ATOM     74  C   UNL A   1      33.397  26.788  23.131  1.00  0.00     0.072 A 
ATOM     75  C   UNL A   1      32.702  26.701  25.452  1.00  0.00     0.033 A 
ATOM     76  N   UNL A   1      33.621  26.271  21.919  1.00  0.00    -0.256 NA
ATOM     77  C   UNL A   1      33.949  28.037  23.361  1.00  0.00     0.030 A 
ATOM     78  C   UNL A   1      33.333  27.935  25.671  1.00  0.00     0.041 A 
ATOM     79  C   UNL A   1      33.911  28.631  24.618  1.00  0.00     0.023 A 
ATOM     80  Cl  UNL A   1      33.421  28.603  27.255  1.00  0.00    -0.084 Cl
ENDBRANCH  68  70
ENDBRANCH  66  68
ENDBRANCH  59  62
ENDBRANCH  57  58
ENDBRANCH   1  57
TORSDOF 12
ENDMDL
