MODEL 1
REMARK VINA RESULT:     -12.2      0.000      0.000
REMARK SMILES Cc1ccccc1/C=C1\SC(=S)N(CCC(=O)N[C@@H](C)C(=O)NCCCNC(=O)c2ccc(-c3c4nc(c(-c5ccccc5)c5ccc([nH]5)c(-c5ccccc5)c5nc(c(-c6ccccc6)c6ccc3[nH]6)C=C5)C=C4)cc2)C1=O
REMARK SMILES IDX 21 1 22 2 23 3 19 5 20 6 18 7 16 8 17 9 15 11 14 12 13 13
REMARK SMILES IDX 8 14 9 15 10 16 78 17 11 18 79 19 12 20 7 21 1 22 2 23 3 24
REMARK SMILES IDX 4 25 6 26 5 27 24 28 25 29 26 30 27 31 28 32 29 34 30 35
REMARK SMILES IDX 31 36 77 37 32 38 76 39 33 40 34 41 35 42 70 43 36 44 75 45
REMARK SMILES IDX 69 46 71 47 37 48 74 49 68 50 67 51 38 53 60 54 45 55 59 56
REMARK SMILES IDX 46 57 49 58 58 59 72 60 47 61 48 62 57 64 73 65 50 66 39 67
REMARK SMILES IDX 40 68 44 69 41 70 43 71 42 72 61 73 62 74 66 75 63 76 65 77
REMARK SMILES IDX 64 78 51 79 52 80 56 81 53 82 55 83 54 84
REMARK H PARENT 23 4 18 10 27 33 71 52 49 63
REMARK Flexibility Score: inf
ROOT
ATOM      1  C   UNL A   1      36.206  22.720  23.871  1.00  0.00     0.242 C 
ATOM      2  O   UNL A   1      36.190  23.314  22.785  1.00  0.00    -0.273 OA
ATOM      3  N   UNL A   1      37.394  22.146  24.216  1.00  0.00    -0.354 N 
ATOM      4  H   UNL A   1      38.142  22.423  23.639  1.00  0.00     0.163 HD
ENDROOT
BRANCH   1   5
ATOM      5  C   UNL A   1      34.911  22.664  24.729  1.00  0.00     0.168 C 
ATOM      6  C   UNL A   1      35.072  22.934  26.202  1.00  0.00     0.041 C 
BRANCH   5   7
ATOM      7  N   UNL A   1      34.178  21.404  24.618  1.00  0.00    -0.345 N 
ATOM      8  C   UNL A   1      32.910  21.265  24.114  1.00  0.00     0.222 C 
ATOM      9  O   UNL A   1      32.184  20.381  24.567  1.00  0.00    -0.275 OA
ATOM     10  H   UNL A   1      34.632  20.589  24.932  1.00  0.00     0.164 HD
BRANCH   8  11
ATOM     11  C   UNL A   1      32.451  22.156  22.967  1.00  0.00     0.122 C 
BRANCH  11  12
ATOM     12  C   UNL A   1      31.400  23.236  23.297  1.00  0.00     0.137 C 
BRANCH  12  13
ATOM     13  N   UNL A   1      31.842  24.243  24.289  1.00  0.00    -0.292 N 
ATOM     14  C   UNL A   1      33.031  27.585  24.556  1.00  0.00     0.029 C 
ATOM     15  C   UNL A   1      32.722  26.331  24.916  1.00  0.00     0.081 C 
ATOM     16  S   UNL A   1      32.009  25.774  26.367  1.00  0.00    -0.054 SA
ATOM     17  C   UNL A   1      32.741  25.231  23.913  1.00  0.00     0.266 C 
ATOM     18  C   UNL A   1      31.498  24.253  25.628  1.00  0.00     0.148 C 
ATOM     19  O   UNL A   1      33.391  25.270  22.877  1.00  0.00    -0.268 OA
ATOM     20  S   UNL A   1      30.702  23.076  26.499  1.00  0.00    -0.052 S 
BRANCH  14  21
ATOM     21  C   UNL A   1      32.809  28.817  25.330  1.00  0.00    -0.021 A 
ATOM     22  C   UNL A   1      30.713  29.350  24.001  1.00  0.00     0.045 C 
ATOM     23  C   UNL A   1      31.682  29.625  25.117  1.00  0.00    -0.044 A 
ATOM     24  C   UNL A   1      31.484  30.750  25.937  1.00  0.00     0.004 A 
ATOM     25  C   UNL A   1      32.368  31.052  26.973  1.00  0.00     0.000 A 
ATOM     26  C   UNL A   1      33.704  29.147  26.363  1.00  0.00     0.008 A 
ATOM     27  C   UNL A   1      33.480  30.249  27.188  1.00  0.00     0.001 A 
ENDBRANCH  14  21
ENDBRANCH  12  13
ENDBRANCH  11  12
ENDBRANCH   8  11
ENDBRANCH   5   7
ENDBRANCH   1   5
BRANCH   3  28
ATOM     28  C   UNL A   1      37.788  21.205  25.262  1.00  0.00     0.117 C 
BRANCH  28  29
ATOM     29  C   UNL A   1      39.203  21.486  25.775  1.00  0.00     0.042 C 
BRANCH  29  30
ATOM     30  C   UNL A   1      39.267  22.809  26.506  1.00  0.00     0.118 C 
BRANCH  30  31
ATOM     31  N   UNL A   1      40.491  23.003  27.274  1.00  0.00    -0.352 N 
ATOM     32  C   UNL A   1      41.005  24.157  27.845  1.00  0.00     0.251 C 
ATOM     33  H   UNL A   1      41.034  22.192  27.407  1.00  0.00     0.163 HD
ATOM     34  O   UNL A   1      42.089  24.140  28.394  1.00  0.00    -0.269 OA
BRANCH  32  35
ATOM     35  C   UNL A   1      40.146  25.367  27.914  1.00  0.00     0.039 A 
ATOM     36  C   UNL A   1      40.499  26.448  27.100  1.00  0.00     0.014 A 
ATOM     37  C   UNL A   1      39.226  25.530  28.944  1.00  0.00     0.014 A 
ATOM     38  C   UNL A   1      40.157  27.734  27.501  1.00  0.00     0.010 A 
ATOM     39  C   UNL A   1      39.005  26.805  29.419  1.00  0.00     0.010 A 
ATOM     40  C   UNL A   1      39.529  27.904  28.732  1.00  0.00    -0.014 A 
BRANCH  40  41
ATOM     41  C   UNL A   1      39.465  29.186  29.422  1.00  0.00     0.031 A 
ATOM     42  C   UNL A   1      38.512  30.214  28.963  1.00  0.00     0.074 A 
ATOM     43  C   UNL A   1      40.256  29.421  30.491  1.00  0.00     0.049 A 
ATOM     44  N   UNL A   1      38.664  31.481  29.145  1.00  0.00    -0.248 NA
ATOM     45  C   UNL A   1      37.327  29.880  28.181  1.00  0.00     0.031 C 
ATOM     46  C   UNL A   1      40.169  30.526  31.441  1.00  0.00     0.029 A 
ATOM     47  N   UNL A   1      41.456  28.796  30.808  1.00  0.00    -0.354 N 
ATOM     48  C   UNL A   1      37.491  32.093  28.769  1.00  0.00     0.074 A 
ATOM     49  C   UNL A   1      36.729  31.069  28.096  1.00  0.00     0.031 C 
ATOM     50  C   UNL A   1      41.348  30.648  32.075  1.00  0.00     0.029 A 
ATOM     51  C   UNL A   1      42.282  29.725  31.451  1.00  0.00     0.049 A 
ATOM     52  H   UNL A   1      41.685  27.858  30.616  1.00  0.00     0.167 HD
ATOM     53  C   UNL A   1      37.230  33.363  29.192  1.00  0.00     0.031 A 
ATOM     54  C   UNL A   1      43.477  30.092  30.894  1.00  0.00     0.031 A 
ATOM     55  C   UNL A   1      38.371  33.936  29.905  1.00  0.00     0.049 A 
ATOM     56  C   UNL A   1      43.531  31.547  30.470  1.00  0.00     0.074 A 
ATOM     57  C   UNL A   1      38.665  34.080  31.251  1.00  0.00     0.029 A 
ATOM     58  N   UNL A   1      39.556  34.166  29.217  1.00  0.00    -0.354 N 
ATOM     59  N   UNL A   1      42.487  32.324  30.378  1.00  0.00    -0.248 NA
ATOM     60  C   UNL A   1      44.762  32.223  30.061  1.00  0.00     0.031 C 
ATOM     61  C   UNL A   1      40.064  34.298  31.371  1.00  0.00     0.029 A 
ATOM     62  C   UNL A   1      40.607  34.325  30.100  1.00  0.00     0.049 A 
ATOM     63  H   UNL A   1      39.635  34.209  28.236  1.00  0.00     0.167 HD
ATOM     64  C   UNL A   1      42.863  33.540  29.873  1.00  0.00     0.074 A 
ATOM     65  C   UNL A   1      44.302  33.439  29.716  1.00  0.00     0.031 C 
ATOM     66  C   UNL A   1      41.959  34.522  29.594  1.00  0.00     0.031 A 
BRANCH  53  67
ATOM     67  C   UNL A   1      35.838  33.952  29.218  1.00  0.00    -0.014 A 
ATOM     68  C   UNL A   1      35.233  34.241  30.455  1.00  0.00     0.009 A 
ATOM     69  C   UNL A   1      35.041  34.175  28.083  1.00  0.00     0.009 A 
ATOM     70  C   UNL A   1      33.888  34.624  30.555  1.00  0.00     0.001 A 
ATOM     71  C   UNL A   1      33.684  34.517  28.173  1.00  0.00     0.001 A 
ATOM     72  C   UNL A   1      33.103  34.730  29.413  1.00  0.00     0.000 A 
ENDBRANCH  53  67
BRANCH  54  73
ATOM     73  C   UNL A   1      44.160  28.981  30.173  1.00  0.00    -0.014 A 
ATOM     74  C   UNL A   1      44.927  28.067  30.925  1.00  0.00     0.009 A 
ATOM     75  C   UNL A   1      43.773  28.619  28.875  1.00  0.00     0.009 A 
ATOM     76  C   UNL A   1      45.200  26.786  30.435  1.00  0.00     0.001 A 
ATOM     77  C   UNL A   1      44.054  27.336  28.386  1.00  0.00     0.001 A 
ATOM     78  C   UNL A   1      44.735  26.411  29.177  1.00  0.00     0.000 A 
ENDBRANCH  54  73
BRANCH  66  79
ATOM     79  C   UNL A   1      42.263  35.791  28.844  1.00  0.00    -0.014 A 
ATOM     80  C   UNL A   1      42.981  36.865  29.387  1.00  0.00     0.009 A 
ATOM     81  C   UNL A   1      41.949  35.858  27.469  1.00  0.00     0.009 A 
ATOM     82  C   UNL A   1      43.333  37.971  28.602  1.00  0.00     0.001 A 
ATOM     83  C   UNL A   1      42.336  36.938  26.675  1.00  0.00     0.001 A 
ATOM     84  C   UNL A   1      43.021  38.002  27.246  1.00  0.00     0.000 A 
ENDBRANCH  66  79
ENDBRANCH  40  41
ENDBRANCH  32  35
ENDBRANCH  30  31
ENDBRANCH  29  30
ENDBRANCH  28  29
ENDBRANCH   3  28
TORSDOF 15
ENDMDL
MODEL 2
REMARK VINA RESULT:     -11.8      2.445      4.059
REMARK SMILES Cc1ccccc1/C=C1\SC(=S)N(CCC(=O)N[C@@H](C)C(=O)NCCCNC(=O)c2ccc(-c3c4nc(c(-c5ccccc5)c5ccc([nH]5)c(-c5ccccc5)c5nc(c(-c6ccccc6)c6ccc3[nH]6)C=C5)C=C4)cc2)C1=O
REMARK SMILES IDX 21 1 22 2 23 3 19 5 20 6 18 7 16 8 17 9 15 11 14 12 13 13
REMARK SMILES IDX 8 14 9 15 10 16 78 17 11 18 79 19 12 20 7 21 1 22 2 23 3 24
REMARK SMILES IDX 4 25 6 26 5 27 24 28 25 29 26 30 27 31 28 32 29 34 30 35
REMARK SMILES IDX 31 36 77 37 32 38 76 39 33 40 34 41 35 42 70 43 36 44 75 45
REMARK SMILES IDX 69 46 71 47 37 48 74 49 68 50 67 51 38 53 60 54 45 55 59 56
REMARK SMILES IDX 46 57 49 58 58 59 72 60 47 61 48 62 57 64 73 65 50 66 39 67
REMARK SMILES IDX 40 68 44 69 41 70 43 71 42 72 61 73 62 74 66 75 63 76 65 77
REMARK SMILES IDX 64 78 51 79 52 80 56 81 53 82 55 83 54 84
REMARK H PARENT 23 4 18 10 27 33 71 52 49 63
REMARK Flexibility Score: inf
ROOT
ATOM      1  C   UNL A   1      34.533  21.466  26.483  1.00  0.00     0.242 C 
ATOM      2  O   UNL A   1      33.943  21.572  27.565  1.00  0.00    -0.273 OA
ATOM      3  N   UNL A   1      35.852  21.812  26.490  1.00  0.00    -0.354 N 
ATOM      4  H   UNL A   1      36.216  21.939  27.395  1.00  0.00     0.163 HD
ENDROOT
BRANCH   1   5
ATOM      5  C   UNL A   1      33.752  20.971  25.233  1.00  0.00     0.168 C 
ATOM      6  C   UNL A   1      34.112  19.604  24.715  1.00  0.00     0.041 C 
BRANCH   5   7
ATOM      7  N   UNL A   1      33.826  21.878  24.088  1.00  0.00    -0.345 N 
ATOM      8  C   UNL A   1      32.798  22.659  23.626  1.00  0.00     0.222 C 
ATOM      9  O   UNL A   1      32.733  22.905  22.423  1.00  0.00    -0.275 OA
ATOM     10  H   UNL A   1      34.685  21.931  23.610  1.00  0.00     0.164 HD
BRANCH   8  11
ATOM     11  C   UNL A   1      31.802  23.258  24.612  1.00  0.00     0.122 C 
BRANCH  11  12
ATOM     12  C   UNL A   1      30.807  24.296  24.057  1.00  0.00     0.137 C 
BRANCH  12  13
ATOM     13  N   UNL A   1      31.224  25.707  24.233  1.00  0.00    -0.292 N 
ATOM     14  C   UNL A   1      32.236  28.044  26.716  1.00  0.00     0.029 C 
ATOM     15  C   UNL A   1      31.837  27.572  25.526  1.00  0.00     0.081 C 
ATOM     16  S   UNL A   1      32.374  28.008  23.962  1.00  0.00    -0.054 SA
ATOM     17  C   UNL A   1      30.998  26.345  25.444  1.00  0.00     0.266 C 
ATOM     18  C   UNL A   1      31.767  26.510  23.248  1.00  0.00     0.148 C 
ATOM     19  O   UNL A   1      30.298  25.940  26.363  1.00  0.00    -0.268 OA
ATOM     20  S   UNL A   1      31.902  26.196  21.617  1.00  0.00    -0.052 S 
BRANCH  14  21
ATOM     21  C   UNL A   1      33.269  29.061  26.973  1.00  0.00    -0.021 A 
ATOM     22  C   UNL A   1      31.571  30.935  26.756  1.00  0.00     0.045 C 
ATOM     23  C   UNL A   1      32.953  30.425  27.056  1.00  0.00    -0.044 A 
ATOM     24  C   UNL A   1      33.968  31.343  27.377  1.00  0.00     0.004 A 
ATOM     25  C   UNL A   1      35.269  30.915  27.646  1.00  0.00     0.000 A 
ATOM     26  C   UNL A   1      34.589  28.647  27.223  1.00  0.00     0.008 A 
ATOM     27  C   UNL A   1      35.581  29.565  27.570  1.00  0.00     0.001 A 
ENDBRANCH  14  21
ENDBRANCH  12  13
ENDBRANCH  11  12
ENDBRANCH   8  11
ENDBRANCH   5   7
ENDBRANCH   1   5
BRANCH   3  28
ATOM     28  C   UNL A   1      36.837  22.035  25.434  1.00  0.00     0.117 C 
BRANCH  28  29
ATOM     29  C   UNL A   1      37.636  23.320  25.664  1.00  0.00     0.042 C 
BRANCH  29  30
ATOM     30  C   UNL A   1      38.915  23.041  26.426  1.00  0.00     0.118 C 
BRANCH  30  31
ATOM     31  N   UNL A   1      39.571  21.797  26.045  1.00  0.00    -0.352 N 
ATOM     32  C   UNL A   1      40.918  21.464  26.063  1.00  0.00     0.251 C 
ATOM     33  H   UNL A   1      38.969  21.086  25.727  1.00  0.00     0.163 HD
ATOM     34  O   UNL A   1      41.290  20.390  25.635  1.00  0.00    -0.269 OA
BRANCH  32  35
ATOM     35  C   UNL A   1      41.870  22.370  26.754  1.00  0.00     0.039 A 
ATOM     36  C   UNL A   1      41.988  22.235  28.141  1.00  0.00     0.014 A 
ATOM     37  C   UNL A   1      42.391  23.486  26.107  1.00  0.00     0.014 A 
ATOM     38  C   UNL A   1      42.358  23.342  28.897  1.00  0.00     0.010 A 
ATOM     39  C   UNL A   1      42.621  24.620  26.856  1.00  0.00     0.010 A 
ATOM     40  C   UNL A   1      42.539  24.562  28.249  1.00  0.00    -0.014 A 
BRANCH  40  41
ATOM     41  C   UNL A   1      42.551  25.839  28.950  1.00  0.00     0.031 A 
ATOM     42  C   UNL A   1      41.385  26.736  28.852  1.00  0.00     0.074 A 
ATOM     43  C   UNL A   1      43.616  26.189  29.704  1.00  0.00     0.049 A 
ATOM     44  N   UNL A   1      41.434  28.016  29.001  1.00  0.00    -0.248 NA
ATOM     45  C   UNL A   1      40.058  26.247  28.495  1.00  0.00     0.031 C 
ATOM     46  C   UNL A   1      43.714  27.293  30.655  1.00  0.00     0.029 A 
ATOM     47  N   UNL A   1      44.919  25.719  29.597  1.00  0.00    -0.354 N 
ATOM     48  C   UNL A   1      40.138  28.475  29.045  1.00  0.00     0.074 A 
ATOM     49  C   UNL A   1      39.326  27.354  28.637  1.00  0.00     0.031 C 
ATOM     50  C   UNL A   1      45.011  27.568  30.870  1.00  0.00     0.029 A 
ATOM     51  C   UNL A   1      45.793  26.753  29.953  1.00  0.00     0.049 A 
ATOM     52  H   UNL A   1      45.183  24.812  29.319  1.00  0.00     0.167 HD
ATOM     53  C   UNL A   1      39.880  29.712  29.558  1.00  0.00     0.031 A 
ATOM     54  C   UNL A   1      46.685  27.251  29.044  1.00  0.00     0.031 A 
ATOM     55  C   UNL A   1      41.115  30.431  29.870  1.00  0.00     0.049 A 
ATOM     56  C   UNL A   1      46.422  28.694  28.657  1.00  0.00     0.074 A 
ATOM     57  C   UNL A   1      41.815  30.636  31.047  1.00  0.00     0.029 A 
ATOM     58  N   UNL A   1      41.971  30.789  28.836  1.00  0.00    -0.354 N 
ATOM     59  N   UNL A   1      45.319  29.337  28.930  1.00  0.00    -0.248 NA
ATOM     60  C   UNL A   1      47.359  29.505  27.882  1.00  0.00     0.031 C 
ATOM     61  C   UNL A   1      43.139  31.023  30.706  1.00  0.00     0.029 A 
ATOM     62  C   UNL A   1      43.227  31.091  29.328  1.00  0.00     0.049 A 
ATOM     63  H   UNL A   1      41.718  30.824  27.885  1.00  0.00     0.167 HD
ATOM     64  C   UNL A   1      45.360  30.579  28.356  1.00  0.00     0.074 A 
ATOM     65  C   UNL A   1      46.669  30.650  27.734  1.00  0.00     0.031 C 
ATOM     66  C   UNL A   1      44.304  31.440  28.412  1.00  0.00     0.031 A 
BRANCH  53  67
ATOM     67  C   UNL A   1      38.514  30.129  30.053  1.00  0.00    -0.014 A 
ATOM     68  C   UNL A   1      38.107  31.468  29.914  1.00  0.00     0.009 A 
ATOM     69  C   UNL A   1      37.615  29.285  30.727  1.00  0.00     0.009 A 
ATOM     70  C   UNL A   1      36.932  31.955  30.503  1.00  0.00     0.001 A 
ATOM     71  C   UNL A   1      36.459  29.770  31.355  1.00  0.00     0.001 A 
ATOM     72  C   UNL A   1      36.123  31.110  31.253  1.00  0.00     0.000 A 
ENDBRANCH  53  67
BRANCH  54  73
ATOM     73  C   UNL A   1      47.221  26.217  28.114  1.00  0.00    -0.014 A 
ATOM     74  C   UNL A   1      46.500  25.938  26.935  1.00  0.00     0.009 A 
ATOM     75  C   UNL A   1      48.557  25.800  28.194  1.00  0.00     0.009 A 
ATOM     76  C   UNL A   1      47.130  25.363  25.827  1.00  0.00     0.001 A 
ATOM     77  C   UNL A   1      49.183  25.218  27.083  1.00  0.00     0.001 A 
ATOM     78  C   UNL A   1      48.481  25.033  25.892  1.00  0.00     0.000 A 
ENDBRANCH  54  73
BRANCH  66  79
ATOM     79  C   UNL A   1      44.189  32.722  27.631  1.00  0.00    -0.014 A 
ATOM     80  C   UNL A   1      44.181  32.785  26.231  1.00  0.00     0.009 A 
ATOM     81  C   UNL A   1      43.920  33.920  28.329  1.00  0.00     0.009 A 
ATOM     82  C   UNL A   1      43.954  33.994  25.562  1.00  0.00     0.001 A 
ATOM     83  C   UNL A   1      43.651  35.118  27.665  1.00  0.00     0.001 A 
ATOM     84  C   UNL A   1      43.679  35.156  26.278  1.00  0.00     0.000 A 
ENDBRANCH  66  79
ENDBRANCH  40  41
ENDBRANCH  32  35
ENDBRANCH  30  31
ENDBRANCH  29  30
ENDBRANCH  28  29
ENDBRANCH   3  28
TORSDOF 15
ENDMDL
MODEL 3
REMARK VINA RESULT:     -11.7      3.357      8.648
REMARK SMILES Cc1ccccc1/C=C1\SC(=S)N(CCC(=O)N[C@@H](C)C(=O)NCCCNC(=O)c2ccc(-c3c4nc(c(-c5ccccc5)c5ccc([nH]5)c(-c5ccccc5)c5nc(c(-c6ccccc6)c6ccc3[nH]6)C=C5)C=C4)cc2)C1=O
REMARK SMILES IDX 21 1 22 2 23 3 19 5 20 6 18 7 16 8 17 9 15 11 14 12 13 13
REMARK SMILES IDX 8 14 9 15 10 16 78 17 11 18 79 19 12 20 7 21 1 22 2 23 3 24
REMARK SMILES IDX 4 25 6 26 5 27 24 28 25 29 26 30 27 31 28 32 29 34 30 35
REMARK SMILES IDX 31 36 77 37 32 38 76 39 33 40 34 41 35 42 70 43 36 44 75 45
REMARK SMILES IDX 69 46 71 47 37 48 74 49 68 50 67 51 38 53 60 54 45 55 59 56
REMARK SMILES IDX 46 57 49 58 58 59 72 60 47 61 48 62 57 64 73 65 50 66 39 67
REMARK SMILES IDX 40 68 44 69 41 70 43 71 42 72 61 73 62 74 66 75 63 76 65 77
REMARK SMILES IDX 64 78 51 79 52 80 56 81 53 82 55 83 54 84
REMARK H PARENT 23 4 18 10 27 33 71 52 49 63
REMARK Flexibility Score: inf
ROOT
ATOM      1  C   UNL A   1      32.343  28.253  27.071  1.00  0.00     0.242 C 
ATOM      2  O   UNL A   1      31.432  27.833  27.795  1.00  0.00    -0.273 OA
ATOM      3  N   UNL A   1      33.452  28.713  27.719  1.00  0.00    -0.354 N 
ATOM      4  H   UNL A   1      33.461  28.493  28.678  1.00  0.00     0.163 HD
ENDROOT
BRANCH   1   5
ATOM      5  C   UNL A   1      32.160  28.237  25.528  1.00  0.00     0.168 C 
ATOM      6  C   UNL A   1      31.357  29.366  24.937  1.00  0.00     0.041 C 
BRANCH   5   7
ATOM      7  N   UNL A   1      31.576  27.001  25.011  1.00  0.00    -0.345 N 
ATOM      8  C   UNL A   1      32.223  26.087  24.218  1.00  0.00     0.222 C 
ATOM      9  O   UNL A   1      31.571  25.450  23.392  1.00  0.00    -0.275 OA
ATOM     10  H   UNL A   1      30.640  26.808  25.251  1.00  0.00     0.164 HD
BRANCH   8  11
ATOM     11  C   UNL A   1      33.712  25.833  24.419  1.00  0.00     0.122 C 
BRANCH  11  12
ATOM     12  C   UNL A   1      34.149  25.286  25.793  1.00  0.00     0.137 C 
BRANCH  12  13
ATOM     13  N   UNL A   1      34.284  23.813  25.855  1.00  0.00    -0.292 N 
ATOM     14  C   UNL A   1      32.452  20.803  25.371  1.00  0.00     0.029 C 
ATOM     15  C   UNL A   1      33.450  21.618  25.741  1.00  0.00     0.081 C 
ATOM     16  S   UNL A   1      35.138  21.385  25.594  1.00  0.00    -0.054 SA
ATOM     17  C   UNL A   1      33.170  23.030  26.122  1.00  0.00     0.266 C 
ATOM     18  C   UNL A   1      35.471  23.113  25.750  1.00  0.00     0.148 C 
ATOM     19  O   UNL A   1      32.080  23.422  26.516  1.00  0.00    -0.268 OA
ATOM     20  S   UNL A   1      37.027  23.713  25.734  1.00  0.00    -0.052 S 
BRANCH  14  21
ATOM     21  C   UNL A   1      32.566  19.490  24.717  1.00  0.00    -0.021 A 
ATOM     22  C   UNL A   1      32.093  20.510  22.441  1.00  0.00     0.045 C 
ATOM     23  C   UNL A   1      32.461  19.351  23.325  1.00  0.00    -0.044 A 
ATOM     24  C   UNL A   1      32.653  18.083  22.749  1.00  0.00     0.004 A 
ATOM     25  C   UNL A   1      32.978  16.975  23.534  1.00  0.00     0.000 A 
ATOM     26  C   UNL A   1      32.871  18.361  25.498  1.00  0.00     0.008 A 
ATOM     27  C   UNL A   1      33.089  17.114  24.911  1.00  0.00     0.001 A 
ENDBRANCH  14  21
ENDBRANCH  12  13
ENDBRANCH  11  12
ENDBRANCH   8  11
ENDBRANCH   5   7
ENDBRANCH   1   5
BRANCH   3  28
ATOM     28  C   UNL A   1      34.628  29.464  27.287  1.00  0.00     0.117 C 
BRANCH  28  29
ATOM     29  C   UNL A   1      34.423  30.974  27.432  1.00  0.00     0.042 C 
BRANCH  29  30
ATOM     30  C   UNL A   1      34.675  31.427  28.854  1.00  0.00     0.118 C 
BRANCH  30  31
ATOM     31  N   UNL A   1      33.948  32.632  29.230  1.00  0.00    -0.352 N 
ATOM     32  C   UNL A   1      34.323  33.667  30.074  1.00  0.00     0.251 C 
ATOM     33  H   UNL A   1      33.056  32.727  28.823  1.00  0.00     0.163 HD
ATOM     34  O   UNL A   1      33.545  34.565  30.326  1.00  0.00    -0.269 OA
BRANCH  32  35
ATOM     35  C   UNL A   1      35.733  33.740  30.535  1.00  0.00     0.039 A 
ATOM     36  C   UNL A   1      36.680  34.213  29.620  1.00  0.00     0.014 A 
ATOM     37  C   UNL A   1      36.137  33.096  31.699  1.00  0.00     0.014 A 
ATOM     38  C   UNL A   1      37.997  33.784  29.731  1.00  0.00     0.010 A 
ATOM     39  C   UNL A   1      37.405  32.557  31.734  1.00  0.00     0.010 A 
ATOM     40  C   UNL A   1      38.314  32.848  30.714  1.00  0.00    -0.014 A 
BRANCH  40  41
ATOM     41  C   UNL A   1      39.534  32.053  30.691  1.00  0.00     0.031 A 
ATOM     42  C   UNL A   1      39.546  30.753  29.995  1.00  0.00     0.074 A 
ATOM     43  C   UNL A   1      40.656  32.517  31.284  1.00  0.00     0.049 A 
ATOM     44  N   UNL A   1      40.344  29.781  30.279  1.00  0.00    -0.248 NA
ATOM     45  C   UNL A   1      38.582  30.424  28.951  1.00  0.00     0.031 C 
ATOM     46  C   UNL A   1      42.013  31.990  31.164  1.00  0.00     0.029 A 
ATOM     47  N   UNL A   1      40.747  33.458  32.302  1.00  0.00    -0.354 N 
ATOM     48  C   UNL A   1      40.199  28.830  29.296  1.00  0.00     0.074 A 
ATOM     49  C   UNL A   1      39.033  29.235  28.547  1.00  0.00     0.031 C 
ATOM     50  C   UNL A   1      42.744  32.432  32.202  1.00  0.00     0.029 A 
ATOM     51  C   UNL A   1      41.847  33.134  33.106  1.00  0.00     0.049 A 
ATOM     52  H   UNL A   1      40.142  34.223  32.435  1.00  0.00     0.167 HD
ATOM     53  C   UNL A   1      41.163  27.880  29.132  1.00  0.00     0.031 A 
ATOM     54  C   UNL A   1      41.672  32.815  34.424  1.00  0.00     0.031 A 
ATOM     55  C   UNL A   1      42.181  27.963  30.179  1.00  0.00     0.049 A 
ATOM     56  C   UNL A   1      42.029  31.379  34.757  1.00  0.00     0.074 A 
ATOM     57  C   UNL A   1      43.445  28.527  30.222  1.00  0.00     0.029 A 
ATOM     58  N   UNL A   1      41.823  27.698  31.495  1.00  0.00    -0.354 N 
ATOM     59  N   UNL A   1      42.223  30.446  33.866  1.00  0.00    -0.248 NA
ATOM     60  C   UNL A   1      42.137  30.871  36.125  1.00  0.00     0.031 C 
ATOM     61  C   UNL A   1      43.802  28.694  31.587  1.00  0.00     0.029 A 
ATOM     62  C   UNL A   1      42.774  28.196  32.366  1.00  0.00     0.049 A 
ATOM     63  H   UNL A   1      41.006  27.222  31.769  1.00  0.00     0.167 HD
ATOM     64  C   UNL A   1      42.426  29.247  34.495  1.00  0.00     0.074 A 
ATOM     65  C   UNL A   1      42.391  29.568  35.910  1.00  0.00     0.031 C 
ATOM     66  C   UNL A   1      42.576  28.080  33.805  1.00  0.00     0.031 A 
BRANCH  53  67
ATOM     67  C   UNL A   1      41.331  27.090  27.855  1.00  0.00    -0.014 A 
ATOM     68  C   UNL A   1      40.922  25.745  27.815  1.00  0.00     0.009 A 
ATOM     69  C   UNL A   1      41.947  27.574  26.688  1.00  0.00     0.009 A 
ATOM     70  C   UNL A   1      41.206  24.911  26.724  1.00  0.00     0.001 A 
ATOM     71  C   UNL A   1      42.273  26.740  25.609  1.00  0.00     0.001 A 
ATOM     72  C   UNL A   1      41.913  25.402  25.633  1.00  0.00     0.000 A 
ENDBRANCH  53  67
BRANCH  54  73
ATOM     73  C   UNL A   1      40.572  33.580  35.078  1.00  0.00    -0.014 A 
ATOM     74  C   UNL A   1      39.328  32.942  35.257  1.00  0.00     0.009 A 
ATOM     75  C   UNL A   1      40.843  34.738  35.820  1.00  0.00     0.009 A 
ATOM     76  C   UNL A   1      38.430  33.382  36.235  1.00  0.00     0.001 A 
ATOM     77  C   UNL A   1      39.937  35.179  36.795  1.00  0.00     0.001 A 
ATOM     78  C   UNL A   1      38.750  34.483  37.025  1.00  0.00     0.000 A 
ENDBRANCH  54  73
BRANCH  66  79
ATOM     79  C   UNL A   1      42.586  26.706  34.418  1.00  0.00    -0.014 A 
ATOM     80  C   UNL A   1      41.523  26.177  35.163  1.00  0.00     0.009 A 
ATOM     81  C   UNL A   1      43.649  25.831  34.107  1.00  0.00     0.009 A 
ATOM     82  C   UNL A   1      41.542  24.849  35.609  1.00  0.00     0.001 A 
ATOM     83  C   UNL A   1      43.651  24.496  34.513  1.00  0.00     0.001 A 
ATOM     84  C   UNL A   1      42.599  24.007  35.275  1.00  0.00     0.000 A 
ENDBRANCH  66  79
ENDBRANCH  40  41
ENDBRANCH  32  35
ENDBRANCH  30  31
ENDBRANCH  29  30
ENDBRANCH  28  29
ENDBRANCH   3  28
TORSDOF 15
ENDMDL
