MODEL 1
REMARK VINA RESULT:     -10.5      0.000      0.000
REMARK SMILES CCOC(=O)NC(=O)COc1csc(C(=O)NCCCNC(=O)c2ccc(-c3c4nc(c(-c5ccccc5)c5ccc([nH]5)c(-c5ccccc5)c5nc(c(-c6ccccc6)c6ccc3[nH]6)C=C5)C=C4)cc2)c1
REMARK SMILES IDX 15 1 16 2 17 3 14 5 11 6 12 7 72 8 13 9 10 10 9 11 7 12 4 13
REMARK SMILES IDX 5 14 6 15 8 17 3 18 2 19 1 20 18 21 19 22 20 23 21 24 22 25
REMARK SMILES IDX 23 27 24 28 25 29 71 30 26 31 70 32 27 33 28 34 29 35 64 36
REMARK SMILES IDX 30 37 69 38 63 39 65 40 31 41 68 42 62 43 61 44 32 46 54 47
REMARK SMILES IDX 39 48 53 49 40 50 43 51 52 52 66 53 41 54 42 55 51 57 67 58
REMARK SMILES IDX 44 59 33 60 34 61 38 62 35 63 37 64 36 65 55 66 56 67 60 68
REMARK SMILES IDX 57 69 59 70 58 71 45 72 46 73 50 74 47 75 49 76 48 77
REMARK H PARENT 17 4 6 16 21 26 65 45 43 56
REMARK Flexibility Score: inf
ROOT
ATOM      1  C   UNL A   1      34.704  21.291  25.986  1.00  0.00     0.261 C 
ATOM      2  O   UNL A   1      34.331  21.416  27.156  1.00  0.00    -0.268 OA
ATOM      3  N   UNL A   1      35.972  20.782  25.833  1.00  0.00    -0.351 N 
ATOM      4  H   UNL A   1      36.443  20.617  26.683  1.00  0.00     0.163 HD
ENDROOT
BRANCH   1   5
ATOM      5  C   UNL A   1      33.872  21.619  24.836  1.00  0.00     0.096 A 
ATOM      6  C   UNL A   1      32.980  22.509  22.863  1.00  0.00     0.131 A 
ATOM      7  C   UNL A   1      32.182  21.404  23.025  1.00  0.00     0.112 A 
ATOM      8  C   UNL A   1      33.895  22.668  23.936  1.00  0.00     0.072 A 
ATOM      9  S   UNL A   1      32.574  20.548  24.454  1.00  0.00    -0.135 S 
BRANCH   6  10
ATOM     10  O   UNL A   1      33.036  23.318  21.780  1.00  0.00    -0.483 OA
BRANCH  10  11
ATOM     11  C   UNL A   1      33.038  24.707  22.034  1.00  0.00     0.329 C 
BRANCH  11  12
ATOM     12  C   UNL A   1      32.600  25.663  20.926  1.00  0.00     0.267 C 
ATOM     13  C   UNL A   1      30.904  27.027  22.244  1.00  0.00     0.413 C 
ATOM     14  O   UNL A   1      30.168  28.001  22.176  1.00  0.00    -0.224 OA
ATOM     15  N   UNL A   1      31.685  26.660  21.169  1.00  0.00    -0.258 N 
ATOM     16  H   UNL A   1      31.557  27.252  20.392  1.00  0.00     0.176 HD
ATOM     17  O   UNL A   1      33.045  25.544  19.780  1.00  0.00    -0.271 OA
BRANCH  13  18
ATOM     18  O   UNL A   1      31.018  26.218  23.320  1.00  0.00    -0.450 OA
BRANCH  18  19
ATOM     19  C   UNL A   1      30.332  26.639  24.510  1.00  0.00     0.231 C 
ATOM     20  C   UNL A   1      31.100  26.257  25.764  1.00  0.00     0.049 C 
ENDBRANCH  18  19
ENDBRANCH  13  18
ENDBRANCH  11  12
ENDBRANCH  10  11
ENDBRANCH   6  10
ENDBRANCH   1   5
BRANCH   3  21
ATOM     21  C   UNL A   1      36.745  20.443  24.656  1.00  0.00     0.118 C 
BRANCH  21  22
ATOM     22  C   UNL A   1      37.882  19.484  24.998  1.00  0.00     0.042 C 
BRANCH  22  23
ATOM     23  C   UNL A   1      39.024  20.164  25.751  1.00  0.00     0.118 C 
BRANCH  23  24
ATOM     24  N   UNL A   1      40.201  19.309  25.833  1.00  0.00    -0.352 N 
ATOM     25  C   UNL A   1      41.514  19.627  26.068  1.00  0.00     0.251 C 
ATOM     26  H   UNL A   1      40.027  18.349  25.699  1.00  0.00     0.163 HD
ATOM     27  O   UNL A   1      42.388  18.795  25.842  1.00  0.00    -0.269 OA
BRANCH  25  28
ATOM     28  C   UNL A   1      41.883  20.960  26.584  1.00  0.00     0.039 A 
ATOM     29  C   UNL A   1      42.336  21.930  25.687  1.00  0.00     0.014 A 
ATOM     30  C   UNL A   1      41.828  21.241  27.952  1.00  0.00     0.014 A 
ATOM     31  C   UNL A   1      42.684  23.197  26.156  1.00  0.00     0.010 A 
ATOM     32  C   UNL A   1      42.096  22.528  28.407  1.00  0.00     0.010 A 
ATOM     33  C   UNL A   1      42.534  23.516  27.514  1.00  0.00    -0.014 A 
BRANCH  33  34
ATOM     34  C   UNL A   1      42.828  24.880  28.020  1.00  0.00     0.031 A 
ATOM     35  C   UNL A   1      44.230  25.259  28.410  1.00  0.00     0.074 A 
ATOM     36  C   UNL A   1      41.818  25.754  28.189  1.00  0.00     0.049 A 
ATOM     37  N   UNL A   1      44.668  26.381  28.924  1.00  0.00    -0.248 NA
ATOM     38  C   UNL A   1      45.272  24.237  28.223  1.00  0.00     0.031 C 
ATOM     39  C   UNL A   1      40.409  25.490  27.885  1.00  0.00     0.029 A 
ATOM     40  N   UNL A   1      41.819  27.041  28.664  1.00  0.00    -0.354 N 
ATOM     41  C   UNL A   1      46.028  26.192  29.137  1.00  0.00     0.074 A 
ATOM     42  C   UNL A   1      46.333  24.833  28.747  1.00  0.00     0.031 C 
ATOM     43  C   UNL A   1      39.688  26.590  28.153  1.00  0.00     0.029 A 
ATOM     44  C   UNL A   1      40.572  27.618  28.693  1.00  0.00     0.049 A 
ATOM     45  H   UNL A   1      42.636  27.506  28.957  1.00  0.00     0.167 HD
ATOM     46  C   UNL A   1      46.945  27.076  29.598  1.00  0.00     0.031 A 
ATOM     47  C   UNL A   1      40.182  28.833  29.118  1.00  0.00     0.031 A 
ATOM     48  C   UNL A   1      46.637  28.428  29.983  1.00  0.00     0.049 A 
ATOM     49  C   UNL A   1      41.215  29.788  29.650  1.00  0.00     0.074 A 
ATOM     50  C   UNL A   1      47.501  29.421  30.409  1.00  0.00     0.029 A 
ATOM     51  N   UNL A   1      45.363  28.975  29.996  1.00  0.00    -0.354 N 
ATOM     52  N   UNL A   1      42.509  29.620  29.773  1.00  0.00    -0.248 NA
ATOM     53  C   UNL A   1      40.732  31.104  30.090  1.00  0.00     0.031 C 
ATOM     54  C   UNL A   1      46.743  30.546  30.743  1.00  0.00     0.029 A 
ATOM     55  C   UNL A   1      45.414  30.280  30.455  1.00  0.00     0.049 A 
ATOM     56  H   UNL A   1      44.543  28.504  29.720  1.00  0.00     0.167 HD
ATOM     57  C   UNL A   1      42.999  30.818  30.276  1.00  0.00     0.074 A 
ATOM     58  C   UNL A   1      41.865  31.709  30.416  1.00  0.00     0.031 C 
ATOM     59  C   UNL A   1      44.275  31.152  30.593  1.00  0.00     0.031 A 
BRANCH  46  60
ATOM     60  C   UNL A   1      48.367  26.600  29.726  1.00  0.00    -0.014 A 
ATOM     61  C   UNL A   1      48.817  25.942  30.883  1.00  0.00     0.009 A 
ATOM     62  C   UNL A   1      49.261  26.784  28.661  1.00  0.00     0.009 A 
ATOM     63  C   UNL A   1      50.144  25.517  30.985  1.00  0.00     0.001 A 
ATOM     64  C   UNL A   1      50.578  26.328  28.752  1.00  0.00     0.001 A 
ATOM     65  C   UNL A   1      51.022  25.706  29.918  1.00  0.00     0.000 A 
ENDBRANCH  46  60
BRANCH  47  66
ATOM     66  C   UNL A   1      38.748  29.220  29.053  1.00  0.00    -0.014 A 
ATOM     67  C   UNL A   1      37.915  29.069  30.172  1.00  0.00     0.009 A 
ATOM     68  C   UNL A   1      38.202  29.739  27.868  1.00  0.00     0.009 A 
ATOM     69  C   UNL A   1      36.560  29.401  30.096  1.00  0.00     0.001 A 
ATOM     70  C   UNL A   1      36.854  30.101  27.805  1.00  0.00     0.001 A 
ATOM     71  C   UNL A   1      36.032  29.921  28.916  1.00  0.00     0.000 A 
ENDBRANCH  47  66
BRANCH  59  72
ATOM     72  C   UNL A   1      44.518  32.552  31.085  1.00  0.00    -0.014 A 
ATOM     73  C   UNL A   1      44.817  33.599  30.199  1.00  0.00     0.009 A 
ATOM     74  C   UNL A   1      44.404  32.833  32.456  1.00  0.00     0.009 A 
ATOM     75  C   UNL A   1      45.034  34.891  30.681  1.00  0.00     0.001 A 
ATOM     76  C   UNL A   1      44.587  34.132  32.931  1.00  0.00     0.001 A 
ATOM     77  C   UNL A   1      44.912  35.158  32.046  1.00  0.00     0.000 A 
ENDBRANCH  59  72
ENDBRANCH  33  34
ENDBRANCH  25  28
ENDBRANCH  23  24
ENDBRANCH  22  23
ENDBRANCH  21  22
ENDBRANCH   3  21
TORSDOF 15
ENDMDL
MODEL 2
REMARK VINA RESULT:     -10.4      2.309      7.817
REMARK SMILES CCOC(=O)NC(=O)COc1csc(C(=O)NCCCNC(=O)c2ccc(-c3c4nc(c(-c5ccccc5)c5ccc([nH]5)c(-c5ccccc5)c5nc(c(-c6ccccc6)c6ccc3[nH]6)C=C5)C=C4)cc2)c1
REMARK SMILES IDX 15 1 16 2 17 3 14 5 11 6 12 7 72 8 13 9 10 10 9 11 7 12 4 13
REMARK SMILES IDX 5 14 6 15 8 17 3 18 2 19 1 20 18 21 19 22 20 23 21 24 22 25
REMARK SMILES IDX 23 27 24 28 25 29 71 30 26 31 70 32 27 33 28 34 29 35 64 36
REMARK SMILES IDX 30 37 69 38 63 39 65 40 31 41 68 42 62 43 61 44 32 46 54 47
REMARK SMILES IDX 39 48 53 49 40 50 43 51 52 52 66 53 41 54 42 55 51 57 67 58
REMARK SMILES IDX 44 59 33 60 34 61 38 62 35 63 37 64 36 65 55 66 56 67 60 68
REMARK SMILES IDX 57 69 59 70 58 71 45 72 46 73 50 74 47 75 49 76 48 77
REMARK H PARENT 17 4 6 16 21 26 65 45 43 56
REMARK Flexibility Score: inf
ROOT
ATOM      1  C   UNL A   1      33.451  28.066  22.707  1.00  0.00     0.261 C 
ATOM      2  O   UNL A   1      34.046  28.041  21.626  1.00  0.00    -0.268 OA
ATOM      3  N   UNL A   1      33.964  28.945  23.631  1.00  0.00    -0.351 N 
ATOM      4  H   UNL A   1      34.773  29.419  23.327  1.00  0.00     0.163 HD
ENDROOT
BRANCH   1   5
ATOM      5  C   UNL A   1      32.271  27.262  22.995  1.00  0.00     0.096 A 
ATOM      6  C   UNL A   1      30.768  25.621  23.724  1.00  0.00     0.131 A 
ATOM      7  C   UNL A   1      29.901  26.640  23.418  1.00  0.00     0.112 A 
ATOM      8  C   UNL A   1      32.113  25.954  23.414  1.00  0.00     0.072 A 
ATOM      9  S   UNL A   1      30.726  28.003  22.795  1.00  0.00    -0.135 S 
BRANCH   6  10
ATOM     10  O   UNL A   1      30.471  24.467  24.364  1.00  0.00    -0.483 OA
BRANCH  10  11
ATOM     11  C   UNL A   1      31.535  23.833  25.042  1.00  0.00     0.329 C 
BRANCH  11  12
ATOM     12  C   UNL A   1      31.377  23.503  26.525  1.00  0.00     0.267 C 
ATOM     13  C   UNL A   1      33.371  21.944  26.785  1.00  0.00     0.413 C 
ATOM     14  O   UNL A   1      34.016  21.310  27.609  1.00  0.00    -0.224 OA
ATOM     15  N   UNL A   1      32.279  22.691  27.172  1.00  0.00    -0.258 N 
ATOM     16  H   UNL A   1      32.105  22.629  28.139  1.00  0.00     0.176 HD
ATOM     17  O   UNL A   1      30.418  23.941  27.168  1.00  0.00    -0.271 OA
BRANCH  13  18
ATOM     18  O   UNL A   1      33.624  21.968  25.458  1.00  0.00    -0.450 OA
BRANCH  18  19
ATOM     19  C   UNL A   1      34.980  22.241  25.072  1.00  0.00     0.231 C 
ATOM     20  C   UNL A   1      35.045  23.065  23.797  1.00  0.00     0.049 C 
ENDBRANCH  18  19
ENDBRANCH  13  18
ENDBRANCH  11  12
ENDBRANCH  10  11
ENDBRANCH   6  10
ENDBRANCH   1   5
BRANCH   3  21
ATOM     21  C   UNL A   1      33.538  29.305  24.968  1.00  0.00     0.118 C 
BRANCH  21  22
ATOM     22  C   UNL A   1      33.956  28.246  25.985  1.00  0.00     0.042 C 
BRANCH  22  23
ATOM     23  C   UNL A   1      33.506  28.580  27.405  1.00  0.00     0.118 C 
BRANCH  23  24
ATOM     24  N   UNL A   1      33.543  30.014  27.661  1.00  0.00    -0.352 N 
ATOM     25  C   UNL A   1      34.505  30.784  28.262  1.00  0.00     0.251 C 
ATOM     26  H   UNL A   1      32.751  30.511  27.352  1.00  0.00     0.163 HD
ATOM     27  O   UNL A   1      34.234  31.929  28.610  1.00  0.00    -0.269 OA
BRANCH  25  28
ATOM     28  C   UNL A   1      35.860  30.245  28.496  1.00  0.00     0.039 A 
ATOM     29  C   UNL A   1      36.781  30.257  27.446  1.00  0.00     0.014 A 
ATOM     30  C   UNL A   1      36.208  29.686  29.729  1.00  0.00     0.014 A 
ATOM     31  C   UNL A   1      38.068  29.758  27.650  1.00  0.00     0.010 A 
ATOM     32  C   UNL A   1      37.514  29.265  29.954  1.00  0.00     0.010 A 
ATOM     33  C   UNL A   1      38.455  29.289  28.915  1.00  0.00    -0.014 A 
BRANCH  33  34
ATOM     34  C   UNL A   1      39.840  28.822  29.171  1.00  0.00     0.031 A 
ATOM     35  C   UNL A   1      40.848  29.747  29.795  1.00  0.00     0.074 A 
ATOM     36  C   UNL A   1      40.203  27.586  28.782  1.00  0.00     0.049 A 
ATOM     37  N   UNL A   1      42.117  29.537  30.043  1.00  0.00    -0.248 NA
ATOM     38  C   UNL A   1      40.379  31.091  30.166  1.00  0.00     0.031 C 
ATOM     39  C   UNL A   1      39.326  26.610  28.129  1.00  0.00     0.029 A 
ATOM     40  N   UNL A   1      41.410  26.940  28.870  1.00  0.00    -0.354 N 
ATOM     41  C   UNL A   1      42.597  30.725  30.580  1.00  0.00     0.074 A 
ATOM     42  C   UNL A   1      41.500  31.667  30.573  1.00  0.00     0.031 C 
ATOM     43  C   UNL A   1      40.016  25.481  27.905  1.00  0.00     0.029 A 
ATOM     44  C   UNL A   1      41.392  25.668  28.350  1.00  0.00     0.049 A 
ATOM     45  H   UNL A   1      42.212  27.348  29.269  1.00  0.00     0.167 HD
ATOM     46  C   UNL A   1      43.836  31.001  31.053  1.00  0.00     0.031 A 
ATOM     47  C   UNL A   1      42.377  24.758  28.233  1.00  0.00     0.031 A 
ATOM     48  C   UNL A   1      44.924  30.059  31.060  1.00  0.00     0.049 A 
ATOM     49  C   UNL A   1      43.750  25.098  28.743  1.00  0.00     0.074 A 
ATOM     50  C   UNL A   1      46.201  30.221  31.568  1.00  0.00     0.029 A 
ATOM     51  N   UNL A   1      44.866  28.781  30.525  1.00  0.00    -0.354 N 
ATOM     52  N   UNL A   1      44.169  26.199  29.317  1.00  0.00    -0.248 NA
ATOM     53  C   UNL A   1      44.782  24.062  28.598  1.00  0.00     0.031 C 
ATOM     54  C   UNL A   1      46.934  29.066  31.282  1.00  0.00     0.029 A 
ATOM     55  C   UNL A   1      46.094  28.156  30.661  1.00  0.00     0.049 A 
ATOM     56  H   UNL A   1      44.069  28.378  30.110  1.00  0.00     0.167 HD
ATOM     57  C   UNL A   1      45.504  25.979  29.629  1.00  0.00     0.074 A 
ATOM     58  C   UNL A   1      45.818  24.633  29.197  1.00  0.00     0.031 C 
ATOM     59  C   UNL A   1      46.391  26.816  30.221  1.00  0.00     0.031 A 
BRANCH  46  60
ATOM     60  C   UNL A   1      44.083  32.386  31.589  1.00  0.00    -0.014 A 
ATOM     61  C   UNL A   1      44.529  33.425  30.755  1.00  0.00     0.009 A 
ATOM     62  C   UNL A   1      43.836  32.663  32.941  1.00  0.00     0.009 A 
ATOM     63  C   UNL A   1      44.761  34.700  31.275  1.00  0.00     0.001 A 
ATOM     64  C   UNL A   1      44.036  33.948  33.452  1.00  0.00     0.001 A 
ATOM     65  C   UNL A   1      44.510  34.962  32.620  1.00  0.00     0.000 A 
ENDBRANCH  46  60
BRANCH  47  66
ATOM     66  C   UNL A   1      42.100  23.436  27.613  1.00  0.00    -0.014 A 
ATOM     67  C   UNL A   1      42.398  23.204  26.261  1.00  0.00     0.009 A 
ATOM     68  C   UNL A   1      41.530  22.398  28.368  1.00  0.00     0.009 A 
ATOM     69  C   UNL A   1      42.103  21.971  25.672  1.00  0.00     0.001 A 
ATOM     70  C   UNL A   1      41.268  21.156  27.785  1.00  0.00     0.001 A 
ATOM     71  C   UNL A   1      41.543  20.948  26.435  1.00  0.00     0.000 A 
ENDBRANCH  47  66
BRANCH  59  72
ATOM     72  C   UNL A   1      47.776  26.286  30.473  1.00  0.00    -0.014 A 
ATOM     73  C   UNL A   1      48.142  25.753  31.718  1.00  0.00     0.009 A 
ATOM     74  C   UNL A   1      48.716  26.284  29.430  1.00  0.00     0.009 A 
ATOM     75  C   UNL A   1      49.433  25.263  31.925  1.00  0.00     0.001 A 
ATOM     76  C   UNL A   1      49.994  25.761  29.628  1.00  0.00     0.001 A 
ATOM     77  C   UNL A   1      50.355  25.262  30.878  1.00  0.00     0.000 A 
ENDBRANCH  59  72
ENDBRANCH  33  34
ENDBRANCH  25  28
ENDBRANCH  23  24
ENDBRANCH  22  23
ENDBRANCH  21  22
ENDBRANCH   3  21
TORSDOF 15
ENDMDL
MODEL 3
REMARK VINA RESULT:     -10.3      2.456      7.754
REMARK SMILES CCOC(=O)NC(=O)COc1csc(C(=O)NCCCNC(=O)c2ccc(-c3c4nc(c(-c5ccccc5)c5ccc([nH]5)c(-c5ccccc5)c5nc(c(-c6ccccc6)c6ccc3[nH]6)C=C5)C=C4)cc2)c1
REMARK SMILES IDX 15 1 16 2 17 3 14 5 11 6 12 7 72 8 13 9 10 10 9 11 7 12 4 13
REMARK SMILES IDX 5 14 6 15 8 17 3 18 2 19 1 20 18 21 19 22 20 23 21 24 22 25
REMARK SMILES IDX 23 27 24 28 25 29 71 30 26 31 70 32 27 33 28 34 29 35 64 36
REMARK SMILES IDX 30 37 69 38 63 39 65 40 31 41 68 42 62 43 61 44 32 46 54 47
REMARK SMILES IDX 39 48 53 49 40 50 43 51 52 52 66 53 41 54 42 55 51 57 67 58
REMARK SMILES IDX 44 59 33 60 34 61 38 62 35 63 37 64 36 65 55 66 56 67 60 68
REMARK SMILES IDX 57 69 59 70 58 71 45 72 46 73 50 74 47 75 49 76 48 77
REMARK H PARENT 17 4 6 16 21 26 65 45 43 56
REMARK Flexibility Score: inf
ROOT
ATOM      1  C   UNL A   1      33.368  27.976  22.840  1.00  0.00     0.261 C 
ATOM      2  O   UNL A   1      33.928  27.836  21.749  1.00  0.00    -0.268 OA
ATOM      3  N   UNL A   1      34.031  28.783  23.733  1.00  0.00    -0.351 N 
ATOM      4  H   UNL A   1      34.896  29.120  23.403  1.00  0.00     0.163 HD
ENDROOT
BRANCH   1   5
ATOM      5  C   UNL A   1      32.085  27.370  23.169  1.00  0.00     0.096 A 
ATOM      6  C   UNL A   1      30.351  26.083  24.073  1.00  0.00     0.131 A 
ATOM      7  C   UNL A   1      29.632  27.080  23.462  1.00  0.00     0.112 A 
ATOM      8  C   UNL A   1      31.745  26.211  23.844  1.00  0.00     0.072 A 
ATOM      9  S   UNL A   1      30.655  28.184  22.648  1.00  0.00    -0.135 S 
BRANCH   6  10
ATOM     10  O   UNL A   1      29.872  25.137  24.914  1.00  0.00    -0.483 OA
BRANCH  10  11
ATOM     11  C   UNL A   1      30.781  24.626  25.866  1.00  0.00     0.329 C 
BRANCH  11  12
ATOM     12  C   UNL A   1      30.436  23.331  26.599  1.00  0.00     0.267 C 
ATOM     13  C   UNL A   1      31.946  21.744  25.306  1.00  0.00     0.413 C 
ATOM     14  O   UNL A   1      32.349  20.589  25.269  1.00  0.00    -0.224 OA
ATOM     15  N   UNL A   1      31.054  22.146  26.277  1.00  0.00    -0.258 N 
ATOM     16  H   UNL A   1      30.799  21.411  26.880  1.00  0.00     0.176 HD
ATOM     17  O   UNL A   1      29.575  23.320  27.485  1.00  0.00    -0.271 OA
BRANCH  13  18
ATOM     18  O   UNL A   1      32.294  22.712  24.430  1.00  0.00    -0.450 OA
BRANCH  18  19
ATOM     19  C   UNL A   1      31.945  22.483  23.055  1.00  0.00     0.231 C 
ATOM     20  C   UNL A   1      33.045  22.944  22.114  1.00  0.00     0.049 C 
ENDBRANCH  18  19
ENDBRANCH  13  18
ENDBRANCH  11  12
ENDBRANCH  10  11
ENDBRANCH   6  10
ENDBRANCH   1   5
BRANCH   3  21
ATOM     21  C   UNL A   1      33.695  29.232  25.069  1.00  0.00     0.118 C 
BRANCH  21  22
ATOM     22  C   UNL A   1      34.070  28.186  26.115  1.00  0.00     0.042 C 
BRANCH  22  23
ATOM     23  C   UNL A   1      33.582  28.547  27.515  1.00  0.00     0.118 C 
BRANCH  23  24
ATOM     24  N   UNL A   1      33.605  29.987  27.741  1.00  0.00    -0.352 N 
ATOM     25  C   UNL A   1      34.571  30.782  28.300  1.00  0.00     0.251 C 
ATOM     26  H   UNL A   1      32.797  30.466  27.444  1.00  0.00     0.163 HD
ATOM     27  O   UNL A   1      34.293  31.931  28.632  1.00  0.00    -0.269 OA
BRANCH  25  28
ATOM     28  C   UNL A   1      35.939  30.268  28.508  1.00  0.00     0.039 A 
ATOM     29  C   UNL A   1      36.834  30.279  27.436  1.00  0.00     0.014 A 
ATOM     30  C   UNL A   1      36.326  29.732  29.739  1.00  0.00     0.014 A 
ATOM     31  C   UNL A   1      38.134  29.803  27.614  1.00  0.00     0.010 A 
ATOM     32  C   UNL A   1      37.644  29.333  29.938  1.00  0.00     0.010 A 
ATOM     33  C   UNL A   1      38.558  29.358  28.875  1.00  0.00    -0.014 A 
BRANCH  33  34
ATOM     34  C   UNL A   1      39.957  28.916  29.104  1.00  0.00     0.031 A 
ATOM     35  C   UNL A   1      40.389  27.532  28.707  1.00  0.00     0.074 A 
ATOM     36  C   UNL A   1      40.817  29.743  29.728  1.00  0.00     0.049 A 
ATOM     37  N   UNL A   1      41.550  26.950  28.879  1.00  0.00    -0.248 NA
ATOM     38  C   UNL A   1      39.382  26.679  28.057  1.00  0.00     0.031 C 
ATOM     39  C   UNL A   1      40.504  31.096  30.196  1.00  0.00     0.029 A 
ATOM     40  N   UNL A   1      42.130  29.565  30.083  1.00  0.00    -0.354 N 
ATOM     41  C   UNL A   1      41.404  25.663  28.376  1.00  0.00     0.074 A 
ATOM     42  C   UNL A   1      40.031  25.531  27.942  1.00  0.00     0.031 C 
ATOM     43  C   UNL A   1      41.602  31.633  30.749  1.00  0.00     0.029 A 
ATOM     44  C   UNL A   1      42.680  30.651  30.720  1.00  0.00     0.049 A 
ATOM     45  H   UNL A   1      42.630  28.737  29.898  1.00  0.00     0.167 HD
ATOM     46  C   UNL A   1      42.335  24.685  28.268  1.00  0.00     0.031 A 
ATOM     47  C   UNL A   1      43.910  30.831  31.234  1.00  0.00     0.031 A 
ATOM     48  C   UNL A   1      43.701  24.821  28.700  1.00  0.00     0.049 A 
ATOM     49  C   UNL A   1      44.918  29.721  31.124  1.00  0.00     0.074 A 
ATOM     50  C   UNL A   1      44.737  23.912  28.584  1.00  0.00     0.029 A 
ATOM     51  N   UNL A   1      44.219  25.938  29.339  1.00  0.00    -0.354 N 
ATOM     52  N   UNL A   1      44.787  28.537  30.576  1.00  0.00    -0.248 NA
ATOM     53  C   UNL A   1      46.248  29.979  31.694  1.00  0.00     0.031 C 
ATOM     54  C   UNL A   1      45.863  24.451  29.211  1.00  0.00     0.029 A 
ATOM     55  C   UNL A   1      45.551  25.726  29.654  1.00  0.00     0.049 A 
ATOM     56  H   UNL A   1      43.714  26.759  29.540  1.00  0.00     0.167 HD
ATOM     57  C   UNL A   1      46.024  27.920  30.709  1.00  0.00     0.074 A 
ATOM     58  C   UNL A   1      46.896  28.868  31.371  1.00  0.00     0.031 C 
ATOM     59  C   UNL A   1      46.404  26.679  30.316  1.00  0.00     0.031 A 
BRANCH  46  60
ATOM     60  C   UNL A   1      41.899  23.373  27.672  1.00  0.00    -0.014 A 
ATOM     61  C   UNL A   1      41.441  22.319  28.480  1.00  0.00     0.009 A 
ATOM     62  C   UNL A   1      41.917  23.201  26.280  1.00  0.00     0.009 A 
ATOM     63  C   UNL A   1      41.051  21.106  27.906  1.00  0.00     0.001 A 
ATOM     64  C   UNL A   1      41.493  21.999  25.707  1.00  0.00     0.001 A 
ATOM     65  C   UNL A   1      41.072  20.949  26.521  1.00  0.00     0.000 A 
ENDBRANCH  46  60
BRANCH  47  66
ATOM     66  C   UNL A   1      44.261  32.116  31.893  1.00  0.00    -0.014 A 
ATOM     67  C   UNL A   1      44.052  32.295  33.270  1.00  0.00     0.009 A 
ATOM     68  C   UNL A   1      44.803  33.177  31.149  1.00  0.00     0.009 A 
ATOM     69  C   UNL A   1      44.349  33.516  33.879  1.00  0.00     0.001 A 
ATOM     70  C   UNL A   1      45.131  34.385  31.767  1.00  0.00     0.001 A 
ATOM     71  C   UNL A   1      44.893  34.558  33.129  1.00  0.00     0.000 A 
ENDBRANCH  47  66
BRANCH  59  72
ATOM     72  C   UNL A   1      47.837  26.290  30.557  1.00  0.00    -0.014 A 
ATOM     73  C   UNL A   1      48.251  25.733  31.777  1.00  0.00     0.009 A 
ATOM     74  C   UNL A   1      48.779  26.448  29.528  1.00  0.00     0.009 A 
ATOM     75  C   UNL A   1      49.586  25.376  31.973  1.00  0.00     0.001 A 
ATOM     76  C   UNL A   1      50.105  26.058  29.714  1.00  0.00     0.001 A 
ATOM     77  C   UNL A   1      50.511  25.533  30.940  1.00  0.00     0.000 A 
ENDBRANCH  59  72
ENDBRANCH  33  34
ENDBRANCH  25  28
ENDBRANCH  23  24
ENDBRANCH  22  23
ENDBRANCH  21  22
ENDBRANCH   3  21
TORSDOF 15
ENDMDL
