MODEL 1
REMARK VINA RESULT:     -10.3      0.000      0.000
REMARK SMILES CC(C)SSC(=O)N1CCC[C@@H]1C(=O)NCCCNC(=O)c1ccc(-c2c3nc(c(-c4ccccc4)c4ccc([nH]4)c(-c4ccccc4)c4nc(c(-c5ccccc5)c5ccc2[nH]5)C=C4)C=C3)cc1
REMARK SMILES IDX 16 1 15 2 13 3 14 4 12 6 8 7 9 8 10 9 11 10 6 11 7 12 5 13
REMARK SMILES IDX 4 14 2 15 1 16 3 17 17 18 18 19 19 20 20 21 21 23 22 24
REMARK SMILES IDX 23 25 69 26 24 27 68 28 25 29 26 30 27 31 62 32 28 33 67 34
REMARK SMILES IDX 61 35 63 36 29 37 66 38 60 39 59 40 30 42 52 43 37 44 51 45
REMARK SMILES IDX 38 46 41 47 50 48 64 49 39 50 40 51 49 53 65 54 42 55 31 56
REMARK SMILES IDX 32 57 36 58 33 59 35 60 34 61 53 62 54 63 58 64 55 65 57 66
REMARK SMILES IDX 56 67 43 68 44 69 48 70 45 71 47 72 46 73
REMARK H PARENT 15 5 19 22 63 41 41 52
REMARK Flexibility Score: inf
ROOT
ATOM      1  C   UNL A   1      32.041  30.368  25.910  1.00  0.00     0.117 C 
ENDROOT
BRANCH   1   2
ATOM      2  N   UNL A   1      31.543  29.159  26.531  1.00  0.00    -0.354 N 
ATOM      3  C   UNL A   1      31.823  27.849  26.291  1.00  0.00     0.242 C 
ATOM      4  O   UNL A   1      31.037  27.019  26.762  1.00  0.00    -0.273 OA
ATOM      5  H   UNL A   1      30.889  29.310  27.252  1.00  0.00     0.163 HD
BRANCH   3   6
ATOM      6  C   UNL A   1      32.938  27.401  25.325  1.00  0.00     0.175 C 
ATOM      7  N   UNL A   1      32.531  27.093  23.956  1.00  0.00    -0.321 N 
ATOM      8  C   UNL A   1      33.100  25.833  23.507  1.00  0.00     0.121 C 
ATOM      9  C   UNL A   1      33.369  25.059  24.787  1.00  0.00     0.024 C 
ATOM     10  C   UNL A   1      33.637  26.134  25.837  1.00  0.00     0.037 C 
BRANCH   7  11
ATOM     11  C   UNL A   1      31.899  28.070  23.205  1.00  0.00     0.292 C 
ATOM     12  O   UNL A   1      32.521  28.997  22.689  1.00  0.00    -0.261 OA
BRANCH  11  13
ATOM     13  S   UNL A   1      30.141  27.938  23.069  1.00  0.00     0.005 SA
BRANCH  13  14
ATOM     14  S   UNL A   1      29.595  29.695  22.121  1.00  0.00    -0.081 SA
BRANCH  14  15
ATOM     15  C   UNL A   1      27.837  30.024  22.569  1.00  0.00     0.052 C 
ATOM     16  C   UNL A   1      27.156  28.775  23.122  1.00  0.00     0.020 C 
ATOM     17  C   UNL A   1      27.651  31.221  23.495  1.00  0.00     0.020 C 
ENDBRANCH  14  15
ENDBRANCH  13  14
ENDBRANCH  11  13
ENDBRANCH   7  11
ENDBRANCH   3   6
ENDBRANCH   1   2
BRANCH   1  18
ATOM     18  C   UNL A   1      31.672  31.594  26.733  1.00  0.00     0.042 C 
BRANCH  18  19
ATOM     19  C   UNL A   1      32.891  32.335  27.268  1.00  0.00     0.118 C 
BRANCH  19  20
ATOM     20  N   UNL A   1      32.598  33.737  27.540  1.00  0.00    -0.352 N 
ATOM     21  C   UNL A   1      33.086  34.569  28.516  1.00  0.00     0.251 C 
ATOM     22  H   UNL A   1      31.949  34.153  26.928  1.00  0.00     0.163 HD
ATOM     23  O   UNL A   1      32.528  35.638  28.745  1.00  0.00    -0.269 OA
BRANCH  21  24
ATOM     24  C   UNL A   1      34.272  34.172  29.301  1.00  0.00     0.039 A 
ATOM     25  C   UNL A   1      34.089  33.537  30.531  1.00  0.00     0.014 A 
ATOM     26  C   UNL A   1      35.560  34.438  28.830  1.00  0.00     0.014 A 
ATOM     27  C   UNL A   1      35.199  33.091  31.249  1.00  0.00     0.010 A 
ATOM     28  C   UNL A   1      36.661  33.925  29.505  1.00  0.00     0.010 A 
ATOM     29  C   UNL A   1      36.491  33.237  30.716  1.00  0.00    -0.014 A 
BRANCH  29  30
ATOM     30  C   UNL A   1      37.674  32.645  31.382  1.00  0.00     0.031 A 
ATOM     31  C   UNL A   1      38.336  31.424  30.810  1.00  0.00     0.074 A 
ATOM     32  C   UNL A   1      38.092  33.156  32.557  1.00  0.00     0.049 A 
ATOM     33  N   UNL A   1      39.307  30.702  31.310  1.00  0.00    -0.248 NA
ATOM     34  C   UNL A   1      37.827  30.940  29.518  1.00  0.00     0.031 C 
ATOM     35  C   UNL A   1      37.511  34.321  33.229  1.00  0.00     0.029 A 
ATOM     36  N   UNL A   1      39.094  32.749  33.404  1.00  0.00    -0.354 N 
ATOM     37  C   UNL A   1      39.517  29.675  30.401  1.00  0.00     0.074 A 
ATOM     38  C   UNL A   1      38.541  29.836  29.345  1.00  0.00     0.031 C 
ATOM     39  C   UNL A   1      38.174  34.542  34.374  1.00  0.00     0.029 A 
ATOM     40  C   UNL A   1      39.188  33.507  34.545  1.00  0.00     0.049 A 
ATOM     41  H   UNL A   1      39.687  31.988  33.210  1.00  0.00     0.167 HD
ATOM     42  C   UNL A   1      40.450  28.693  30.435  1.00  0.00     0.031 A 
ATOM     43  C   UNL A   1      39.982  33.370  35.623  1.00  0.00     0.031 A 
ATOM     44  C   UNL A   1      41.410  28.529  31.494  1.00  0.00     0.049 A 
ATOM     45  C   UNL A   1      40.967  32.235  35.667  1.00  0.00     0.074 A 
ATOM     46  C   UNL A   1      42.426  27.594  31.598  1.00  0.00     0.029 A 
ATOM     47  N   UNL A   1      41.465  29.310  32.638  1.00  0.00    -0.354 N 
ATOM     48  N   UNL A   1      41.203  31.312  34.766  1.00  0.00    -0.248 NA
ATOM     49  C   UNL A   1      41.794  32.121  36.877  1.00  0.00     0.031 C 
ATOM     50  C   UNL A   1      43.052  27.768  32.837  1.00  0.00     0.029 A 
ATOM     51  C   UNL A   1      42.470  28.852  33.474  1.00  0.00     0.049 A 
ATOM     52  H   UNL A   1      40.877  30.077  32.828  1.00  0.00     0.167 HD
ATOM     53  C   UNL A   1      42.215  30.519  35.291  1.00  0.00     0.074 A 
ATOM     54  C   UNL A   1      42.565  31.084  36.578  1.00  0.00     0.031 C 
ATOM     55  C   UNL A   1      42.798  29.420  34.756  1.00  0.00     0.031 A 
BRANCH  42  56
ATOM     56  C   UNL A   1      40.463  27.711  29.296  1.00  0.00    -0.014 A 
ATOM     57  C   UNL A   1      39.627  26.582  29.298  1.00  0.00     0.009 A 
ATOM     58  C   UNL A   1      41.298  27.933  28.189  1.00  0.00     0.009 A 
ATOM     59  C   UNL A   1      39.656  25.678  28.234  1.00  0.00     0.001 A 
ATOM     60  C   UNL A   1      41.301  27.044  27.113  1.00  0.00     0.001 A 
ATOM     61  C   UNL A   1      40.489  25.911  27.141  1.00  0.00     0.000 A 
ENDBRANCH  42  56
BRANCH  43  62
ATOM     62  C   UNL A   1      39.863  34.321  36.760  1.00  0.00    -0.014 A 
ATOM     63  C   UNL A   1      40.584  35.524  36.764  1.00  0.00     0.009 A 
ATOM     64  C   UNL A   1      39.024  34.030  37.848  1.00  0.00     0.009 A 
ATOM     65  C   UNL A   1      40.486  36.404  37.846  1.00  0.00     0.001 A 
ATOM     66  C   UNL A   1      38.902  34.927  38.912  1.00  0.00     0.001 A 
ATOM     67  C   UNL A   1      39.641  36.108  38.914  1.00  0.00     0.000 A 
ENDBRANCH  43  62
BRANCH  55  68
ATOM     68  C   UNL A   1      43.885  28.758  35.556  1.00  0.00    -0.014 A 
ATOM     69  C   UNL A   1      45.223  29.164  35.436  1.00  0.00     0.009 A 
ATOM     70  C   UNL A   1      43.558  27.758  36.485  1.00  0.00     0.009 A 
ATOM     71  C   UNL A   1      46.215  28.568  36.217  1.00  0.00     0.001 A 
ATOM     72  C   UNL A   1      44.547  27.184  37.286  1.00  0.00     0.001 A 
ATOM     73  C   UNL A   1      45.876  27.585  37.147  1.00  0.00     0.000 A 
ENDBRANCH  55  68
ENDBRANCH  29  30
ENDBRANCH  21  24
ENDBRANCH  19  20
ENDBRANCH  18  19
ENDBRANCH   1  18
TORSDOF 14
ENDMDL
MODEL 2
REMARK VINA RESULT:     -10.3      5.288      9.806
REMARK SMILES CC(C)SSC(=O)N1CCC[C@@H]1C(=O)NCCCNC(=O)c1ccc(-c2c3nc(c(-c4ccccc4)c4ccc([nH]4)c(-c4ccccc4)c4nc(c(-c5ccccc5)c5ccc2[nH]5)C=C4)C=C3)cc1
REMARK SMILES IDX 16 1 15 2 13 3 14 4 12 6 8 7 9 8 10 9 11 10 6 11 7 12 5 13
REMARK SMILES IDX 4 14 2 15 1 16 3 17 17 18 18 19 19 20 20 21 21 23 22 24
REMARK SMILES IDX 23 25 69 26 24 27 68 28 25 29 26 30 27 31 62 32 28 33 67 34
REMARK SMILES IDX 61 35 63 36 29 37 66 38 60 39 59 40 30 42 52 43 37 44 51 45
REMARK SMILES IDX 38 46 41 47 50 48 64 49 39 50 40 51 49 53 65 54 42 55 31 56
REMARK SMILES IDX 32 57 36 58 33 59 35 60 34 61 53 62 54 63 58 64 55 65 57 66
REMARK SMILES IDX 56 67 43 68 44 69 48 70 45 71 47 72 46 73
REMARK H PARENT 15 5 19 22 63 41 41 52
REMARK Flexibility Score: inf
ROOT
ATOM      1  C   UNL A   1      36.431  20.779  25.119  1.00  0.00     0.117 C 
ENDROOT
BRANCH   1   2
ATOM      2  N   UNL A   1      36.379  21.795  24.089  1.00  0.00    -0.354 N 
ATOM      3  C   UNL A   1      35.534  22.848  23.914  1.00  0.00     0.242 C 
ATOM      4  O   UNL A   1      35.532  23.375  22.795  1.00  0.00    -0.273 OA
ATOM      5  H   UNL A   1      37.074  21.710  23.396  1.00  0.00     0.163 HD
BRANCH   3   6
ATOM      6  C   UNL A   1      34.487  23.258  24.968  1.00  0.00     0.175 C 
ATOM      7  N   UNL A   1      33.095  23.297  24.525  1.00  0.00    -0.321 N 
ATOM      8  C   UNL A   1      32.442  24.525  24.947  1.00  0.00     0.121 C 
ATOM      9  C   UNL A   1      33.578  25.518  25.130  1.00  0.00     0.024 C 
ATOM     10  C   UNL A   1      34.779  24.659  25.521  1.00  0.00     0.037 C 
BRANCH   7  11
ATOM     11  C   UNL A   1      32.521  22.149  24.006  1.00  0.00     0.292 C 
ATOM     12  O   UNL A   1      31.950  22.142  22.917  1.00  0.00    -0.261 OA
BRANCH  11  13
ATOM     13  S   UNL A   1      32.613  20.701  25.019  1.00  0.00     0.005 SA
BRANCH  13  14
ATOM     14  S   UNL A   1      32.568  19.149  23.651  1.00  0.00    -0.081 SA
BRANCH  14  15
ATOM     15  C   UNL A   1      33.500  17.746  24.400  1.00  0.00     0.052 C 
ATOM     16  C   UNL A   1      32.659  17.002  25.433  1.00  0.00     0.020 C 
ATOM     17  C   UNL A   1      34.105  16.792  23.376  1.00  0.00     0.020 C 
ENDBRANCH  14  15
ENDBRANCH  13  14
ENDBRANCH  11  13
ENDBRANCH   7  11
ENDBRANCH   3   6
ENDBRANCH   1   2
BRANCH   1  18
ATOM     18  C   UNL A   1      37.657  19.892  24.946  1.00  0.00     0.042 C 
BRANCH  18  19
ATOM     19  C   UNL A   1      38.904  20.476  25.598  1.00  0.00     0.118 C 
BRANCH  19  20
ATOM     20  N   UNL A   1      39.938  19.466  25.792  1.00  0.00    -0.352 N 
ATOM     21  C   UNL A   1      41.265  19.610  26.111  1.00  0.00     0.251 C 
ATOM     22  H   UNL A   1      39.638  18.536  25.677  1.00  0.00     0.163 HD
ATOM     23  O   UNL A   1      42.033  18.663  25.976  1.00  0.00    -0.269 OA
BRANCH  21  24
ATOM     24  C   UNL A   1      41.771  20.907  26.603  1.00  0.00     0.039 A 
ATOM     25  C   UNL A   1      42.330  21.805  25.691  1.00  0.00     0.014 A 
ATOM     26  C   UNL A   1      41.706  21.230  27.960  1.00  0.00     0.014 A 
ATOM     27  C   UNL A   1      42.746  23.064  26.130  1.00  0.00     0.010 A 
ATOM     28  C   UNL A   1      42.046  22.509  28.383  1.00  0.00     0.010 A 
ATOM     29  C   UNL A   1      42.559  23.442  27.469  1.00  0.00    -0.014 A 
BRANCH  29  30
ATOM     30  C   UNL A   1      42.853  24.819  27.932  1.00  0.00     0.031 A 
ATOM     31  C   UNL A   1      44.242  25.193  28.364  1.00  0.00     0.074 A 
ATOM     32  C   UNL A   1      41.844  25.703  28.051  1.00  0.00     0.049 A 
ATOM     33  N   UNL A   1      44.665  26.309  28.902  1.00  0.00    -0.248 NA
ATOM     34  C   UNL A   1      45.288  24.174  28.188  1.00  0.00     0.031 C 
ATOM     35  C   UNL A   1      40.447  25.448  27.693  1.00  0.00     0.029 A 
ATOM     36  N   UNL A   1      41.835  26.992  28.525  1.00  0.00    -0.354 N 
ATOM     37  C   UNL A   1      46.020  26.123  29.137  1.00  0.00     0.074 A 
ATOM     38  C   UNL A   1      46.339  24.771  28.732  1.00  0.00     0.031 C 
ATOM     39  C   UNL A   1      39.721  26.547  27.945  1.00  0.00     0.029 A 
ATOM     40  C   UNL A   1      40.587  27.564  28.533  1.00  0.00     0.049 A 
ATOM     41  H   UNL A   1      42.645  27.460  28.828  1.00  0.00     0.167 HD
ATOM     42  C   UNL A   1      46.922  27.004  29.633  1.00  0.00     0.031 A 
ATOM     43  C   UNL A   1      40.177  28.763  28.987  1.00  0.00     0.031 A 
ATOM     44  C   UNL A   1      46.598  28.343  30.047  1.00  0.00     0.049 A 
ATOM     45  C   UNL A   1      41.184  29.700  29.591  1.00  0.00     0.074 A 
ATOM     46  C   UNL A   1      47.447  29.328  30.520  1.00  0.00     0.029 A 
ATOM     47  N   UNL A   1      45.319  28.881  30.051  1.00  0.00    -0.354 N 
ATOM     48  N   UNL A   1      42.477  29.537  29.742  1.00  0.00    -0.248 NA
ATOM     49  C   UNL A   1      40.678  30.987  30.090  1.00  0.00     0.031 C 
ATOM     50  C   UNL A   1      46.673  30.439  30.872  1.00  0.00     0.029 A 
ATOM     51  C   UNL A   1      45.351  30.170  30.557  1.00  0.00     0.049 A 
ATOM     52  H   UNL A   1      44.509  28.415  29.740  1.00  0.00     0.167 HD
ATOM     53  C   UNL A   1      42.940  30.703  30.336  1.00  0.00     0.074 A 
ATOM     54  C   UNL A   1      41.795  31.576  30.496  1.00  0.00     0.031 C 
ATOM     55  C   UNL A   1      44.200  31.021  30.718  1.00  0.00     0.031 A 
BRANCH  42  56
ATOM     56  C   UNL A   1      48.345  26.537  29.768  1.00  0.00    -0.014 A 
ATOM     57  C   UNL A   1      48.776  25.834  30.905  1.00  0.00     0.009 A 
ATOM     58  C   UNL A   1      49.260  26.772  28.730  1.00  0.00     0.009 A 
ATOM     59  C   UNL A   1      50.103  25.412  31.016  1.00  0.00     0.001 A 
ATOM     60  C   UNL A   1      50.578  26.320  28.830  1.00  0.00     0.001 A 
ATOM     61  C   UNL A   1      51.001  25.651  29.977  1.00  0.00     0.000 A 
ENDBRANCH  42  56
BRANCH  43  62
ATOM     62  C   UNL A   1      38.739  29.136  28.908  1.00  0.00    -0.014 A 
ATOM     63  C   UNL A   1      38.204  29.673  27.728  1.00  0.00     0.009 A 
ATOM     64  C   UNL A   1      37.894  28.955  30.014  1.00  0.00     0.009 A 
ATOM     65  C   UNL A   1      36.858  30.043  27.665  1.00  0.00     0.001 A 
ATOM     66  C   UNL A   1      36.541  29.295  29.939  1.00  0.00     0.001 A 
ATOM     67  C   UNL A   1      36.027  29.847  28.767  1.00  0.00     0.000 A 
ENDBRANCH  43  62
BRANCH  55  68
ATOM     68  C   UNL A   1      44.413  32.373  31.338  1.00  0.00    -0.014 A 
ATOM     69  C   UNL A   1      44.716  33.493  30.548  1.00  0.00     0.009 A 
ATOM     70  C   UNL A   1      44.248  32.541  32.722  1.00  0.00     0.009 A 
ATOM     71  C   UNL A   1      44.868  34.751  31.135  1.00  0.00     0.001 A 
ATOM     72  C   UNL A   1      44.371  33.805  33.302  1.00  0.00     0.001 A 
ATOM     73  C   UNL A   1      44.688  34.907  32.509  1.00  0.00     0.000 A 
ENDBRANCH  55  68
ENDBRANCH  29  30
ENDBRANCH  21  24
ENDBRANCH  19  20
ENDBRANCH  18  19
ENDBRANCH   1  18
TORSDOF 14
ENDMDL
MODEL 3
REMARK VINA RESULT:     -10.2      1.638      2.013
REMARK SMILES CC(C)SSC(=O)N1CCC[C@@H]1C(=O)NCCCNC(=O)c1ccc(-c2c3nc(c(-c4ccccc4)c4ccc([nH]4)c(-c4ccccc4)c4nc(c(-c5ccccc5)c5ccc2[nH]5)C=C4)C=C3)cc1
REMARK SMILES IDX 16 1 15 2 13 3 14 4 12 6 8 7 9 8 10 9 11 10 6 11 7 12 5 13
REMARK SMILES IDX 4 14 2 15 1 16 3 17 17 18 18 19 19 20 20 21 21 23 22 24
REMARK SMILES IDX 23 25 69 26 24 27 68 28 25 29 26 30 27 31 62 32 28 33 67 34
REMARK SMILES IDX 61 35 63 36 29 37 66 38 60 39 59 40 30 42 52 43 37 44 51 45
REMARK SMILES IDX 38 46 41 47 50 48 64 49 39 50 40 51 49 53 65 54 42 55 31 56
REMARK SMILES IDX 32 57 36 58 33 59 35 60 34 61 53 62 54 63 58 64 55 65 57 66
REMARK SMILES IDX 56 67 43 68 44 69 48 70 45 71 47 72 46 73
REMARK H PARENT 15 5 19 22 63 41 41 52
REMARK Flexibility Score: inf
ROOT
ATOM      1  C   UNL A   1      31.999  29.626  25.848  1.00  0.00     0.117 C 
ENDROOT
BRANCH   1   2
ATOM      2  N   UNL A   1      32.806  29.721  24.650  1.00  0.00    -0.354 N 
ATOM      3  C   UNL A   1      33.273  28.758  23.808  1.00  0.00     0.242 C 
ATOM      4  O   UNL A   1      34.180  29.092  23.036  1.00  0.00    -0.273 OA
ATOM      5  H   UNL A   1      33.059  30.639  24.400  1.00  0.00     0.163 HD
BRANCH   3   6
ATOM      6  C   UNL A   1      32.854  27.279  23.921  1.00  0.00     0.175 C 
ATOM      7  N   UNL A   1      31.419  27.004  23.896  1.00  0.00    -0.321 N 
ATOM      8  C   UNL A   1      31.040  26.090  24.961  1.00  0.00     0.121 C 
ATOM      9  C   UNL A   1      32.119  26.263  26.016  1.00  0.00     0.024 C 
ATOM     10  C   UNL A   1      33.366  26.658  25.228  1.00  0.00     0.037 C 
BRANCH   7  11
ATOM     11  C   UNL A   1      30.674  27.413  22.803  1.00  0.00     0.292 C 
ATOM     12  O   UNL A   1      30.989  27.116  21.653  1.00  0.00    -0.261 OA
BRANCH  11  13
ATOM     13  S   UNL A   1      29.268  28.429  23.151  1.00  0.00     0.005 SA
BRANCH  13  14
ATOM     14  S   UNL A   1      29.554  30.083  21.940  1.00  0.00    -0.081 SA
BRANCH  14  15
ATOM     15  C   UNL A   1      28.752  31.512  22.783  1.00  0.00     0.052 C 
ATOM     16  C   UNL A   1      28.375  32.609  21.791  1.00  0.00     0.020 C 
ATOM     17  C   UNL A   1      27.572  31.124  23.667  1.00  0.00     0.020 C 
ENDBRANCH  14  15
ENDBRANCH  13  14
ENDBRANCH  11  13
ENDBRANCH   7  11
ENDBRANCH   3   6
ENDBRANCH   1   2
BRANCH   1  18
ATOM     18  C   UNL A   1      31.652  31.010  26.381  1.00  0.00     0.042 C 
BRANCH  18  19
ATOM     19  C   UNL A   1      32.864  31.752  26.929  1.00  0.00     0.118 C 
BRANCH  19  20
ATOM     20  N   UNL A   1      32.535  33.120  27.311  1.00  0.00    -0.352 N 
ATOM     21  C   UNL A   1      33.113  33.940  28.248  1.00  0.00     0.251 C 
ATOM     22  H   UNL A   1      31.781  33.519  26.821  1.00  0.00     0.163 HD
ATOM     23  O   UNL A   1      32.536  34.960  28.608  1.00  0.00    -0.269 OA
BRANCH  21  24
ATOM     24  C   UNL A   1      34.422  33.586  28.833  1.00  0.00     0.039 A 
ATOM     25  C   UNL A   1      34.457  32.878  30.036  1.00  0.00     0.014 A 
ATOM     26  C   UNL A   1      35.610  33.963  28.202  1.00  0.00     0.014 A 
ATOM     27  C   UNL A   1      35.685  32.473  30.563  1.00  0.00     0.010 A 
ATOM     28  C   UNL A   1      36.826  33.494  28.684  1.00  0.00     0.010 A 
ATOM     29  C   UNL A   1      36.874  32.735  29.863  1.00  0.00    -0.014 A 
BRANCH  29  30
ATOM     30  C   UNL A   1      38.176  32.193  30.320  1.00  0.00     0.031 A 
ATOM     31  C   UNL A   1      38.687  30.889  29.778  1.00  0.00     0.074 A 
ATOM     32  C   UNL A   1      38.849  32.833  31.296  1.00  0.00     0.049 A 
ATOM     33  N   UNL A   1      39.743  30.204  30.138  1.00  0.00    -0.248 NA
ATOM     34  C   UNL A   1      37.899  30.263  28.705  1.00  0.00     0.031 C 
ATOM     35  C   UNL A   1      38.439  34.091  31.925  1.00  0.00     0.029 A 
ATOM     36  N   UNL A   1      40.014  32.502  31.943  1.00  0.00    -0.354 N 
ATOM     37  C   UNL A   1      39.739  29.065  29.345  1.00  0.00     0.074 A 
ATOM     38  C   UNL A   1      38.551  29.124  28.521  1.00  0.00     0.031 C 
ATOM     39  C   UNL A   1      39.343  34.432  32.855  1.00  0.00     0.029 A 
ATOM     40  C   UNL A   1      40.366  33.394  32.927  1.00  0.00     0.049 A 
ATOM     41  H   UNL A   1      40.546  31.705  31.723  1.00  0.00     0.167 HD
ATOM     42  C   UNL A   1      40.653  28.065  29.297  1.00  0.00     0.031 A 
ATOM     43  C   UNL A   1      41.382  33.367  33.810  1.00  0.00     0.031 A 
ATOM     44  C   UNL A   1      41.825  28.003  30.127  1.00  0.00     0.049 A 
ATOM     45  C   UNL A   1      42.347  32.215  33.780  1.00  0.00     0.074 A 
ATOM     46  C   UNL A   1      42.835  27.057  30.123  1.00  0.00     0.029 A 
ATOM     47  N   UNL A   1      42.139  28.919  31.120  1.00  0.00    -0.354 N 
ATOM     48  N   UNL A   1      42.371  31.180  32.975  1.00  0.00    -0.248 NA
ATOM     49  C   UNL A   1      43.425  32.227  34.779  1.00  0.00     0.031 C 
ATOM     50  C   UNL A   1      43.725  27.363  31.158  1.00  0.00     0.029 A 
ATOM     51  C   UNL A   1      43.305  28.537  31.763  1.00  0.00     0.049 A 
ATOM     52  H   UNL A   1      41.612  29.722  31.336  1.00  0.00     0.167 HD
ATOM     53  C   UNL A   1      43.472  30.426  33.360  1.00  0.00     0.074 A 
ATOM     54  C   UNL A   1      44.104  31.136  34.453  1.00  0.00     0.031 C 
ATOM     55  C   UNL A   1      43.916  29.250  32.856  1.00  0.00     0.031 A 
BRANCH  42  56
ATOM     56  C   UNL A   1      40.405  26.948  28.321  1.00  0.00    -0.014 A 
ATOM     57  C   UNL A   1      39.612  25.841  28.665  1.00  0.00     0.009 A 
ATOM     58  C   UNL A   1      40.944  27.017  27.026  1.00  0.00     0.009 A 
ATOM     59  C   UNL A   1      39.397  24.810  27.748  1.00  0.00     0.001 A 
ATOM     60  C   UNL A   1      40.701  26.000  26.101  1.00  0.00     0.001 A 
ATOM     61  C   UNL A   1      39.937  24.893  26.466  1.00  0.00     0.000 A 
ENDBRANCH  42  56
BRANCH  43  62
ATOM     62  C   UNL A   1      41.525  34.456  34.812  1.00  0.00    -0.014 A 
ATOM     63  C   UNL A   1      42.259  35.613  34.511  1.00  0.00     0.009 A 
ATOM     64  C   UNL A   1      40.925  34.345  36.077  1.00  0.00     0.009 A 
ATOM     65  C   UNL A   1      42.410  36.623  35.464  1.00  0.00     0.001 A 
ATOM     66  C   UNL A   1      41.049  35.371  37.016  1.00  0.00     0.001 A 
ATOM     67  C   UNL A   1      41.800  36.505  36.711  1.00  0.00     0.000 A 
ENDBRANCH  43  62
BRANCH  55  68
ATOM     68  C   UNL A   1      45.153  28.658  33.471  1.00  0.00    -0.014 A 
ATOM     69  C   UNL A   1      46.430  28.989  32.994  1.00  0.00     0.009 A 
ATOM     70  C   UNL A   1      45.041  27.807  34.582  1.00  0.00     0.009 A 
ATOM     71  C   UNL A   1      47.570  28.464  33.604  1.00  0.00     0.001 A 
ATOM     72  C   UNL A   1      46.183  27.307  35.210  1.00  0.00     0.001 A 
ATOM     73  C   UNL A   1      47.447  27.630  34.716  1.00  0.00     0.000 A 
ENDBRANCH  55  68
ENDBRANCH  29  30
ENDBRANCH  21  24
ENDBRANCH  19  20
ENDBRANCH  18  19
ENDBRANCH   1  18
TORSDOF 14
ENDMDL
