MODEL 1
REMARK VINA RESULT:     -10.1      0.000      0.000
REMARK SMILES CNC(=O)CC[NH+]1CCC(CC(=O)NCCCNC(=O)c2ccc(-c3c4nc(c(-c5ccccc5)c5ccc([nH]5)c(-c5ccccc5)c5nc(c(-c6ccccc6)c6ccc3[nH]6)C=C5)C=C4)cc2)CC1
REMARK SMILES IDX 15 1 14 2 12 3 13 4 11 6 10 7 7 8 8 9 70 10 9 12 69 13 6 14
REMARK SMILES IDX 5 15 3 16 1 17 2 18 4 20 16 21 17 22 18 23 19 24 20 26 21 27
REMARK SMILES IDX 22 28 68 29 23 30 67 31 24 32 25 33 26 34 61 35 27 36 66 37
REMARK SMILES IDX 60 38 62 39 28 40 65 41 59 42 58 43 29 45 51 46 36 47 50 48
REMARK SMILES IDX 37 49 40 50 49 51 63 52 38 53 39 54 48 56 64 57 41 58 30 59
REMARK SMILES IDX 31 60 35 61 32 62 34 63 33 64 52 65 53 66 57 67 54 68 56 69
REMARK SMILES IDX 55 70 42 71 43 72 47 73 44 74 46 75 45 76
REMARK H PARENT 14 5 7 11 2 19 18 25 62 44 40 55
REMARK Flexibility Score: inf
ROOT
ATOM      1  C   UNL A   1      31.765  29.342  25.292  1.00  0.00     0.117 C 
ENDROOT
BRANCH   1   2
ATOM      2  N   UNL A   1      31.482  29.172  23.876  1.00  0.00    -0.356 N 
ATOM      3  C   UNL A   1      30.613  28.332  23.243  1.00  0.00     0.220 C 
ATOM      4  O   UNL A   1      30.605  28.333  22.011  1.00  0.00    -0.275 OA
ATOM      5  H   UNL A   1      32.001  29.758  23.278  1.00  0.00     0.163 HD
BRANCH   3   6
ATOM      6  C   UNL A   1      29.703  27.397  24.028  1.00  0.00     0.104 C 
BRANCH   6   7
ATOM      7  C   UNL A   1      30.430  26.108  24.434  1.00  0.00     0.009 C 
ATOM      8  N   UNL A   1      30.824  23.333  25.298  1.00  0.00    -0.334 N 
ATOM      9  C   UNL A   1      30.877  24.453  26.235  1.00  0.00     0.262 C 
ATOM     10  C   UNL A   1      31.027  23.713  23.893  1.00  0.00     0.262 C 
ATOM     11  H   UNL A   1      29.864  22.990  25.330  1.00  0.00     0.348 HD
ATOM     12  C   UNL A   1      29.982  25.607  25.811  1.00  0.00     0.066 C 
ATOM     13  C   UNL A   1      30.201  24.939  23.462  1.00  0.00     0.066 C 
BRANCH   8  14
ATOM     14  C   UNL A   1      31.707  22.224  25.727  1.00  0.00     0.272 C 
BRANCH  14  15
ATOM     15  C   UNL A   1      33.217  22.388  25.463  1.00  0.00     0.161 C 
BRANCH  15  16
ATOM     16  C   UNL A   1      34.062  21.541  26.397  1.00  0.00     0.225 C 
ATOM     17  C   UNL A   1      35.997  21.332  24.764  1.00  0.00     0.142 C 
ATOM     18  N   UNL A   1      35.293  21.104  26.003  1.00  0.00    -0.359 N 
ATOM     19  H   UNL A   1      35.772  20.551  26.661  1.00  0.00     0.163 HD
ATOM     20  O   UNL A   1      33.662  21.214  27.515  1.00  0.00    -0.275 OA
ENDBRANCH  15  16
ENDBRANCH  14  15
ENDBRANCH   8  14
ENDBRANCH   6   7
ENDBRANCH   3   6
ENDBRANCH   1   2
BRANCH   1  21
ATOM     21  C   UNL A   1      32.996  28.537  25.723  1.00  0.00     0.042 C 
BRANCH  21  22
ATOM     22  C   UNL A   1      33.345  28.671  27.206  1.00  0.00     0.118 C 
BRANCH  22  23
ATOM     23  N   UNL A   1      33.454  30.065  27.610  1.00  0.00    -0.352 N 
ATOM     24  C   UNL A   1      34.465  30.760  28.230  1.00  0.00     0.251 C 
ATOM     25  H   UNL A   1      32.660  30.607  27.403  1.00  0.00     0.163 HD
ATOM     26  O   UNL A   1      34.213  31.882  28.665  1.00  0.00    -0.269 OA
BRANCH  24  27
ATOM     27  C   UNL A   1      35.841  30.217  28.395  1.00  0.00     0.039 A 
ATOM     28  C   UNL A   1      36.210  29.734  29.659  1.00  0.00     0.014 A 
ATOM     29  C   UNL A   1      36.808  30.275  27.389  1.00  0.00     0.014 A 
ATOM     30  C   UNL A   1      37.516  29.290  29.902  1.00  0.00     0.010 A 
ATOM     31  C   UNL A   1      38.096  29.771  27.613  1.00  0.00     0.010 A 
ATOM     32  C   UNL A   1      38.472  29.287  28.876  1.00  0.00    -0.014 A 
BRANCH  32  33
ATOM     33  C   UNL A   1      39.862  28.808  29.119  1.00  0.00     0.031 A 
ATOM     34  C   UNL A   1      40.892  29.713  29.746  1.00  0.00     0.074 A 
ATOM     35  C   UNL A   1      40.225  27.566  28.740  1.00  0.00     0.049 A 
ATOM     36  N   UNL A   1      42.163  29.487  29.974  1.00  0.00    -0.248 NA
ATOM     37  C   UNL A   1      40.439  31.052  30.154  1.00  0.00     0.031 C 
ATOM     38  C   UNL A   1      39.348  26.581  28.105  1.00  0.00     0.029 A 
ATOM     39  N   UNL A   1      41.437  26.923  28.831  1.00  0.00    -0.354 N 
ATOM     40  C   UNL A   1      42.666  30.660  30.523  1.00  0.00     0.074 A 
ATOM     41  C   UNL A   1      41.571  31.606  30.569  1.00  0.00     0.031 C 
ATOM     42  C   UNL A   1      40.046  25.454  27.878  1.00  0.00     0.029 A 
ATOM     43  C   UNL A   1      41.424  25.647  28.320  1.00  0.00     0.049 A 
ATOM     44  H   UNL A   1      42.238  27.337  29.225  1.00  0.00     0.167 HD
ATOM     45  C   UNL A   1      43.920  30.929  30.961  1.00  0.00     0.031 A 
ATOM     46  C   UNL A   1      42.408  24.734  28.209  1.00  0.00     0.031 A 
ATOM     47  C   UNL A   1      45.012  29.992  30.956  1.00  0.00     0.049 A 
ATOM     48  C   UNL A   1      43.789  25.055  28.707  1.00  0.00     0.074 A 
ATOM     49  C   UNL A   1      46.297  30.163  31.446  1.00  0.00     0.029 A 
ATOM     50  N   UNL A   1      44.949  28.709  30.440  1.00  0.00    -0.354 N 
ATOM     51  N   UNL A   1      44.229  26.152  29.271  1.00  0.00    -0.248 NA
ATOM     52  C   UNL A   1      44.808  24.004  28.557  1.00  0.00     0.031 C 
ATOM     53  C   UNL A   1      47.024  28.995  31.189  1.00  0.00     0.029 A 
ATOM     54  C   UNL A   1      46.179  28.085  30.577  1.00  0.00     0.049 A 
ATOM     55  H   UNL A   1      44.151  28.301  30.035  1.00  0.00     0.167 HD
ATOM     56  C   UNL A   1      45.567  25.916  29.563  1.00  0.00     0.074 A 
ATOM     57  C   UNL A   1      45.863  24.568  29.127  1.00  0.00     0.031 C 
ATOM     58  C   UNL A   1      46.468  26.745  30.143  1.00  0.00     0.031 A 
BRANCH  45  59
ATOM     59  C   UNL A   1      44.190  32.313  31.483  1.00  0.00    -0.014 A 
ATOM     60  C   UNL A   1      44.050  32.618  32.844  1.00  0.00     0.009 A 
ATOM     61  C   UNL A   1      44.644  33.310  30.604  1.00  0.00     0.009 A 
ATOM     62  C   UNL A   1      44.328  33.905  33.311  1.00  0.00     0.001 A 
ATOM     63  C   UNL A   1      44.943  34.588  31.078  1.00  0.00     0.001 A 
ATOM     64  C   UNL A   1      44.778  34.887  32.429  1.00  0.00     0.000 A 
ENDBRANCH  45  59
BRANCH  46  65
ATOM     65  C   UNL A   1      42.124  23.410  27.600  1.00  0.00    -0.014 A 
ATOM     66  C   UNL A   1      42.417  23.171  26.249  1.00  0.00     0.009 A 
ATOM     67  C   UNL A   1      41.547  22.384  28.364  1.00  0.00     0.009 A 
ATOM     68  C   UNL A   1      42.115  21.937  25.669  1.00  0.00     0.001 A 
ATOM     69  C   UNL A   1      41.270  21.144  27.787  1.00  0.00     0.001 A 
ATOM     70  C   UNL A   1      41.546  20.924  26.439  1.00  0.00     0.000 A 
ENDBRANCH  46  65
BRANCH  58  71
ATOM     71  C   UNL A   1      47.853  26.210  30.366  1.00  0.00    -0.014 A 
ATOM     72  C   UNL A   1      48.807  26.217  29.338  1.00  0.00     0.009 A 
ATOM     73  C   UNL A   1      48.217  25.724  31.632  1.00  0.00     0.009 A 
ATOM     74  C   UNL A   1      50.093  25.720  29.566  1.00  0.00     0.001 A 
ATOM     75  C   UNL A   1      49.509  25.250  31.863  1.00  0.00     0.001 A 
ATOM     76  C   UNL A   1      50.444  25.241  30.828  1.00  0.00     0.000 A 
ENDBRANCH  58  71
ENDBRANCH  32  33
ENDBRANCH  24  27
ENDBRANCH  22  23
ENDBRANCH  21  22
ENDBRANCH   1  21
TORSDOF 14
ENDMDL
MODEL 2
REMARK VINA RESULT:     -10.1      1.825      3.930
REMARK SMILES CNC(=O)CC[NH+]1CCC(CC(=O)NCCCNC(=O)c2ccc(-c3c4nc(c(-c5ccccc5)c5ccc([nH]5)c(-c5ccccc5)c5nc(c(-c6ccccc6)c6ccc3[nH]6)C=C5)C=C4)cc2)CC1
REMARK SMILES IDX 15 1 14 2 12 3 13 4 11 6 10 7 7 8 8 9 70 10 9 12 69 13 6 14
REMARK SMILES IDX 5 15 3 16 1 17 2 18 4 20 16 21 17 22 18 23 19 24 20 26 21 27
REMARK SMILES IDX 22 28 68 29 23 30 67 31 24 32 25 33 26 34 61 35 27 36 66 37
REMARK SMILES IDX 60 38 62 39 28 40 65 41 59 42 58 43 29 45 51 46 36 47 50 48
REMARK SMILES IDX 37 49 40 50 49 51 63 52 38 53 39 54 48 56 64 57 41 58 30 59
REMARK SMILES IDX 31 60 35 61 32 62 34 63 33 64 52 65 53 66 57 67 54 68 56 69
REMARK SMILES IDX 55 70 42 71 43 72 47 73 44 74 46 75 45 76
REMARK H PARENT 14 5 7 11 2 19 18 25 62 44 40 55
REMARK Flexibility Score: inf
ROOT
ATOM      1  C   UNL A   1      33.930  26.672  25.671  1.00  0.00     0.117 C 
ENDROOT
BRANCH   1   2
ATOM      2  N   UNL A   1      34.129  26.452  24.247  1.00  0.00    -0.356 N 
ATOM      3  C   UNL A   1      33.354  25.793  23.338  1.00  0.00     0.220 C 
ATOM      4  O   UNL A   1      33.780  25.687  22.187  1.00  0.00    -0.275 OA
ATOM      5  H   UNL A   1      34.956  26.842  23.881  1.00  0.00     0.163 HD
BRANCH   3   6
ATOM      6  C   UNL A   1      32.019  25.177  23.736  1.00  0.00     0.104 C 
BRANCH   6   7
ATOM      7  C   UNL A   1      30.838  26.049  23.290  1.00  0.00     0.009 C 
ATOM      8  N   UNL A   1      28.825  28.181  23.342  1.00  0.00    -0.334 N 
ATOM      9  C   UNL A   1      28.523  26.817  23.774  1.00  0.00     0.262 C 
ATOM     10  C   UNL A   1      30.006  28.291  22.475  1.00  0.00     0.262 C 
ATOM     11  H   UNL A   1      29.085  28.688  24.188  1.00  0.00     0.348 HD
ATOM     12  C   UNL A   1      29.738  26.112  24.355  1.00  0.00     0.066 C 
ATOM     13  C   UNL A   1      31.225  27.507  22.994  1.00  0.00     0.066 C 
BRANCH   8  14
ATOM     14  C   UNL A   1      27.630  28.847  22.775  1.00  0.00     0.272 C 
BRANCH  14  15
ATOM     15  C   UNL A   1      27.876  30.015  21.799  1.00  0.00     0.161 C 
BRANCH  15  16
ATOM     16  C   UNL A   1      28.102  31.332  22.520  1.00  0.00     0.225 C 
ATOM     17  C   UNL A   1      27.768  32.747  20.435  1.00  0.00     0.142 C 
ATOM     18  N   UNL A   1      28.042  32.509  21.832  1.00  0.00    -0.359 N 
ATOM     19  H   UNL A   1      28.212  33.317  22.369  1.00  0.00     0.163 HD
ATOM     20  O   UNL A   1      28.357  31.376  23.723  1.00  0.00    -0.275 OA
ENDBRANCH  15  16
ENDBRANCH  14  15
ENDBRANCH   8  14
ENDBRANCH   6   7
ENDBRANCH   3   6
ENDBRANCH   1   2
BRANCH   1  21
ATOM     21  C   UNL A   1      33.186  27.985  25.940  1.00  0.00     0.042 C 
BRANCH  21  22
ATOM     22  C   UNL A   1      33.187  28.416  27.407  1.00  0.00     0.118 C 
BRANCH  22  23
ATOM     23  N   UNL A   1      33.321  29.859  27.545  1.00  0.00    -0.352 N 
ATOM     24  C   UNL A   1      34.359  30.641  27.992  1.00  0.00     0.251 C 
ATOM     25  H   UNL A   1      32.524  30.365  27.269  1.00  0.00     0.163 HD
ATOM     26  O   UNL A   1      34.132  31.827  28.222  1.00  0.00    -0.269 OA
BRANCH  24  27
ATOM     27  C   UNL A   1      35.736  30.118  28.206  1.00  0.00     0.039 A 
ATOM     28  C   UNL A   1      36.052  29.596  29.470  1.00  0.00     0.014 A 
ATOM     29  C   UNL A   1      36.750  30.229  27.252  1.00  0.00     0.014 A 
ATOM     30  C   UNL A   1      37.354  29.168  29.762  1.00  0.00     0.010 A 
ATOM     31  C   UNL A   1      38.036  29.742  27.522  1.00  0.00     0.010 A 
ATOM     32  C   UNL A   1      38.359  29.219  28.785  1.00  0.00    -0.014 A 
BRANCH  32  33
ATOM     33  C   UNL A   1      39.745  28.757  29.080  1.00  0.00     0.031 A 
ATOM     34  C   UNL A   1      40.738  29.674  29.747  1.00  0.00     0.074 A 
ATOM     35  C   UNL A   1      40.138  27.521  28.714  1.00  0.00     0.049 A 
ATOM     36  N   UNL A   1      42.002  29.464  30.023  1.00  0.00    -0.248 NA
ATOM     37  C   UNL A   1      40.253  31.007  30.140  1.00  0.00     0.031 C 
ATOM     38  C   UNL A   1      39.298  26.526  28.044  1.00  0.00     0.029 A 
ATOM     39  N   UNL A   1      41.353  26.893  28.850  1.00  0.00    -0.354 N 
ATOM     40  C   UNL A   1      42.469  30.643  30.593  1.00  0.00     0.074 A 
ATOM     41  C   UNL A   1      41.361  31.574  30.598  1.00  0.00     0.031 C 
ATOM     42  C   UNL A   1      40.018  25.409  27.842  1.00  0.00     0.029 A 
ATOM     43  C   UNL A   1      41.375  25.618  28.336  1.00  0.00     0.049 A 
ATOM     44  H   UNL A   1      42.133  27.316  29.274  1.00  0.00     0.167 HD
ATOM     45  C   UNL A   1      43.702  30.927  31.079  1.00  0.00     0.031 A 
ATOM     46  C   UNL A   1      42.374  24.718  28.262  1.00  0.00     0.031 A 
ATOM     47  C   UNL A   1      44.805  30.003  31.113  1.00  0.00     0.049 A 
ATOM     48  C   UNL A   1      43.732  25.056  28.812  1.00  0.00     0.074 A 
ATOM     49  C   UNL A   1      46.068  30.190  31.652  1.00  0.00     0.029 A 
ATOM     50  N   UNL A   1      44.779  28.720  30.593  1.00  0.00    -0.354 N 
ATOM     51  N   UNL A   1      44.136  26.157  29.394  1.00  0.00    -0.248 NA
ATOM     52  C   UNL A   1      44.769  24.017  28.700  1.00  0.00     0.031 C 
ATOM     53  C   UNL A   1      46.820  29.032  31.421  1.00  0.00     0.029 A 
ATOM     54  C   UNL A   1      46.010  28.112  30.777  1.00  0.00     0.049 A 
ATOM     55  H   UNL A   1      44.001  28.303  30.158  1.00  0.00     0.167 HD
ATOM     56  C   UNL A   1      45.465  25.937  29.736  1.00  0.00     0.074 A 
ATOM     57  C   UNL A   1      45.795  24.594  29.310  1.00  0.00     0.031 C 
ATOM     58  C   UNL A   1      46.332  26.777  30.352  1.00  0.00     0.031 A 
BRANCH  45  59
ATOM     59  C   UNL A   1      43.935  32.313  31.612  1.00  0.00    -0.014 A 
ATOM     60  C   UNL A   1      44.357  33.354  30.772  1.00  0.00     0.009 A 
ATOM     61  C   UNL A   1      43.674  32.590  32.964  1.00  0.00     0.009 A 
ATOM     62  C   UNL A   1      44.546  34.640  31.283  1.00  0.00     0.001 A 
ATOM     63  C   UNL A   1      43.841  33.882  33.466  1.00  0.00     0.001 A 
ATOM     64  C   UNL A   1      44.284  34.903  32.628  1.00  0.00     0.000 A 
ENDBRANCH  45  59
BRANCH  46  65
ATOM     65  C   UNL A   1      42.130  23.392  27.640  1.00  0.00    -0.014 A 
ATOM     66  C   UNL A   1      42.390  23.187  26.277  1.00  0.00     0.009 A 
ATOM     67  C   UNL A   1      41.625  22.330  28.405  1.00  0.00     0.009 A 
ATOM     68  C   UNL A   1      42.126  21.949  25.687  1.00  0.00     0.001 A 
ATOM     69  C   UNL A   1      41.386  21.087  27.817  1.00  0.00     0.001 A 
ATOM     70  C   UNL A   1      41.628  20.900  26.458  1.00  0.00     0.000 A 
ENDBRANCH  46  65
BRANCH  58  71
ATOM     71  C   UNL A   1      47.714  26.259  30.626  1.00  0.00    -0.014 A 
ATOM     72  C   UNL A   1      48.066  25.766  31.892  1.00  0.00     0.009 A 
ATOM     73  C   UNL A   1      48.667  26.233  29.595  1.00  0.00     0.009 A 
ATOM     74  C   UNL A   1      49.356  25.283  32.127  1.00  0.00     0.001 A 
ATOM     75  C   UNL A   1      49.947  25.729  29.827  1.00  0.00     0.001 A 
ATOM     76  C   UNL A   1      50.293  25.261  31.094  1.00  0.00     0.000 A 
ENDBRANCH  58  71
ENDBRANCH  32  33
ENDBRANCH  24  27
ENDBRANCH  22  23
ENDBRANCH  21  22
ENDBRANCH   1  21
TORSDOF 14
ENDMDL
MODEL 3
REMARK VINA RESULT:     -10.0      2.591      7.134
REMARK SMILES CNC(=O)CC[NH+]1CCC(CC(=O)NCCCNC(=O)c2ccc(-c3c4nc(c(-c5ccccc5)c5ccc([nH]5)c(-c5ccccc5)c5nc(c(-c6ccccc6)c6ccc3[nH]6)C=C5)C=C4)cc2)CC1
REMARK SMILES IDX 15 1 14 2 12 3 13 4 11 6 10 7 7 8 8 9 70 10 9 12 69 13 6 14
REMARK SMILES IDX 5 15 3 16 1 17 2 18 4 20 16 21 17 22 18 23 19 24 20 26 21 27
REMARK SMILES IDX 22 28 68 29 23 30 67 31 24 32 25 33 26 34 61 35 27 36 66 37
REMARK SMILES IDX 60 38 62 39 28 40 65 41 59 42 58 43 29 45 51 46 36 47 50 48
REMARK SMILES IDX 37 49 40 50 49 51 63 52 38 53 39 54 48 56 64 57 41 58 30 59
REMARK SMILES IDX 31 60 35 61 32 62 34 63 33 64 52 65 53 66 57 67 54 68 56 69
REMARK SMILES IDX 55 70 42 71 43 72 47 73 44 74 46 75 45 76
REMARK H PARENT 14 5 7 11 2 19 18 25 62 44 40 55
REMARK Flexibility Score: inf
ROOT
ATOM      1  C   UNL A   1      31.470  29.924  25.330  1.00  0.00     0.117 C 
ENDROOT
BRANCH   1   2
ATOM      2  N   UNL A   1      30.705  29.699  24.114  1.00  0.00    -0.356 N 
ATOM      3  C   UNL A   1      31.073  29.128  22.931  1.00  0.00     0.220 C 
ATOM      4  O   UNL A   1      30.247  29.112  22.017  1.00  0.00    -0.275 OA
ATOM      5  H   UNL A   1      29.770  30.007  24.151  1.00  0.00     0.163 HD
BRANCH   3   6
ATOM      6  C   UNL A   1      32.470  28.555  22.731  1.00  0.00     0.104 C 
BRANCH   6   7
ATOM      7  C   UNL A   1      32.538  27.075  23.130  1.00  0.00     0.009 C 
ATOM      8  N   UNL A   1      33.649  24.396  23.564  1.00  0.00    -0.334 N 
ATOM      9  C   UNL A   1      32.875  24.731  22.370  1.00  0.00     0.262 C 
ATOM     10  C   UNL A   1      33.435  25.308  24.697  1.00  0.00     0.262 C 
ATOM     11  H   UNL A   1      34.627  24.535  23.310  1.00  0.00     0.348 HD
ATOM     12  C   UNL A   1      33.024  26.192  21.976  1.00  0.00     0.066 C 
ATOM     13  C   UNL A   1      33.488  26.796  24.306  1.00  0.00     0.066 C 
BRANCH   8  14
ATOM     14  C   UNL A   1      33.486  22.971  23.934  1.00  0.00     0.272 C 
BRANCH  14  15
ATOM     15  C   UNL A   1      33.065  22.668  25.386  1.00  0.00     0.161 C 
BRANCH  15  16
ATOM     16  C   UNL A   1      31.861  21.745  25.457  1.00  0.00     0.225 C 
ATOM     17  C   UNL A   1      30.417  23.417  26.714  1.00  0.00     0.142 C 
ATOM     18  N   UNL A   1      30.716  22.157  26.076  1.00  0.00    -0.359 N 
ATOM     19  H   UNL A   1      29.986  21.497  26.090  1.00  0.00     0.163 HD
ATOM     20  O   UNL A   1      31.885  20.611  24.980  1.00  0.00    -0.275 OA
ENDBRANCH  15  16
ENDBRANCH  14  15
ENDBRANCH   8  14
ENDBRANCH   6   7
ENDBRANCH   3   6
ENDBRANCH   1   2
BRANCH   1  21
ATOM     21  C   UNL A   1      31.241  31.332  25.888  1.00  0.00     0.042 C 
BRANCH  21  22
ATOM     22  C   UNL A   1      32.165  31.705  27.049  1.00  0.00     0.118 C 
BRANCH  22  23
ATOM     23  N   UNL A   1      32.149  33.136  27.313  1.00  0.00    -0.352 N 
ATOM     24  C   UNL A   1      32.962  33.932  28.083  1.00  0.00     0.251 C 
ATOM     25  H   UNL A   1      31.423  33.621  26.859  1.00  0.00     0.163 HD
ATOM     26  O   UNL A   1      32.593  35.081  28.318  1.00  0.00    -0.269 OA
BRANCH  24  27
ATOM     27  C   UNL A   1      34.263  33.467  28.639  1.00  0.00     0.039 A 
ATOM     28  C   UNL A   1      35.430  33.767  27.920  1.00  0.00     0.014 A 
ATOM     29  C   UNL A   1      34.360  32.653  29.770  1.00  0.00     0.014 A 
ATOM     30  C   UNL A   1      36.675  33.284  28.344  1.00  0.00     0.010 A 
ATOM     31  C   UNL A   1      35.612  32.223  30.229  1.00  0.00     0.010 A 
ATOM     32  C   UNL A   1      36.784  32.520  29.515  1.00  0.00    -0.014 A 
BRANCH  32  33
ATOM     33  C   UNL A   1      38.104  32.009  29.982  1.00  0.00     0.031 A 
ATOM     34  C   UNL A   1      38.659  30.711  29.452  1.00  0.00     0.074 A 
ATOM     35  C   UNL A   1      38.799  32.686  30.918  1.00  0.00     0.049 A 
ATOM     36  N   UNL A   1      39.759  30.083  29.791  1.00  0.00    -0.248 NA
ATOM     37  C   UNL A   1      37.869  30.020  28.421  1.00  0.00     0.031 C 
ATOM     38  C   UNL A   1      38.384  33.945  31.538  1.00  0.00     0.029 A 
ATOM     39  N   UNL A   1      40.003  32.402  31.516  1.00  0.00    -0.354 N 
ATOM     40  C   UNL A   1      39.778  28.915  29.039  1.00  0.00     0.074 A 
ATOM     41  C   UNL A   1      38.566  28.906  28.247  1.00  0.00     0.031 C 
ATOM     42  C   UNL A   1      39.324  34.332  32.417  1.00  0.00     0.029 A 
ATOM     43  C   UNL A   1      40.390  33.335  32.447  1.00  0.00     0.049 A 
ATOM     44  H   UNL A   1      40.537  31.604  31.298  1.00  0.00     0.167 HD
ATOM     45  C   UNL A   1      40.718  27.940  28.998  1.00  0.00     0.031 A 
ATOM     46  C   UNL A   1      41.476  33.385  33.243  1.00  0.00     0.031 A 
ATOM     47  C   UNL A   1      41.944  27.948  29.752  1.00  0.00     0.049 A 
ATOM     48  C   UNL A   1      42.507  32.293  33.176  1.00  0.00     0.074 A 
ATOM     49  C   UNL A   1      42.983  27.031  29.717  1.00  0.00     0.029 A 
ATOM     50  N   UNL A   1      42.299  28.918  30.673  1.00  0.00    -0.354 N 
ATOM     51  N   UNL A   1      42.529  31.224  32.419  1.00  0.00    -0.248 NA
ATOM     52  C   UNL A   1      43.667  32.423  34.072  1.00  0.00     0.031 C 
ATOM     53  C   UNL A   1      43.950  27.427  30.648  1.00  0.00     0.029 A 
ATOM     54  C   UNL A   1      43.531  28.611  31.230  1.00  0.00     0.049 A 
ATOM     55  H   UNL A   1      41.758  29.708  30.899  1.00  0.00     0.167 HD
ATOM     56  C   UNL A   1      43.714  30.567  32.731  1.00  0.00     0.074 A 
ATOM     57  C   UNL A   1      44.388  31.363  33.734  1.00  0.00     0.031 C 
ATOM     58  C   UNL A   1      44.196  29.406  32.226  1.00  0.00     0.031 A 
BRANCH  45  59
ATOM     59  C   UNL A   1      40.454  26.759  28.106  1.00  0.00    -0.014 A 
ATOM     60  C   UNL A   1      40.970  26.702  26.803  1.00  0.00     0.009 A 
ATOM     61  C   UNL A   1      39.724  25.665  28.599  1.00  0.00     0.009 A 
ATOM     62  C   UNL A   1      40.732  25.585  25.999  1.00  0.00     0.001 A 
ATOM     63  C   UNL A   1      39.508  24.541  27.801  1.00  0.00     0.001 A 
ATOM     64  C   UNL A   1      40.005  24.505  26.499  1.00  0.00     0.000 A 
ENDBRANCH  45  59
BRANCH  46  65
ATOM     65  C   UNL A   1      41.654  34.522  34.181  1.00  0.00    -0.014 A 
ATOM     66  C   UNL A   1      42.252  35.714  33.748  1.00  0.00     0.009 A 
ATOM     67  C   UNL A   1      41.237  34.414  35.516  1.00  0.00     0.009 A 
ATOM     68  C   UNL A   1      42.451  36.769  34.642  1.00  0.00     0.001 A 
ATOM     69  C   UNL A   1      41.415  35.480  36.400  1.00  0.00     0.001 A 
ATOM     70  C   UNL A   1      42.029  36.652  35.965  1.00  0.00     0.000 A 
ENDBRANCH  46  65
BRANCH  58  71
ATOM     71  C   UNL A   1      45.532  28.939  32.730  1.00  0.00    -0.014 A 
ATOM     72  C   UNL A   1      45.630  28.078  33.833  1.00  0.00     0.009 A 
ATOM     73  C   UNL A   1      46.705  29.340  32.070  1.00  0.00     0.009 A 
ATOM     74  C   UNL A   1      46.881  27.649  34.284  1.00  0.00     0.001 A 
ATOM     75  C   UNL A   1      47.951  28.891  32.509  1.00  0.00     0.001 A 
ATOM     76  C   UNL A   1      48.039  28.052  33.619  1.00  0.00     0.000 A 
ENDBRANCH  58  71
ENDBRANCH  32  33
ENDBRANCH  24  27
ENDBRANCH  22  23
ENDBRANCH  21  22
ENDBRANCH   1  21
TORSDOF 14
ENDMDL
