MODEL 1
REMARK VINA RESULT:     -11.5      0.000      0.000
REMARK SMILES C[C@H](c1ccccc1F)N(C)c1cccc(F)c1C(=O)NCCCNC(=O)c1ccc(-c2c3nc(c(-c4ccccc4)c4ccc([nH]4)c(-c4ccccc4)c4nc(c(-c5ccccc5)c5ccc2[nH]5)C=C4)C=C3)cc1
REMARK SMILES IDX 22 1 21 2 19 3 20 4 18 6 12 7 13 8 14 9 16 10 15 11 17 12
REMARK SMILES IDX 10 13 11 14 2 15 1 16 3 17 4 18 8 19 5 20 7 21 9 22 6 23
REMARK SMILES IDX 23 24 24 25 25 26 26 27 27 29 28 30 29 31 75 32 30 33 74 34
REMARK SMILES IDX 31 35 32 36 33 37 68 38 34 39 73 40 67 41 69 42 35 43 72 44
REMARK SMILES IDX 66 45 65 46 36 48 58 49 43 50 57 51 44 52 47 53 56 54 70 55
REMARK SMILES IDX 45 56 46 57 55 59 71 60 48 61 37 62 38 63 42 64 39 65 41 66
REMARK SMILES IDX 40 67 59 68 60 69 64 70 61 71 63 72 62 73 49 74 50 75 54 76
REMARK SMILES IDX 51 77 53 78 52 79
REMARK H PARENT 21 5 25 28 69 47 47 58
REMARK Flexibility Score: inf
ROOT
ATOM      1  C   UNL A   1      31.661  26.902  26.276  1.00  0.00     0.118 C 
ENDROOT
BRANCH   1   2
ATOM      2  N   UNL A   1      30.856  25.803  26.791  1.00  0.00    -0.352 N 
ATOM      3  C   UNL A   1      30.803  24.453  26.481  1.00  0.00     0.256 C 
ATOM      4  O   UNL A   1      30.196  23.753  27.291  1.00  0.00    -0.269 OA
ATOM      5  H   UNL A   1      30.225  26.072  27.498  1.00  0.00     0.163 HD
BRANCH   3   6
ATOM      6  C   UNL A   1      31.361  23.877  25.217  1.00  0.00     0.098 A 
ATOM      7  C   UNL A   1      32.527  23.065  25.186  1.00  0.00     0.053 A 
ATOM      8  C   UNL A   1      32.808  22.381  23.979  1.00  0.00     0.027 A 
ATOM      9  C   UNL A   1      32.065  22.560  22.817  1.00  0.00     0.005 A 
ATOM     10  C   UNL A   1      30.735  24.168  23.996  1.00  0.00     0.138 A 
ATOM     11  C   UNL A   1      31.048  23.493  22.817  1.00  0.00     0.040 A 
ATOM     12  F   UNL A   1      29.837  25.159  23.899  1.00  0.00    -0.206 F 
BRANCH   7  13
ATOM     13  N   UNL A   1      33.466  22.929  26.209  1.00  0.00    -0.367 N 
ATOM     14  C   UNL A   1      33.114  22.201  27.416  1.00  0.00     0.144 C 
BRANCH  13  15
ATOM     15  C   UNL A   1      34.751  23.695  26.172  1.00  0.00     0.112 C 
ATOM     16  C   UNL A   1      34.615  24.947  25.295  1.00  0.00     0.036 C 
BRANCH  15  17
ATOM     17  C   UNL A   1      35.946  22.785  25.873  1.00  0.00     0.010 A 
ATOM     18  C   UNL A   1      35.712  21.457  25.457  1.00  0.00     0.009 A 
ATOM     19  C   UNL A   1      37.284  23.183  25.997  1.00  0.00     0.128 A 
ATOM     20  C   UNL A   1      36.762  20.612  25.083  1.00  0.00     0.001 A 
ATOM     21  C   UNL A   1      38.338  22.334  25.653  1.00  0.00     0.039 A 
ATOM     22  F   UNL A   1      37.611  24.398  26.453  1.00  0.00    -0.207 F 
ATOM     23  C   UNL A   1      38.078  21.054  25.172  1.00  0.00     0.003 A 
ENDBRANCH  15  17
ENDBRANCH  13  15
ENDBRANCH   7  13
ENDBRANCH   3   6
ENDBRANCH   1   2
BRANCH   1  24
ATOM     24  C   UNL A   1      32.005  27.986  27.286  1.00  0.00     0.042 C 
BRANCH  24  25
ATOM     25  C   UNL A   1      33.390  28.599  27.166  1.00  0.00     0.118 C 
BRANCH  25  26
ATOM     26  N   UNL A   1      33.453  29.996  27.576  1.00  0.00    -0.352 N 
ATOM     27  C   UNL A   1      34.448  30.725  28.187  1.00  0.00     0.251 C 
ATOM     28  H   UNL A   1      32.637  30.511  27.381  1.00  0.00     0.163 HD
ATOM     29  O   UNL A   1      34.209  31.863  28.579  1.00  0.00    -0.269 OA
BRANCH  27  30
ATOM     30  C   UNL A   1      35.797  30.151  28.406  1.00  0.00     0.039 A 
ATOM     31  C   UNL A   1      36.726  30.183  27.359  1.00  0.00     0.014 A 
ATOM     32  C   UNL A   1      36.146  29.553  29.616  1.00  0.00     0.014 A 
ATOM     33  C   UNL A   1      38.021  29.695  27.560  1.00  0.00     0.010 A 
ATOM     34  C   UNL A   1      37.462  29.171  29.851  1.00  0.00     0.010 A 
ATOM     35  C   UNL A   1      38.416  29.229  28.824  1.00  0.00    -0.014 A 
BRANCH  35  36
ATOM     36  C   UNL A   1      39.807  28.786  29.096  1.00  0.00     0.031 A 
ATOM     37  C   UNL A   1      40.791  29.730  29.737  1.00  0.00     0.074 A 
ATOM     38  C   UNL A   1      40.209  27.561  28.698  1.00  0.00     0.049 A 
ATOM     39  N   UNL A   1      42.065  29.556  29.980  1.00  0.00    -0.248 NA
ATOM     40  C   UNL A   1      40.283  31.056  30.126  1.00  0.00     0.031 C 
ATOM     41  C   UNL A   1      39.368  26.567  28.027  1.00  0.00     0.029 A 
ATOM     42  N   UNL A   1      41.434  26.947  28.795  1.00  0.00    -0.354 N 
ATOM     43  C   UNL A   1      42.511  30.753  30.527  1.00  0.00     0.074 A 
ATOM     44  C   UNL A   1      41.389  31.664  30.524  1.00  0.00     0.031 C 
ATOM     45  C   UNL A   1      40.091  25.458  27.804  1.00  0.00     0.029 A 
ATOM     46  C   UNL A   1      41.456  25.678  28.271  1.00  0.00     0.049 A 
ATOM     47  H   UNL A   1      42.221  27.376  29.202  1.00  0.00     0.167 HD
ATOM     48  C   UNL A   1      43.737  31.062  31.012  1.00  0.00     0.031 A 
ATOM     49  C   UNL A   1      42.464  24.791  28.168  1.00  0.00     0.031 A 
ATOM     50  C   UNL A   1      44.851  30.150  31.025  1.00  0.00     0.049 A 
ATOM     51  C   UNL A   1      43.821  25.163  28.697  1.00  0.00     0.074 A 
ATOM     52  C   UNL A   1      46.118  30.345  31.545  1.00  0.00     0.029 A 
ATOM     53  N   UNL A   1      44.829  28.871  30.490  1.00  0.00    -0.354 N 
ATOM     54  N   UNL A   1      44.207  26.274  29.275  1.00  0.00    -0.248 NA
ATOM     55  C   UNL A   1      44.880  24.152  28.567  1.00  0.00     0.031 C 
ATOM     56  C   UNL A   1      46.881  29.207  31.270  1.00  0.00     0.029 A 
ATOM     57  C   UNL A   1      46.069  28.276  30.642  1.00  0.00     0.049 A 
ATOM     58  H   UNL A   1      44.046  28.450  30.066  1.00  0.00     0.167 HD
ATOM     59  C   UNL A   1      45.542  26.086  29.606  1.00  0.00     0.074 A 
ATOM     60  C   UNL A   1      45.895  24.746  29.180  1.00  0.00     0.031 C 
ATOM     61  C   UNL A   1      46.401  26.943  30.212  1.00  0.00     0.031 A 
BRANCH  48  62
ATOM     62  C   UNL A   1      43.939  32.448  31.562  1.00  0.00    -0.014 A 
ATOM     63  C   UNL A   1      43.748  32.728  32.925  1.00  0.00     0.009 A 
ATOM     64  C   UNL A   1      44.353  33.485  30.711  1.00  0.00     0.009 A 
ATOM     65  C   UNL A   1      43.926  34.024  33.415  1.00  0.00     0.001 A 
ATOM     66  C   UNL A   1      44.564  34.771  31.209  1.00  0.00     0.001 A 
ATOM     67  C   UNL A   1      44.340  35.043  32.558  1.00  0.00     0.000 A 
ENDBRANCH  48  62
BRANCH  49  68
ATOM     68  C   UNL A   1      42.227  23.458  27.552  1.00  0.00    -0.014 A 
ATOM     69  C   UNL A   1      41.662  22.415  28.304  1.00  0.00     0.009 A 
ATOM     70  C   UNL A   1      42.571  23.215  26.213  1.00  0.00     0.009 A 
ATOM     71  C   UNL A   1      41.474  21.153  27.737  1.00  0.00     0.001 A 
ATOM     72  C   UNL A   1      42.351  21.961  25.639  1.00  0.00     0.001 A 
ATOM     73  C   UNL A   1      41.814  20.928  26.405  1.00  0.00     0.000 A 
ENDBRANCH  49  68
BRANCH  61  74
ATOM     74  C   UNL A   1      47.793  26.444  30.484  1.00  0.00    -0.014 A 
ATOM     75  C   UNL A   1      48.128  25.829  31.700  1.00  0.00     0.009 A 
ATOM     76  C   UNL A   1      48.774  26.555  29.485  1.00  0.00     0.009 A 
ATOM     77  C   UNL A   1      49.428  25.369  31.924  1.00  0.00     0.001 A 
ATOM     78  C   UNL A   1      50.063  26.063  29.698  1.00  0.00     0.001 A 
ATOM     79  C   UNL A   1      50.391  25.481  30.921  1.00  0.00     0.000 A 
ENDBRANCH  61  74
ENDBRANCH  35  36
ENDBRANCH  27  30
ENDBRANCH  25  26
ENDBRANCH  24  25
ENDBRANCH   1  24
TORSDOF 13
ENDMDL
MODEL 2
REMARK VINA RESULT:     -11.5      1.787      2.523
REMARK SMILES C[C@H](c1ccccc1F)N(C)c1cccc(F)c1C(=O)NCCCNC(=O)c1ccc(-c2c3nc(c(-c4ccccc4)c4ccc([nH]4)c(-c4ccccc4)c4nc(c(-c5ccccc5)c5ccc2[nH]5)C=C4)C=C3)cc1
REMARK SMILES IDX 22 1 21 2 19 3 20 4 18 6 12 7 13 8 14 9 16 10 15 11 17 12
REMARK SMILES IDX 10 13 11 14 2 15 1 16 3 17 4 18 8 19 5 20 7 21 9 22 6 23
REMARK SMILES IDX 23 24 24 25 25 26 26 27 27 29 28 30 29 31 75 32 30 33 74 34
REMARK SMILES IDX 31 35 32 36 33 37 68 38 34 39 73 40 67 41 69 42 35 43 72 44
REMARK SMILES IDX 66 45 65 46 36 48 58 49 43 50 57 51 44 52 47 53 56 54 70 55
REMARK SMILES IDX 45 56 46 57 55 59 71 60 48 61 37 62 38 63 42 64 39 65 41 66
REMARK SMILES IDX 40 67 59 68 60 69 64 70 61 71 63 72 62 73 49 74 50 75 54 76
REMARK SMILES IDX 51 77 53 78 52 79
REMARK H PARENT 21 5 25 28 69 47 47 58
REMARK Flexibility Score: inf
ROOT
ATOM      1  C   UNL A   1      33.681  29.020  24.932  1.00  0.00     0.118 C 
ENDROOT
BRANCH   1   2
ATOM      2  N   UNL A   1      34.038  28.390  23.668  1.00  0.00    -0.352 N 
ATOM      3  C   UNL A   1      33.301  27.683  22.731  1.00  0.00     0.256 C 
ATOM      4  O   UNL A   1      33.857  27.516  21.646  1.00  0.00    -0.269 OA
ATOM      5  H   UNL A   1      34.990  28.485  23.434  1.00  0.00     0.163 HD
BRANCH   3   6
ATOM      6  C   UNL A   1      31.961  27.082  23.022  1.00  0.00     0.098 A 
ATOM      7  C   UNL A   1      31.795  25.747  23.478  1.00  0.00     0.053 A 
ATOM      8  C   UNL A   1      30.513  25.380  23.954  1.00  0.00     0.027 A 
ATOM      9  C   UNL A   1      29.410  26.225  23.886  1.00  0.00     0.005 A 
ATOM     10  C   UNL A   1      30.806  27.849  22.810  1.00  0.00     0.138 A 
ATOM     11  C   UNL A   1      29.551  27.452  23.270  1.00  0.00     0.040 A 
ATOM     12  F   UNL A   1      30.851  28.985  22.098  1.00  0.00    -0.206 F 
BRANCH   7  13
ATOM     13  N   UNL A   1      32.754  24.736  23.439  1.00  0.00    -0.367 N 
ATOM     14  C   UNL A   1      33.015  24.039  22.190  1.00  0.00     0.144 C 
BRANCH  13  15
ATOM     15  C   UNL A   1      33.368  24.216  24.702  1.00  0.00     0.112 C 
ATOM     16  C   UNL A   1      34.726  24.880  24.962  1.00  0.00     0.036 C 
BRANCH  15  17
ATOM     17  C   UNL A   1      33.339  22.686  24.758  1.00  0.00     0.010 A 
ATOM     18  C   UNL A   1      34.543  21.969  24.592  1.00  0.00     0.009 A 
ATOM     19  C   UNL A   1      32.175  21.931  24.957  1.00  0.00     0.128 A 
ATOM     20  C   UNL A   1      34.589  20.578  24.726  1.00  0.00     0.001 A 
ATOM     21  C   UNL A   1      32.211  20.539  25.063  1.00  0.00     0.039 A 
ATOM     22  F   UNL A   1      30.973  22.513  25.054  1.00  0.00    -0.207 F 
ATOM     23  C   UNL A   1      33.422  19.861  24.972  1.00  0.00     0.003 A 
ENDBRANCH  15  17
ENDBRANCH  13  15
ENDBRANCH   7  13
ENDBRANCH   3   6
ENDBRANCH   1   2
BRANCH   1  24
ATOM     24  C   UNL A   1      33.919  28.172  26.172  1.00  0.00     0.042 C 
BRANCH  24  25
ATOM     25  C   UNL A   1      33.280  28.671  27.457  1.00  0.00     0.118 C 
BRANCH  25  26
ATOM     26  N   UNL A   1      33.422  30.106  27.666  1.00  0.00    -0.352 N 
ATOM     27  C   UNL A   1      34.471  30.862  28.138  1.00  0.00     0.251 C 
ATOM     28  H   UNL A   1      32.624  30.630  27.426  1.00  0.00     0.163 HD
ATOM     29  O   UNL A   1      34.298  32.053  28.374  1.00  0.00    -0.269 OA
BRANCH  27  30
ATOM     30  C   UNL A   1      35.800  30.258  28.393  1.00  0.00     0.039 A 
ATOM     31  C   UNL A   1      36.753  30.256  27.368  1.00  0.00     0.014 A 
ATOM     32  C   UNL A   1      36.106  29.662  29.616  1.00  0.00     0.014 A 
ATOM     33  C   UNL A   1      38.031  29.739  27.603  1.00  0.00     0.010 A 
ATOM     34  C   UNL A   1      37.407  29.250  29.885  1.00  0.00     0.010 A 
ATOM     35  C   UNL A   1      38.385  29.275  28.879  1.00  0.00    -0.014 A 
BRANCH  35  36
ATOM     36  C   UNL A   1      39.758  28.800  29.187  1.00  0.00     0.031 A 
ATOM     37  C   UNL A   1      40.738  29.713  29.877  1.00  0.00     0.074 A 
ATOM     38  C   UNL A   1      40.150  27.576  28.780  1.00  0.00     0.049 A 
ATOM     39  N   UNL A   1      42.001  29.511  30.157  1.00  0.00    -0.248 NA
ATOM     40  C   UNL A   1      40.243  31.042  30.274  1.00  0.00     0.031 C 
ATOM     41  C   UNL A   1      39.313  26.610  28.064  1.00  0.00     0.029 A 
ATOM     42  N   UNL A   1      41.359  26.936  28.904  1.00  0.00    -0.354 N 
ATOM     43  C   UNL A   1      42.451  30.689  30.740  1.00  0.00     0.074 A 
ATOM     44  C   UNL A   1      41.346  31.622  30.719  1.00  0.00     0.031 C 
ATOM     45  C   UNL A   1      40.021  25.492  27.844  1.00  0.00     0.029 A 
ATOM     46  C   UNL A   1      41.374  25.676  28.357  1.00  0.00     0.049 A 
ATOM     47  H   UNL A   1      42.140  27.343  29.344  1.00  0.00     0.167 HD
ATOM     48  C   UNL A   1      43.667  30.965  31.269  1.00  0.00     0.031 A 
ATOM     49  C   UNL A   1      42.369  24.772  28.270  1.00  0.00     0.031 A 
ATOM     50  C   UNL A   1      44.762  30.032  31.301  1.00  0.00     0.049 A 
ATOM     51  C   UNL A   1      43.715  25.109  28.849  1.00  0.00     0.074 A 
ATOM     52  C   UNL A   1      46.015  30.194  31.864  1.00  0.00     0.029 A 
ATOM     53  N   UNL A   1      44.733  28.764  30.742  1.00  0.00    -0.354 N 
ATOM     54  N   UNL A   1      44.102  26.201  29.460  1.00  0.00    -0.248 NA
ATOM     55  C   UNL A   1      44.758  24.079  28.735  1.00  0.00     0.031 C 
ATOM     56  C   UNL A   1      46.765  29.045  31.594  1.00  0.00     0.029 A 
ATOM     57  C   UNL A   1      45.956  28.142  30.922  1.00  0.00     0.049 A 
ATOM     58  H   UNL A   1      43.957  28.365  30.285  1.00  0.00     0.167 HD
ATOM     59  C   UNL A   1      45.423  25.981  29.830  1.00  0.00     0.074 A 
ATOM     60  C   UNL A   1      45.763  24.643  29.391  1.00  0.00     0.031 C 
ATOM     61  C   UNL A   1      46.278  26.811  30.478  1.00  0.00     0.031 A 
BRANCH  48  62
ATOM     62  C   UNL A   1      43.876  32.337  31.851  1.00  0.00    -0.014 A 
ATOM     63  C   UNL A   1      43.604  32.607  33.203  1.00  0.00     0.009 A 
ATOM     64  C   UNL A   1      44.379  33.370  31.044  1.00  0.00     0.009 A 
ATOM     65  C   UNL A   1      43.792  33.891  33.722  1.00  0.00     0.001 A 
ATOM     66  C   UNL A   1      44.598  34.643  31.574  1.00  0.00     0.001 A 
ATOM     67  C   UNL A   1      44.294  34.905  32.909  1.00  0.00     0.000 A 
ENDBRANCH  48  62
BRANCH  49  68
ATOM     68  C   UNL A   1      42.127  23.455  27.623  1.00  0.00    -0.014 A 
ATOM     69  C   UNL A   1      42.500  23.239  26.286  1.00  0.00     0.009 A 
ATOM     70  C   UNL A   1      41.517  22.409  28.331  1.00  0.00     0.009 A 
ATOM     71  C   UNL A   1      42.239  22.015  25.667  1.00  0.00     0.001 A 
ATOM     72  C   UNL A   1      41.287  21.175  27.719  1.00  0.00     0.001 A 
ATOM     73  C   UNL A   1      41.637  20.982  26.384  1.00  0.00     0.000 A 
ENDBRANCH  49  68
BRANCH  61  74
ATOM     74  C   UNL A   1      47.650  26.280  30.785  1.00  0.00    -0.014 A 
ATOM     75  C   UNL A   1      47.961  25.729  32.038  1.00  0.00     0.009 A 
ATOM     76  C   UNL A   1      48.636  26.296  29.786  1.00  0.00     0.009 A 
ATOM     77  C   UNL A   1      49.243  25.238  32.294  1.00  0.00     0.001 A 
ATOM     78  C   UNL A   1      49.906  25.772  30.033  1.00  0.00     0.001 A 
ATOM     79  C   UNL A   1      50.212  25.254  31.290  1.00  0.00     0.000 A 
ENDBRANCH  61  74
ENDBRANCH  35  36
ENDBRANCH  27  30
ENDBRANCH  25  26
ENDBRANCH  24  25
ENDBRANCH   1  24
TORSDOF 13
ENDMDL
MODEL 3
REMARK VINA RESULT:     -11.4      2.277      7.411
REMARK SMILES C[C@H](c1ccccc1F)N(C)c1cccc(F)c1C(=O)NCCCNC(=O)c1ccc(-c2c3nc(c(-c4ccccc4)c4ccc([nH]4)c(-c4ccccc4)c4nc(c(-c5ccccc5)c5ccc2[nH]5)C=C4)C=C3)cc1
REMARK SMILES IDX 22 1 21 2 19 3 20 4 18 6 12 7 13 8 14 9 16 10 15 11 17 12
REMARK SMILES IDX 10 13 11 14 2 15 1 16 3 17 4 18 8 19 5 20 7 21 9 22 6 23
REMARK SMILES IDX 23 24 24 25 25 26 26 27 27 29 28 30 29 31 75 32 30 33 74 34
REMARK SMILES IDX 31 35 32 36 33 37 68 38 34 39 73 40 67 41 69 42 35 43 72 44
REMARK SMILES IDX 66 45 65 46 36 48 58 49 43 50 57 51 44 52 47 53 56 54 70 55
REMARK SMILES IDX 45 56 46 57 55 59 71 60 48 61 37 62 38 63 42 64 39 65 41 66
REMARK SMILES IDX 40 67 59 68 60 69 64 70 61 71 63 72 62 73 49 74 50 75 54 76
REMARK SMILES IDX 51 77 53 78 52 79
REMARK H PARENT 21 5 25 28 69 47 47 58
REMARK Flexibility Score: inf
ROOT
ATOM      1  C   UNL A   1      36.494  20.509  24.667  1.00  0.00     0.118 C 
ENDROOT
BRANCH   1   2
ATOM      2  N   UNL A   1      35.639  20.844  25.797  1.00  0.00    -0.352 N 
ATOM      3  C   UNL A   1      34.270  21.027  25.916  1.00  0.00     0.256 C 
ATOM      4  O   UNL A   1      33.842  21.042  27.069  1.00  0.00    -0.269 OA
ATOM      5  H   UNL A   1      36.129  20.962  26.643  1.00  0.00     0.163 HD
BRANCH   3   6
ATOM      6  C   UNL A   1      33.370  21.278  24.746  1.00  0.00     0.098 A 
ATOM      7  C   UNL A   1      33.022  22.582  24.303  1.00  0.00     0.053 A 
ATOM      8  C   UNL A   1      32.376  22.690  23.049  1.00  0.00     0.027 A 
ATOM      9  C   UNL A   1      31.977  21.583  22.306  1.00  0.00     0.005 A 
ATOM     10  C   UNL A   1      32.812  20.186  24.064  1.00  0.00     0.138 A 
ATOM     11  C   UNL A   1      32.160  20.324  22.840  1.00  0.00     0.040 A 
ATOM     12  F   UNL A   1      32.834  18.955  24.596  1.00  0.00    -0.206 F 
BRANCH   7  13
ATOM     13  N   UNL A   1      33.191  23.769  25.017  1.00  0.00    -0.367 N 
ATOM     14  C   UNL A   1      32.169  24.194  25.959  1.00  0.00     0.144 C 
BRANCH  13  15
ATOM     15  C   UNL A   1      34.302  24.712  24.678  1.00  0.00     0.112 C 
ATOM     16  C   UNL A   1      35.541  24.428  25.538  1.00  0.00     0.036 C 
BRANCH  15  17
ATOM     17  C   UNL A   1      33.821  26.165  24.640  1.00  0.00     0.010 A 
ATOM     18  C   UNL A   1      34.080  27.004  25.745  1.00  0.00     0.009 A 
ATOM     19  C   UNL A   1      33.118  26.731  23.568  1.00  0.00     0.128 A 
ATOM     20  C   UNL A   1      33.745  28.362  25.727  1.00  0.00     0.001 A 
ATOM     21  C   UNL A   1      32.755  28.079  23.556  1.00  0.00     0.039 A 
ATOM     22  F   UNL A   1      32.761  26.000  22.505  1.00  0.00    -0.207 F 
ATOM     23  C   UNL A   1      33.089  28.903  24.626  1.00  0.00     0.003 A 
ENDBRANCH  15  17
ENDBRANCH  13  15
ENDBRANCH   7  13
ENDBRANCH   3   6
ENDBRANCH   1   2
BRANCH   1  24
ATOM     24  C   UNL A   1      37.644  19.563  24.979  1.00  0.00     0.042 C 
BRANCH  24  25
ATOM     25  C   UNL A   1      38.824  20.165  25.722  1.00  0.00     0.118 C 
BRANCH  25  26
ATOM     26  N   UNL A   1      39.991  19.294  25.779  1.00  0.00    -0.352 N 
ATOM     27  C   UNL A   1      41.307  19.548  26.094  1.00  0.00     0.251 C 
ATOM     28  H   UNL A   1      39.805  18.355  25.552  1.00  0.00     0.163 HD
ATOM     29  O   UNL A   1      42.149  18.673  25.919  1.00  0.00    -0.269 OA
BRANCH  27  30
ATOM     30  C   UNL A   1      41.731  20.869  26.614  1.00  0.00     0.039 A 
ATOM     31  C   UNL A   1      42.225  21.824  25.718  1.00  0.00     0.014 A 
ATOM     32  C   UNL A   1      41.681  21.165  27.976  1.00  0.00     0.014 A 
ATOM     33  C   UNL A   1      42.582  23.095  26.180  1.00  0.00     0.010 A 
ATOM     34  C   UNL A   1      41.930  22.460  28.417  1.00  0.00     0.010 A 
ATOM     35  C   UNL A   1      42.392  23.440  27.527  1.00  0.00    -0.014 A 
BRANCH  35  36
ATOM     36  C   UNL A   1      42.678  24.808  28.034  1.00  0.00     0.031 A 
ATOM     37  C   UNL A   1      44.073  25.179  28.463  1.00  0.00     0.074 A 
ATOM     38  C   UNL A   1      41.670  25.691  28.180  1.00  0.00     0.049 A 
ATOM     39  N   UNL A   1      44.502  26.291  29.005  1.00  0.00    -0.248 NA
ATOM     40  C   UNL A   1      45.116  24.155  28.291  1.00  0.00     0.031 C 
ATOM     41  C   UNL A   1      40.266  25.443  27.842  1.00  0.00     0.029 A 
ATOM     42  N   UNL A   1      41.671  26.978  28.658  1.00  0.00    -0.354 N 
ATOM     43  C   UNL A   1      45.854  26.090  29.256  1.00  0.00     0.074 A 
ATOM     44  C   UNL A   1      46.160  24.732  28.866  1.00  0.00     0.031 C 
ATOM     45  C   UNL A   1      39.550  26.550  28.092  1.00  0.00     0.029 A 
ATOM     46  C   UNL A   1      40.431  27.570  28.651  1.00  0.00     0.049 A 
ATOM     47  H   UNL A   1      42.485  27.434  28.975  1.00  0.00     0.167 HD
ATOM     48  C   UNL A   1      46.767  26.962  29.746  1.00  0.00     0.031 A 
ATOM     49  C   UNL A   1      40.043  28.794  29.057  1.00  0.00     0.031 A 
ATOM     50  C   UNL A   1      46.464  28.317  30.123  1.00  0.00     0.049 A 
ATOM     51  C   UNL A   1      41.072  29.739  29.614  1.00  0.00     0.074 A 
ATOM     52  C   UNL A   1      47.327  29.299  30.576  1.00  0.00     0.029 A 
ATOM     53  N   UNL A   1      45.196  28.879  30.094  1.00  0.00    -0.354 N 
ATOM     54  N   UNL A   1      42.359  29.556  29.779  1.00  0.00    -0.248 NA
ATOM     55  C   UNL A   1      40.593  31.065  30.031  1.00  0.00     0.031 C 
ATOM     56  C   UNL A   1      46.572  30.436  30.878  1.00  0.00     0.029 A 
ATOM     57  C   UNL A   1      45.250  30.185  30.548  1.00  0.00     0.049 A 
ATOM     58  H   UNL A   1      44.380  28.416  29.795  1.00  0.00     0.167 HD
ATOM     59  C   UNL A   1      42.850  30.751  30.289  1.00  0.00     0.074 A 
ATOM     60  C   UNL A   1      41.724  31.658  30.388  1.00  0.00     0.031 C 
ATOM     61  C   UNL A   1      44.119  31.072  30.641  1.00  0.00     0.031 A 
BRANCH  48  62
ATOM     62  C   UNL A   1      48.181  26.472  29.907  1.00  0.00    -0.014 A 
ATOM     63  C   UNL A   1      49.139  26.661  28.896  1.00  0.00     0.009 A 
ATOM     64  C   UNL A   1      48.569  25.837  31.097  1.00  0.00     0.009 A 
ATOM     65  C   UNL A   1      50.443  26.186  29.059  1.00  0.00     0.001 A 
ATOM     66  C   UNL A   1      49.882  25.395  31.270  1.00  0.00     0.001 A 
ATOM     67  C   UNL A   1      50.815  25.560  30.246  1.00  0.00     0.000 A 
ENDBRANCH  48  62
BRANCH  49  68
ATOM     68  C   UNL A   1      38.619  29.204  28.939  1.00  0.00    -0.014 A 
ATOM     69  C   UNL A   1      37.752  29.093  30.039  1.00  0.00     0.009 A 
ATOM     70  C   UNL A   1      38.114  29.702  27.729  1.00  0.00     0.009 A 
ATOM     71  C   UNL A   1      36.405  29.443  29.918  1.00  0.00     0.001 A 
ATOM     72  C   UNL A   1      36.774  30.082  27.620  1.00  0.00     0.001 A 
ATOM     73  C   UNL A   1      35.918  29.941  28.710  1.00  0.00     0.000 A 
ENDBRANCH  49  68
BRANCH  61  74
ATOM     74  C   UNL A   1      44.364  32.473  31.130  1.00  0.00    -0.014 A 
ATOM     75  C   UNL A   1      44.664  33.518  30.243  1.00  0.00     0.009 A 
ATOM     76  C   UNL A   1      44.251  32.756  32.501  1.00  0.00     0.009 A 
ATOM     77  C   UNL A   1      44.881  34.811  30.724  1.00  0.00     0.001 A 
ATOM     78  C   UNL A   1      44.433  34.055  32.975  1.00  0.00     0.001 A 
ATOM     79  C   UNL A   1      44.759  35.079  32.087  1.00  0.00     0.000 A 
ENDBRANCH  61  74
ENDBRANCH  35  36
ENDBRANCH  27  30
ENDBRANCH  25  26
ENDBRANCH  24  25
ENDBRANCH   1  24
TORSDOF 13
ENDMDL
