MODEL 1
REMARK VINA RESULT:     -10.7      0.000      0.000
REMARK SMILES C[C@@H](C(=O)NCCCNC(=O)c1ccc(-c2c3nc(c(-c4ccccc4)c4ccc([nH]4)c(-c4ccccc4)c4nc(c(-c5ccccc5)c5ccc2[nH]5)C=C4)C=C3)cc1)[C@@H](C)C(=O)c1ccc(Br)cc1
REMARK SMILES IDX 6 1 5 2 3 3 4 4 2 6 1 7 60 8 61 9 62 10 63 11 64 12 65 13
REMARK SMILES IDX 70 14 66 15 69 16 67 17 68 18 7 19 8 20 9 21 10 22 11 24
REMARK SMILES IDX 12 25 13 26 59 27 14 28 58 29 15 30 16 31 17 32 52 33 18 34
REMARK SMILES IDX 57 35 51 36 53 37 19 38 56 39 50 40 49 41 20 43 42 44 27 45
REMARK SMILES IDX 41 46 28 47 31 48 40 49 54 50 29 51 30 52 39 54 55 55 32 56
REMARK SMILES IDX 21 57 22 58 26 59 23 60 25 61 24 62 43 63 44 64 48 65 45 66
REMARK SMILES IDX 47 67 46 68 33 69 34 70 38 71 35 72 37 73 36 74
REMARK H PARENT 5 5 9 23 53 42 31 53
REMARK Flexibility Score: inf
ROOT
ATOM      1  C   UNL A   1      36.150  20.465  25.022  1.00  0.00     0.117 C 
ENDROOT
BRANCH   1   2
ATOM      2  N   UNL A   1      34.938  19.675  24.906  1.00  0.00    -0.356 N 
ATOM      3  C   UNL A   1      33.628  20.047  24.881  1.00  0.00     0.223 C 
ATOM      4  O   UNL A   1      32.784  19.155  24.879  1.00  0.00    -0.275 OA
ATOM      5  H   UNL A   1      35.088  18.704  24.830  1.00  0.00     0.163 HD
BRANCH   3   6
ATOM      6  C   UNL A   1      33.254  21.528  24.879  1.00  0.00     0.086 C 
ATOM      7  C   UNL A   1      31.833  21.660  25.438  1.00  0.00     0.019 C 
BRANCH   6   8
ATOM      8  C   UNL A   1      33.368  22.128  23.458  1.00  0.00     0.070 C 
ATOM      9  C   UNL A   1      32.018  22.598  22.906  1.00  0.00     0.017 C 
BRANCH   8  10
ATOM     10  C   UNL A   1      34.389  23.263  23.282  1.00  0.00     0.166 C 
ATOM     11  O   UNL A   1      35.380  23.127  22.565  1.00  0.00    -0.294 OA
BRANCH  10  12
ATOM     12  C   UNL A   1      34.108  24.630  23.795  1.00  0.00     0.018 A 
ATOM     13  C   UNL A   1      33.779  25.615  22.853  1.00  0.00     0.013 A 
ATOM     14  C   UNL A   1      34.208  24.974  25.145  1.00  0.00     0.013 A 
ATOM     15  C   UNL A   1      33.510  26.924  23.262  1.00  0.00     0.016 A 
ATOM     16  C   UNL A   1      33.932  26.282  25.556  1.00  0.00     0.016 A 
ATOM     17  C   UNL A   1      33.579  27.248  24.615  1.00  0.00     0.018 A 
ATOM     18  Br  UNL A   1      33.213  29.015  25.178  1.00  0.00    -0.051 Br
ENDBRANCH  10  12
ENDBRANCH   8  10
ENDBRANCH   6   8
ENDBRANCH   3   6
ENDBRANCH   1   2
BRANCH   1  19
ATOM     19  C   UNL A   1      37.408  19.600  24.986  1.00  0.00     0.042 C 
BRANCH  19  20
ATOM     20  C   UNL A   1      38.677  20.291  25.483  1.00  0.00     0.118 C 
BRANCH  20  21
ATOM     21  N   UNL A   1      39.791  19.375  25.655  1.00  0.00    -0.352 N 
ATOM     22  C   UNL A   1      41.064  19.598  26.114  1.00  0.00     0.251 C 
ATOM     23  H   UNL A   1      39.602  18.443  25.399  1.00  0.00     0.163 HD
ATOM     24  O   UNL A   1      41.896  18.691  26.026  1.00  0.00    -0.269 OA
BRANCH  22  25
ATOM     25  C   UNL A   1      41.469  20.902  26.689  1.00  0.00     0.039 A 
ATOM     26  C   UNL A   1      41.885  21.910  25.814  1.00  0.00     0.014 A 
ATOM     27  C   UNL A   1      41.499  21.131  28.068  1.00  0.00     0.014 A 
ATOM     28  C   UNL A   1      42.278  23.154  26.311  1.00  0.00     0.010 A 
ATOM     29  C   UNL A   1      41.827  22.396  28.562  1.00  0.00     0.010 A 
ATOM     30  C   UNL A   1      42.225  23.419  27.690  1.00  0.00    -0.014 A 
BRANCH  30  31
ATOM     31  C   UNL A   1      42.574  24.765  28.210  1.00  0.00     0.031 A 
ATOM     32  C   UNL A   1      43.998  25.124  28.538  1.00  0.00     0.074 A 
ATOM     33  C   UNL A   1      41.596  25.671  28.411  1.00  0.00     0.049 A 
ATOM     34  N   UNL A   1      44.484  26.264  28.963  1.00  0.00    -0.248 NA
ATOM     35  C   UNL A   1      45.004  24.061  28.388  1.00  0.00     0.031 C 
ATOM     36  C   UNL A   1      40.168  25.439  28.183  1.00  0.00     0.029 A 
ATOM     37  N   UNL A   1      41.657  26.971  28.845  1.00  0.00    -0.354 N 
ATOM     38  C   UNL A   1      45.845  26.054  29.140  1.00  0.00     0.074 A 
ATOM     39  C   UNL A   1      46.102  24.665  28.820  1.00  0.00     0.031 C 
ATOM     40  C   UNL A   1      39.494  26.572  28.442  1.00  0.00     0.029 A 
ATOM     41  C   UNL A   1      40.435  27.597  28.877  1.00  0.00     0.049 A 
ATOM     42  H   UNL A   1      42.497  27.413  29.108  1.00  0.00     0.167 HD
ATOM     43  C   UNL A   1      46.801  26.937  29.516  1.00  0.00     0.031 A 
ATOM     44  C   UNL A   1      40.107  28.860  29.208  1.00  0.00     0.031 A 
ATOM     45  C   UNL A   1      46.557  28.320  29.825  1.00  0.00     0.049 A 
ATOM     46  C   UNL A   1      41.187  29.826  29.605  1.00  0.00     0.074 A 
ATOM     47  C   UNL A   1      47.471  29.305  30.158  1.00  0.00     0.029 A 
ATOM     48  N   UNL A   1      45.306  28.916  29.842  1.00  0.00    -0.354 N 
ATOM     49  N   UNL A   1      42.480  29.628  29.694  1.00  0.00    -0.248 NA
ATOM     50  C   UNL A   1      40.760  31.193  29.932  1.00  0.00     0.031 C 
ATOM     51  C   UNL A   1      46.768  30.488  30.416  1.00  0.00     0.029 A 
ATOM     52  C   UNL A   1      45.421  30.249  30.199  1.00  0.00     0.049 A 
ATOM     53  H   UNL A   1      44.460  28.459  29.630  1.00  0.00     0.167 HD
ATOM     54  C   UNL A   1      43.022  30.850  30.068  1.00  0.00     0.074 A 
ATOM     55  C   UNL A   1      41.922  31.786  30.170  1.00  0.00     0.031 C 
ATOM     56  C   UNL A   1      44.318  31.167  30.308  1.00  0.00     0.031 A 
BRANCH  43  57
ATOM     57  C   UNL A   1      48.211  26.425  29.614  1.00  0.00    -0.014 A 
ATOM     58  C   UNL A   1      49.082  26.488  28.514  1.00  0.00     0.009 A 
ATOM     59  C   UNL A   1      48.686  25.908  30.829  1.00  0.00     0.009 A 
ATOM     60  C   UNL A   1      50.390  26.010  28.620  1.00  0.00     0.001 A 
ATOM     61  C   UNL A   1      50.002  25.454  30.939  1.00  0.00     0.001 A 
ATOM     62  C   UNL A   1      50.849  25.497  29.832  1.00  0.00     0.000 A 
ENDBRANCH  43  57
BRANCH  44  63
ATOM     63  C   UNL A   1      38.691  29.298  29.143  1.00  0.00    -0.014 A 
ATOM     64  C   UNL A   1      38.162  29.816  27.950  1.00  0.00     0.009 A 
ATOM     65  C   UNL A   1      37.861  29.200  30.270  1.00  0.00     0.009 A 
ATOM     66  C   UNL A   1      36.836  30.249  27.895  1.00  0.00     0.001 A 
ATOM     67  C   UNL A   1      36.529  29.613  30.204  1.00  0.00     0.001 A 
ATOM     68  C   UNL A   1      36.020  30.144  29.019  1.00  0.00     0.000 A 
ENDBRANCH  44  63
BRANCH  56  69
ATOM     69  C   UNL A   1      44.611  32.591  30.685  1.00  0.00    -0.014 A 
ATOM     70  C   UNL A   1      44.870  33.561  29.705  1.00  0.00     0.009 A 
ATOM     71  C   UNL A   1      44.613  32.968  32.036  1.00  0.00     0.009 A 
ATOM     72  C   UNL A   1      45.163  34.876  30.075  1.00  0.00     0.001 A 
ATOM     73  C   UNL A   1      44.883  34.288  32.401  1.00  0.00     0.001 A 
ATOM     74  C   UNL A   1      45.167  35.238  31.421  1.00  0.00     0.000 A 
ENDBRANCH  56  69
ENDBRANCH  30  31
ENDBRANCH  22  25
ENDBRANCH  20  21
ENDBRANCH  19  20
ENDBRANCH   1  19
TORSDOF 13
ENDMDL
MODEL 2
REMARK VINA RESULT:     -10.6      4.805      9.455
REMARK SMILES C[C@@H](C(=O)NCCCNC(=O)c1ccc(-c2c3nc(c(-c4ccccc4)c4ccc([nH]4)c(-c4ccccc4)c4nc(c(-c5ccccc5)c5ccc2[nH]5)C=C4)C=C3)cc1)[C@@H](C)C(=O)c1ccc(Br)cc1
REMARK SMILES IDX 6 1 5 2 3 3 4 4 2 6 1 7 60 8 61 9 62 10 63 11 64 12 65 13
REMARK SMILES IDX 70 14 66 15 69 16 67 17 68 18 7 19 8 20 9 21 10 22 11 24
REMARK SMILES IDX 12 25 13 26 59 27 14 28 58 29 15 30 16 31 17 32 52 33 18 34
REMARK SMILES IDX 57 35 51 36 53 37 19 38 56 39 50 40 49 41 20 43 42 44 27 45
REMARK SMILES IDX 41 46 28 47 31 48 40 49 54 50 29 51 30 52 39 54 55 55 32 56
REMARK SMILES IDX 21 57 22 58 26 59 23 60 25 61 24 62 43 63 44 64 48 65 45 66
REMARK SMILES IDX 47 67 46 68 33 69 34 70 38 71 35 72 37 73 36 74
REMARK H PARENT 5 5 9 23 53 42 31 53
REMARK Flexibility Score: inf
ROOT
ATOM      1  C   UNL A   1      31.149  30.760  25.391  1.00  0.00     0.117 C 
ENDROOT
BRANCH   1   2
ATOM      2  N   UNL A   1      32.406  30.035  25.425  1.00  0.00    -0.356 N 
ATOM      3  C   UNL A   1      32.667  28.709  25.592  1.00  0.00     0.223 C 
ATOM      4  O   UNL A   1      33.844  28.370  25.686  1.00  0.00    -0.275 OA
ATOM      5  H   UNL A   1      33.206  30.598  25.305  1.00  0.00     0.163 HD
BRANCH   3   6
ATOM      6  C   UNL A   1      31.518  27.708  25.679  1.00  0.00     0.086 C 
ATOM      7  C   UNL A   1      31.858  26.685  26.769  1.00  0.00     0.019 C 
BRANCH   6   8
ATOM      8  C   UNL A   1      31.271  27.026  24.313  1.00  0.00     0.070 C 
ATOM      9  C   UNL A   1      31.659  25.544  24.314  1.00  0.00     0.017 C 
BRANCH   8  10
ATOM     10  C   UNL A   1      29.851  27.158  23.736  1.00  0.00     0.166 C 
ATOM     11  O   UNL A   1      28.966  26.354  24.026  1.00  0.00    -0.294 OA
BRANCH  10  12
ATOM     12  C   UNL A   1      29.442  28.375  22.986  1.00  0.00     0.018 A 
ATOM     13  C   UNL A   1      28.088  28.737  23.038  1.00  0.00     0.013 A 
ATOM     14  C   UNL A   1      30.325  29.124  22.206  1.00  0.00     0.013 A 
ATOM     15  C   UNL A   1      27.630  29.864  22.351  1.00  0.00     0.016 A 
ATOM     16  C   UNL A   1      29.870  30.256  21.523  1.00  0.00     0.016 A 
ATOM     17  C   UNL A   1      28.528  30.624  21.604  1.00  0.00     0.018 A 
ATOM     18  Br  UNL A   1      27.918  32.152  20.674  1.00  0.00    -0.051 Br
ENDBRANCH  10  12
ENDBRANCH   8  10
ENDBRANCH   6   8
ENDBRANCH   3   6
ENDBRANCH   1   2
BRANCH   1  19
ATOM     19  C   UNL A   1      31.057  31.808  26.498  1.00  0.00     0.042 C 
BRANCH  19  20
ATOM     20  C   UNL A   1      32.388  32.453  26.883  1.00  0.00     0.118 C 
BRANCH  20  21
ATOM     21  N   UNL A   1      32.236  33.803  27.397  1.00  0.00    -0.352 N 
ATOM     22  C   UNL A   1      32.980  34.494  28.319  1.00  0.00     0.251 C 
ATOM     23  H   UNL A   1      31.474  34.303  27.024  1.00  0.00     0.163 HD
ATOM     24  O   UNL A   1      32.567  35.586  28.720  1.00  0.00    -0.269 OA
BRANCH  22  25
ATOM     25  C   UNL A   1      34.249  33.953  28.860  1.00  0.00     0.039 A 
ATOM     26  C   UNL A   1      34.180  33.022  29.901  1.00  0.00     0.014 A 
ATOM     27  C   UNL A   1      35.498  34.385  28.404  1.00  0.00     0.014 A 
ATOM     28  C   UNL A   1      35.350  32.487  30.443  1.00  0.00     0.010 A 
ATOM     29  C   UNL A   1      36.666  33.801  28.899  1.00  0.00     0.010 A 
ATOM     30  C   UNL A   1      36.605  32.851  29.928  1.00  0.00    -0.014 A 
BRANCH  30  31
ATOM     31  C   UNL A   1      37.844  32.227  30.458  1.00  0.00     0.031 A 
ATOM     32  C   UNL A   1      38.510  32.758  31.699  1.00  0.00     0.074 A 
ATOM     33  C   UNL A   1      38.391  31.183  29.804  1.00  0.00     0.049 A 
ATOM     34  N   UNL A   1      39.572  32.310  32.320  1.00  0.00    -0.248 NA
ATOM     35  C   UNL A   1      37.918  33.958  32.310  1.00  0.00     0.031 C 
ATOM     36  C   UNL A   1      37.879  30.599  28.562  1.00  0.00     0.029 A 
ATOM     37  N   UNL A   1      39.495  30.422  30.098  1.00  0.00    -0.354 N 
ATOM     38  C   UNL A   1      39.781  33.175  33.386  1.00  0.00     0.074 A 
ATOM     39  C   UNL A   1      38.763  34.201  33.302  1.00  0.00     0.031 C 
ATOM     40  C   UNL A   1      38.644  29.549  28.223  1.00  0.00     0.029 A 
ATOM     41  C   UNL A   1      39.712  29.401  29.206  1.00  0.00     0.049 A 
ATOM     42  H   UNL A   1      40.075  30.592  30.875  1.00  0.00     0.167 HD
ATOM     43  C   UNL A   1      40.721  33.116  34.359  1.00  0.00     0.031 A 
ATOM     44  C   UNL A   1      40.657  28.444  29.185  1.00  0.00     0.031 A 
ATOM     45  C   UNL A   1      41.730  32.094  34.456  1.00  0.00     0.049 A 
ATOM     46  C   UNL A   1      41.679  28.388  30.285  1.00  0.00     0.074 A 
ATOM     47  C   UNL A   1      42.689  31.918  35.440  1.00  0.00     0.029 A 
ATOM     48  N   UNL A   1      41.914  31.076  33.535  1.00  0.00    -0.354 N 
ATOM     49  N   UNL A   1      41.815  29.172  31.326  1.00  0.00    -0.248 NA
ATOM     50  C   UNL A   1      42.668  27.303  30.210  1.00  0.00     0.031 C 
ATOM     51  C   UNL A   1      43.479  30.816  35.092  1.00  0.00     0.029 A 
ATOM     52  C   UNL A   1      42.981  30.280  33.915  1.00  0.00     0.049 A 
ATOM     53  H   UNL A   1      41.365  30.938  32.729  1.00  0.00     0.167 HD
ATOM     54  C   UNL A   1      42.891  28.664  32.041  1.00  0.00     0.074 A 
ATOM     55  C   UNL A   1      43.359  27.494  31.325  1.00  0.00     0.031 C 
ATOM     56  C   UNL A   1      43.444  29.127  33.189  1.00  0.00     0.031 A 
BRANCH  43  57
ATOM     57  C   UNL A   1      40.701  34.196  35.404  1.00  0.00    -0.014 A 
ATOM     58  C   UNL A   1      41.433  35.382  35.234  1.00  0.00     0.009 A 
ATOM     59  C   UNL A   1      39.914  34.041  36.556  1.00  0.00     0.009 A 
ATOM     60  C   UNL A   1      41.404  36.377  36.213  1.00  0.00     0.001 A 
ATOM     61  C   UNL A   1      39.868  35.049  37.522  1.00  0.00     0.001 A 
ATOM     62  C   UNL A   1      40.620  36.210  37.353  1.00  0.00     0.000 A 
ENDBRANCH  43  57
BRANCH  44  63
ATOM     63  C   UNL A   1      40.662  27.432  28.099  1.00  0.00    -0.014 A 
ATOM     64  C   UNL A   1      39.961  26.225  28.252  1.00  0.00     0.009 A 
ATOM     65  C   UNL A   1      41.364  27.666  26.908  1.00  0.00     0.009 A 
ATOM     66  C   UNL A   1      39.984  25.263  27.240  1.00  0.00     0.001 A 
ATOM     67  C   UNL A   1      41.365  26.711  25.889  1.00  0.00     0.001 A 
ATOM     68  C   UNL A   1      40.681  25.508  26.059  1.00  0.00     0.000 A 
ENDBRANCH  44  63
BRANCH  56  69
ATOM     69  C   UNL A   1      44.604  28.353  33.745  1.00  0.00    -0.014 A 
ATOM     70  C   UNL A   1      45.927  28.738  33.476  1.00  0.00     0.009 A 
ATOM     71  C   UNL A   1      44.371  27.235  34.560  1.00  0.00     0.009 A 
ATOM     72  C   UNL A   1      46.994  27.994  33.984  1.00  0.00     0.001 A 
ATOM     73  C   UNL A   1      45.440  26.507  35.085  1.00  0.00     0.001 A 
ATOM     74  C   UNL A   1      46.750  26.882  34.788  1.00  0.00     0.000 A 
ENDBRANCH  56  69
ENDBRANCH  30  31
ENDBRANCH  22  25
ENDBRANCH  20  21
ENDBRANCH  19  20
ENDBRANCH   1  19
TORSDOF 13
ENDMDL
MODEL 3
REMARK VINA RESULT:     -10.6      1.967      3.113
REMARK SMILES C[C@@H](C(=O)NCCCNC(=O)c1ccc(-c2c3nc(c(-c4ccccc4)c4ccc([nH]4)c(-c4ccccc4)c4nc(c(-c5ccccc5)c5ccc2[nH]5)C=C4)C=C3)cc1)[C@@H](C)C(=O)c1ccc(Br)cc1
REMARK SMILES IDX 6 1 5 2 3 3 4 4 2 6 1 7 60 8 61 9 62 10 63 11 64 12 65 13
REMARK SMILES IDX 70 14 66 15 69 16 67 17 68 18 7 19 8 20 9 21 10 22 11 24
REMARK SMILES IDX 12 25 13 26 59 27 14 28 58 29 15 30 16 31 17 32 52 33 18 34
REMARK SMILES IDX 57 35 51 36 53 37 19 38 56 39 50 40 49 41 20 43 42 44 27 45
REMARK SMILES IDX 41 46 28 47 31 48 40 49 54 50 29 51 30 52 39 54 55 55 32 56
REMARK SMILES IDX 21 57 22 58 26 59 23 60 25 61 24 62 43 63 44 64 48 65 45 66
REMARK SMILES IDX 47 67 46 68 33 69 34 70 38 71 35 72 37 73 36 74
REMARK H PARENT 5 5 9 23 53 42 31 53
REMARK Flexibility Score: inf
ROOT
ATOM      1  C   UNL A   1      36.534  20.441  24.632  1.00  0.00     0.117 C 
ENDROOT
BRANCH   1   2
ATOM      2  N   UNL A   1      35.929  21.085  25.784  1.00  0.00    -0.356 N 
ATOM      3  C   UNL A   1      35.034  22.108  25.868  1.00  0.00     0.223 C 
ATOM      4  O   UNL A   1      34.762  22.534  26.987  1.00  0.00    -0.275 OA
ATOM      5  H   UNL A   1      36.214  20.719  26.654  1.00  0.00     0.163 HD
BRANCH   3   6
ATOM      6  C   UNL A   1      34.424  22.697  24.598  1.00  0.00     0.086 C 
ATOM      7  C   UNL A   1      34.691  24.206  24.598  1.00  0.00     0.019 C 
BRANCH   6   8
ATOM      8  C   UNL A   1      32.913  22.383  24.509  1.00  0.00     0.070 C 
ATOM      9  C   UNL A   1      32.078  23.606  24.114  1.00  0.00     0.017 C 
BRANCH   8  10
ATOM     10  C   UNL A   1      32.516  21.208  23.601  1.00  0.00     0.166 C 
ATOM     11  O   UNL A   1      32.271  21.377  22.406  1.00  0.00    -0.294 OA
BRANCH  10  12
ATOM     12  C   UNL A   1      32.624  19.803  24.077  1.00  0.00     0.018 A 
ATOM     13  C   UNL A   1      32.620  18.793  23.105  1.00  0.00     0.013 A 
ATOM     14  C   UNL A   1      32.677  19.458  25.429  1.00  0.00     0.013 A 
ATOM     15  C   UNL A   1      32.711  17.450  23.481  1.00  0.00     0.016 A 
ATOM     16  C   UNL A   1      32.775  18.115  25.806  1.00  0.00     0.016 A 
ATOM     17  C   UNL A   1      32.797  17.119  24.831  1.00  0.00     0.018 A 
ATOM     18  Br  UNL A   1      32.923  15.305  25.348  1.00  0.00    -0.051 Br
ENDBRANCH  10  12
ENDBRANCH   8  10
ENDBRANCH   6   8
ENDBRANCH   3   6
ENDBRANCH   1   2
BRANCH   1  19
ATOM     19  C   UNL A   1      37.644  19.472  25.030  1.00  0.00     0.042 C 
BRANCH  19  20
ATOM     20  C   UNL A   1      38.822  20.110  25.764  1.00  0.00     0.118 C 
BRANCH  20  21
ATOM     21  N   UNL A   1      40.024  19.295  25.725  1.00  0.00    -0.352 N 
ATOM     22  C   UNL A   1      41.324  19.612  26.024  1.00  0.00     0.251 C 
ATOM     23  H   UNL A   1      39.882  18.365  25.437  1.00  0.00     0.163 HD
ATOM     24  O   UNL A   1      42.211  18.793  25.766  1.00  0.00    -0.269 OA
BRANCH  22  25
ATOM     25  C   UNL A   1      41.692  20.916  26.623  1.00  0.00     0.039 A 
ATOM     26  C   UNL A   1      42.128  21.936  25.771  1.00  0.00     0.014 A 
ATOM     27  C   UNL A   1      41.669  21.135  28.004  1.00  0.00     0.014 A 
ATOM     28  C   UNL A   1      42.487  23.180  26.292  1.00  0.00     0.010 A 
ATOM     29  C   UNL A   1      41.963  22.400  28.519  1.00  0.00     0.010 A 
ATOM     30  C   UNL A   1      42.381  23.434  27.669  1.00  0.00    -0.014 A 
BRANCH  30  31
ATOM     31  C   UNL A   1      42.694  24.780  28.213  1.00  0.00     0.031 A 
ATOM     32  C   UNL A   1      44.104  25.160  28.577  1.00  0.00     0.074 A 
ATOM     33  C   UNL A   1      41.696  25.667  28.400  1.00  0.00     0.049 A 
ATOM     34  N   UNL A   1      44.559  26.303  29.026  1.00  0.00    -0.248 NA
ATOM     35  C   UNL A   1      45.131  24.116  28.439  1.00  0.00     0.031 C 
ATOM     36  C   UNL A   1      40.277  25.413  28.136  1.00  0.00     0.029 A 
ATOM     37  N   UNL A   1      41.724  26.963  28.849  1.00  0.00    -0.354 N 
ATOM     38  C   UNL A   1      45.920  26.114  29.232  1.00  0.00     0.074 A 
ATOM     39  C   UNL A   1      46.208  24.734  28.903  1.00  0.00     0.031 C 
ATOM     40  C   UNL A   1      39.578  26.531  28.392  1.00  0.00     0.029 A 
ATOM     41  C   UNL A   1      40.491  27.567  28.860  1.00  0.00     0.049 A 
ATOM     42  H   UNL A   1      42.550  27.416  29.136  1.00  0.00     0.167 HD
ATOM     43  C   UNL A   1      46.851  27.009  29.639  1.00  0.00     0.031 A 
ATOM     44  C   UNL A   1      40.134  28.821  29.196  1.00  0.00     0.031 A 
ATOM     45  C   UNL A   1      46.575  28.385  29.958  1.00  0.00     0.049 A 
ATOM     46  C   UNL A   1      41.187  29.800  29.629  1.00  0.00     0.074 A 
ATOM     47  C   UNL A   1      47.464  29.382  30.323  1.00  0.00     0.029 A 
ATOM     48  N   UNL A   1      45.314  28.959  29.952  1.00  0.00    -0.354 N 
ATOM     49  N   UNL A   1      42.480  29.623  29.747  1.00  0.00    -0.248 NA
ATOM     50  C   UNL A   1      40.728  31.156  29.961  1.00  0.00     0.031 C 
ATOM     51  C   UNL A   1      46.735  30.550  30.578  1.00  0.00     0.029 A 
ATOM     52  C   UNL A   1      45.398  30.290  30.326  1.00  0.00     0.049 A 
ATOM     53  H   UNL A   1      44.481  28.489  29.716  1.00  0.00     0.167 HD
ATOM     54  C   UNL A   1      42.993  30.850  30.146  1.00  0.00     0.074 A 
ATOM     55  C   UNL A   1      41.874  31.767  30.232  1.00  0.00     0.031 C 
ATOM     56  C   UNL A   1      44.276  31.187  30.419  1.00  0.00     0.031 A 
BRANCH  43  57
ATOM     57  C   UNL A   1      48.267  26.521  29.765  1.00  0.00    -0.014 A 
ATOM     58  C   UNL A   1      49.174  26.648  28.700  1.00  0.00     0.009 A 
ATOM     59  C   UNL A   1      48.711  25.961  30.972  1.00  0.00     0.009 A 
ATOM     60  C   UNL A   1      50.486  26.191  28.831  1.00  0.00     0.001 A 
ATOM     61  C   UNL A   1      50.031  25.527  31.109  1.00  0.00     0.001 A 
ATOM     62  C   UNL A   1      50.914  25.635  30.036  1.00  0.00     0.000 A 
ENDBRANCH  43  57
BRANCH  44  63
ATOM     63  C   UNL A   1      38.711  29.234  29.103  1.00  0.00    -0.014 A 
ATOM     64  C   UNL A   1      37.872  29.146  30.225  1.00  0.00     0.009 A 
ATOM     65  C   UNL A   1      38.186  29.720  27.896  1.00  0.00     0.009 A 
ATOM     66  C   UNL A   1      36.528  29.513  30.132  1.00  0.00     0.001 A 
ATOM     67  C   UNL A   1      36.848  30.109  27.814  1.00  0.00     0.001 A 
ATOM     68  C   UNL A   1      36.018  29.997  28.930  1.00  0.00     0.000 A 
ENDBRANCH  44  63
BRANCH  56  69
ATOM     69  C   UNL A   1      44.536  32.611  30.819  1.00  0.00    -0.014 A 
ATOM     70  C   UNL A   1      44.483  33.006  32.165  1.00  0.00     0.009 A 
ATOM     71  C   UNL A   1      44.851  33.564  29.839  1.00  0.00     0.009 A 
ATOM     72  C   UNL A   1      44.704  34.340  32.516  1.00  0.00     0.001 A 
ATOM     73  C   UNL A   1      45.095  34.891  30.197  1.00  0.00     0.001 A 
ATOM     74  C   UNL A   1      45.012  35.279  31.533  1.00  0.00     0.000 A 
ENDBRANCH  56  69
ENDBRANCH  30  31
ENDBRANCH  22  25
ENDBRANCH  20  21
ENDBRANCH  19  20
ENDBRANCH   1  19
TORSDOF 13
ENDMDL
