MODEL 1
REMARK VINA RESULT:     -10.1      0.000      0.000
REMARK SMILES N#CCCNC(=O)COc1ccc(C(=O)NCCCNC(=O)c2ccc(-c3c4nc(c(-c5ccccc5)c5ccc([nH]5)c(-c5ccccc5)c5nc(c(-c6ccccc6)c6ccc3[nH]6)C=C5)C=C4)cc2)nc1
REMARK SMILES IDX 14 1 15 2 16 3 13 5 10 6 11 7 72 8 12 9 71 10 9 11 8 12 6 13
REMARK SMILES IDX 5 14 7 16 4 17 3 18 2 19 1 20 17 21 18 22 19 23 20 24 21 25
REMARK SMILES IDX 22 27 23 28 24 29 70 30 25 31 69 32 26 33 27 34 28 35 63 36
REMARK SMILES IDX 29 37 68 38 62 39 64 40 30 41 67 42 61 43 60 44 31 46 53 47
REMARK SMILES IDX 38 48 52 49 39 50 42 51 51 52 65 53 40 54 41 55 50 57 66 58
REMARK SMILES IDX 43 59 32 60 33 61 37 62 34 63 36 64 35 65 54 66 55 67 59 68
REMARK SMILES IDX 56 69 58 70 57 71 44 72 45 73 49 74 46 75 48 76 47 77
REMARK H PARENT 16 4 5 15 20 26 64 45 42 56
REMARK Flexibility Score: inf
ROOT
ATOM      1  C   UNL A   1      30.992  26.221  25.904  1.00  0.00     0.269 C 
ATOM      2  O   UNL A   1      30.100  26.096  26.743  1.00  0.00    -0.268 OA
ATOM      3  N   UNL A   1      31.455  27.501  25.673  1.00  0.00    -0.351 N 
ATOM      4  H   UNL A   1      30.966  28.198  26.165  1.00  0.00     0.163 HD
ENDROOT
BRANCH   1   5
ATOM      5  C   UNL A   1      31.534  25.016  25.190  1.00  0.00     0.128 A 
ATOM      6  C   UNL A   1      32.625  22.794  23.976  1.00  0.00     0.138 A 
ATOM      7  C   UNL A   1      31.451  23.340  23.483  1.00  0.00     0.050 A 
ATOM      8  C   UNL A   1      33.185  23.383  25.097  1.00  0.00     0.158 A 
ATOM      9  C   UNL A   1      30.877  24.431  24.120  1.00  0.00     0.038 A 
ATOM     10  N   UNL A   1      32.682  24.492  25.696  1.00  0.00    -0.247 NA
BRANCH   6  11
ATOM     11  O   UNL A   1      33.140  21.631  23.487  1.00  0.00    -0.482 OA
BRANCH  11  12
ATOM     12  C   UNL A   1      32.849  20.501  24.303  1.00  0.00     0.329 C 
BRANCH  12  13
ATOM     13  C   UNL A   1      34.021  19.659  24.822  1.00  0.00     0.257 C 
ATOM     14  N   UNL A   1      33.801  18.406  25.324  1.00  0.00    -0.352 N 
ATOM     15  H   UNL A   1      34.606  17.926  25.625  1.00  0.00     0.163 HD
ATOM     16  O   UNL A   1      35.175  20.089  24.809  1.00  0.00    -0.271 OA
BRANCH  14  17
ATOM     17  C   UNL A   1      32.549  17.679  25.478  1.00  0.00     0.131 C 
BRANCH  17  18
ATOM     18  C   UNL A   1      32.700  16.159  25.374  1.00  0.00     0.141 C 
BRANCH  18  19
ATOM     19  C   UNL A   1      34.167  15.767  25.320  1.00  0.00     0.064 C 
ATOM     20  N   UNL A   1      35.385  15.441  25.275  1.00  0.00    -0.198 NA
ENDBRANCH  18  19
ENDBRANCH  17  18
ENDBRANCH  14  17
ENDBRANCH  12  13
ENDBRANCH  11  12
ENDBRANCH   6  11
ENDBRANCH   1   5
BRANCH   3  21
ATOM     21  C   UNL A   1      32.529  28.013  24.837  1.00  0.00     0.118 C 
BRANCH  21  22
ATOM     22  C   UNL A   1      33.874  27.971  25.564  1.00  0.00     0.042 C 
BRANCH  22  23
ATOM     23  C   UNL A   1      33.769  28.264  27.057  1.00  0.00     0.118 C 
BRANCH  23  24
ATOM     24  N   UNL A   1      33.648  29.690  27.320  1.00  0.00    -0.352 N 
ATOM     25  C   UNL A   1      34.511  30.549  27.952  1.00  0.00     0.251 C 
ATOM     26  H   UNL A   1      32.816  30.103  26.994  1.00  0.00     0.163 HD
ATOM     27  O   UNL A   1      34.121  31.668  28.273  1.00  0.00    -0.269 OA
BRANCH  25  28
ATOM     28  C   UNL A   1      35.899  30.141  28.258  1.00  0.00     0.039 A 
ATOM     29  C   UNL A   1      36.201  29.706  29.553  1.00  0.00     0.014 A 
ATOM     30  C   UNL A   1      36.913  30.232  27.299  1.00  0.00     0.014 A 
ATOM     31  C   UNL A   1      37.503  29.311  29.869  1.00  0.00     0.010 A 
ATOM     32  C   UNL A   1      38.193  29.772  27.596  1.00  0.00     0.010 A 
ATOM     33  C   UNL A   1      38.503  29.311  28.884  1.00  0.00    -0.014 A 
BRANCH  33  34
ATOM     34  C   UNL A   1      39.874  28.824  29.176  1.00  0.00     0.031 A 
ATOM     35  C   UNL A   1      40.883  29.734  29.818  1.00  0.00     0.074 A 
ATOM     36  C   UNL A   1      40.231  27.583  28.792  1.00  0.00     0.049 A 
ATOM     37  N   UNL A   1      42.150  29.516  30.068  1.00  0.00    -0.248 NA
ATOM     38  C   UNL A   1      40.414  31.074  30.209  1.00  0.00     0.031 C 
ATOM     39  C   UNL A   1      39.355  26.614  28.130  1.00  0.00     0.029 A 
ATOM     40  N   UNL A   1      41.433  26.929  28.893  1.00  0.00    -0.354 N 
ATOM     41  C   UNL A   1      42.633  30.694  30.625  1.00  0.00     0.074 A 
ATOM     42  C   UNL A   1      41.535  31.637  30.638  1.00  0.00     0.031 C 
ATOM     43  C   UNL A   1      40.042  25.485  27.901  1.00  0.00     0.029 A 
ATOM     44  C   UNL A   1      41.416  25.662  28.360  1.00  0.00     0.049 A 
ATOM     45  H   UNL A   1      42.231  27.328  29.309  1.00  0.00     0.167 HD
ATOM     46  C   UNL A   1      43.874  30.962  31.097  1.00  0.00     0.031 A 
ATOM     47  C   UNL A   1      42.399  24.751  28.240  1.00  0.00     0.031 A 
ATOM     48  C   UNL A   1      44.962  30.021  31.093  1.00  0.00     0.049 A 
ATOM     49  C   UNL A   1      43.773  25.080  28.752  1.00  0.00     0.074 A 
ATOM     50  C   UNL A   1      46.239  30.177  31.603  1.00  0.00     0.029 A 
ATOM     51  N   UNL A   1      44.901  28.748  30.548  1.00  0.00    -0.354 N 
ATOM     52  N   UNL A   1      44.196  26.176  29.335  1.00  0.00    -0.248 NA
ATOM     53  C   UNL A   1      44.803  24.044  28.594  1.00  0.00     0.031 C 
ATOM     54  C   UNL A   1      46.967  29.017  31.321  1.00  0.00     0.029 A 
ATOM     55  C   UNL A   1      46.127  28.118  30.684  1.00  0.00     0.049 A 
ATOM     56  H   UNL A   1      44.104  28.351  30.128  1.00  0.00     0.167 HD
ATOM     57  C   UNL A   1      45.533  25.953  29.633  1.00  0.00     0.074 A 
ATOM     58  C   UNL A   1      45.846  24.613  29.183  1.00  0.00     0.031 C 
ATOM     59  C   UNL A   1      46.423  26.786  30.227  1.00  0.00     0.031 A 
BRANCH  46  60
ATOM     60  C   UNL A   1      44.123  32.339  31.648  1.00  0.00    -0.014 A 
ATOM     61  C   UNL A   1      44.546  33.390  30.819  1.00  0.00     0.009 A 
ATOM     62  C   UNL A   1      43.895  32.598  33.009  1.00  0.00     0.009 A 
ATOM     63  C   UNL A   1      44.772  34.663  31.349  1.00  0.00     0.001 A 
ATOM     64  C   UNL A   1      44.094  33.878  33.530  1.00  0.00     0.001 A 
ATOM     65  C   UNL A   1      44.542  34.907  32.702  1.00  0.00     0.000 A 
ENDBRANCH  46  60
BRANCH  47  66
ATOM     66  C   UNL A   1      42.118  23.435  27.610  1.00  0.00    -0.014 A 
ATOM     67  C   UNL A   1      42.418  23.216  26.256  1.00  0.00     0.009 A 
ATOM     68  C   UNL A   1      41.550  22.390  28.357  1.00  0.00     0.009 A 
ATOM     69  C   UNL A   1      42.135  21.986  25.659  1.00  0.00     0.001 A 
ATOM     70  C   UNL A   1      41.296  21.153  27.764  1.00  0.00     0.001 A 
ATOM     71  C   UNL A   1      41.580  20.954  26.414  1.00  0.00     0.000 A 
ENDBRANCH  47  66
BRANCH  59  72
ATOM     72  C   UNL A   1      47.812  26.260  30.446  1.00  0.00    -0.014 A 
ATOM     73  C   UNL A   1      48.776  26.308  29.427  1.00  0.00     0.009 A 
ATOM     74  C   UNL A   1      48.174  25.752  31.704  1.00  0.00     0.009 A 
ATOM     75  C   UNL A   1      50.068  25.830  29.657  1.00  0.00     0.001 A 
ATOM     76  C   UNL A   1      49.473  25.301  31.938  1.00  0.00     0.001 A 
ATOM     77  C   UNL A   1      50.417  25.333  30.912  1.00  0.00     0.000 A 
ENDBRANCH  59  72
ENDBRANCH  33  34
ENDBRANCH  25  28
ENDBRANCH  23  24
ENDBRANCH  22  23
ENDBRANCH  21  22
ENDBRANCH   3  21
TORSDOF 16
ENDMDL
MODEL 2
REMARK VINA RESULT:     -10.1      2.653      7.837
REMARK SMILES N#CCCNC(=O)COc1ccc(C(=O)NCCCNC(=O)c2ccc(-c3c4nc(c(-c5ccccc5)c5ccc([nH]5)c(-c5ccccc5)c5nc(c(-c6ccccc6)c6ccc3[nH]6)C=C5)C=C4)cc2)nc1
REMARK SMILES IDX 14 1 15 2 16 3 13 5 10 6 11 7 72 8 12 9 71 10 9 11 8 12 6 13
REMARK SMILES IDX 5 14 7 16 4 17 3 18 2 19 1 20 17 21 18 22 19 23 20 24 21 25
REMARK SMILES IDX 22 27 23 28 24 29 70 30 25 31 69 32 26 33 27 34 28 35 63 36
REMARK SMILES IDX 29 37 68 38 62 39 64 40 30 41 67 42 61 43 60 44 31 46 53 47
REMARK SMILES IDX 38 48 52 49 39 50 42 51 51 52 65 53 40 54 41 55 50 57 66 58
REMARK SMILES IDX 43 59 32 60 33 61 37 62 34 63 36 64 35 65 54 66 55 67 59 68
REMARK SMILES IDX 56 69 58 70 57 71 44 72 45 73 49 74 46 75 48 76 47 77
REMARK H PARENT 16 4 5 15 20 26 64 45 42 56
REMARK Flexibility Score: inf
ROOT
ATOM      1  C   UNL A   1      37.454  23.434  25.682  1.00  0.00     0.269 C 
ATOM      2  O   UNL A   1      38.252  24.273  26.102  1.00  0.00    -0.268 OA
ATOM      3  N   UNL A   1      37.986  22.331  25.047  1.00  0.00    -0.351 N 
ATOM      4  H   UNL A   1      38.963  22.365  24.936  1.00  0.00     0.163 HD
ENDROOT
BRANCH   1   5
ATOM      5  C   UNL A   1      35.977  23.632  25.877  1.00  0.00     0.128 A 
ATOM      6  C   UNL A   1      33.274  23.907  26.342  1.00  0.00     0.138 A 
ATOM      7  C   UNL A   1      33.887  24.680  25.369  1.00  0.00     0.050 A 
ATOM      8  C   UNL A   1      34.072  23.041  27.070  1.00  0.00     0.158 A 
ATOM      9  C   UNL A   1      35.255  24.574  25.165  1.00  0.00     0.038 A 
ATOM     10  N   UNL A   1      35.398  22.868  26.843  1.00  0.00    -0.247 NA
BRANCH   6  11
ATOM     11  O   UNL A   1      31.969  24.088  26.690  1.00  0.00    -0.482 OA
BRANCH  11  12
ATOM     12  C   UNL A   1      31.462  25.366  26.319  1.00  0.00     0.329 C 
BRANCH  12  13
ATOM     13  C   UNL A   1      29.986  25.473  25.917  1.00  0.00     0.257 C 
ATOM     14  N   UNL A   1      29.642  25.864  24.652  1.00  0.00    -0.352 N 
ATOM     15  H   UNL A   1      28.676  25.896  24.469  1.00  0.00     0.163 HD
ATOM     16  O   UNL A   1      29.083  25.223  26.717  1.00  0.00    -0.271 OA
BRANCH  14  17
ATOM     17  C   UNL A   1      30.500  26.239  23.537  1.00  0.00     0.131 C 
BRANCH  17  18
ATOM     18  C   UNL A   1      31.142  25.046  22.824  1.00  0.00     0.141 C 
BRANCH  18  19
ATOM     19  C   UNL A   1      32.420  25.466  22.116  1.00  0.00     0.064 C 
ATOM     20  N   UNL A   1      33.480  25.815  21.529  1.00  0.00    -0.198 NA
ENDBRANCH  18  19
ENDBRANCH  17  18
ENDBRANCH  14  17
ENDBRANCH  12  13
ENDBRANCH  11  12
ENDBRANCH   6  11
ENDBRANCH   1   5
BRANCH   3  21
ATOM     21  C   UNL A   1      37.374  21.126  24.510  1.00  0.00     0.118 C 
BRANCH  21  22
ATOM     22  C   UNL A   1      38.171  19.876  24.884  1.00  0.00     0.042 C 
BRANCH  22  23
ATOM     23  C   UNL A   1      39.159  20.103  26.024  1.00  0.00     0.118 C 
BRANCH  23  24
ATOM     24  N   UNL A   1      40.330  19.250  25.903  1.00  0.00    -0.352 N 
ATOM     25  C   UNL A   1      41.664  19.557  26.002  1.00  0.00     0.251 C 
ATOM     26  H   UNL A   1      40.136  18.301  25.721  1.00  0.00     0.163 HD
ATOM     27  O   UNL A   1      42.501  18.736  25.641  1.00  0.00    -0.269 OA
BRANCH  25  28
ATOM     28  C   UNL A   1      42.102  20.868  26.528  1.00  0.00     0.039 A 
ATOM     29  C   UNL A   1      42.537  21.843  25.624  1.00  0.00     0.014 A 
ATOM     30  C   UNL A   1      42.137  21.126  27.902  1.00  0.00     0.014 A 
ATOM     31  C   UNL A   1      42.954  23.091  26.093  1.00  0.00     0.010 A 
ATOM     32  C   UNL A   1      42.486  22.393  28.362  1.00  0.00     0.010 A 
ATOM     33  C   UNL A   1      42.901  23.387  27.464  1.00  0.00    -0.014 A 
BRANCH  33  34
ATOM     34  C   UNL A   1      43.266  24.731  27.977  1.00  0.00     0.031 A 
ATOM     35  C   UNL A   1      42.201  25.757  28.244  1.00  0.00     0.074 A 
ATOM     36  C   UNL A   1      44.566  25.051  28.129  1.00  0.00     0.049 A 
ATOM     37  N   UNL A   1      42.333  27.008  28.608  1.00  0.00    -0.248 NA
ATOM     38  C   UNL A   1      40.805  25.330  28.055  1.00  0.00     0.031 C 
ATOM     39  C   UNL A   1      45.695  24.156  27.872  1.00  0.00     0.029 A 
ATOM     40  N   UNL A   1      45.155  26.224  28.527  1.00  0.00    -0.354 N 
ATOM     41  C   UNL A   1      41.043  27.522  28.671  1.00  0.00     0.074 A 
ATOM     42  C   UNL A   1      40.145  26.460  28.268  1.00  0.00     0.031 C 
ATOM     43  C   UNL A   1      46.840  24.805  28.136  1.00  0.00     0.029 A 
ATOM     44  C   UNL A   1      46.528  26.172  28.539  1.00  0.00     0.049 A 
ATOM     45  H   UNL A   1      44.644  27.026  28.781  1.00  0.00     0.167 HD
ATOM     46  C   UNL A   1      40.640  28.759  29.045  1.00  0.00     0.031 A 
ATOM     47  C   UNL A   1      47.436  27.123  28.827  1.00  0.00     0.031 A 
ATOM     48  C   UNL A   1      41.532  29.811  29.455  1.00  0.00     0.049 A 
ATOM     49  C   UNL A   1      46.965  28.495  29.219  1.00  0.00     0.074 A 
ATOM     50  C   UNL A   1      41.218  31.080  29.910  1.00  0.00     0.029 A 
ATOM     51  N   UNL A   1      42.915  29.715  29.457  1.00  0.00    -0.354 N 
ATOM     52  N   UNL A   1      45.739  28.944  29.336  1.00  0.00    -0.248 NA
ATOM     53  C   UNL A   1      48.004  29.489  29.524  1.00  0.00     0.031 C 
ATOM     54  C   UNL A   1      42.412  31.770  30.139  1.00  0.00     0.029 A 
ATOM     55  C   UNL A   1      43.469  30.913  29.879  1.00  0.00     0.049 A 
ATOM     56  H   UNL A   1      43.427  28.915  29.199  1.00  0.00     0.167 HD
ATOM     57  C   UNL A   1      45.858  30.265  29.748  1.00  0.00     0.074 A 
ATOM     58  C   UNL A   1      47.274  30.538  29.878  1.00  0.00     0.031 C 
ATOM     59  C   UNL A   1      44.881  31.169  29.998  1.00  0.00     0.031 A 
BRANCH  46  60
ATOM     60  C   UNL A   1      39.164  29.047  29.015  1.00  0.00    -0.014 A 
ATOM     61  C   UNL A   1      38.359  28.842  30.147  1.00  0.00     0.009 A 
ATOM     62  C   UNL A   1      38.577  29.564  27.850  1.00  0.00     0.009 A 
ATOM     63  C   UNL A   1      36.990  29.115  30.101  1.00  0.00     0.001 A 
ATOM     64  C   UNL A   1      37.214  29.864  27.815  1.00  0.00     0.001 A 
ATOM     65  C   UNL A   1      36.420  29.630  28.937  1.00  0.00     0.000 A 
ENDBRANCH  46  60
BRANCH  47  66
ATOM     66  C   UNL A   1      48.887  26.808  28.760  1.00  0.00    -0.014 A 
ATOM     67  C   UNL A   1      49.592  26.959  27.555  1.00  0.00     0.009 A 
ATOM     68  C   UNL A   1      49.575  26.358  29.897  1.00  0.00     0.009 A 
ATOM     69  C   UNL A   1      50.950  26.643  27.486  1.00  0.00     0.001 A 
ATOM     70  C   UNL A   1      50.940  26.071  29.832  1.00  0.00     0.001 A 
ATOM     71  C   UNL A   1      51.625  26.206  28.625  1.00  0.00     0.000 A 
ENDBRANCH  47  66
BRANCH  59  72
ATOM     72  C   UNL A   1      45.310  32.532  30.460  1.00  0.00    -0.014 A 
ATOM     73  C   UNL A   1      45.512  32.808  31.821  1.00  0.00     0.009 A 
ATOM     74  C   UNL A   1      45.557  33.541  29.516  1.00  0.00     0.009 A 
ATOM     75  C   UNL A   1      45.928  34.077  32.229  1.00  0.00     0.001 A 
ATOM     76  C   UNL A   1      46.000  34.800  29.924  1.00  0.00     0.001 A 
ATOM     77  C   UNL A   1      46.176  35.069  31.281  1.00  0.00     0.000 A 
ENDBRANCH  59  72
ENDBRANCH  33  34
ENDBRANCH  25  28
ENDBRANCH  23  24
ENDBRANCH  22  23
ENDBRANCH  21  22
ENDBRANCH   3  21
TORSDOF 16
ENDMDL
MODEL 3
REMARK VINA RESULT:     -10.0      1.695      7.923
REMARK SMILES N#CCCNC(=O)COc1ccc(C(=O)NCCCNC(=O)c2ccc(-c3c4nc(c(-c5ccccc5)c5ccc([nH]5)c(-c5ccccc5)c5nc(c(-c6ccccc6)c6ccc3[nH]6)C=C5)C=C4)cc2)nc1
REMARK SMILES IDX 14 1 15 2 16 3 13 5 10 6 11 7 72 8 12 9 71 10 9 11 8 12 6 13
REMARK SMILES IDX 5 14 7 16 4 17 3 18 2 19 1 20 17 21 18 22 19 23 20 24 21 25
REMARK SMILES IDX 22 27 23 28 24 29 70 30 25 31 69 32 26 33 27 34 28 35 63 36
REMARK SMILES IDX 29 37 68 38 62 39 64 40 30 41 67 42 61 43 60 44 31 46 53 47
REMARK SMILES IDX 38 48 52 49 39 50 42 51 51 52 65 53 40 54 41 55 50 57 66 58
REMARK SMILES IDX 43 59 32 60 33 61 37 62 34 63 36 64 35 65 54 66 55 67 59 68
REMARK SMILES IDX 56 69 58 70 57 71 44 72 45 73 49 74 46 75 48 76 47 77
REMARK H PARENT 16 4 5 15 20 26 64 45 42 56
REMARK Flexibility Score: inf
ROOT
ATOM      1  C   UNL A   1      33.738  19.525  25.174  1.00  0.00     0.269 C 
ATOM      2  O   UNL A   1      33.023  18.556  24.917  1.00  0.00    -0.268 OA
ATOM      3  N   UNL A   1      35.085  19.394  24.905  1.00  0.00    -0.351 N 
ATOM      4  H   UNL A   1      35.346  18.498  24.593  1.00  0.00     0.163 HD
ENDROOT
BRANCH   1   5
ATOM      5  C   UNL A   1      33.137  20.778  25.745  1.00  0.00     0.128 A 
ATOM      6  C   UNL A   1      31.926  23.059  26.708  1.00  0.00     0.138 A 
ATOM      7  C   UNL A   1      33.100  22.608  27.287  1.00  0.00     0.050 A 
ATOM      8  C   UNL A   1      31.390  22.309  25.675  1.00  0.00     0.158 A 
ATOM      9  C   UNL A   1      33.687  21.435  26.833  1.00  0.00     0.038 A 
ATOM     10  N   UNL A   1      31.980  21.199  25.166  1.00  0.00    -0.247 NA
BRANCH   6  11
ATOM     11  O   UNL A   1      31.228  24.111  27.221  1.00  0.00    -0.482 OA
BRANCH  11  12
ATOM     12  C   UNL A   1      30.881  25.086  26.243  1.00  0.00     0.329 C 
BRANCH  12  13
ATOM     13  C   UNL A   1      31.497  26.486  26.361  1.00  0.00     0.257 C 
ATOM     14  N   UNL A   1      32.540  26.851  25.555  1.00  0.00    -0.352 N 
ATOM     15  H   UNL A   1      32.870  27.769  25.684  1.00  0.00     0.163 HD
ATOM     16  O   UNL A   1      31.079  27.303  27.182  1.00  0.00    -0.271 OA
BRANCH  14  17
ATOM     17  C   UNL A   1      33.232  26.077  24.533  1.00  0.00     0.131 C 
BRANCH  17  18
ATOM     18  C   UNL A   1      33.352  26.799  23.188  1.00  0.00     0.141 C 
BRANCH  18  19
ATOM     19  C   UNL A   1      31.978  27.053  22.590  1.00  0.00     0.064 C 
ATOM     20  N   UNL A   1      30.838  27.264  22.094  1.00  0.00    -0.198 NA
ENDBRANCH  18  19
ENDBRANCH  17  18
ENDBRANCH  14  17
ENDBRANCH  12  13
ENDBRANCH  11  12
ENDBRANCH   6  11
ENDBRANCH   1   5
BRANCH   3  21
ATOM     21  C   UNL A   1      36.193  20.332  24.997  1.00  0.00     0.118 C 
BRANCH  21  22
ATOM     22  C   UNL A   1      37.539  19.629  24.815  1.00  0.00     0.042 C 
BRANCH  22  23
ATOM     23  C   UNL A   1      38.671  20.264  25.616  1.00  0.00     0.118 C 
BRANCH  23  24
ATOM     24  N   UNL A   1      39.810  19.370  25.746  1.00  0.00    -0.352 N 
ATOM     25  C   UNL A   1      41.117  19.641  26.063  1.00  0.00     0.251 C 
ATOM     26  H   UNL A   1      39.612  18.419  25.580  1.00  0.00     0.163 HD
ATOM     27  O   UNL A   1      41.971  18.775  25.897  1.00  0.00    -0.269 OA
BRANCH  25  28
ATOM     28  C   UNL A   1      41.509  20.966  26.592  1.00  0.00     0.039 A 
ATOM     29  C   UNL A   1      42.041  21.911  25.708  1.00  0.00     0.014 A 
ATOM     30  C   UNL A   1      41.407  21.265  27.954  1.00  0.00     0.014 A 
ATOM     31  C   UNL A   1      42.417  23.171  26.180  1.00  0.00     0.010 A 
ATOM     32  C   UNL A   1      41.717  22.544  28.410  1.00  0.00     0.010 A 
ATOM     33  C   UNL A   1      42.227  23.508  27.529  1.00  0.00    -0.014 A 
BRANCH  33  34
ATOM     34  C   UNL A   1      42.548  24.865  28.037  1.00  0.00     0.031 A 
ATOM     35  C   UNL A   1      43.947  25.204  28.469  1.00  0.00     0.074 A 
ATOM     36  C   UNL A   1      41.559  25.769  28.180  1.00  0.00     0.049 A 
ATOM     37  N   UNL A   1      44.397  26.304  29.020  1.00  0.00    -0.248 NA
ATOM     38  C   UNL A   1      44.971  24.163  28.280  1.00  0.00     0.031 C 
ATOM     39  C   UNL A   1      40.154  25.553  27.829  1.00  0.00     0.029 A 
ATOM     40  N   UNL A   1      41.585  27.050  28.672  1.00  0.00    -0.354 N 
ATOM     41  C   UNL A   1      45.748  26.080  29.262  1.00  0.00     0.074 A 
ATOM     42  C   UNL A   1      46.034  24.727  28.836  1.00  0.00     0.031 C 
ATOM     43  C   UNL A   1      39.457  26.667  28.098  1.00  0.00     0.029 A 
ATOM     44  C   UNL A   1      40.354  27.660  28.679  1.00  0.00     0.049 A 
ATOM     45  H   UNL A   1      42.407  27.490  28.987  1.00  0.00     0.167 HD
ATOM     46  C   UNL A   1      46.669  26.928  29.777  1.00  0.00     0.031 A 
ATOM     47  C   UNL A   1      39.984  28.877  29.119  1.00  0.00     0.031 A 
ATOM     48  C   UNL A   1      46.385  28.277  30.190  1.00  0.00     0.049 A 
ATOM     49  C   UNL A   1      41.021  29.793  29.706  1.00  0.00     0.074 A 
ATOM     50  C   UNL A   1      47.262  29.235  30.668  1.00  0.00     0.029 A 
ATOM     51  N   UNL A   1      45.126  28.857  30.177  1.00  0.00    -0.354 N 
ATOM     52  N   UNL A   1      42.306  29.588  29.868  1.00  0.00    -0.248 NA
ATOM     53  C   UNL A   1      40.556  31.109  30.167  1.00  0.00     0.031 C 
ATOM     54  C   UNL A   1      46.526  30.378  30.993  1.00  0.00     0.029 A 
ATOM     55  C   UNL A   1      45.199  30.151  30.666  1.00  0.00     0.049 A 
ATOM     56  H   UNL A   1      44.303  28.415  29.866  1.00  0.00     0.167 HD
ATOM     57  C   UNL A   1      42.807  30.756  30.427  1.00  0.00     0.074 A 
ATOM     58  C   UNL A   1      41.692  31.670  30.561  1.00  0.00     0.031 C 
ATOM     59  C   UNL A   1      44.078  31.045  30.796  1.00  0.00     0.031 A 
BRANCH  46  60
ATOM     60  C   UNL A   1      48.073  26.415  29.933  1.00  0.00    -0.014 A 
ATOM     61  C   UNL A   1      49.013  26.534  28.897  1.00  0.00     0.009 A 
ATOM     62  C   UNL A   1      48.474  25.837  31.148  1.00  0.00     0.009 A 
ATOM     63  C   UNL A   1      50.313  26.052  29.060  1.00  0.00     0.001 A 
ATOM     64  C   UNL A   1      49.783  25.381  31.319  1.00  0.00     0.001 A 
ATOM     65  C   UNL A   1      50.699  25.480  30.271  1.00  0.00     0.000 A 
ENDBRANCH  46  60
BRANCH  47  66
ATOM     66  C   UNL A   1      38.564  29.303  29.018  1.00  0.00    -0.014 A 
ATOM     67  C   UNL A   1      37.708  29.192  30.125  1.00  0.00     0.009 A 
ATOM     68  C   UNL A   1      38.058  29.824  27.816  1.00  0.00     0.009 A 
ATOM     69  C   UNL A   1      36.368  29.573  30.023  1.00  0.00     0.001 A 
ATOM     70  C   UNL A   1      36.725  30.231  27.728  1.00  0.00     0.001 A 
ATOM     71  C   UNL A   1      35.879  30.098  28.827  1.00  0.00     0.000 A 
ENDBRANCH  47  66
BRANCH  59  72
ATOM     72  C   UNL A   1      44.335  32.414  31.358  1.00  0.00    -0.014 A 
ATOM     73  C   UNL A   1      44.653  33.495  30.521  1.00  0.00     0.009 A 
ATOM     74  C   UNL A   1      44.212  32.634  32.739  1.00  0.00     0.009 A 
ATOM     75  C   UNL A   1      44.871  34.764  31.061  1.00  0.00     0.001 A 
ATOM     76  C   UNL A   1      44.403  33.909  33.272  1.00  0.00     0.001 A 
ATOM     77  C   UNL A   1      44.740  34.971  32.434  1.00  0.00     0.000 A 
ENDBRANCH  59  72
ENDBRANCH  33  34
ENDBRANCH  25  28
ENDBRANCH  23  24
ENDBRANCH  22  23
ENDBRANCH  21  22
ENDBRANCH   3  21
TORSDOF 16
ENDMDL
