MODEL 1
REMARK VINA RESULT:     -11.7      0.000      0.000
REMARK SMILES O=C(CC[NH+]1CCN(C(=O)c2n[nH]c3ccccc23)CC1)NCCCNC(=O)c1ccc(-c2c3nc(c(-c4ccccc4)c4ccc([nH]4)c(-c4ccccc4)c4nc(c(-c5ccccc5)c5ccc2[nH]5)C=C4)C=C3)cc1
REMARK SMILES IDX 23 1 22 2 1 3 2 4 3 6 4 7 5 8 6 9 21 10 7 12 20 13 8 14 9 15
REMARK SMILES IDX 10 16 11 17 12 18 19 19 13 20 14 21 18 22 15 24 17 25 16 26
REMARK SMILES IDX 24 27 25 28 26 29 27 30 28 32 29 33 30 34 76 35 31 36 75 37
REMARK SMILES IDX 32 38 33 39 34 40 69 41 35 42 74 43 68 44 70 45 36 46 73 47
REMARK SMILES IDX 67 48 66 49 37 51 59 52 44 53 58 54 45 55 48 56 57 57 71 58
REMARK SMILES IDX 46 59 47 60 56 62 72 63 49 64 38 65 39 66 43 67 40 68 42 69
REMARK SMILES IDX 41 70 60 71 61 72 65 73 62 74 64 75 63 76 50 77 51 78 55 79
REMARK SMILES IDX 52 80 54 81 53 82
REMARK H PARENT 22 5 5 11 13 23 26 31 70 50 48 61
REMARK Flexibility Score: inf
ROOT
ATOM      1  C   UNL A   1      34.071  33.827  28.866  1.00  0.00     0.117 C 
ENDROOT
BRANCH   1   2
ATOM      2  N   UNL A   1      33.820  32.561  28.205  1.00  0.00    -0.356 N 
ATOM      3  O   UNL A   1      36.028  32.118  27.776  1.00  0.00    -0.275 OA
ATOM      4  C   UNL A   1      34.866  31.731  27.849  1.00  0.00     0.225 C 
ATOM      5  H   UNL A   1      32.895  32.289  28.007  1.00  0.00     0.163 HD
BRANCH   4   6
ATOM      6  C   UNL A   1      34.485  30.268  27.691  1.00  0.00     0.161 C 
BRANCH   6   7
ATOM      7  C   UNL A   1      33.658  30.050  26.400  1.00  0.00     0.272 C 
BRANCH   7   8
ATOM      8  N   UNL A   1      32.184  30.043  26.556  1.00  0.00    -0.332 N 
ATOM      9  C   UNL A   1      31.478  29.826  25.267  1.00  0.00     0.284 C 
ATOM     10  C   UNL A   1      31.683  29.018  27.476  1.00  0.00     0.284 C 
ATOM     11  H   UNL A   1      31.989  30.969  26.938  1.00  0.00     0.348 HD
ATOM     12  C   UNL A   1      31.451  28.369  24.723  1.00  0.00     0.181 C 
ATOM     13  C   UNL A   1      31.927  27.576  26.999  1.00  0.00     0.181 C 
ATOM     14  N   UNL A   1      31.266  27.317  25.736  1.00  0.00    -0.326 N 
ATOM     15  C   UNL A   1      30.863  26.043  25.288  1.00  0.00     0.275 C 
ATOM     16  O   UNL A   1      30.305  25.930  24.193  1.00  0.00    -0.267 OA
BRANCH  15  17
ATOM     17  C   UNL A   1      31.227  24.827  26.065  1.00  0.00     0.157 A 
ATOM     18  N   UNL A   1      30.246  24.163  26.715  1.00  0.00    -0.169 NA
ATOM     19  C   UNL A   1      32.492  24.190  26.308  1.00  0.00     0.033 A 
ATOM     20  N   UNL A   1      30.863  23.152  27.333  1.00  0.00    -0.277 N 
ATOM     21  C   UNL A   1      32.200  23.068  27.081  1.00  0.00     0.066 A 
ATOM     22  C   UNL A   1      33.840  24.411  25.975  1.00  0.00     0.013 A 
ATOM     23  H   UNL A   1      30.392  22.520  27.921  1.00  0.00     0.190 HD
ATOM     24  C   UNL A   1      33.152  22.123  27.485  1.00  0.00     0.028 A 
ATOM     25  C   UNL A   1      34.800  23.454  26.332  1.00  0.00     0.001 A 
ATOM     26  C   UNL A   1      34.464  22.323  27.067  1.00  0.00     0.002 A 
ENDBRANCH  15  17
ENDBRANCH   7   8
ENDBRANCH   6   7
ENDBRANCH   4   6
ENDBRANCH   1   2
BRANCH   1  27
ATOM     27  C   UNL A   1      32.930  34.844  28.814  1.00  0.00     0.042 C 
BRANCH  27  28
ATOM     28  C   UNL A   1      33.128  36.212  29.466  1.00  0.00     0.118 C 
BRANCH  28  29
ATOM     29  N   UNL A   1      32.404  36.459  30.703  1.00  0.00    -0.352 N 
ATOM     30  C   UNL A   1      32.672  36.120  32.010  1.00  0.00     0.251 C 
ATOM     31  H   UNL A   1      31.568  36.964  30.584  1.00  0.00     0.163 HD
ATOM     32  O   UNL A   1      31.934  36.501  32.905  1.00  0.00    -0.269 OA
BRANCH  30  33
ATOM     33  C   UNL A   1      33.797  35.225  32.326  1.00  0.00     0.039 A 
ATOM     34  C   UNL A   1      33.520  33.951  32.843  1.00  0.00     0.014 A 
ATOM     35  C   UNL A   1      35.110  35.634  32.115  1.00  0.00     0.014 A 
ATOM     36  C   UNL A   1      34.556  33.045  33.045  1.00  0.00     0.010 A 
ATOM     37  C   UNL A   1      36.139  34.720  32.263  1.00  0.00     0.010 A 
ATOM     38  C   UNL A   1      35.866  33.430  32.746  1.00  0.00    -0.014 A 
BRANCH  38  39
ATOM     39  C   UNL A   1      37.016  32.597  33.133  1.00  0.00     0.031 A 
ATOM     40  C   UNL A   1      37.665  32.902  34.451  1.00  0.00     0.074 A 
ATOM     41  C   UNL A   1      37.517  31.679  32.292  1.00  0.00     0.049 A 
ATOM     42  N   UNL A   1      38.795  32.468  34.938  1.00  0.00    -0.248 NA
ATOM     43  C   UNL A   1      36.961  33.868  35.313  1.00  0.00     0.031 C 
ATOM     44  C   UNL A   1      36.956  31.316  30.991  1.00  0.00     0.029 A 
ATOM     45  N   UNL A   1      38.641  30.905  32.405  1.00  0.00    -0.354 N 
ATOM     46  C   UNL A   1      38.952  33.135  36.146  1.00  0.00     0.074 A 
ATOM     47  C   UNL A   1      37.832  34.035  36.293  1.00  0.00     0.031 C 
ATOM     48  C   UNL A   1      37.747  30.389  30.420  1.00  0.00     0.029 A 
ATOM     49  C   UNL A   1      38.881  30.125  31.301  1.00  0.00     0.049 A 
ATOM     50  H   UNL A   1      39.220  30.907  33.201  1.00  0.00     0.167 HD
ATOM     51  C   UNL A   1      39.940  32.997  37.058  1.00  0.00     0.031 A 
ATOM     52  C   UNL A   1      39.916  29.306  31.040  1.00  0.00     0.031 A 
ATOM     53  C   UNL A   1      41.041  32.090  36.897  1.00  0.00     0.049 A 
ATOM     54  C   UNL A   1      41.006  29.169  32.071  1.00  0.00     0.074 A 
ATOM     55  C   UNL A   1      42.085  31.833  37.765  1.00  0.00     0.029 A 
ATOM     56  N   UNL A   1      41.230  31.282  35.785  1.00  0.00    -0.354 N 
ATOM     57  N   UNL A   1      41.133  29.777  33.227  1.00  0.00    -0.248 NA
ATOM     58  C   UNL A   1      42.083  28.220  31.765  1.00  0.00     0.031 C 
ATOM     59  C   UNL A   1      42.926  30.894  37.160  1.00  0.00     0.029 A 
ATOM     60  C   UNL A   1      42.378  30.528  35.941  1.00  0.00     0.049 A 
ATOM     61  H   UNL A   1      40.634  31.249  35.002  1.00  0.00     0.167 HD
ATOM     62  C   UNL A   1      42.286  29.259  33.802  1.00  0.00     0.074 A 
ATOM     63  C   UNL A   1      42.810  28.277  32.872  1.00  0.00     0.031 C 
ATOM     64  C   UNL A   1      42.865  29.560  34.992  1.00  0.00     0.031 A 
BRANCH  51  65
ATOM     65  C   UNL A   1      39.865  33.864  38.282  1.00  0.00    -0.014 A 
ATOM     66  C   UNL A   1      39.200  33.431  39.441  1.00  0.00     0.009 A 
ATOM     67  C   UNL A   1      40.450  35.139  38.272  1.00  0.00     0.009 A 
ATOM     68  C   UNL A   1      39.082  34.275  40.547  1.00  0.00     0.001 A 
ATOM     69  C   UNL A   1      40.358  35.968  39.390  1.00  0.00     0.001 A 
ATOM     70  C   UNL A   1      39.665  35.542  40.522  1.00  0.00     0.000 A 
ENDBRANCH  51  65
BRANCH  52  71
ATOM     71  C   UNL A   1      39.964  28.538  29.770  1.00  0.00    -0.014 A 
ATOM     72  C   UNL A   1      40.556  29.096  28.627  1.00  0.00     0.009 A 
ATOM     73  C   UNL A   1      39.409  27.251  29.684  1.00  0.00     0.009 A 
ATOM     74  C   UNL A   1      40.565  28.398  27.417  1.00  0.00     0.001 A 
ATOM     75  C   UNL A   1      39.443  26.542  28.480  1.00  0.00     0.001 A 
ATOM     76  C   UNL A   1      40.011  27.120  27.346  1.00  0.00     0.000 A 
ENDBRANCH  52  71
BRANCH  64  77
ATOM     77  C   UNL A   1      44.094  28.782  35.365  1.00  0.00    -0.014 A 
ATOM     78  C   UNL A   1      45.377  29.234  35.018  1.00  0.00     0.009 A 
ATOM     79  C   UNL A   1      43.963  27.596  36.104  1.00  0.00     0.009 A 
ATOM     80  C   UNL A   1      46.503  28.485  35.367  1.00  0.00     0.001 A 
ATOM     81  C   UNL A   1      45.092  26.868  36.478  1.00  0.00     0.001 A 
ATOM     82  C   UNL A   1      46.359  27.307  36.099  1.00  0.00     0.000 A 
ENDBRANCH  64  77
ENDBRANCH  38  39
ENDBRANCH  30  33
ENDBRANCH  28  29
ENDBRANCH  27  28
ENDBRANCH   1  27
TORSDOF 13
ENDMDL
MODEL 2
REMARK VINA RESULT:     -11.4      7.560     12.171
REMARK SMILES O=C(CC[NH+]1CCN(C(=O)c2n[nH]c3ccccc23)CC1)NCCCNC(=O)c1ccc(-c2c3nc(c(-c4ccccc4)c4ccc([nH]4)c(-c4ccccc4)c4nc(c(-c5ccccc5)c5ccc2[nH]5)C=C4)C=C3)cc1
REMARK SMILES IDX 23 1 22 2 1 3 2 4 3 6 4 7 5 8 6 9 21 10 7 12 20 13 8 14 9 15
REMARK SMILES IDX 10 16 11 17 12 18 19 19 13 20 14 21 18 22 15 24 17 25 16 26
REMARK SMILES IDX 24 27 25 28 26 29 27 30 28 32 29 33 30 34 76 35 31 36 75 37
REMARK SMILES IDX 32 38 33 39 34 40 69 41 35 42 74 43 68 44 70 45 36 46 73 47
REMARK SMILES IDX 67 48 66 49 37 51 59 52 44 53 58 54 45 55 48 56 57 57 71 58
REMARK SMILES IDX 46 59 47 60 56 62 72 63 49 64 38 65 39 66 43 67 40 68 42 69
REMARK SMILES IDX 41 70 60 71 61 72 65 73 62 74 64 75 63 76 50 77 51 78 55 79
REMARK SMILES IDX 52 80 54 81 53 82
REMARK H PARENT 22 5 5 11 13 23 26 31 70 50 48 61
REMARK Flexibility Score: inf
ROOT
ATOM      1  C   UNL A   1      39.940  27.197  28.778  1.00  0.00     0.117 C 
ENDROOT
BRANCH   1   2
ATOM      2  N   UNL A   1      38.905  27.826  29.576  1.00  0.00    -0.356 N 
ATOM      3  O   UNL A   1      38.959  29.817  28.443  1.00  0.00    -0.275 OA
ATOM      4  C   UNL A   1      38.392  29.059  29.223  1.00  0.00     0.225 C 
ATOM      5  H   UNL A   1      38.564  27.369  30.379  1.00  0.00     0.163 HD
BRANCH   4   6
ATOM      6  C   UNL A   1      37.002  29.343  29.768  1.00  0.00     0.161 C 
BRANCH   6   7
ATOM      7  C   UNL A   1      36.701  30.863  29.746  1.00  0.00     0.272 C 
BRANCH   7   8
ATOM      8  N   UNL A   1      36.652  31.504  28.411  1.00  0.00    -0.332 N 
ATOM      9  C   UNL A   1      35.366  31.254  27.709  1.00  0.00     0.284 C 
ATOM     10  C   UNL A   1      36.828  32.958  28.436  1.00  0.00     0.284 C 
ATOM     11  H   UNL A   1      37.436  31.074  27.920  1.00  0.00     0.348 HD
ATOM     12  C   UNL A   1      34.140  32.087  28.181  1.00  0.00     0.181 C 
ATOM     13  C   UNL A   1      35.699  33.713  29.159  1.00  0.00     0.181 C 
ATOM     14  N   UNL A   1      34.420  33.492  28.517  1.00  0.00    -0.326 N 
ATOM     15  C   UNL A   1      33.325  34.377  28.583  1.00  0.00     0.275 C 
ATOM     16  O   UNL A   1      32.276  34.095  27.999  1.00  0.00    -0.267 OA
BRANCH  15  17
ATOM     17  C   UNL A   1      33.386  35.577  29.462  1.00  0.00     0.157 A 
ATOM     18  N   UNL A   1      33.203  36.793  28.902  1.00  0.00    -0.169 NA
ATOM     19  C   UNL A   1      33.644  35.721  30.868  1.00  0.00     0.033 A 
ATOM     20  N   UNL A   1      33.335  37.661  29.909  1.00  0.00    -0.277 N 
ATOM     21  C   UNL A   1      33.537  37.086  31.128  1.00  0.00     0.066 A 
ATOM     22  C   UNL A   1      33.953  34.880  31.953  1.00  0.00     0.013 A 
ATOM     23  H   UNL A   1      33.291  38.636  29.781  1.00  0.00     0.190 HD
ATOM     24  C   UNL A   1      33.650  37.655  32.403  1.00  0.00     0.028 A 
ATOM     25  C   UNL A   1      34.026  35.426  33.242  1.00  0.00     0.001 A 
ATOM     26  C   UNL A   1      33.870  36.788  33.469  1.00  0.00     0.002 A 
ENDBRANCH  15  17
ENDBRANCH   7   8
ENDBRANCH   6   7
ENDBRANCH   4   6
ENDBRANCH   1   2
BRANCH   1  27
ATOM     27  C   UNL A   1      39.636  25.782  28.286  1.00  0.00     0.042 C 
BRANCH  27  28
ATOM     28  C   UNL A   1      39.790  25.465  26.799  1.00  0.00     0.118 C 
BRANCH  28  29
ATOM     29  N   UNL A   1      40.432  24.204  26.461  1.00  0.00    -0.352 N 
ATOM     30  C   UNL A   1      41.756  23.847  26.344  1.00  0.00     0.251 C 
ATOM     31  H   UNL A   1      39.802  23.469  26.284  1.00  0.00     0.163 HD
ATOM     32  O   UNL A   1      42.059  22.688  26.108  1.00  0.00    -0.269 OA
BRANCH  30  33
ATOM     33  C   UNL A   1      42.808  24.874  26.417  1.00  0.00     0.039 A 
ATOM     34  C   UNL A   1      43.213  25.508  25.234  1.00  0.00     0.014 A 
ATOM     35  C   UNL A   1      43.389  25.210  27.636  1.00  0.00     0.014 A 
ATOM     36  C   UNL A   1      44.123  26.559  25.287  1.00  0.00     0.010 A 
ATOM     37  C   UNL A   1      44.254  26.289  27.702  1.00  0.00     0.010 A 
ATOM     38  C   UNL A   1      44.637  26.953  26.525  1.00  0.00    -0.014 A 
BRANCH  38  39
ATOM     39  C   UNL A   1      45.751  27.909  26.623  1.00  0.00     0.031 A 
ATOM     40  C   UNL A   1      45.395  29.359  26.770  1.00  0.00     0.074 A 
ATOM     41  C   UNL A   1      47.023  27.503  26.479  1.00  0.00     0.049 A 
ATOM     42  N   UNL A   1      46.158  30.413  26.677  1.00  0.00    -0.248 NA
ATOM     43  C   UNL A   1      43.970  29.656  27.006  1.00  0.00     0.031 C 
ATOM     44  C   UNL A   1      47.465  26.117  26.329  1.00  0.00     0.029 A 
ATOM     45  N   UNL A   1      48.176  28.237  26.407  1.00  0.00    -0.354 N 
ATOM     46  C   UNL A   1      45.300  31.497  26.808  1.00  0.00     0.074 A 
ATOM     47  C   UNL A   1      43.959  30.976  26.937  1.00  0.00     0.031 C 
ATOM     48  C   UNL A   1      48.802  26.102  26.175  1.00  0.00     0.029 A 
ATOM     49  C   UNL A   1      49.296  27.476  26.182  1.00  0.00     0.049 A 
ATOM     50  H   UNL A   1      48.201  29.216  26.508  1.00  0.00     0.167 HD
ATOM     51  C   UNL A   1      45.609  32.813  26.833  1.00  0.00     0.031 A 
ATOM     52  C   UNL A   1      50.570  27.863  25.989  1.00  0.00     0.031 A 
ATOM     53  C   UNL A   1      46.950  33.311  26.712  1.00  0.00     0.049 A 
ATOM     54  C   UNL A   1      50.890  29.334  26.019  1.00  0.00     0.074 A 
ATOM     55  C   UNL A   1      47.395  34.618  26.759  1.00  0.00     0.029 A 
ATOM     56  N   UNL A   1      48.066  32.508  26.529  1.00  0.00    -0.354 N 
ATOM     57  N   UNL A   1      50.080  30.354  26.177  1.00  0.00    -0.248 NA
ATOM     58  C   UNL A   1      52.302  29.702  25.861  1.00  0.00     0.031 C 
ATOM     59  C   UNL A   1      48.781  34.608  26.566  1.00  0.00     0.029 A 
ATOM     60  C   UNL A   1      49.202  33.292  26.453  1.00  0.00     0.049 A 
ATOM     61  H   UNL A   1      48.052  31.526  26.464  1.00  0.00     0.167 HD
ATOM     62  C   UNL A   1      50.888  31.484  26.173  1.00  0.00     0.074 A 
ATOM     63  C   UNL A   1      52.252  31.018  26.011  1.00  0.00     0.031 C 
ATOM     64  C   UNL A   1      50.542  32.790  26.293  1.00  0.00     0.031 A 
BRANCH  51  65
ATOM     65  C   UNL A   1      44.468  33.780  26.975  1.00  0.00    -0.014 A 
ATOM     66  C   UNL A   1      43.873  34.375  25.850  1.00  0.00     0.009 A 
ATOM     67  C   UNL A   1      43.993  34.116  28.251  1.00  0.00     0.009 A 
ATOM     68  C   UNL A   1      42.859  35.322  26.003  1.00  0.00     0.001 A 
ATOM     69  C   UNL A   1      42.956  35.038  28.399  1.00  0.00     0.001 A 
ATOM     70  C   UNL A   1      42.398  35.649  27.277  1.00  0.00     0.000 A 
ENDBRANCH  51  65
BRANCH  52  71
ATOM     71  C   UNL A   1      51.637  26.852  25.774  1.00  0.00    -0.014 A 
ATOM     72  C   UNL A   1      52.225  26.199  26.869  1.00  0.00     0.009 A 
ATOM     73  C   UNL A   1      52.086  26.541  24.481  1.00  0.00     0.009 A 
ATOM     74  C   UNL A   1      53.259  25.281  26.678  1.00  0.00     0.001 A 
ATOM     75  C   UNL A   1      53.103  25.601  24.290  1.00  0.00     0.001 A 
ATOM     76  C   UNL A   1      53.696  24.980  25.388  1.00  0.00     0.000 A 
ENDBRANCH  52  71
BRANCH  64  77
ATOM     77  C   UNL A   1      51.663  33.791  26.303  1.00  0.00    -0.014 A 
ATOM     78  C   UNL A   1      52.347  34.109  27.487  1.00  0.00     0.009 A 
ATOM     79  C   UNL A   1      52.056  34.399  25.101  1.00  0.00     0.009 A 
ATOM     80  C   UNL A   1      53.377  35.051  27.470  1.00  0.00     0.001 A 
ATOM     81  C   UNL A   1      53.106  35.317  25.083  1.00  0.00     0.001 A 
ATOM     82  C   UNL A   1      53.757  35.650  26.269  1.00  0.00     0.000 A 
ENDBRANCH  64  77
ENDBRANCH  38  39
ENDBRANCH  30  33
ENDBRANCH  28  29
ENDBRANCH  27  28
ENDBRANCH   1  27
TORSDOF 13
ENDMDL
MODEL 3
REMARK VINA RESULT:     -11.4      4.573      6.904
REMARK SMILES O=C(CC[NH+]1CCN(C(=O)c2n[nH]c3ccccc23)CC1)NCCCNC(=O)c1ccc(-c2c3nc(c(-c4ccccc4)c4ccc([nH]4)c(-c4ccccc4)c4nc(c(-c5ccccc5)c5ccc2[nH]5)C=C4)C=C3)cc1
REMARK SMILES IDX 23 1 22 2 1 3 2 4 3 6 4 7 5 8 6 9 21 10 7 12 20 13 8 14 9 15
REMARK SMILES IDX 10 16 11 17 12 18 19 19 13 20 14 21 18 22 15 24 17 25 16 26
REMARK SMILES IDX 24 27 25 28 26 29 27 30 28 32 29 33 30 34 76 35 31 36 75 37
REMARK SMILES IDX 32 38 33 39 34 40 69 41 35 42 74 43 68 44 70 45 36 46 73 47
REMARK SMILES IDX 67 48 66 49 37 51 59 52 44 53 58 54 45 55 48 56 57 57 71 58
REMARK SMILES IDX 46 59 47 60 56 62 72 63 49 64 38 65 39 66 43 67 40 68 42 69
REMARK SMILES IDX 41 70 60 71 61 72 65 73 62 74 64 75 63 76 50 77 51 78 55 79
REMARK SMILES IDX 52 80 54 81 53 82
REMARK H PARENT 22 5 5 11 13 23 26 31 70 50 48 61
REMARK Flexibility Score: inf
ROOT
ATOM      1  C   UNL A   1      32.193  29.325  25.032  1.00  0.00     0.117 C 
ENDROOT
BRANCH   1   2
ATOM      2  N   UNL A   1      31.131  28.351  24.868  1.00  0.00    -0.356 N 
ATOM      3  O   UNL A   1      31.807  27.667  22.788  1.00  0.00    -0.275 OA
ATOM      4  C   UNL A   1      31.131  27.482  23.794  1.00  0.00     0.225 C 
ATOM      5  H   UNL A   1      30.403  28.308  25.529  1.00  0.00     0.163 HD
BRANCH   4   6
ATOM      6  C   UNL A   1      30.334  26.206  24.015  1.00  0.00     0.161 C 
BRANCH   6   7
ATOM      7  C   UNL A   1      31.277  25.002  24.261  1.00  0.00     0.272 C 
BRANCH   7   8
ATOM      8  N   UNL A   1      31.934  24.426  23.064  1.00  0.00    -0.332 N 
ATOM      9  C   UNL A   1      33.414  24.541  23.119  1.00  0.00     0.284 C 
ATOM     10  C   UNL A   1      31.641  23.007  22.843  1.00  0.00     0.284 C 
ATOM     11  H   UNL A   1      31.544  24.978  22.300  1.00  0.00     0.348 HD
ATOM     12  C   UNL A   1      34.159  23.534  24.042  1.00  0.00     0.181 C 
ATOM     13  C   UNL A   1      32.183  22.078  23.943  1.00  0.00     0.181 C 
ATOM     14  N   UNL A   1      33.625  22.162  24.044  1.00  0.00    -0.326 N 
ATOM     15  C   UNL A   1      34.455  21.140  24.546  1.00  0.00     0.275 C 
ATOM     16  O   UNL A   1      35.676  21.312  24.589  1.00  0.00    -0.267 OA
BRANCH  15  17
ATOM     17  C   UNL A   1      33.856  19.917  25.146  1.00  0.00     0.157 A 
ATOM     18  N   UNL A   1      33.229  20.028  26.338  1.00  0.00    -0.169 NA
ATOM     19  C   UNL A   1      33.831  18.549  24.707  1.00  0.00     0.033 A 
ATOM     20  N   UNL A   1      32.824  18.789  26.633  1.00  0.00    -0.277 N 
ATOM     21  C   UNL A   1      33.093  17.863  25.670  1.00  0.00     0.066 A 
ATOM     22  C   UNL A   1      34.331  17.803  23.625  1.00  0.00     0.013 A 
ATOM     23  H   UNL A   1      32.368  18.564  27.475  1.00  0.00     0.190 HD
ATOM     24  C   UNL A   1      32.768  16.503  25.589  1.00  0.00     0.028 A 
ATOM     25  C   UNL A   1      33.979  16.451  23.505  1.00  0.00     0.001 A 
ATOM     26  C   UNL A   1      33.204  15.811  24.463  1.00  0.00     0.002 A 
ENDBRANCH  15  17
ENDBRANCH   7   8
ENDBRANCH   6   7
ENDBRANCH   4   6
ENDBRANCH   1   2
BRANCH   1  27
ATOM     27  C   UNL A   1      33.513  28.786  25.583  1.00  0.00     0.042 C 
BRANCH  27  28
ATOM     28  C   UNL A   1      33.765  28.840  27.090  1.00  0.00     0.118 C 
BRANCH  28  29
ATOM     29  N   UNL A   1      33.761  30.157  27.708  1.00  0.00    -0.352 N 
ATOM     30  C   UNL A   1      34.756  30.898  28.304  1.00  0.00     0.251 C 
ATOM     31  H   UNL A   1      32.883  30.602  27.697  1.00  0.00     0.163 HD
ATOM     32  O   UNL A   1      34.523  32.028  28.701  1.00  0.00    -0.269 OA
BRANCH  30  33
ATOM     33  C   UNL A   1      36.080  30.300  28.543  1.00  0.00     0.039 A 
ATOM     34  C   UNL A   1      36.333  29.699  29.784  1.00  0.00     0.014 A 
ATOM     35  C   UNL A   1      37.061  30.330  27.556  1.00  0.00     0.014 A 
ATOM     36  C   UNL A   1      37.534  29.029  29.998  1.00  0.00     0.010 A 
ATOM     37  C   UNL A   1      38.235  29.620  27.744  1.00  0.00     0.010 A 
ATOM     38  C   UNL A   1      38.481  28.984  28.972  1.00  0.00    -0.014 A 
BRANCH  38  39
ATOM     39  C   UNL A   1      39.842  28.477  29.208  1.00  0.00     0.031 A 
ATOM     40  C   UNL A   1      40.842  29.445  29.767  1.00  0.00     0.074 A 
ATOM     41  C   UNL A   1      40.189  27.235  28.837  1.00  0.00     0.049 A 
ATOM     42  N   UNL A   1      42.136  29.326  29.882  1.00  0.00    -0.248 NA
ATOM     43  C   UNL A   1      40.309  30.745  30.213  1.00  0.00     0.031 C 
ATOM     44  C   UNL A   1      39.287  26.225  28.283  1.00  0.00     0.029 A 
ATOM     45  N   UNL A   1      41.415  26.625  28.849  1.00  0.00    -0.354 N 
ATOM     46  C   UNL A   1      42.573  30.546  30.379  1.00  0.00     0.074 A 
ATOM     47  C   UNL A   1      41.418  31.405  30.497  1.00  0.00     0.031 C 
ATOM     48  C   UNL A   1      39.997  25.118  27.999  1.00  0.00     0.029 A 
ATOM     49  C   UNL A   1      41.400  25.358  28.320  1.00  0.00     0.049 A 
ATOM     50  H   UNL A   1      42.227  27.053  29.202  1.00  0.00     0.167 HD
ATOM     51  C   UNL A   1      43.829  30.912  30.720  1.00  0.00     0.031 A 
ATOM     52  C   UNL A   1      42.420  24.506  28.111  1.00  0.00     0.031 A 
ATOM     53  C   UNL A   1      44.964  30.040  30.604  1.00  0.00     0.049 A 
ATOM     54  C   UNL A   1      43.810  24.935  28.498  1.00  0.00     0.074 A 
ATOM     55  C   UNL A   1      46.280  30.281  30.950  1.00  0.00     0.029 A 
ATOM     56  N   UNL A   1      44.905  28.746  30.105  1.00  0.00    -0.354 N 
ATOM     57  N   UNL A   1      44.215  26.078  29.000  1.00  0.00    -0.248 NA
ATOM     58  C   UNL A   1      44.880  23.948  28.305  1.00  0.00     0.031 C 
ATOM     59  C   UNL A   1      47.026  29.143  30.625  1.00  0.00     0.029 A 
ATOM     60  C   UNL A   1      46.165  28.177  30.128  1.00  0.00     0.049 A 
ATOM     61  H   UNL A   1      44.089  28.300  29.784  1.00  0.00     0.167 HD
ATOM     62  C   UNL A   1      45.580  25.937  29.214  1.00  0.00     0.074 A 
ATOM     63  C   UNL A   1      45.928  24.591  28.801  1.00  0.00     0.031 C 
ATOM     64  C   UNL A   1      46.470  26.833  29.709  1.00  0.00     0.031 A 
BRANCH  51  65
ATOM     65  C   UNL A   1      44.019  32.314  31.225  1.00  0.00    -0.014 A 
ATOM     66  C   UNL A   1      44.159  32.581  32.597  1.00  0.00     0.009 A 
ATOM     67  C   UNL A   1      44.038  33.385  30.320  1.00  0.00     0.009 A 
ATOM     68  C   UNL A   1      44.267  33.895  33.055  1.00  0.00     0.001 A 
ATOM     69  C   UNL A   1      44.180  34.696  30.778  1.00  0.00     0.001 A 
ATOM     70  C   UNL A   1      44.282  34.952  32.145  1.00  0.00     0.000 A 
ENDBRANCH  51  65
BRANCH  52  71
ATOM     71  C   UNL A   1      42.168  23.161  27.533  1.00  0.00    -0.014 A 
ATOM     72  C   UNL A   1      42.627  22.847  26.244  1.00  0.00     0.009 A 
ATOM     73  C   UNL A   1      41.459  22.187  28.254  1.00  0.00     0.009 A 
ATOM     74  C   UNL A   1      42.355  21.600  25.676  1.00  0.00     0.001 A 
ATOM     75  C   UNL A   1      41.212  20.930  27.695  1.00  0.00     0.001 A 
ATOM     76  C   UNL A   1      41.651  20.641  26.404  1.00  0.00     0.000 A 
ENDBRANCH  52  71
BRANCH  64  77
ATOM     77  C   UNL A   1      47.887  26.362  29.873  1.00  0.00    -0.014 A 
ATOM     78  C   UNL A   1      48.820  26.476  28.830  1.00  0.00     0.009 A 
ATOM     79  C   UNL A   1      48.298  25.825  31.103  1.00  0.00     0.009 A 
ATOM     80  C   UNL A   1      50.127  26.019  29.005  1.00  0.00     0.001 A 
ATOM     81  C   UNL A   1      49.613  25.399  31.284  1.00  0.00     0.001 A 
ATOM     82  C   UNL A   1      50.523  25.485  30.232  1.00  0.00     0.000 A 
ENDBRANCH  64  77
ENDBRANCH  38  39
ENDBRANCH  30  33
ENDBRANCH  28  29
ENDBRANCH  27  28
ENDBRANCH   1  27
TORSDOF 13
ENDMDL
