MODEL 1
REMARK VINA RESULT:     -11.7      0.000      0.000
REMARK SMILES COc1cccc(C(=O)Nc2cccc(C(=O)NCCCNC(=O)c3ccc(-c4c5nc(c(-c6ccccc6)c6ccc([nH]6)c(-c6ccccc6)c6nc(c(-c7ccccc7)c7ccc4[nH]7)C=C6)C=C5)cc3)c2C)c1
REMARK SMILES IDX 19 1 18 2 16 3 17 4 15 6 11 7 12 8 73 9 13 10 74 11 14 12
REMARK SMILES IDX 10 13 8 14 9 15 7 17 3 18 4 19 75 20 5 21 6 22 2 23 1 24
REMARK SMILES IDX 20 25 21 26 22 27 23 28 24 30 25 31 26 32 72 33 27 34 71 35
REMARK SMILES IDX 28 36 29 37 30 38 65 39 31 40 70 41 64 42 66 43 32 44 69 45
REMARK SMILES IDX 63 46 62 47 33 49 55 50 40 51 54 52 41 53 44 54 53 55 67 56
REMARK SMILES IDX 42 57 43 58 52 60 68 61 45 62 34 63 35 64 39 65 36 66 38 67
REMARK SMILES IDX 37 68 56 69 57 70 61 71 58 72 60 73 59 74 46 75 47 76 51 77
REMARK SMILES IDX 48 78 50 79 49 80
REMARK H PARENT 18 5 10 16 22 29 66 48 44 59
REMARK Flexibility Score: inf
ROOT
ATOM      1  C   UNL A   1      31.436  26.999  26.369  1.00  0.00     0.118 C 
ENDROOT
BRANCH   1   2
ATOM      2  N   UNL A   1      31.315  25.689  26.973  1.00  0.00    -0.352 N 
ATOM      3  C   UNL A   1      31.667  24.427  26.569  1.00  0.00     0.251 C 
ATOM      4  O   UNL A   1      31.333  23.510  27.325  1.00  0.00    -0.269 OA
ATOM      5  H   UNL A   1      30.891  25.707  27.862  1.00  0.00     0.163 HD
BRANCH   3   6
ATOM      6  C   UNL A   1      32.522  24.095  25.381  1.00  0.00     0.044 A 
ATOM      7  C   UNL A   1      33.205  23.942  23.050  1.00  0.00     0.045 A 
ATOM      8  C   UNL A   1      34.470  23.492  23.423  1.00  0.00     0.026 A 
ATOM      9  C   UNL A   1      32.177  24.074  24.014  1.00  0.00    -0.015 A 
ATOM     10  C   UNL A   1      34.784  23.362  24.768  1.00  0.00     0.003 A 
ATOM     11  C   UNL A   1      30.762  23.939  23.527  1.00  0.00     0.047 C 
ATOM     12  C   UNL A   1      33.837  23.715  25.729  1.00  0.00     0.014 A 
BRANCH   7  13
ATOM     13  N   UNL A   1      33.030  24.258  21.692  1.00  0.00    -0.322 N 
ATOM     14  C   UNL A   1      32.581  25.433  21.114  1.00  0.00     0.255 C 
ATOM     15  O   UNL A   1      32.272  25.436  19.923  1.00  0.00    -0.269 OA
ATOM     16  H   UNL A   1      33.259  23.539  21.059  1.00  0.00     0.170 HD
BRANCH  14  17
ATOM     17  C   UNL A   1      32.547  26.725  21.869  1.00  0.00     0.043 A 
ATOM     18  C   UNL A   1      31.365  28.559  22.938  1.00  0.00     0.119 A 
ATOM     19  C   UNL A   1      32.588  29.179  23.204  1.00  0.00     0.046 A 
ATOM     20  C   UNL A   1      31.352  27.305  22.323  1.00  0.00     0.060 A 
ATOM     21  C   UNL A   1      33.788  28.571  22.836  1.00  0.00     0.005 A 
ATOM     22  C   UNL A   1      33.767  27.349  22.163  1.00  0.00     0.014 A 
BRANCH  18  23
ATOM     23  O   UNL A   1      30.266  29.290  23.293  1.00  0.00    -0.497 OA
ATOM     24  C   UNL A   1      29.626  30.051  22.276  1.00  0.00     0.278 C 
ENDBRANCH  18  23
ENDBRANCH  14  17
ENDBRANCH   7  13
ENDBRANCH   3   6
ENDBRANCH   1   2
BRANCH   1  25
ATOM     25  C   UNL A   1      31.770  28.038  27.438  1.00  0.00     0.042 C 
BRANCH  25  26
ATOM     26  C   UNL A   1      33.203  28.532  27.397  1.00  0.00     0.118 C 
BRANCH  26  27
ATOM     27  N   UNL A   1      33.279  29.981  27.491  1.00  0.00    -0.352 N 
ATOM     28  C   UNL A   1      34.273  30.782  27.997  1.00  0.00     0.251 C 
ATOM     29  H   UNL A   1      32.496  30.463  27.137  1.00  0.00     0.163 HD
ATOM     30  O   UNL A   1      34.039  31.974  28.202  1.00  0.00    -0.269 OA
BRANCH  28  31
ATOM     31  C   UNL A   1      35.612  30.233  28.320  1.00  0.00     0.039 A 
ATOM     32  C   UNL A   1      36.607  30.252  27.337  1.00  0.00     0.014 A 
ATOM     33  C   UNL A   1      35.891  29.674  29.568  1.00  0.00     0.014 A 
ATOM     34  C   UNL A   1      37.886  29.767  27.628  1.00  0.00     0.010 A 
ATOM     35  C   UNL A   1      37.191  29.301  29.894  1.00  0.00     0.010 A 
ATOM     36  C   UNL A   1      38.200  29.321  28.921  1.00  0.00    -0.014 A 
BRANCH  36  37
ATOM     37  C   UNL A   1      39.563  28.844  29.271  1.00  0.00     0.031 A 
ATOM     38  C   UNL A   1      40.507  29.745  30.026  1.00  0.00     0.074 A 
ATOM     39  C   UNL A   1      39.977  27.630  28.856  1.00  0.00     0.049 A 
ATOM     40  N   UNL A   1      41.755  29.539  30.363  1.00  0.00    -0.248 NA
ATOM     41  C   UNL A   1      39.992  31.066  30.428  1.00  0.00     0.031 C 
ATOM     42  C   UNL A   1      39.180  26.682  28.075  1.00  0.00     0.029 A 
ATOM     43  N   UNL A   1      41.179  26.987  29.026  1.00  0.00    -0.354 N 
ATOM     44  C   UNL A   1      42.178  30.708  30.984  1.00  0.00     0.074 A 
ATOM     45  C   UNL A   1      41.074  31.639  30.933  1.00  0.00     0.031 C 
ATOM     46  C   UNL A   1      39.902  25.571  27.859  1.00  0.00     0.029 A 
ATOM     47  C   UNL A   1      41.227  25.743  28.443  1.00  0.00     0.049 A 
ATOM     48  H   UNL A   1      41.935  27.381  29.519  1.00  0.00     0.167 HD
ATOM     49  C   UNL A   1      43.370  30.977  31.565  1.00  0.00     0.031 A 
ATOM     50  C   UNL A   1      42.230  24.847  28.377  1.00  0.00     0.031 A 
ATOM     51  C   UNL A   1      44.458  30.040  31.640  1.00  0.00     0.049 A 
ATOM     52  C   UNL A   1      43.542  25.169  29.037  1.00  0.00     0.074 A 
ATOM     53  C   UNL A   1      45.679  30.188  32.275  1.00  0.00     0.029 A 
ATOM     54  N   UNL A   1      44.456  28.782  31.059  1.00  0.00    -0.354 N 
ATOM     55  N   UNL A   1      43.894  26.247  29.695  1.00  0.00    -0.248 NA
ATOM     56  C   UNL A   1      44.593  24.144  28.955  1.00  0.00     0.031 C 
ATOM     57  C   UNL A   1      46.440  29.042  32.025  1.00  0.00     0.029 A 
ATOM     58  C   UNL A   1      45.668  28.155  31.293  1.00  0.00     0.049 A 
ATOM     59  H   UNL A   1      43.706  28.393  30.555  1.00  0.00     0.167 HD
ATOM     60  C   UNL A   1      45.193  26.018  30.130  1.00  0.00     0.074 A 
ATOM     61  C   UNL A   1      45.559  24.691  29.679  1.00  0.00     0.031 C 
ATOM     62  C   UNL A   1      46.012  26.833  30.839  1.00  0.00     0.031 A 
BRANCH  49  63
ATOM     63  C   UNL A   1      43.569  32.344  32.161  1.00  0.00    -0.014 A 
ATOM     64  C   UNL A   1      43.223  32.620  33.493  1.00  0.00     0.009 A 
ATOM     65  C   UNL A   1      44.160  33.360  31.391  1.00  0.00     0.009 A 
ATOM     66  C   UNL A   1      43.435  33.892  34.031  1.00  0.00     0.001 A 
ATOM     67  C   UNL A   1      44.399  34.620  31.941  1.00  0.00     0.001 A 
ATOM     68  C   UNL A   1      44.028  34.888  33.258  1.00  0.00     0.000 A 
ENDBRANCH  49  63
BRANCH  50  69
ATOM     69  C   UNL A   1      42.037  23.558  27.659  1.00  0.00    -0.014 A 
ATOM     70  C   UNL A   1      41.476  22.449  28.313  1.00  0.00     0.009 A 
ATOM     71  C   UNL A   1      42.433  23.422  26.319  1.00  0.00     0.009 A 
ATOM     72  C   UNL A   1      41.349  21.225  27.650  1.00  0.00     0.001 A 
ATOM     73  C   UNL A   1      42.272  22.208  25.650  1.00  0.00     0.001 A 
ATOM     74  C   UNL A   1      41.743  21.106  26.319  1.00  0.00     0.000 A 
ENDBRANCH  50  69
BRANCH  62  75
ATOM     75  C   UNL A   1      47.369  26.299  31.205  1.00  0.00    -0.014 A 
ATOM     76  C   UNL A   1      47.602  25.680  32.443  1.00  0.00     0.009 A 
ATOM     77  C   UNL A   1      48.416  26.375  30.274  1.00  0.00     0.009 A 
ATOM     78  C   UNL A   1      48.869  25.182  32.754  1.00  0.00     0.001 A 
ATOM     79  C   UNL A   1      49.671  25.845  30.573  1.00  0.00     0.001 A 
ATOM     80  C   UNL A   1      49.900  25.260  31.818  1.00  0.00     0.000 A 
ENDBRANCH  62  75
ENDBRANCH  36  37
ENDBRANCH  28  31
ENDBRANCH  26  27
ENDBRANCH  25  26
ENDBRANCH   1  25
TORSDOF 13
ENDMDL
MODEL 2
REMARK VINA RESULT:     -11.6      2.422      4.651
REMARK SMILES COc1cccc(C(=O)Nc2cccc(C(=O)NCCCNC(=O)c3ccc(-c4c5nc(c(-c6ccccc6)c6ccc([nH]6)c(-c6ccccc6)c6nc(c(-c7ccccc7)c7ccc4[nH]7)C=C6)C=C5)cc3)c2C)c1
REMARK SMILES IDX 19 1 18 2 16 3 17 4 15 6 11 7 12 8 73 9 13 10 74 11 14 12
REMARK SMILES IDX 10 13 8 14 9 15 7 17 3 18 4 19 75 20 5 21 6 22 2 23 1 24
REMARK SMILES IDX 20 25 21 26 22 27 23 28 24 30 25 31 26 32 72 33 27 34 71 35
REMARK SMILES IDX 28 36 29 37 30 38 65 39 31 40 70 41 64 42 66 43 32 44 69 45
REMARK SMILES IDX 63 46 62 47 33 49 55 50 40 51 54 52 41 53 44 54 53 55 67 56
REMARK SMILES IDX 42 57 43 58 52 60 68 61 45 62 34 63 35 64 39 65 36 66 38 67
REMARK SMILES IDX 37 68 56 69 57 70 61 71 58 72 60 73 59 74 46 75 47 76 51 77
REMARK SMILES IDX 48 78 50 79 49 80
REMARK H PARENT 18 5 10 16 22 29 66 48 44 59
REMARK Flexibility Score: inf
ROOT
ATOM      1  C   UNL A   1      31.429  30.772  26.503  1.00  0.00     0.118 C 
ENDROOT
BRANCH   1   2
ATOM      2  N   UNL A   1      32.267  30.385  25.388  1.00  0.00    -0.352 N 
ATOM      3  C   UNL A   1      32.379  29.239  24.643  1.00  0.00     0.251 C 
ATOM      4  O   UNL A   1      33.278  29.235  23.797  1.00  0.00    -0.269 OA
ATOM      5  H   UNL A   1      32.888  31.094  25.102  1.00  0.00     0.163 HD
BRANCH   3   6
ATOM      6  C   UNL A   1      31.432  28.075  24.682  1.00  0.00     0.044 A 
ATOM      7  C   UNL A   1      30.325  26.079  25.526  1.00  0.00     0.045 A 
ATOM      8  C   UNL A   1      29.396  26.123  24.488  1.00  0.00     0.026 A 
ATOM      9  C   UNL A   1      31.445  26.945  25.525  1.00  0.00    -0.015 A 
ATOM     10  C   UNL A   1      29.457  27.148  23.555  1.00  0.00     0.003 A 
ATOM     11  C   UNL A   1      32.676  26.472  26.245  1.00  0.00     0.047 C 
ATOM     12  C   UNL A   1      30.429  28.139  23.690  1.00  0.00     0.014 A 
BRANCH   7  13
ATOM     13  N   UNL A   1      30.074  25.150  26.551  1.00  0.00    -0.322 N 
ATOM     14  C   UNL A   1      30.419  23.812  26.627  1.00  0.00     0.255 C 
ATOM     15  O   UNL A   1      29.905  23.109  27.497  1.00  0.00    -0.269 OA
ATOM     16  H   UNL A   1      29.579  25.502  27.327  1.00  0.00     0.170 HD
BRANCH  14  17
ATOM     17  C   UNL A   1      31.469  23.213  25.746  1.00  0.00     0.043 A 
ATOM     18  C   UNL A   1      33.700  22.335  25.351  1.00  0.00     0.119 A 
ATOM     19  C   UNL A   1      33.387  22.173  24.000  1.00  0.00     0.046 A 
ATOM     20  C   UNL A   1      32.720  22.800  26.231  1.00  0.00     0.060 A 
ATOM     21  C   UNL A   1      32.117  22.496  23.521  1.00  0.00     0.005 A 
ATOM     22  C   UNL A   1      31.162  23.022  24.391  1.00  0.00     0.014 A 
BRANCH  18  23
ATOM     23  O   UNL A   1      34.996  22.041  25.674  1.00  0.00    -0.497 OA
ATOM     24  C   UNL A   1      35.848  23.126  26.025  1.00  0.00     0.278 C 
ENDBRANCH  18  23
ENDBRANCH  14  17
ENDBRANCH   7  13
ENDBRANCH   3   6
ENDBRANCH   1   2
BRANCH   1  25
ATOM     25  C   UNL A   1      31.405  32.293  26.636  1.00  0.00     0.042 C 
BRANCH  25  26
ATOM     26  C   UNL A   1      32.723  32.897  27.081  1.00  0.00     0.118 C 
BRANCH  26  27
ATOM     27  N   UNL A   1      32.527  34.120  27.843  1.00  0.00    -0.352 N 
ATOM     28  C   UNL A   1      33.217  34.604  28.928  1.00  0.00     0.251 C 
ATOM     29  H   UNL A   1      31.786  34.689  27.535  1.00  0.00     0.163 HD
ATOM     30  O   UNL A   1      32.742  35.538  29.574  1.00  0.00    -0.269 OA
BRANCH  28  31
ATOM     31  C   UNL A   1      34.509  34.008  29.345  1.00  0.00     0.039 A 
ATOM     32  C   UNL A   1      34.537  33.167  30.463  1.00  0.00     0.014 A 
ATOM     33  C   UNL A   1      35.697  34.288  28.667  1.00  0.00     0.014 A 
ATOM     34  C   UNL A   1      35.738  32.569  30.857  1.00  0.00     0.010 A 
ATOM     35  C   UNL A   1      36.865  33.603  28.987  1.00  0.00     0.010 A 
ATOM     36  C   UNL A   1      36.907  32.752  30.100  1.00  0.00    -0.014 A 
BRANCH  36  37
ATOM     37  C   UNL A   1      38.186  32.093  30.469  1.00  0.00     0.031 A 
ATOM     38  C   UNL A   1      39.141  32.776  31.415  1.00  0.00     0.074 A 
ATOM     39  C   UNL A   1      38.521  30.914  29.906  1.00  0.00     0.049 A 
ATOM     40  N   UNL A   1      40.332  32.396  31.804  1.00  0.00    -0.248 NA
ATOM     41  C   UNL A   1      38.717  34.071  31.973  1.00  0.00     0.031 C 
ATOM     42  C   UNL A   1      37.709  30.175  28.938  1.00  0.00     0.029 A 
ATOM     43  N   UNL A   1      39.640  30.134  30.062  1.00  0.00    -0.354 N 
ATOM     44  C   UNL A   1      40.805  33.415  32.622  1.00  0.00     0.074 A 
ATOM     45  C   UNL A   1      39.799  34.453  32.634  1.00  0.00     0.031 C 
ATOM     46  C   UNL A   1      38.342  29.037  28.608  1.00  0.00     0.029 A 
ATOM     47  C   UNL A   1      39.623  28.987  29.304  1.00  0.00     0.049 A 
ATOM     48  H   UNL A   1      40.384  30.374  30.660  1.00  0.00     0.167 HD
ATOM     49  C   UNL A   1      41.965  33.475  33.319  1.00  0.00     0.031 A 
ATOM     50  C   UNL A   1      40.542  28.011  29.175  1.00  0.00     0.031 A 
ATOM     51  C   UNL A   1      42.952  32.430  33.328  1.00  0.00     0.049 A 
ATOM     52  C   UNL A   1      41.818  28.099  29.966  1.00  0.00     0.074 A 
ATOM     53  C   UNL A   1      44.123  32.359  34.063  1.00  0.00     0.029 A 
ATOM     54  N   UNL A   1      42.884  31.274  32.566  1.00  0.00    -0.354 N 
ATOM     55  N   UNL A   1      42.210  29.030  30.802  1.00  0.00    -0.248 NA
ATOM     56  C   UNL A   1      42.774  26.994  29.805  1.00  0.00     0.031 C 
ATOM     57  C   UNL A   1      44.794  31.189  33.697  1.00  0.00     0.029 A 
ATOM     58  C   UNL A   1      44.009  30.499  32.788  1.00  0.00     0.049 A 
ATOM     59  H   UNL A   1      42.147  31.041  31.958  1.00  0.00     0.167 HD
ATOM     60  C   UNL A   1      43.441  28.609  31.287  1.00  0.00     0.074 A 
ATOM     61  C   UNL A   1      43.721  27.330  30.668  1.00  0.00     0.031 C 
ATOM     62  C   UNL A   1      44.269  29.227  32.165  1.00  0.00     0.031 A 
BRANCH  49  63
ATOM     63  C   UNL A   1      42.236  34.715  34.125  1.00  0.00    -0.014 A 
ATOM     64  C   UNL A   1      41.904  34.791  35.487  1.00  0.00     0.009 A 
ATOM     65  C   UNL A   1      42.881  35.809  33.524  1.00  0.00     0.009 A 
ATOM     66  C   UNL A   1      42.184  35.946  36.222  1.00  0.00     0.001 A 
ATOM     67  C   UNL A   1      43.188  36.949  34.269  1.00  0.00     0.001 A 
ATOM     68  C   UNL A   1      42.831  37.021  35.614  1.00  0.00     0.000 A 
ENDBRANCH  49  63
BRANCH  50  69
ATOM     69  C   UNL A   1      40.293  26.865  28.260  1.00  0.00    -0.014 A 
ATOM     70  C   UNL A   1      40.798  26.870  26.949  1.00  0.00     0.009 A 
ATOM     71  C   UNL A   1      39.531  25.765  28.686  1.00  0.00     0.009 A 
ATOM     72  C   UNL A   1      40.513  25.816  26.076  1.00  0.00     0.001 A 
ATOM     73  C   UNL A   1      39.278  24.698  27.822  1.00  0.00     0.001 A 
ATOM     74  C   UNL A   1      39.758  24.729  26.514  1.00  0.00     0.000 A 
ENDBRANCH  50  69
BRANCH  62  75
ATOM     75  C   UNL A   1      45.535  28.510  32.541  1.00  0.00    -0.014 A 
ATOM     76  C   UNL A   1      46.729  28.711  31.832  1.00  0.00     0.009 A 
ATOM     77  C   UNL A   1      45.540  27.654  33.654  1.00  0.00     0.009 A 
ATOM     78  C   UNL A   1      47.894  28.041  32.208  1.00  0.00     0.001 A 
ATOM     79  C   UNL A   1      46.714  27.012  34.049  1.00  0.00     0.001 A 
ATOM     80  C   UNL A   1      47.887  27.197  33.319  1.00  0.00     0.000 A 
ENDBRANCH  62  75
ENDBRANCH  36  37
ENDBRANCH  28  31
ENDBRANCH  26  27
ENDBRANCH  25  26
ENDBRANCH   1  25
TORSDOF 13
ENDMDL
MODEL 3
REMARK VINA RESULT:     -11.6      2.521      7.104
REMARK SMILES COc1cccc(C(=O)Nc2cccc(C(=O)NCCCNC(=O)c3ccc(-c4c5nc(c(-c6ccccc6)c6ccc([nH]6)c(-c6ccccc6)c6nc(c(-c7ccccc7)c7ccc4[nH]7)C=C6)C=C5)cc3)c2C)c1
REMARK SMILES IDX 19 1 18 2 16 3 17 4 15 6 11 7 12 8 73 9 13 10 74 11 14 12
REMARK SMILES IDX 10 13 8 14 9 15 7 17 3 18 4 19 75 20 5 21 6 22 2 23 1 24
REMARK SMILES IDX 20 25 21 26 22 27 23 28 24 30 25 31 26 32 72 33 27 34 71 35
REMARK SMILES IDX 28 36 29 37 30 38 65 39 31 40 70 41 64 42 66 43 32 44 69 45
REMARK SMILES IDX 63 46 62 47 33 49 55 50 40 51 54 52 41 53 44 54 53 55 67 56
REMARK SMILES IDX 42 57 43 58 52 60 68 61 45 62 34 63 35 64 39 65 36 66 38 67
REMARK SMILES IDX 37 68 56 69 57 70 61 71 58 72 60 73 59 74 46 75 47 76 51 77
REMARK SMILES IDX 48 78 50 79 49 80
REMARK H PARENT 18 5 10 16 22 29 66 48 44 59
REMARK Flexibility Score: inf
ROOT
ATOM      1  C   UNL A   1      36.239  20.487  25.001  1.00  0.00     0.118 C 
ENDROOT
BRANCH   1   2
ATOM      2  N   UNL A   1      36.429  21.877  25.360  1.00  0.00    -0.352 N 
ATOM      3  C   UNL A   1      35.673  23.008  25.192  1.00  0.00     0.251 C 
ATOM      4  O   UNL A   1      36.197  24.062  25.564  1.00  0.00    -0.269 OA
ATOM      5  H   UNL A   1      37.281  22.045  25.825  1.00  0.00     0.163 HD
BRANCH   3   6
ATOM      6  C   UNL A   1      34.246  23.045  24.730  1.00  0.00     0.044 A 
ATOM      7  C   UNL A   1      31.825  23.262  24.861  1.00  0.00     0.045 A 
ATOM      8  C   UNL A   1      31.721  23.231  23.471  1.00  0.00     0.026 A 
ATOM      9  C   UNL A   1      33.062  22.992  25.494  1.00  0.00    -0.015 A 
ATOM     10  C   UNL A   1      32.870  23.132  22.699  1.00  0.00     0.003 A 
ATOM     11  C   UNL A   1      33.008  22.430  26.886  1.00  0.00     0.047 C 
ATOM     12  C   UNL A   1      34.115  23.098  23.325  1.00  0.00     0.014 A 
BRANCH   7  13
ATOM     13  N   UNL A   1      30.653  23.582  25.568  1.00  0.00    -0.322 N 
ATOM     14  C   UNL A   1      30.245  24.799  26.086  1.00  0.00     0.255 C 
ATOM     15  O   UNL A   1      29.302  24.828  26.876  1.00  0.00    -0.269 OA
ATOM     16  H   UNL A   1      30.032  22.832  25.716  1.00  0.00     0.170 HD
BRANCH  14  17
ATOM     17  C   UNL A   1      30.854  26.092  25.646  1.00  0.00     0.043 A 
ATOM     18  C   UNL A   1      32.413  27.937  25.919  1.00  0.00     0.119 A 
ATOM     19  C   UNL A   1      31.870  28.550  24.787  1.00  0.00     0.046 A 
ATOM     20  C   UNL A   1      31.942  26.682  26.310  1.00  0.00     0.060 A 
ATOM     21  C   UNL A   1      30.848  27.933  24.066  1.00  0.00     0.005 A 
ATOM     22  C   UNL A   1      30.336  26.710  24.499  1.00  0.00     0.014 A 
BRANCH  18  23
ATOM     23  O   UNL A   1      33.362  28.677  26.567  1.00  0.00    -0.497 OA
ATOM     24  C   UNL A   1      33.142  30.078  26.678  1.00  0.00     0.278 C 
ENDBRANCH  18  23
ENDBRANCH  14  17
ENDBRANCH   7  13
ENDBRANCH   3   6
ENDBRANCH   1   2
BRANCH   1  25
ATOM     25  C   UNL A   1      37.592  19.812  24.786  1.00  0.00     0.042 C 
BRANCH  25  26
ATOM     26  C   UNL A   1      38.681  20.295  25.724  1.00  0.00     0.118 C 
BRANCH  26  27
ATOM     27  N   UNL A   1      39.777  19.344  25.814  1.00  0.00    -0.352 N 
ATOM     28  C   UNL A   1      41.110  19.554  26.073  1.00  0.00     0.251 C 
ATOM     29  H   UNL A   1      39.526  18.403  25.667  1.00  0.00     0.163 HD
ATOM     30  O   UNL A   1      41.913  18.643  25.868  1.00  0.00    -0.269 OA
BRANCH  28  31
ATOM     31  C   UNL A   1      41.598  20.862  26.573  1.00  0.00     0.039 A 
ATOM     32  C   UNL A   1      42.010  21.828  25.650  1.00  0.00     0.014 A 
ATOM     33  C   UNL A   1      41.681  21.138  27.939  1.00  0.00     0.014 A 
ATOM     34  C   UNL A   1      42.446  23.080  26.096  1.00  0.00     0.010 A 
ATOM     35  C   UNL A   1      42.002  22.419  28.376  1.00  0.00     0.010 A 
ATOM     36  C   UNL A   1      42.410  23.400  27.463  1.00  0.00    -0.014 A 
BRANCH  36  37
ATOM     37  C   UNL A   1      42.824  24.737  27.961  1.00  0.00     0.031 A 
ATOM     38  C   UNL A   1      41.782  25.789  28.249  1.00  0.00     0.074 A 
ATOM     39  C   UNL A   1      44.133  25.030  28.093  1.00  0.00     0.049 A 
ATOM     40  N   UNL A   1      41.946  27.033  28.623  1.00  0.00    -0.248 NA
ATOM     41  C   UNL A   1      40.373  25.404  28.061  1.00  0.00     0.031 C 
ATOM     42  C   UNL A   1      45.241  24.118  27.799  1.00  0.00     0.029 A 
ATOM     43  N   UNL A   1      44.756  26.184  28.501  1.00  0.00    -0.354 N 
ATOM     44  C   UNL A   1      40.670  27.580  28.684  1.00  0.00     0.074 A 
ATOM     45  C   UNL A   1      39.746  26.553  28.260  1.00  0.00     0.031 C 
ATOM     46  C   UNL A   1      46.403  24.737  28.062  1.00  0.00     0.029 A 
ATOM     47  C   UNL A   1      46.128  26.101  28.499  1.00  0.00     0.049 A 
ATOM     48  H   UNL A   1      44.265  26.994  28.769  1.00  0.00     0.167 HD
ATOM     49  C   UNL A   1      40.296  28.820  29.078  1.00  0.00     0.031 A 
ATOM     50  C   UNL A   1      47.060  27.024  28.804  1.00  0.00     0.031 A 
ATOM     51  C   UNL A   1      41.214  29.832  29.526  1.00  0.00     0.049 A 
ATOM     52  C   UNL A   1      46.617  28.392  29.245  1.00  0.00     0.074 A 
ATOM     53  C   UNL A   1      40.929  31.093  30.020  1.00  0.00     0.029 A 
ATOM     54  N   UNL A   1      42.593  29.699  29.532  1.00  0.00    -0.354 N 
ATOM     55  N   UNL A   1      45.401  28.864  29.380  1.00  0.00    -0.248 NA
ATOM     56  C   UNL A   1      47.676  29.352  29.589  1.00  0.00     0.031 C 
ATOM     57  C   UNL A   1      42.141  31.746  30.267  1.00  0.00     0.029 A 
ATOM     58  C   UNL A   1      43.176  30.867  29.991  1.00  0.00     0.049 A 
ATOM     59  H   UNL A   1      43.085  28.894  29.252  1.00  0.00     0.167 HD
ATOM     60  C   UNL A   1      45.548  30.162  29.850  1.00  0.00     0.074 A 
ATOM     61  C   UNL A   1      46.970  30.396  29.998  1.00  0.00     0.031 C 
ATOM     62  C   UNL A   1      44.592  31.080  30.135  1.00  0.00     0.031 A 
BRANCH  49  63
ATOM     63  C   UNL A   1      38.831  29.159  29.035  1.00  0.00    -0.014 A 
ATOM     64  C   UNL A   1      38.008  28.991  30.160  1.00  0.00     0.009 A 
ATOM     65  C   UNL A   1      38.276  29.703  27.865  1.00  0.00     0.009 A 
ATOM     66  C   UNL A   1      36.653  29.332  30.104  1.00  0.00     0.001 A 
ATOM     67  C   UNL A   1      36.930  30.071  27.822  1.00  0.00     0.001 A 
ATOM     68  C   UNL A   1      36.118  29.877  28.938  1.00  0.00     0.000 A 
ENDBRANCH  49  63
BRANCH  50  69
ATOM     69  C   UNL A   1      48.506  26.691  28.702  1.00  0.00    -0.014 A 
ATOM     70  C   UNL A   1      49.207  26.896  27.503  1.00  0.00     0.009 A 
ATOM     71  C   UNL A   1      49.191  26.145  29.800  1.00  0.00     0.009 A 
ATOM     72  C   UNL A   1      50.552  26.528  27.396  1.00  0.00     0.001 A 
ATOM     73  C   UNL A   1      50.543  25.811  29.700  1.00  0.00     0.001 A 
ATOM     74  C   UNL A   1      51.219  25.990  28.495  1.00  0.00     0.000 A 
ENDBRANCH  50  69
BRANCH  62  75
ATOM     75  C   UNL A   1      45.050  32.408  30.672  1.00  0.00    -0.014 A 
ATOM     76  C   UNL A   1      45.310  33.492  29.820  1.00  0.00     0.009 A 
ATOM     77  C   UNL A   1      45.176  32.586  32.058  1.00  0.00     0.009 A 
ATOM     78  C   UNL A   1      45.723  34.718  30.345  1.00  0.00     0.001 A 
ATOM     79  C   UNL A   1      45.555  33.822  32.583  1.00  0.00     0.001 A 
ATOM     80  C   UNL A   1      45.839  34.883  31.725  1.00  0.00     0.000 A 
ENDBRANCH  62  75
ENDBRANCH  36  37
ENDBRANCH  28  31
ENDBRANCH  26  27
ENDBRANCH  25  26
ENDBRANCH   1  25
TORSDOF 13
ENDMDL
