MODEL 1
REMARK VINA RESULT:     -12.1      0.000      0.000
REMARK SMILES Cc1cc2[nH]c(=O)[nH]c2cc1S(=O)(=O)NCCC(=O)NCCCNC(=O)c1ccc(-c2c3nc(c(-c4ccccc4)c4ccc([nH]4)c(-c4ccccc4)c4nc(c(-c5ccccc5)c5ccc2[nH]5)C=C4)C=C3)cc1
REMARK SMILES IDX 21 1 20 2 18 3 19 4 17 6 16 7 15 8 12 10 13 11 14 12 11 13
REMARK SMILES IDX 1 14 2 15 3 16 4 17 10 18 5 19 9 20 6 21 8 23 7 24 22 26
REMARK SMILES IDX 23 27 24 28 25 29 26 31 27 32 28 33 74 34 29 35 73 36 30 37
REMARK SMILES IDX 31 38 32 39 67 40 33 41 72 42 66 43 68 44 34 45 71 46 65 47
REMARK SMILES IDX 64 48 35 50 57 51 42 52 56 53 43 54 46 55 55 56 69 57 44 58
REMARK SMILES IDX 45 59 54 61 70 62 47 63 36 64 37 65 41 66 38 67 40 68 39 69
REMARK SMILES IDX 58 70 59 71 63 72 60 73 62 74 61 75 48 76 49 77 53 78 50 79
REMARK SMILES IDX 52 80 51 81
REMARK H PARENT 20 5 15 9 5 22 8 25 24 30 68 49 46 60
REMARK Flexibility Score: inf
ROOT
ATOM      1  C   UNL A   1      37.868  21.463  25.449  1.00  0.00     0.117 C 
ENDROOT
BRANCH   1   2
ATOM      2  N   UNL A   1      37.345  22.015  24.213  1.00  0.00    -0.356 N 
ATOM      3  C   UNL A   1      36.404  22.980  24.024  1.00  0.00     0.221 C 
ATOM      4  O   UNL A   1      36.065  23.241  22.868  1.00  0.00    -0.275 OA
ATOM      5  H   UNL A   1      37.725  21.633  23.389  1.00  0.00     0.163 HD
BRANCH   3   6
ATOM      6  C   UNL A   1      35.807  23.728  25.196  1.00  0.00     0.116 C 
BRANCH   6   7
ATOM      7  C   UNL A   1      34.316  23.996  25.075  1.00  0.00     0.109 C 
BRANCH   7   8
ATOM      8  N   UNL A   1      33.526  22.897  24.523  1.00  0.00    -0.211 NA
ATOM      9  H   UNL A   1      32.923  23.324  23.819  1.00  0.00     0.141 HD
BRANCH   8  10
ATOM     10  S   UNL A   1      32.534  21.890  25.402  1.00  0.00     0.240 S 
ATOM     11  O   UNL A   1      31.176  22.337  25.210  1.00  0.00    -0.207 OA
ATOM     12  O   UNL A   1      33.126  21.835  26.726  1.00  0.00    -0.207 OA
BRANCH  10  13
ATOM     13  C   UNL A   1      32.623  20.248  24.740  1.00  0.00     0.087 A 
ATOM     14  C   UNL A   1      31.976  20.869  22.316  1.00  0.00     0.046 C 
ATOM     15  C   UNL A   1      32.328  19.886  23.396  1.00  0.00    -0.029 A 
ATOM     16  C   UNL A   1      32.353  18.519  23.038  1.00  0.00     0.033 A 
ATOM     17  C   UNL A   1      32.720  17.602  23.998  1.00  0.00     0.067 A 
ATOM     18  C   UNL A   1      33.019  19.284  25.695  1.00  0.00     0.050 A 
ATOM     19  N   UNL A   1      32.835  16.220  23.916  1.00  0.00    -0.306 N 
ATOM     20  C   UNL A   1      33.059  17.980  25.289  1.00  0.00     0.068 A 
ATOM     21  C   UNL A   1      33.259  15.727  25.161  1.00  0.00     0.323 A 
ATOM     22  H   UNL A   1      32.650  15.675  23.117  1.00  0.00     0.171 HD
ATOM     23  N   UNL A   1      33.399  16.839  26.003  1.00  0.00    -0.306 N 
ATOM     24  O   UNL A   1      33.460  14.563  25.453  1.00  0.00    -0.248 OA
ATOM     25  H   UNL A   1      33.690  16.815  26.943  1.00  0.00     0.171 HD
ENDBRANCH  10  13
ENDBRANCH   8  10
ENDBRANCH   7   8
ENDBRANCH   6   7
ENDBRANCH   3   6
ENDBRANCH   1   2
BRANCH   1  26
ATOM     26  C   UNL A   1      38.920  22.386  26.074  1.00  0.00     0.042 C 
BRANCH  26  27
ATOM     27  C   UNL A   1      40.131  21.619  26.599  1.00  0.00     0.118 C 
BRANCH  27  28
ATOM     28  N   UNL A   1      41.367  22.095  26.019  1.00  0.00    -0.352 N 
ATOM     29  C   UNL A   1      42.030  23.284  25.977  1.00  0.00     0.251 C 
ATOM     30  H   UNL A   1      41.847  21.385  25.535  1.00  0.00     0.163 HD
ATOM     31  O   UNL A   1      43.075  23.282  25.319  1.00  0.00    -0.269 OA
BRANCH  29  32
ATOM     32  C   UNL A   1      41.591  24.556  26.606  1.00  0.00     0.039 A 
ATOM     33  C   UNL A   1      40.873  25.585  25.992  1.00  0.00     0.014 A 
ATOM     34  C   UNL A   1      42.018  24.735  27.937  1.00  0.00     0.014 A 
ATOM     35  C   UNL A   1      40.685  26.798  26.652  1.00  0.00     0.010 A 
ATOM     36  C   UNL A   1      41.821  25.933  28.603  1.00  0.00     0.010 A 
ATOM     37  C   UNL A   1      41.216  26.986  27.929  1.00  0.00    -0.014 A 
BRANCH  37  38
ATOM     38  C   UNL A   1      41.105  28.301  28.547  1.00  0.00     0.031 A 
ATOM     39  C   UNL A   1      42.217  29.251  28.255  1.00  0.00     0.074 A 
ATOM     40  C   UNL A   1      40.005  28.678  29.231  1.00  0.00     0.049 A 
ATOM     41  N   UNL A   1      42.995  29.861  29.089  1.00  0.00    -0.248 NA
ATOM     42  C   UNL A   1      42.553  29.487  26.842  1.00  0.00     0.031 C 
ATOM     43  C   UNL A   1      38.716  27.989  29.346  1.00  0.00     0.029 A 
ATOM     44  N   UNL A   1      39.775  29.852  29.876  1.00  0.00    -0.354 N 
ATOM     45  C   UNL A   1      43.841  30.662  28.322  1.00  0.00     0.074 A 
ATOM     46  C   UNL A   1      43.597  30.312  26.946  1.00  0.00     0.031 C 
ATOM     47  C   UNL A   1      37.780  28.865  29.778  1.00  0.00     0.029 A 
ATOM     48  C   UNL A   1      38.433  30.115  30.119  1.00  0.00     0.049 A 
ATOM     49  H   UNL A   1      40.496  30.464  30.149  1.00  0.00     0.167 HD
ATOM     50  C   UNL A   1      44.579  31.674  28.858  1.00  0.00     0.031 A 
ATOM     51  C   UNL A   1      37.903  31.310  30.480  1.00  0.00     0.031 A 
ATOM     52  C   UNL A   1      44.708  31.554  30.283  1.00  0.00     0.049 A 
ATOM     53  C   UNL A   1      39.008  32.127  31.043  1.00  0.00     0.074 A 
ATOM     54  C   UNL A   1      45.289  30.622  31.119  1.00  0.00     0.029 A 
ATOM     55  N   UNL A   1      43.862  32.291  31.075  1.00  0.00    -0.354 N 
ATOM     56  N   UNL A   1      39.642  31.823  32.142  1.00  0.00    -0.248 NA
ATOM     57  C   UNL A   1      39.719  33.012  30.132  1.00  0.00     0.031 C 
ATOM     58  C   UNL A   1      44.383  30.506  32.210  1.00  0.00     0.029 A 
ATOM     59  C   UNL A   1      43.352  31.427  32.009  1.00  0.00     0.049 A 
ATOM     60  H   UNL A   1      43.662  33.252  30.989  1.00  0.00     0.167 HD
ATOM     61  C   UNL A   1      40.970  32.125  31.880  1.00  0.00     0.074 A 
ATOM     62  C   UNL A   1      40.946  32.918  30.651  1.00  0.00     0.031 C 
ATOM     63  C   UNL A   1      41.994  31.475  32.508  1.00  0.00     0.031 A 
BRANCH  50  64
ATOM     64  C   UNL A   1      44.934  32.941  28.125  1.00  0.00    -0.014 A 
ATOM     65  C   UNL A   1      46.043  33.040  27.263  1.00  0.00     0.009 A 
ATOM     66  C   UNL A   1      44.001  33.993  28.077  1.00  0.00     0.009 A 
ATOM     67  C   UNL A   1      46.211  34.122  26.394  1.00  0.00     0.001 A 
ATOM     68  C   UNL A   1      44.146  35.058  27.178  1.00  0.00     0.001 A 
ATOM     69  C   UNL A   1      45.249  35.119  26.334  1.00  0.00     0.000 A 
ENDBRANCH  50  64
BRANCH  51  70
ATOM     70  C   UNL A   1      36.672  31.924  29.923  1.00  0.00    -0.014 A 
ATOM     71  C   UNL A   1      36.651  32.382  28.590  1.00  0.00     0.009 A 
ATOM     72  C   UNL A   1      35.617  32.320  30.760  1.00  0.00     0.009 A 
ATOM     73  C   UNL A   1      35.641  33.228  28.122  1.00  0.00     0.001 A 
ATOM     74  C   UNL A   1      34.604  33.169  30.290  1.00  0.00     0.001 A 
ATOM     75  C   UNL A   1      34.624  33.635  28.976  1.00  0.00     0.000 A 
ENDBRANCH  51  70
BRANCH  63  76
ATOM     76  C   UNL A   1      41.679  30.497  33.618  1.00  0.00    -0.014 A 
ATOM     77  C   UNL A   1      41.948  30.890  34.938  1.00  0.00     0.009 A 
ATOM     78  C   UNL A   1      41.393  29.142  33.374  1.00  0.00     0.009 A 
ATOM     79  C   UNL A   1      41.971  29.955  35.977  1.00  0.00     0.001 A 
ATOM     80  C   UNL A   1      41.394  28.209  34.419  1.00  0.00     0.001 A 
ATOM     81  C   UNL A   1      41.700  28.614  35.716  1.00  0.00     0.000 A 
ENDBRANCH  63  76
ENDBRANCH  37  38
ENDBRANCH  29  32
ENDBRANCH  27  28
ENDBRANCH  26  27
ENDBRANCH   1  26
TORSDOF 14
ENDMDL
MODEL 2
REMARK VINA RESULT:     -11.6      3.003      7.089
REMARK SMILES Cc1cc2[nH]c(=O)[nH]c2cc1S(=O)(=O)NCCC(=O)NCCCNC(=O)c1ccc(-c2c3nc(c(-c4ccccc4)c4ccc([nH]4)c(-c4ccccc4)c4nc(c(-c5ccccc5)c5ccc2[nH]5)C=C4)C=C3)cc1
REMARK SMILES IDX 21 1 20 2 18 3 19 4 17 6 16 7 15 8 12 10 13 11 14 12 11 13
REMARK SMILES IDX 1 14 2 15 3 16 4 17 10 18 5 19 9 20 6 21 8 23 7 24 22 26
REMARK SMILES IDX 23 27 24 28 25 29 26 31 27 32 28 33 74 34 29 35 73 36 30 37
REMARK SMILES IDX 31 38 32 39 67 40 33 41 72 42 66 43 68 44 34 45 71 46 65 47
REMARK SMILES IDX 64 48 35 50 57 51 42 52 56 53 43 54 46 55 55 56 69 57 44 58
REMARK SMILES IDX 45 59 54 61 70 62 47 63 36 64 37 65 41 66 38 67 40 68 39 69
REMARK SMILES IDX 58 70 59 71 63 72 60 73 62 74 61 75 48 76 49 77 53 78 50 79
REMARK SMILES IDX 52 80 51 81
REMARK H PARENT 20 5 15 9 5 22 8 25 24 30 68 49 46 60
REMARK Flexibility Score: inf
ROOT
ATOM      1  C   UNL A   1      33.534  28.593  24.722  1.00  0.00     0.117 C 
ENDROOT
BRANCH   1   2
ATOM      2  N   UNL A   1      32.550  27.547  24.518  1.00  0.00    -0.356 N 
ATOM      3  C   UNL A   1      32.714  26.196  24.489  1.00  0.00     0.221 C 
ATOM      4  O   UNL A   1      31.732  25.498  24.229  1.00  0.00    -0.275 OA
ATOM      5  H   UNL A   1      31.627  27.861  24.378  1.00  0.00     0.163 HD
BRANCH   3   6
ATOM      6  C   UNL A   1      34.056  25.567  24.790  1.00  0.00     0.116 C 
BRANCH   6   7
ATOM      7  C   UNL A   1      33.984  24.321  25.658  1.00  0.00     0.109 C 
BRANCH   7   8
ATOM      8  N   UNL A   1      33.392  23.147  25.018  1.00  0.00    -0.211 NA
ATOM      9  H   UNL A   1      32.863  23.509  24.224  1.00  0.00     0.141 HD
BRANCH   8  10
ATOM     10  S   UNL A   1      32.380  22.056  25.763  1.00  0.00     0.240 S 
ATOM     11  O   UNL A   1      31.023  22.482  25.523  1.00  0.00    -0.207 OA
ATOM     12  O   UNL A   1      32.896  21.918  27.112  1.00  0.00    -0.207 OA
BRANCH  10  13
ATOM     13  C   UNL A   1      32.553  20.468  24.992  1.00  0.00     0.087 A 
ATOM     14  C   UNL A   1      32.109  21.263  22.573  1.00  0.00     0.046 C 
ATOM     15  C   UNL A   1      32.382  20.205  23.605  1.00  0.00    -0.029 A 
ATOM     16  C   UNL A   1      32.460  18.869  23.150  1.00  0.00     0.033 A 
ATOM     17  C   UNL A   1      32.758  17.887  24.068  1.00  0.00     0.067 A 
ATOM     18  C   UNL A   1      32.880  19.440  25.904  1.00  0.00     0.050 A 
ATOM     19  N   UNL A   1      32.902  16.516  23.895  1.00  0.00    -0.306 N 
ATOM     20  C   UNL A   1      32.977  18.170  25.408  1.00  0.00     0.068 A 
ATOM     21  C   UNL A   1      33.224  15.936  25.133  1.00  0.00     0.323 A 
ATOM     22  H   UNL A   1      32.795  16.031  23.045  1.00  0.00     0.171 HD
ATOM     23  N   UNL A   1      33.272  16.983  26.063  1.00  0.00    -0.306 N 
ATOM     24  O   UNL A   1      33.418  14.755  25.354  1.00  0.00    -0.248 OA
ATOM     25  H   UNL A   1      33.481  16.890  27.021  1.00  0.00     0.171 HD
ENDBRANCH  10  13
ENDBRANCH   8  10
ENDBRANCH   7   8
ENDBRANCH   6   7
ENDBRANCH   3   6
ENDBRANCH   1   2
BRANCH   1  26
ATOM     26  C   UNL A   1      33.505  29.120  26.160  1.00  0.00     0.042 C 
BRANCH  26  27
ATOM     27  C   UNL A   1      34.741  28.710  26.957  1.00  0.00     0.118 C 
BRANCH  27  28
ATOM     28  N   UNL A   1      35.035  29.644  28.021  1.00  0.00    -0.352 N 
ATOM     29  C   UNL A   1      36.113  29.919  28.806  1.00  0.00     0.251 C 
ATOM     30  H   UNL A   1      34.267  30.224  28.229  1.00  0.00     0.163 HD
ATOM     31  O   UNL A   1      35.937  30.798  29.656  1.00  0.00    -0.269 OA
BRANCH  29  32
ATOM     32  C   UNL A   1      37.433  29.240  28.754  1.00  0.00     0.039 A 
ATOM     33  C   UNL A   1      37.937  28.324  29.680  1.00  0.00     0.014 A 
ATOM     34  C   UNL A   1      38.258  29.635  27.682  1.00  0.00     0.014 A 
ATOM     35  C   UNL A   1      39.263  27.903  29.598  1.00  0.00     0.010 A 
ATOM     36  C   UNL A   1      39.572  29.209  27.587  1.00  0.00     0.010 A 
ATOM     37  C   UNL A   1      40.090  28.398  28.589  1.00  0.00    -0.014 A 
BRANCH  37  38
ATOM     38  C   UNL A   1      41.500  28.031  28.596  1.00  0.00     0.031 A 
ATOM     39  C   UNL A   1      41.851  26.793  27.842  1.00  0.00     0.074 A 
ATOM     40  C   UNL A   1      42.444  28.830  29.135  1.00  0.00     0.049 A 
ATOM     41  N   UNL A   1      42.446  25.729  28.274  1.00  0.00    -0.248 NA
ATOM     42  C   UNL A   1      41.409  26.702  26.441  1.00  0.00     0.031 C 
ATOM     43  C   UNL A   1      42.308  30.203  29.632  1.00  0.00     0.029 A 
ATOM     44  N   UNL A   1      43.781  28.607  29.235  1.00  0.00    -0.354 N 
ATOM     45  C   UNL A   1      42.574  24.877  27.177  1.00  0.00     0.074 A 
ATOM     46  C   UNL A   1      41.824  25.481  26.104  1.00  0.00     0.031 C 
ATOM     47  C   UNL A   1      43.534  30.768  29.721  1.00  0.00     0.029 A 
ATOM     48  C   UNL A   1      44.535  29.753  29.445  1.00  0.00     0.049 A 
ATOM     49  H   UNL A   1      44.181  27.710  29.166  1.00  0.00     0.167 HD
ATOM     50  C   UNL A   1      43.416  23.806  27.172  1.00  0.00     0.031 A 
ATOM     51  C   UNL A   1      45.880  29.866  29.303  1.00  0.00     0.031 A 
ATOM     52  C   UNL A   1      43.813  23.425  28.498  1.00  0.00     0.049 A 
ATOM     53  C   UNL A   1      46.444  28.494  29.378  1.00  0.00     0.074 A 
ATOM     54  C   UNL A   1      43.137  22.951  29.604  1.00  0.00     0.029 A 
ATOM     55  N   UNL A   1      45.027  23.867  28.963  1.00  0.00    -0.354 N 
ATOM     56  N   UNL A   1      46.395  27.752  30.449  1.00  0.00    -0.248 NA
ATOM     57  C   UNL A   1      46.633  27.778  28.125  1.00  0.00     0.031 C 
ATOM     58  C   UNL A   1      43.746  23.613  30.707  1.00  0.00     0.029 A 
ATOM     59  C   UNL A   1      44.800  24.384  30.213  1.00  0.00     0.049 A 
ATOM     60  H   UNL A   1      45.891  23.821  28.492  1.00  0.00     0.167 HD
ATOM     61  C   UNL A   1      46.126  26.473  29.983  1.00  0.00     0.074 A 
ATOM     62  C   UNL A   1      46.352  26.540  28.539  1.00  0.00     0.031 C 
ATOM     63  C   UNL A   1      45.471  25.550  30.746  1.00  0.00     0.031 A 
BRANCH  50  64
ATOM     64  C   UNL A   1      44.118  23.289  25.944  1.00  0.00    -0.014 A 
ATOM     65  C   UNL A   1      45.197  23.960  25.340  1.00  0.00     0.009 A 
ATOM     66  C   UNL A   1      43.879  21.968  25.521  1.00  0.00     0.009 A 
ATOM     67  C   UNL A   1      46.002  23.351  24.374  1.00  0.00     0.001 A 
ATOM     68  C   UNL A   1      44.709  21.341  24.582  1.00  0.00     0.001 A 
ATOM     69  C   UNL A   1      45.773  22.032  24.013  1.00  0.00     0.000 A 
ENDBRANCH  50  64
BRANCH  51  70
ATOM     70  C   UNL A   1      46.597  30.980  28.634  1.00  0.00    -0.014 A 
ATOM     71  C   UNL A   1      46.076  31.549  27.455  1.00  0.00     0.009 A 
ATOM     72  C   UNL A   1      47.921  31.299  28.977  1.00  0.00     0.009 A 
ATOM     73  C   UNL A   1      46.852  32.373  26.634  1.00  0.00     0.001 A 
ATOM     74  C   UNL A   1      48.699  32.125  28.153  1.00  0.00     0.001 A 
ATOM     75  C   UNL A   1      48.170  32.649  26.974  1.00  0.00     0.000 A 
ENDBRANCH  51  70
BRANCH  63  76
ATOM     76  C   UNL A   1      45.150  25.877  32.187  1.00  0.00    -0.014 A 
ATOM     77  C   UNL A   1      45.879  25.220  33.191  1.00  0.00     0.009 A 
ATOM     78  C   UNL A   1      43.995  26.587  32.564  1.00  0.00     0.009 A 
ATOM     79  C   UNL A   1      45.449  25.235  34.521  1.00  0.00     0.001 A 
ATOM     80  C   UNL A   1      43.577  26.621  33.900  1.00  0.00     0.001 A 
ATOM     81  C   UNL A   1      44.295  25.930  34.874  1.00  0.00     0.000 A 
ENDBRANCH  63  76
ENDBRANCH  37  38
ENDBRANCH  29  32
ENDBRANCH  27  28
ENDBRANCH  26  27
ENDBRANCH   1  26
TORSDOF 14
ENDMDL
MODEL 3
REMARK VINA RESULT:     -11.6      4.613      9.250
REMARK SMILES Cc1cc2[nH]c(=O)[nH]c2cc1S(=O)(=O)NCCC(=O)NCCCNC(=O)c1ccc(-c2c3nc(c(-c4ccccc4)c4ccc([nH]4)c(-c4ccccc4)c4nc(c(-c5ccccc5)c5ccc2[nH]5)C=C4)C=C3)cc1
REMARK SMILES IDX 21 1 20 2 18 3 19 4 17 6 16 7 15 8 12 10 13 11 14 12 11 13
REMARK SMILES IDX 1 14 2 15 3 16 4 17 10 18 5 19 9 20 6 21 8 23 7 24 22 26
REMARK SMILES IDX 23 27 24 28 25 29 26 31 27 32 28 33 74 34 29 35 73 36 30 37
REMARK SMILES IDX 31 38 32 39 67 40 33 41 72 42 66 43 68 44 34 45 71 46 65 47
REMARK SMILES IDX 64 48 35 50 57 51 42 52 56 53 43 54 46 55 55 56 69 57 44 58
REMARK SMILES IDX 45 59 54 61 70 62 47 63 36 64 37 65 41 66 38 67 40 68 39 69
REMARK SMILES IDX 58 70 59 71 63 72 60 73 62 74 61 75 48 76 49 77 53 78 50 79
REMARK SMILES IDX 52 80 51 81
REMARK H PARENT 20 5 15 9 5 22 8 25 24 30 68 49 46 60
REMARK Flexibility Score: inf
ROOT
ATOM      1  C   UNL A   1      33.798  31.105  27.387  1.00  0.00     0.117 C 
ENDROOT
BRANCH   1   2
ATOM      2  N   UNL A   1      34.281  29.797  26.987  1.00  0.00    -0.356 N 
ATOM      3  C   UNL A   1      33.607  28.759  26.421  1.00  0.00     0.221 C 
ATOM      4  O   UNL A   1      34.218  27.706  26.227  1.00  0.00    -0.275 OA
ATOM      5  H   UNL A   1      35.239  29.635  27.149  1.00  0.00     0.163 HD
BRANCH   3   6
ATOM      6  C   UNL A   1      32.155  28.899  26.020  1.00  0.00     0.116 C 
BRANCH   6   7
ATOM      7  C   UNL A   1      31.407  27.581  25.901  1.00  0.00     0.109 C 
BRANCH   7   8
ATOM      8  N   UNL A   1      31.810  26.733  24.779  1.00  0.00    -0.211 NA
ATOM      9  H   UNL A   1      32.812  26.582  24.900  1.00  0.00     0.141 HD
BRANCH   8  10
ATOM     10  S   UNL A   1      31.610  27.110  23.170  1.00  0.00     0.240 S 
ATOM     11  O   UNL A   1      31.315  25.886  22.467  1.00  0.00    -0.207 OA
ATOM     12  O   UNL A   1      32.766  27.916  22.823  1.00  0.00    -0.207 OA
BRANCH  10  13
ATOM     13  C   UNL A   1      30.190  28.156  22.981  1.00  0.00     0.087 A 
ATOM     14  C   UNL A   1      28.455  26.467  23.886  1.00  0.00     0.046 C 
ATOM     15  C   UNL A   1      28.850  27.784  23.281  1.00  0.00    -0.029 A 
ATOM     16  C   UNL A   1      27.810  28.695  22.989  1.00  0.00     0.033 A 
ATOM     17  C   UNL A   1      28.150  29.929  22.479  1.00  0.00     0.067 A 
ATOM     18  C   UNL A   1      30.507  29.438  22.480  1.00  0.00     0.050 A 
ATOM     19  N   UNL A   1      27.342  30.999  22.118  1.00  0.00    -0.306 N 
ATOM     20  C   UNL A   1      29.467  30.293  22.247  1.00  0.00     0.068 A 
ATOM     21  C   UNL A   1      28.158  32.048  21.663  1.00  0.00     0.323 A 
ATOM     22  H   UNL A   1      26.359  31.020  22.170  1.00  0.00     0.171 HD
ATOM     23  N   UNL A   1      29.481  31.592  21.756  1.00  0.00    -0.306 N 
ATOM     24  O   UNL A   1      27.789  33.136  21.263  1.00  0.00    -0.248 OA
ATOM     25  H   UNL A   1      30.284  32.107  21.515  1.00  0.00     0.171 HD
ENDBRANCH  10  13
ENDBRANCH   8  10
ENDBRANCH   7   8
ENDBRANCH   6   7
ENDBRANCH   3   6
ENDBRANCH   1   2
BRANCH   1  26
ATOM     26  C   UNL A   1      34.954  32.066  27.680  1.00  0.00     0.042 C 
BRANCH  26  27
ATOM     27  C   UNL A   1      34.509  33.290  28.476  1.00  0.00     0.118 C 
BRANCH  27  28
ATOM     28  N   UNL A   1      34.481  33.032  29.898  1.00  0.00    -0.352 N 
ATOM     29  C   UNL A   1      35.197  32.262  30.764  1.00  0.00     0.251 C 
ATOM     30  H   UNL A   1      33.768  33.536  30.354  1.00  0.00     0.163 HD
ATOM     31  O   UNL A   1      34.815  32.291  31.938  1.00  0.00    -0.269 OA
BRANCH  29  32
ATOM     32  C   UNL A   1      36.344  31.383  30.414  1.00  0.00     0.039 A 
ATOM     33  C   UNL A   1      36.302  30.002  30.209  1.00  0.00     0.014 A 
ATOM     34  C   UNL A   1      37.591  32.035  30.356  1.00  0.00     0.014 A 
ATOM     35  C   UNL A   1      37.486  29.281  30.063  1.00  0.00     0.010 A 
ATOM     36  C   UNL A   1      38.769  31.326  30.197  1.00  0.00     0.010 A 
ATOM     37  C   UNL A   1      38.715  29.940  30.121  1.00  0.00    -0.014 A 
BRANCH  37  38
ATOM     38  C   UNL A   1      39.938  29.148  30.082  1.00  0.00     0.031 A 
ATOM     39  C   UNL A   1      40.546  28.828  31.405  1.00  0.00     0.074 A 
ATOM     40  C   UNL A   1      40.414  28.626  28.933  1.00  0.00     0.049 A 
ATOM     41  N   UNL A   1      41.740  29.094  31.828  1.00  0.00    -0.248 NA
ATOM     42  C   UNL A   1      39.681  28.200  32.417  1.00  0.00     0.031 C 
ATOM     43  C   UNL A   1      39.779  28.585  27.612  1.00  0.00     0.029 A 
ATOM     44  N   UNL A   1      41.545  27.896  28.743  1.00  0.00    -0.354 N 
ATOM     45  C   UNL A   1      41.830  28.556  33.112  1.00  0.00     0.074 A 
ATOM     46  C   UNL A   1      40.504  28.115  33.462  1.00  0.00     0.031 C 
ATOM     47  C   UNL A   1      40.395  27.653  26.850  1.00  0.00     0.029 A 
ATOM     48  C   UNL A   1      41.555  27.157  27.568  1.00  0.00     0.049 A 
ATOM     49  H   UNL A   1      42.293  27.892  29.382  1.00  0.00     0.167 HD
ATOM     50  C   UNL A   1      43.021  28.367  33.747  1.00  0.00     0.031 A 
ATOM     51  C   UNL A   1      42.406  26.144  27.265  1.00  0.00     0.031 A 
ATOM     52  C   UNL A   1      44.078  29.134  33.153  1.00  0.00     0.049 A 
ATOM     53  C   UNL A   1      43.592  26.292  28.145  1.00  0.00     0.074 A 
ATOM     54  C   UNL A   1      44.317  30.486  33.004  1.00  0.00     0.029 A 
ATOM     55  N   UNL A   1      44.913  28.506  32.261  1.00  0.00    -0.354 N 
ATOM     56  N   UNL A   1      44.417  27.301  28.081  1.00  0.00    -0.248 NA
ATOM     57  C   UNL A   1      43.587  25.563  29.405  1.00  0.00     0.031 C 
ATOM     58  C   UNL A   1      44.865  30.610  31.696  1.00  0.00     0.029 A 
ATOM     59  C   UNL A   1      44.997  29.325  31.164  1.00  0.00     0.049 A 
ATOM     60  H   UNL A   1      45.363  27.639  32.385  1.00  0.00     0.167 HD
ATOM     61  C   UNL A   1      44.720  27.595  29.403  1.00  0.00     0.074 A 
ATOM     62  C   UNL A   1      44.235  26.447  30.169  1.00  0.00     0.031 C 
ATOM     63  C   UNL A   1      45.074  28.852  29.799  1.00  0.00     0.031 A 
BRANCH  50  64
ATOM     64  C   UNL A   1      43.289  27.253  34.724  1.00  0.00    -0.014 A 
ATOM     65  C   UNL A   1      43.380  25.902  34.338  1.00  0.00     0.009 A 
ATOM     66  C   UNL A   1      43.724  27.568  36.024  1.00  0.00     0.009 A 
ATOM     67  C   UNL A   1      43.885  24.919  35.194  1.00  0.00     0.001 A 
ATOM     68  C   UNL A   1      44.267  26.592  36.870  1.00  0.00     0.001 A 
ATOM     69  C   UNL A   1      44.351  25.269  36.452  1.00  0.00     0.000 A 
ENDBRANCH  50  64
BRANCH  51  70
ATOM     70  C   UNL A   1      42.033  24.845  26.652  1.00  0.00    -0.014 A 
ATOM     71  C   UNL A   1      40.958  24.099  27.174  1.00  0.00     0.009 A 
ATOM     72  C   UNL A   1      42.891  24.198  25.747  1.00  0.00     0.009 A 
ATOM     73  C   UNL A   1      40.766  22.755  26.838  1.00  0.00     0.001 A 
ATOM     74  C   UNL A   1      42.698  22.850  25.410  1.00  0.00     0.001 A 
ATOM     75  C   UNL A   1      41.646  22.125  25.966  1.00  0.00     0.000 A 
ENDBRANCH  51  70
BRANCH  63  76
ATOM     76  C   UNL A   1      45.275  29.927  28.754  1.00  0.00    -0.014 A 
ATOM     77  C   UNL A   1      44.138  30.445  28.114  1.00  0.00     0.009 A 
ATOM     78  C   UNL A   1      46.537  30.231  28.213  1.00  0.00     0.009 A 
ATOM     79  C   UNL A   1      44.253  31.206  26.947  1.00  0.00     0.001 A 
ATOM     80  C   UNL A   1      46.653  31.012  27.056  1.00  0.00     0.001 A 
ATOM     81  C   UNL A   1      45.510  31.484  26.415  1.00  0.00     0.000 A 
ENDBRANCH  63  76
ENDBRANCH  37  38
ENDBRANCH  29  32
ENDBRANCH  27  28
ENDBRANCH  26  27
ENDBRANCH   1  26
TORSDOF 14
ENDMDL
