MODEL 1
REMARK VINA RESULT:     -13.6      0.000      0.000
REMARK SMILES Cc1ccc2nc(C(=O)N3CCC4(CC3)[C@H](C(=O)NCCCNC(=O)c3ccc(-c5c6nc(c(-c7ccccc7)c7ccc([nH]7)c(-c7ccccc7)c7nc(c(-c8ccccc8)c8ccc5[nH]8)C=C7)C=C6)cc3)CC(=O)N4C)cn2c1
REMARK SMILES IDX 21 1 20 2 19 3 17 4 18 5 16 7 8 8 9 9 10 10 11 11 15 12
REMARK SMILES IDX 12 13 14 14 13 15 77 16 74 17 75 18 78 19 76 20 7 21 1 22
REMARK SMILES IDX 2 23 3 24 81 25 4 26 80 27 5 28 79 29 6 30 22 31 23 32 24 33
REMARK SMILES IDX 25 35 26 36 27 37 73 38 28 39 72 40 29 41 30 42 31 43 66 44
REMARK SMILES IDX 32 45 71 46 65 47 67 48 33 49 70 50 64 51 63 52 34 54 56 55
REMARK SMILES IDX 41 56 55 57 42 58 45 59 54 60 68 61 43 62 44 63 53 65 69 66
REMARK SMILES IDX 46 67 35 68 36 69 40 70 37 71 39 72 38 73 57 74 58 75 62 76
REMARK SMILES IDX 59 77 61 78 60 79 47 80 48 81 52 82 49 83 51 84 50 85
REMARK H PARENT 19 6 23 34 67 53 45 64
REMARK Flexibility Score: inf
ROOT
ATOM      1  C   UNL A   1      35.410  30.764  27.676  1.00  0.00     0.042 C 
ENDROOT
BRANCH   1   2
ATOM      2  C   UNL A   1      34.885  29.339  27.446  1.00  0.00     0.117 C 
BRANCH   2   3
ATOM      3  N   UNL A   1      33.473  29.137  27.741  1.00  0.00    -0.356 N 
ATOM      4  C   UNL A   1      32.404  28.707  27.024  1.00  0.00     0.226 C 
ATOM      5  O   UNL A   1      31.355  28.556  27.665  1.00  0.00    -0.275 OA
ATOM      6  H   UNL A   1      33.242  29.363  28.672  1.00  0.00     0.163 HD
BRANCH   4   7
ATOM      7  C   UNL A   1      32.392  28.419  25.520  1.00  0.00     0.113 C 
ATOM      8  C   UNL A   1      32.082  22.891  25.301  1.00  0.00     0.274 C 
ATOM      9  O   UNL A   1      31.297  22.133  25.843  1.00  0.00    -0.267 OA
ATOM     10  N   UNL A   1      31.711  24.186  24.929  1.00  0.00    -0.337 N 
ATOM     11  C   UNL A   1      30.788  24.852  25.804  1.00  0.00     0.122 C 
ATOM     12  C   UNL A   1      32.162  24.901  23.739  1.00  0.00     0.122 C 
ATOM     13  C   UNL A   1      31.402  26.177  26.195  1.00  0.00     0.051 C 
ATOM     14  C   UNL A   1      32.590  26.355  24.017  1.00  0.00     0.051 C 
ATOM     15  C   UNL A   1      31.674  27.127  25.018  1.00  0.00     0.058 C 
ATOM     16  N   UNL A   1      30.498  27.699  24.328  1.00  0.00    -0.339 N 
ATOM     17  C   UNL A   1      31.850  29.588  24.709  1.00  0.00     0.116 C 
ATOM     18  C   UNL A   1      30.572  29.073  24.131  1.00  0.00     0.223 C 
ATOM     19  C   UNL A   1      29.349  26.977  23.818  1.00  0.00     0.147 C 
ATOM     20  O   UNL A   1      29.735  29.772  23.583  1.00  0.00    -0.275 OA
BRANCH   8  21
ATOM     21  C   UNL A   1      33.504  22.565  25.188  1.00  0.00     0.147 A 
ATOM     22  C   UNL A   1      38.700  19.682  25.019  1.00  0.00     0.046 C 
ATOM     23  C   UNL A   1      37.603  20.687  25.160  1.00  0.00    -0.034 A 
ATOM     24  C   UNL A   1      37.946  22.068  25.501  1.00  0.00     0.009 A 
ATOM     25  C   UNL A   1      36.303  20.377  24.994  1.00  0.00     0.096 A 
ATOM     26  C   UNL A   1      37.005  23.025  25.625  1.00  0.00     0.048 A 
ATOM     27  N   UNL A   1      35.344  21.375  25.110  1.00  0.00    -0.306 N 
ATOM     28  C   UNL A   1      35.637  22.699  25.410  1.00  0.00     0.137 A 
ATOM     29  C   UNL A   1      33.989  21.290  24.970  1.00  0.00     0.127 A 
ATOM     30  N   UNL A   1      34.550  23.436  25.456  1.00  0.00    -0.223 NA
ENDBRANCH   8  21
ENDBRANCH   4   7
ENDBRANCH   2   3
ENDBRANCH   1   2
BRANCH   1  31
ATOM     31  C   UNL A   1      34.349  31.809  28.011  1.00  0.00     0.118 C 
BRANCH  31  32
ATOM     32  N   UNL A   1      34.533  32.413  29.312  1.00  0.00    -0.352 N 
ATOM     33  C   UNL A   1      35.468  32.268  30.303  1.00  0.00     0.251 C 
ATOM     34  H   UNL A   1      33.835  33.071  29.534  1.00  0.00     0.163 HD
ATOM     35  O   UNL A   1      35.348  33.018  31.273  1.00  0.00    -0.269 OA
BRANCH  33  36
ATOM     36  C   UNL A   1      36.570  31.258  30.314  1.00  0.00     0.039 A 
ATOM     37  C   UNL A   1      36.456  29.923  30.698  1.00  0.00     0.014 A 
ATOM     38  C   UNL A   1      37.838  31.717  29.904  1.00  0.00     0.014 A 
ATOM     39  C   UNL A   1      37.582  29.101  30.751  1.00  0.00     0.010 A 
ATOM     40  C   UNL A   1      38.961  30.888  29.914  1.00  0.00     0.010 A 
ATOM     41  C   UNL A   1      38.841  29.579  30.368  1.00  0.00    -0.014 A 
BRANCH  41  42
ATOM     42  C   UNL A   1      39.939  28.607  30.328  1.00  0.00     0.031 A 
ATOM     43  C   UNL A   1      40.631  28.403  31.630  1.00  0.00     0.074 A 
ATOM     44  C   UNL A   1      40.304  27.827  29.290  1.00  0.00     0.049 A 
ATOM     45  N   UNL A   1      41.856  28.690  31.926  1.00  0.00    -0.248 NA
ATOM     46  C   UNL A   1      39.838  27.887  32.755  1.00  0.00     0.031 C 
ATOM     47  C   UNL A   1      39.566  27.596  28.048  1.00  0.00     0.029 A 
ATOM     48  N   UNL A   1      41.385  26.990  29.174  1.00  0.00    -0.354 N 
ATOM     49  C   UNL A   1      42.050  28.215  33.220  1.00  0.00     0.074 A 
ATOM     50  C   UNL A   1      40.750  27.860  33.728  1.00  0.00     0.031 C 
ATOM     51  C   UNL A   1      40.091  26.521  27.415  1.00  0.00     0.029 A 
ATOM     52  C   UNL A   1      41.296  26.103  28.114  1.00  0.00     0.049 A 
ATOM     53  H   UNL A   1      42.155  27.017  29.790  1.00  0.00     0.167 HD
ATOM     54  C   UNL A   1      43.295  27.900  33.670  1.00  0.00     0.031 A 
ATOM     55  C   UNL A   1      42.127  25.074  27.828  1.00  0.00     0.031 A 
ATOM     56  C   UNL A   1      44.332  28.446  32.837  1.00  0.00     0.049 A 
ATOM     57  C   UNL A   1      43.457  25.327  28.420  1.00  0.00     0.074 A 
ATOM     58  C   UNL A   1      44.993  29.642  32.673  1.00  0.00     0.029 A 
ATOM     59  N   UNL A   1      44.631  27.666  31.758  1.00  0.00    -0.354 N 
ATOM     60  N   UNL A   1      44.253  26.281  28.030  1.00  0.00    -0.248 NA
ATOM     61  C   UNL A   1      43.864  24.629  29.635  1.00  0.00     0.031 C 
ATOM     62  C   UNL A   1      45.611  29.590  31.384  1.00  0.00     0.029 A 
ATOM     63  C   UNL A   1      45.323  28.359  30.801  1.00  0.00     0.049 A 
ATOM     64  H   UNL A   1      44.380  26.718  31.678  1.00  0.00     0.167 HD
ATOM     65  C   UNL A   1      45.005  26.574  29.148  1.00  0.00     0.074 A 
ATOM     66  C   UNL A   1      44.866  25.419  30.024  1.00  0.00     0.031 C 
ATOM     67  C   UNL A   1      45.356  27.857  29.442  1.00  0.00     0.031 A 
BRANCH  54  68
ATOM     68  C   UNL A   1      43.585  26.693  34.542  1.00  0.00    -0.014 A 
ATOM     69  C   UNL A   1      43.456  26.695  35.944  1.00  0.00     0.009 A 
ATOM     70  C   UNL A   1      43.687  25.430  33.925  1.00  0.00     0.009 A 
ATOM     71  C   UNL A   1      43.411  25.511  36.689  1.00  0.00     0.001 A 
ATOM     72  C   UNL A   1      43.606  24.242  34.664  1.00  0.00     0.001 A 
ATOM     73  C   UNL A   1      43.464  24.283  36.046  1.00  0.00     0.000 A 
ENDBRANCH  54  68
BRANCH  55  74
ATOM     74  C   UNL A   1      41.797  23.761  27.232  1.00  0.00    -0.014 A 
ATOM     75  C   UNL A   1      40.926  22.885  27.903  1.00  0.00     0.009 A 
ATOM     76  C   UNL A   1      42.558  23.247  26.170  1.00  0.00     0.009 A 
ATOM     77  C   UNL A   1      40.859  21.531  27.561  1.00  0.00     0.001 A 
ATOM     78  C   UNL A   1      42.497  21.889  25.833  1.00  0.00     0.001 A 
ATOM     79  C   UNL A   1      41.661  21.030  26.541  1.00  0.00     0.000 A 
ENDBRANCH  55  74
BRANCH  67  80
ATOM     80  C   UNL A   1      45.541  28.829  28.316  1.00  0.00    -0.014 A 
ATOM     81  C   UNL A   1      46.796  28.873  27.688  1.00  0.00     0.009 A 
ATOM     82  C   UNL A   1      44.554  29.733  27.893  1.00  0.00     0.009 A 
ATOM     83  C   UNL A   1      47.062  29.792  26.671  1.00  0.00     0.001 A 
ATOM     84  C   UNL A   1      44.810  30.636  26.855  1.00  0.00     0.001 A 
ATOM     85  C   UNL A   1      46.065  30.669  26.250  1.00  0.00     0.000 A 
ENDBRANCH  67  80
ENDBRANCH  41  42
ENDBRANCH  33  36
ENDBRANCH  31  32
ENDBRANCH   1  31
TORSDOF 11
ENDMDL
MODEL 2
REMARK VINA RESULT:     -13.6      2.826      8.613
REMARK SMILES Cc1ccc2nc(C(=O)N3CCC4(CC3)[C@H](C(=O)NCCCNC(=O)c3ccc(-c5c6nc(c(-c7ccccc7)c7ccc([nH]7)c(-c7ccccc7)c7nc(c(-c8ccccc8)c8ccc5[nH]8)C=C7)C=C6)cc3)CC(=O)N4C)cn2c1
REMARK SMILES IDX 21 1 20 2 19 3 17 4 18 5 16 7 8 8 9 9 10 10 11 11 15 12
REMARK SMILES IDX 12 13 14 14 13 15 77 16 74 17 75 18 78 19 76 20 7 21 1 22
REMARK SMILES IDX 2 23 3 24 81 25 4 26 80 27 5 28 79 29 6 30 22 31 23 32 24 33
REMARK SMILES IDX 25 35 26 36 27 37 73 38 28 39 72 40 29 41 30 42 31 43 66 44
REMARK SMILES IDX 32 45 71 46 65 47 67 48 33 49 70 50 64 51 63 52 34 54 56 55
REMARK SMILES IDX 41 56 55 57 42 58 45 59 54 60 68 61 43 62 44 63 53 65 69 66
REMARK SMILES IDX 46 67 35 68 36 69 40 70 37 71 39 72 38 73 57 74 58 75 62 76
REMARK SMILES IDX 59 77 61 78 60 79 47 80 48 81 52 82 49 83 51 84 50 85
REMARK H PARENT 19 6 23 34 67 53 45 64
REMARK Flexibility Score: inf
ROOT
ATOM      1  C   UNL A   1      39.324  21.352  26.132  1.00  0.00     0.042 C 
ENDROOT
BRANCH   1   2
ATOM      2  C   UNL A   1      38.347  22.517  25.919  1.00  0.00     0.117 C 
BRANCH   2   3
ATOM      3  N   UNL A   1      37.805  22.642  24.572  1.00  0.00    -0.356 N 
ATOM      4  C   UNL A   1      36.554  22.637  24.046  1.00  0.00     0.226 C 
ATOM      5  O   UNL A   1      36.480  22.888  22.836  1.00  0.00    -0.275 OA
ATOM      6  H   UNL A   1      38.505  22.755  23.888  1.00  0.00     0.163 HD
BRANCH   4   7
ATOM      7  C   UNL A   1      35.262  22.335  24.812  1.00  0.00     0.113 C 
ATOM      8  C   UNL A   1      31.722  26.117  22.848  1.00  0.00     0.274 C 
ATOM      9  O   UNL A   1      31.431  26.388  21.696  1.00  0.00    -0.267 OA
ATOM     10  N   UNL A   1      32.100  24.825  23.223  1.00  0.00    -0.337 N 
ATOM     11  C   UNL A   1      32.858  24.084  22.255  1.00  0.00     0.122 C 
ATOM     12  C   UNL A   1      31.781  24.171  24.489  1.00  0.00     0.122 C 
ATOM     13  C   UNL A   1      34.126  23.612  22.931  1.00  0.00     0.051 C 
ATOM     14  C   UNL A   1      32.983  23.456  25.134  1.00  0.00     0.051 C 
ATOM     15  C   UNL A   1      33.900  22.684  24.134  1.00  0.00     0.058 C 
ATOM     16  N   UNL A   1      33.363  21.335  23.854  1.00  0.00    -0.339 N 
ATOM     17  C   UNL A   1      35.186  20.886  25.272  1.00  0.00     0.116 C 
ATOM     18  C   UNL A   1      34.054  20.309  24.486  1.00  0.00     0.223 C 
ATOM     19  C   UNL A   1      32.198  21.009  23.054  1.00  0.00     0.147 C 
ATOM     20  O   UNL A   1      33.803  19.116  24.417  1.00  0.00    -0.275 OA
BRANCH   8  21
ATOM     21  C   UNL A   1      31.886  27.162  23.858  1.00  0.00     0.147 A 
ATOM     22  C   UNL A   1      31.559  32.260  26.899  1.00  0.00     0.046 C 
ATOM     23  C   UNL A   1      31.958  30.945  26.310  1.00  0.00    -0.034 A 
ATOM     24  C   UNL A   1      33.196  30.312  26.763  1.00  0.00     0.009 A 
ATOM     25  C   UNL A   1      31.228  30.315  25.370  1.00  0.00     0.096 A 
ATOM     26  C   UNL A   1      33.601  29.119  26.285  1.00  0.00     0.048 A 
ATOM     27  N   UNL A   1      31.649  29.079  24.896  1.00  0.00    -0.306 N 
ATOM     28  C   UNL A   1      32.806  28.440  25.321  1.00  0.00     0.137 A 
ATOM     29  C   UNL A   1      31.065  28.268  23.966  1.00  0.00     0.127 A 
ATOM     30  N   UNL A   1      32.968  27.284  24.718  1.00  0.00    -0.223 NA
ENDBRANCH   8  21
ENDBRANCH   4   7
ENDBRANCH   2   3
ENDBRANCH   1   2
BRANCH   1  31
ATOM     31  C   UNL A   1      40.429  21.601  27.156  1.00  0.00     0.118 C 
BRANCH  31  32
ATOM     32  N   UNL A   1      41.726  21.820  26.555  1.00  0.00    -0.352 N 
ATOM     33  C   UNL A   1      42.583  22.888  26.506  1.00  0.00     0.251 C 
ATOM     34  H   UNL A   1      42.069  21.029  26.078  1.00  0.00     0.163 HD
ATOM     35  O   UNL A   1      43.665  22.688  25.951  1.00  0.00    -0.269 OA
BRANCH  33  36
ATOM     36  C   UNL A   1      42.289  24.259  27.023  1.00  0.00     0.039 A 
ATOM     37  C   UNL A   1      42.808  24.827  28.186  1.00  0.00     0.014 A 
ATOM     38  C   UNL A   1      41.395  25.034  26.257  1.00  0.00     0.014 A 
ATOM     39  C   UNL A   1      42.385  26.087  28.609  1.00  0.00     0.010 A 
ATOM     40  C   UNL A   1      41.000  26.313  26.654  1.00  0.00     0.010 A 
ATOM     41  C   UNL A   1      41.474  26.834  27.852  1.00  0.00    -0.014 A 
BRANCH  41  42
ATOM     42  C   UNL A   1      41.192  28.200  28.307  1.00  0.00     0.031 A 
ATOM     43  C   UNL A   1      42.239  29.196  27.954  1.00  0.00     0.074 A 
ATOM     44  C   UNL A   1      40.066  28.649  28.899  1.00  0.00     0.049 A 
ATOM     45  N   UNL A   1      43.003  29.857  28.760  1.00  0.00    -0.248 NA
ATOM     46  C   UNL A   1      42.517  29.426  26.529  1.00  0.00     0.031 C 
ATOM     47  C   UNL A   1      38.787  27.951  29.025  1.00  0.00     0.029 A 
ATOM     48  N   UNL A   1      39.805  29.884  29.437  1.00  0.00    -0.354 N 
ATOM     49  C   UNL A   1      43.730  30.731  27.957  1.00  0.00     0.074 A 
ATOM     50  C   UNL A   1      43.495  30.330  26.595  1.00  0.00     0.031 C 
ATOM     51  C   UNL A   1      37.831  28.839  29.383  1.00  0.00     0.029 A 
ATOM     52  C   UNL A   1      38.461  30.117  29.678  1.00  0.00     0.049 A 
ATOM     53  H   UNL A   1      40.509  30.546  29.632  1.00  0.00     0.167 HD
ATOM     54  C   UNL A   1      44.250  31.881  28.466  1.00  0.00     0.031 A 
ATOM     55  C   UNL A   1      37.882  31.277  30.067  1.00  0.00     0.031 A 
ATOM     56  C   UNL A   1      44.280  31.878  29.904  1.00  0.00     0.049 A 
ATOM     57  C   UNL A   1      38.875  32.122  30.761  1.00  0.00     0.074 A 
ATOM     58  C   UNL A   1      45.081  31.392  30.913  1.00  0.00     0.029 A 
ATOM     59  N   UNL A   1      43.105  32.272  30.474  1.00  0.00    -0.354 N 
ATOM     60  N   UNL A   1      39.405  31.821  31.911  1.00  0.00    -0.248 NA
ATOM     61  C   UNL A   1      39.475  33.262  30.075  1.00  0.00     0.031 C 
ATOM     62  C   UNL A   1      44.287  31.404  32.102  1.00  0.00     0.029 A 
ATOM     63  C   UNL A   1      43.027  31.909  31.792  1.00  0.00     0.049 A 
ATOM     64  H   UNL A   1      42.397  32.762  29.995  1.00  0.00     0.167 HD
ATOM     65  C   UNL A   1      40.634  32.444  31.893  1.00  0.00     0.074 A 
ATOM     66  C   UNL A   1      40.542  33.457  30.851  1.00  0.00     0.031 C 
ATOM     67  C   UNL A   1      41.732  31.850  32.439  1.00  0.00     0.031 A 
BRANCH  54  68
ATOM     68  C   UNL A   1      44.253  33.199  27.715  1.00  0.00    -0.014 A 
ATOM     69  C   UNL A   1      44.777  33.354  26.417  1.00  0.00     0.009 A 
ATOM     70  C   UNL A   1      43.432  34.241  28.187  1.00  0.00     0.009 A 
ATOM     71  C   UNL A   1      44.485  34.472  25.626  1.00  0.00     0.001 A 
ATOM     72  C   UNL A   1      43.108  35.344  27.384  1.00  0.00     0.001 A 
ATOM     73  C   UNL A   1      43.632  35.456  26.102  1.00  0.00     0.000 A 
ENDBRANCH  54  68
BRANCH  55  74
ATOM     74  C   UNL A   1      36.550  31.809  29.704  1.00  0.00    -0.014 A 
ATOM     75  C   UNL A   1      36.295  32.219  28.384  1.00  0.00     0.009 A 
ATOM     76  C   UNL A   1      35.639  32.192  30.701  1.00  0.00     0.009 A 
ATOM     77  C   UNL A   1      35.197  33.029  28.080  1.00  0.00     0.001 A 
ATOM     78  C   UNL A   1      34.544  33.011  30.398  1.00  0.00     0.001 A 
ATOM     79  C   UNL A   1      34.335  33.442  29.090  1.00  0.00     0.000 A 
ENDBRANCH  55  74
BRANCH  67  80
ATOM     80  C   UNL A   1      41.544  30.915  33.597  1.00  0.00    -0.014 A 
ATOM     81  C   UNL A   1      41.429  31.476  34.879  1.00  0.00     0.009 A 
ATOM     82  C   UNL A   1      41.532  29.517  33.478  1.00  0.00     0.009 A 
ATOM     83  C   UNL A   1      41.310  30.667  36.011  1.00  0.00     0.001 A 
ATOM     84  C   UNL A   1      41.385  28.706  34.609  1.00  0.00     0.001 A 
ATOM     85  C   UNL A   1      41.281  29.281  35.874  1.00  0.00     0.000 A 
ENDBRANCH  67  80
ENDBRANCH  41  42
ENDBRANCH  33  36
ENDBRANCH  31  32
ENDBRANCH   1  31
TORSDOF 11
ENDMDL
MODEL 3
REMARK VINA RESULT:     -13.3      2.354      8.051
REMARK SMILES Cc1ccc2nc(C(=O)N3CCC4(CC3)[C@H](C(=O)NCCCNC(=O)c3ccc(-c5c6nc(c(-c7ccccc7)c7ccc([nH]7)c(-c7ccccc7)c7nc(c(-c8ccccc8)c8ccc5[nH]8)C=C7)C=C6)cc3)CC(=O)N4C)cn2c1
REMARK SMILES IDX 21 1 20 2 19 3 17 4 18 5 16 7 8 8 9 9 10 10 11 11 15 12
REMARK SMILES IDX 12 13 14 14 13 15 77 16 74 17 75 18 78 19 76 20 7 21 1 22
REMARK SMILES IDX 2 23 3 24 81 25 4 26 80 27 5 28 79 29 6 30 22 31 23 32 24 33
REMARK SMILES IDX 25 35 26 36 27 37 73 38 28 39 72 40 29 41 30 42 31 43 66 44
REMARK SMILES IDX 32 45 71 46 65 47 67 48 33 49 70 50 64 51 63 52 34 54 56 55
REMARK SMILES IDX 41 56 55 57 42 58 45 59 54 60 68 61 43 62 44 63 53 65 69 66
REMARK SMILES IDX 46 67 35 68 36 69 40 70 37 71 39 72 38 73 57 74 58 75 62 76
REMARK SMILES IDX 59 77 61 78 60 79 47 80 48 81 52 82 49 83 51 84 50 85
REMARK H PARENT 19 6 23 34 67 53 45 64
REMARK Flexibility Score: inf
ROOT
ATOM      1  C   UNL A   1      36.863  23.449  24.614  1.00  0.00     0.042 C 
ENDROOT
BRANCH   1   2
ATOM      2  C   UNL A   1      35.819  22.921  23.620  1.00  0.00     0.117 C 
BRANCH   2   3
ATOM      3  N   UNL A   1      34.928  23.926  23.054  1.00  0.00    -0.356 N 
ATOM      4  C   UNL A   1      33.935  24.705  23.552  1.00  0.00     0.226 C 
ATOM      5  O   UNL A   1      33.469  25.544  22.769  1.00  0.00    -0.275 OA
ATOM      6  H   UNL A   1      35.083  24.073  22.092  1.00  0.00     0.163 HD
BRANCH   4   7
ATOM      7  C   UNL A   1      33.350  24.615  24.964  1.00  0.00     0.113 C 
ATOM      8  C   UNL A   1      32.573  29.926  26.340  1.00  0.00     0.274 C 
ATOM      9  O   UNL A   1      31.988  30.810  25.738  1.00  0.00    -0.267 OA
ATOM     10  N   UNL A   1      32.188  28.587  26.231  1.00  0.00    -0.337 N 
ATOM     11  C   UNL A   1      31.703  28.174  24.945  1.00  0.00     0.122 C 
ATOM     12  C   UNL A   1      32.222  27.593  27.301  1.00  0.00     0.122 C 
ATOM     13  C   UNL A   1      32.514  26.973  24.513  1.00  0.00     0.051 C 
ATOM     14  C   UNL A   1      32.829  26.245  26.870  1.00  0.00     0.051 C 
ATOM     15  C   UNL A   1      32.404  25.759  25.448  1.00  0.00     0.058 C 
ATOM     16  N   UNL A   1      31.103  25.058  25.493  1.00  0.00    -0.339 N 
ATOM     17  C   UNL A   1      32.636  23.294  25.214  1.00  0.00     0.116 C 
ATOM     18  C   UNL A   1      31.201  23.677  25.376  1.00  0.00     0.223 C 
ATOM     19  C   UNL A   1      29.797  25.656  25.691  1.00  0.00     0.147 C 
ATOM     20  O   UNL A   1      30.275  22.881  25.391  1.00  0.00    -0.275 OA
BRANCH   8  21
ATOM     21  C   UNL A   1      33.825  30.187  27.050  1.00  0.00     0.147 A 
ATOM     22  C   UNL A   1      38.496  32.845  29.591  1.00  0.00     0.046 C 
ATOM     23  C   UNL A   1      37.554  31.899  28.918  1.00  0.00    -0.034 A 
ATOM     24  C   UNL A   1      38.010  30.544  28.610  1.00  0.00     0.009 A 
ATOM     25  C   UNL A   1      36.297  32.242  28.575  1.00  0.00     0.096 A 
ATOM     26  C   UNL A   1      37.203  29.639  28.022  1.00  0.00     0.048 A 
ATOM     27  N   UNL A   1      35.472  31.295  27.983  1.00  0.00    -0.306 N 
ATOM     28  C   UNL A   1      35.865  29.994  27.697  1.00  0.00     0.137 A 
ATOM     29  C   UNL A   1      34.176  31.417  27.571  1.00  0.00     0.127 A 
ATOM     30  N   UNL A   1      34.892  29.306  27.143  1.00  0.00    -0.223 NA
ENDBRANCH   8  21
ENDBRANCH   4   7
ENDBRANCH   2   3
ENDBRANCH   1   2
BRANCH   1  31
ATOM     31  C   UNL A   1      37.215  22.504  25.761  1.00  0.00     0.118 C 
BRANCH  31  32
ATOM     32  N   UNL A   1      38.590  22.057  25.731  1.00  0.00    -0.352 N 
ATOM     33  C   UNL A   1      39.753  22.524  26.285  1.00  0.00     0.251 C 
ATOM     34  H   UNL A   1      38.718  21.239  25.198  1.00  0.00     0.163 HD
ATOM     35  O   UNL A   1      40.755  21.829  26.103  1.00  0.00    -0.269 OA
BRANCH  33  36
ATOM     36  C   UNL A   1      39.902  23.809  27.034  1.00  0.00     0.039 A 
ATOM     37  C   UNL A   1      38.951  24.824  27.121  1.00  0.00     0.014 A 
ATOM     38  C   UNL A   1      41.128  23.998  27.704  1.00  0.00     0.014 A 
ATOM     39  C   UNL A   1      39.245  26.017  27.779  1.00  0.00     0.010 A 
ATOM     40  C   UNL A   1      41.413  25.175  28.400  1.00  0.00     0.010 A 
ATOM     41  C   UNL A   1      40.479  26.204  28.415  1.00  0.00    -0.014 A 
BRANCH  41  42
ATOM     42  C   UNL A   1      40.648  27.436  29.195  1.00  0.00     0.031 A 
ATOM     43  C   UNL A   1      41.647  28.387  28.638  1.00  0.00     0.074 A 
ATOM     44  C   UNL A   1      39.934  27.827  30.270  1.00  0.00     0.049 A 
ATOM     45  N   UNL A   1      42.768  28.754  29.168  1.00  0.00    -0.248 NA
ATOM     46  C   UNL A   1      41.403  28.934  27.296  1.00  0.00     0.031 C 
ATOM     47  C   UNL A   1      38.693  27.242  30.776  1.00  0.00     0.029 A 
ATOM     48  N   UNL A   1      40.128  28.910  31.090  1.00  0.00    -0.354 N 
ATOM     49  C   UNL A   1      43.284  29.728  28.319  1.00  0.00     0.074 A 
ATOM     50  C   UNL A   1      42.482  29.699  27.123  1.00  0.00     0.031 C 
ATOM     51  C   UNL A   1      38.125  28.099  31.656  1.00  0.00     0.029 A 
ATOM     52  C   UNL A   1      39.044  29.200  31.901  1.00  0.00     0.049 A 
ATOM     53  H   UNL A   1      40.963  29.434  31.100  1.00  0.00     0.167 HD
ATOM     54  C   UNL A   1      44.161  30.663  28.776  1.00  0.00     0.031 A 
ATOM     55  C   UNL A   1      38.880  30.276  32.706  1.00  0.00     0.031 A 
ATOM     56  C   UNL A   1      44.732  30.301  30.045  1.00  0.00     0.049 A 
ATOM     57  C   UNL A   1      40.200  30.828  33.076  1.00  0.00     0.074 A 
ATOM     58  C   UNL A   1      45.751  29.509  30.524  1.00  0.00     0.029 A 
ATOM     59  N   UNL A   1      43.955  30.650  31.111  1.00  0.00    -0.354 N 
ATOM     60  N   UNL A   1      41.060  30.203  33.828  1.00  0.00    -0.248 NA
ATOM     61  C   UNL A   1      40.694  32.041  32.434  1.00  0.00     0.031 C 
ATOM     62  C   UNL A   1      45.483  29.300  31.913  1.00  0.00     0.029 A 
ATOM     63  C   UNL A   1      44.316  29.981  32.250  1.00  0.00     0.049 A 
ATOM     64  H   UNL A   1      43.222  31.306  31.067  1.00  0.00     0.167 HD
ATOM     65  C   UNL A   1      42.283  30.695  33.424  1.00  0.00     0.074 A 
ATOM     66  C   UNL A   1      41.991  31.938  32.724  1.00  0.00     0.031 C 
ATOM     67  C   UNL A   1      43.376  29.884  33.348  1.00  0.00     0.031 A 
BRANCH  54  68
ATOM     68  C   UNL A   1      44.123  32.119  28.353  1.00  0.00    -0.014 A 
ATOM     69  C   UNL A   1      44.515  32.571  27.079  1.00  0.00     0.009 A 
ATOM     70  C   UNL A   1      43.381  33.024  29.137  1.00  0.00     0.009 A 
ATOM     71  C   UNL A   1      44.174  33.842  26.603  1.00  0.00     0.001 A 
ATOM     72  C   UNL A   1      43.006  34.284  28.650  1.00  0.00     0.001 A 
ATOM     73  C   UNL A   1      43.400  34.691  27.380  1.00  0.00     0.000 A 
ENDBRANCH  54  68
BRANCH  55  74
ATOM     74  C   UNL A   1      37.633  31.003  33.030  1.00  0.00    -0.014 A 
ATOM     75  C   UNL A   1      36.551  30.973  32.133  1.00  0.00     0.009 A 
ATOM     76  C   UNL A   1      37.611  31.959  34.057  1.00  0.00     0.009 A 
ATOM     77  C   UNL A   1      35.509  31.901  32.228  1.00  0.00     0.001 A 
ATOM     78  C   UNL A   1      36.572  32.894  34.147  1.00  0.00     0.001 A 
ATOM     79  C   UNL A   1      35.532  32.874  33.221  1.00  0.00     0.000 A 
ENDBRANCH  55  74
BRANCH  67  80
ATOM     80  C   UNL A   1      43.471  28.714  34.281  1.00  0.00    -0.014 A 
ATOM     81  C   UNL A   1      43.091  27.454  33.792  1.00  0.00     0.009 A 
ATOM     82  C   UNL A   1      43.862  28.817  35.625  1.00  0.00     0.009 A 
ATOM     83  C   UNL A   1      43.097  26.329  34.619  1.00  0.00     0.001 A 
ATOM     84  C   UNL A   1      43.894  27.685  36.447  1.00  0.00     0.001 A 
ATOM     85  C   UNL A   1      43.505  26.444  35.945  1.00  0.00     0.000 A 
ENDBRANCH  67  80
ENDBRANCH  41  42
ENDBRANCH  33  36
ENDBRANCH  31  32
ENDBRANCH   1  31
TORSDOF 11
ENDMDL
