MODEL 1
REMARK VINA RESULT:     -11.0      0.000      0.000
REMARK SMILES O=C(NCCCNC(=O)[C@H]1CC=CC[C@@H]1C(=O)NC1CCCCC1)c1ccc(-c2c3nc(c(-c4ccccc4)c4ccc([nH]4)c(-c4ccccc4)c4nc(c(-c5ccccc5)c5ccc2[nH]5)C=C4)C=C3)cc1
REMARK SMILES IDX 5 1 4 2 3 3 1 4 2 5 25 7 26 8 72 9 27 10 71 11 28 12 29 13
REMARK SMILES IDX 30 14 65 15 31 16 70 17 64 18 66 19 32 20 69 21 63 22 62 23
REMARK SMILES IDX 33 25 55 26 40 27 54 28 41 29 44 30 53 31 67 32 42 33 43 34
REMARK SMILES IDX 52 36 68 37 45 38 34 39 35 40 39 41 36 42 38 43 37 44 56 45
REMARK SMILES IDX 57 46 61 47 58 48 60 49 59 50 46 51 47 52 51 53 48 54 50 55
REMARK SMILES IDX 49 56 6 57 7 58 8 59 9 61 10 62 11 63 15 64 12 65 14 66
REMARK SMILES IDX 13 67 16 68 17 69 18 70 19 72 20 73 24 74 21 75 23 76 22 77
REMARK H PARENT 3 6 66 24 44 35 7 60 18 71
REMARK Flexibility Score: inf
ROOT
ATOM      1  C   UNL A   1      34.015  28.619  25.871  1.00  0.00     0.042 C 
ENDROOT
BRANCH   1   2
ATOM      2  C   UNL A   1      33.341  28.900  27.207  1.00  0.00     0.118 C 
BRANCH   2   3
ATOM      3  N   UNL A   1      33.541  30.265  27.661  1.00  0.00    -0.352 N 
ATOM      4  O   UNL A   1      34.451  31.988  28.764  1.00  0.00    -0.269 OA
ATOM      5  C   UNL A   1      34.604  30.862  28.294  1.00  0.00     0.251 C 
ATOM      6  H   UNL A   1      32.782  30.866  27.485  1.00  0.00     0.163 HD
BRANCH   5   7
ATOM      7  C   UNL A   1      35.921  30.193  28.434  1.00  0.00     0.039 A 
ATOM      8  C   UNL A   1      36.897  30.256  27.438  1.00  0.00     0.014 A 
ATOM      9  C   UNL A   1      36.237  29.591  29.660  1.00  0.00     0.014 A 
ATOM     10  C   UNL A   1      38.135  29.638  27.620  1.00  0.00     0.010 A 
ATOM     11  C   UNL A   1      37.512  29.056  29.880  1.00  0.00     0.010 A 
ATOM     12  C   UNL A   1      38.474  29.076  28.861  1.00  0.00    -0.014 A 
BRANCH  12  13
ATOM     13  C   UNL A   1      39.879  28.669  29.122  1.00  0.00     0.031 A 
ATOM     14  C   UNL A   1      40.873  29.612  29.740  1.00  0.00     0.074 A 
ATOM     15  C   UNL A   1      40.262  27.427  28.761  1.00  0.00     0.049 A 
ATOM     16  N   UNL A   1      42.143  29.411  29.993  1.00  0.00    -0.248 NA
ATOM     17  C   UNL A   1      40.390  30.948  30.116  1.00  0.00     0.031 C 
ATOM     18  C   UNL A   1      39.395  26.428  28.127  1.00  0.00     0.029 A 
ATOM     19  N   UNL A   1      41.472  26.789  28.870  1.00  0.00    -0.354 N 
ATOM     20  C   UNL A   1      42.617  30.601  30.533  1.00  0.00     0.074 A 
ATOM     21  C   UNL A   1      41.501  31.522  30.564  1.00  0.00     0.031 C 
ATOM     22  C   UNL A   1      40.089  25.298  27.934  1.00  0.00     0.029 A 
ATOM     23  C   UNL A   1      41.465  25.511  28.361  1.00  0.00     0.049 A 
ATOM     24  H   UNL A   1      42.267  27.205  29.275  1.00  0.00     0.167 HD
ATOM     25  C   UNL A   1      43.869  30.892  30.960  1.00  0.00     0.031 A 
ATOM     26  C   UNL A   1      42.460  24.618  28.217  1.00  0.00     0.031 A 
ATOM     27  C   UNL A   1      44.972  29.967  30.939  1.00  0.00     0.049 A 
ATOM     28  C   UNL A   1      43.842  24.988  28.664  1.00  0.00     0.074 A 
ATOM     29  C   UNL A   1      46.256  30.150  31.425  1.00  0.00     0.029 A 
ATOM     30  N   UNL A   1      44.931  28.696  30.390  1.00  0.00    -0.354 N 
ATOM     31  N   UNL A   1      44.252  26.090  29.242  1.00  0.00    -0.248 NA
ATOM     32  C   UNL A   1      44.901  23.996  28.432  1.00  0.00     0.031 C 
ATOM     33  C   UNL A   1      47.008  29.012  31.114  1.00  0.00     0.029 A 
ATOM     34  C   UNL A   1      46.179  28.102  30.481  1.00  0.00     0.049 A 
ATOM     35  H   UNL A   1      44.132  28.277  29.995  1.00  0.00     0.167 HD
ATOM     36  C   UNL A   1      45.614  25.925  29.444  1.00  0.00     0.074 A 
ATOM     37  C   UNL A   1      45.956  24.605  28.955  1.00  0.00     0.031 C 
ATOM     38  C   UNL A   1      46.504  26.794  29.978  1.00  0.00     0.031 A 
BRANCH  25  39
ATOM     39  C   UNL A   1      44.137  32.281  31.468  1.00  0.00    -0.014 A 
ATOM     40  C   UNL A   1      44.510  33.318  30.599  1.00  0.00     0.009 A 
ATOM     41  C   UNL A   1      43.916  32.575  32.823  1.00  0.00     0.009 A 
ATOM     42  C   UNL A   1      44.672  34.618  31.084  1.00  0.00     0.001 A 
ATOM     43  C   UNL A   1      44.060  33.879  33.300  1.00  0.00     0.001 A 
ATOM     44  C   UNL A   1      44.441  34.899  32.430  1.00  0.00     0.000 A 
ENDBRANCH  25  39
BRANCH  26  45
ATOM     45  C   UNL A   1      42.194  23.309  27.565  1.00  0.00    -0.014 A 
ATOM     46  C   UNL A   1      42.496  23.106  26.211  1.00  0.00     0.009 A 
ATOM     47  C   UNL A   1      41.630  22.254  28.301  1.00  0.00     0.009 A 
ATOM     48  C   UNL A   1      42.216  21.880  25.602  1.00  0.00     0.001 A 
ATOM     49  C   UNL A   1      41.381  21.020  27.698  1.00  0.00     0.001 A 
ATOM     50  C   UNL A   1      41.665  20.837  26.347  1.00  0.00     0.000 A 
ENDBRANCH  26  45
BRANCH  38  51
ATOM     51  C   UNL A   1      47.931  26.340  30.062  1.00  0.00    -0.014 A 
ATOM     52  C   UNL A   1      48.808  26.521  28.981  1.00  0.00     0.009 A 
ATOM     53  C   UNL A   1      48.414  25.758  31.243  1.00  0.00     0.009 A 
ATOM     54  C   UNL A   1      50.137  26.103  29.073  1.00  0.00     0.001 A 
ATOM     55  C   UNL A   1      49.749  25.364  31.342  1.00  0.00     0.001 A 
ATOM     56  C   UNL A   1      50.607  25.530  30.255  1.00  0.00     0.000 A 
ENDBRANCH  38  51
ENDBRANCH  12  13
ENDBRANCH   5   7
ENDBRANCH   2   3
ENDBRANCH   1   2
BRANCH   1  57
ATOM     57  C   UNL A   1      33.107  28.776  24.656  1.00  0.00     0.117 C 
BRANCH  57  58
ATOM     58  N   UNL A   1      33.390  27.808  23.613  1.00  0.00    -0.356 N 
ATOM     59  C   UNL A   1      33.329  26.471  23.453  1.00  0.00     0.224 C 
ATOM     60  H   UNL A   1      33.716  28.250  22.796  1.00  0.00     0.163 HD
ATOM     61  O   UNL A   1      33.629  26.114  22.301  1.00  0.00    -0.275 OA
BRANCH  59  62
ATOM     62  C   UNL A   1      32.902  25.391  24.465  1.00  0.00     0.095 C 
ATOM     63  C   UNL A   1      31.535  25.823  25.048  1.00  0.00     0.041 C 
ATOM     64  C   UNL A   1      32.882  23.897  24.112  1.00  0.00     0.095 C 
ATOM     65  C   UNL A   1      30.398  25.426  24.155  1.00  0.00    -0.030 C 
ATOM     66  C   UNL A   1      31.656  23.450  23.286  1.00  0.00     0.041 C 
ATOM     67  C   UNL A   1      30.468  24.365  23.341  1.00  0.00    -0.030 C 
BRANCH  64  68
ATOM     68  C   UNL A   1      32.921  23.040  25.378  1.00  0.00     0.224 C 
ATOM     69  O   UNL A   1      31.933  22.892  26.100  1.00  0.00    -0.275 OA
ATOM     70  N   UNL A   1      34.050  22.388  25.755  1.00  0.00    -0.353 N 
ATOM     71  H   UNL A   1      33.909  21.744  26.486  1.00  0.00     0.163 HD
BRANCH  70  72
ATOM     72  C   UNL A   1      35.435  22.451  25.291  1.00  0.00     0.082 C 
ATOM     73  C   UNL A   1      36.169  23.514  26.130  1.00  0.00     0.025 C 
ATOM     74  C   UNL A   1      36.172  21.109  25.406  1.00  0.00     0.025 C 
ATOM     75  C   UNL A   1      37.644  23.642  25.765  1.00  0.00     0.002 C 
ATOM     76  C   UNL A   1      37.634  21.247  24.983  1.00  0.00     0.002 C 
ATOM     77  C   UNL A   1      38.359  22.297  25.817  1.00  0.00     0.000 C 
ENDBRANCH  70  72
ENDBRANCH  64  68
ENDBRANCH  59  62
ENDBRANCH  57  58
ENDBRANCH   1  57
TORSDOF 12
ENDMDL
MODEL 2
REMARK VINA RESULT:     -11.0      2.316      7.478
REMARK SMILES O=C(NCCCNC(=O)[C@H]1CC=CC[C@@H]1C(=O)NC1CCCCC1)c1ccc(-c2c3nc(c(-c4ccccc4)c4ccc([nH]4)c(-c4ccccc4)c4nc(c(-c5ccccc5)c5ccc2[nH]5)C=C4)C=C3)cc1
REMARK SMILES IDX 5 1 4 2 3 3 1 4 2 5 25 7 26 8 72 9 27 10 71 11 28 12 29 13
REMARK SMILES IDX 30 14 65 15 31 16 70 17 64 18 66 19 32 20 69 21 63 22 62 23
REMARK SMILES IDX 33 25 55 26 40 27 54 28 41 29 44 30 53 31 67 32 42 33 43 34
REMARK SMILES IDX 52 36 68 37 45 38 34 39 35 40 39 41 36 42 38 43 37 44 56 45
REMARK SMILES IDX 57 46 61 47 58 48 60 49 59 50 46 51 47 52 51 53 48 54 50 55
REMARK SMILES IDX 49 56 6 57 7 58 8 59 9 61 10 62 11 63 15 64 12 65 14 66
REMARK SMILES IDX 13 67 16 68 17 69 18 70 19 72 20 73 24 74 21 75 23 76 22 77
REMARK H PARENT 3 6 66 24 44 35 7 60 18 71
REMARK Flexibility Score: inf
ROOT
ATOM      1  C   UNL A   1      38.569  20.019  24.996  1.00  0.00     0.042 C 
ENDROOT
BRANCH   1   2
ATOM      2  C   UNL A   1      39.264  19.279  26.131  1.00  0.00     0.118 C 
BRANCH   2   3
ATOM      3  N   UNL A   1      40.636  18.925  25.816  1.00  0.00    -0.352 N 
ATOM      4  O   UNL A   1      42.800  19.197  25.313  1.00  0.00    -0.269 OA
ATOM      5  C   UNL A   1      41.788  19.674  25.820  1.00  0.00     0.251 C 
ATOM      6  H   UNL A   1      40.763  17.985  25.555  1.00  0.00     0.163 HD
BRANCH   5   7
ATOM      7  C   UNL A   1      41.846  21.035  26.407  1.00  0.00     0.039 A 
ATOM      8  C   UNL A   1      41.728  21.260  27.780  1.00  0.00     0.014 A 
ATOM      9  C   UNL A   1      42.160  22.112  25.566  1.00  0.00     0.014 A 
ATOM     10  C   UNL A   1      41.818  22.553  28.296  1.00  0.00     0.010 A 
ATOM     11  C   UNL A   1      42.347  23.395  26.095  1.00  0.00     0.010 A 
ATOM     12  C   UNL A   1      42.179  23.627  27.467  1.00  0.00    -0.014 A 
BRANCH  12  13
ATOM     13  C   UNL A   1      42.534  24.935  28.075  1.00  0.00     0.031 A 
ATOM     14  C   UNL A   1      43.926  25.232  28.557  1.00  0.00     0.074 A 
ATOM     15  C   UNL A   1      41.560  25.858  28.217  1.00  0.00     0.049 A 
ATOM     16  N   UNL A   1      44.376  26.314  29.142  1.00  0.00    -0.248 NA
ATOM     17  C   UNL A   1      44.941  24.186  28.366  1.00  0.00     0.031 C 
ATOM     18  C   UNL A   1      40.162  25.678  27.812  1.00  0.00     0.029 A 
ATOM     19  N   UNL A   1      41.590  27.128  28.738  1.00  0.00    -0.354 N 
ATOM     20  C   UNL A   1      45.717  26.071  29.414  1.00  0.00     0.074 A 
ATOM     21  C   UNL A   1      46.006  24.735  28.936  1.00  0.00     0.031 C 
ATOM     22  C   UNL A   1      39.478  26.803  28.070  1.00  0.00     0.029 A 
ATOM     23  C   UNL A   1      40.366  27.755  28.722  1.00  0.00     0.049 A 
ATOM     24  H   UNL A   1      42.408  27.548  29.089  1.00  0.00     0.167 HD
ATOM     25  C   UNL A   1      46.617  26.889  30.008  1.00  0.00     0.031 A 
ATOM     26  C   UNL A   1      39.985  28.950  29.209  1.00  0.00     0.031 A 
ATOM     27  C   UNL A   1      46.327  28.222  30.469  1.00  0.00     0.049 A 
ATOM     28  C   UNL A   1      40.999  29.814  29.896  1.00  0.00     0.074 A 
ATOM     29  C   UNL A   1      47.197  29.153  31.012  1.00  0.00     0.029 A 
ATOM     30  N   UNL A   1      45.072  28.807  30.460  1.00  0.00    -0.354 N 
ATOM     31  N   UNL A   1      42.279  29.596  30.074  1.00  0.00    -0.248 NA
ATOM     32  C   UNL A   1      40.517  31.083  30.458  1.00  0.00     0.031 C 
ATOM     33  C   UNL A   1      46.457  30.278  31.387  1.00  0.00     0.029 A 
ATOM     34  C   UNL A   1      45.135  30.067  31.032  1.00  0.00     0.049 A 
ATOM     35  H   UNL A   1      44.256  28.390  30.100  1.00  0.00     0.167 HD
ATOM     36  C   UNL A   1      42.756  30.700  30.765  1.00  0.00     0.074 A 
ATOM     37  C   UNL A   1      41.634  31.599  30.948  1.00  0.00     0.031 C 
ATOM     38  C   UNL A   1      44.008  30.943  31.217  1.00  0.00     0.031 A 
BRANCH  25  39
ATOM     39  C   UNL A   1      48.010  26.368  30.227  1.00  0.00    -0.014 A 
ATOM     40  C   UNL A   1      48.387  25.776  31.441  1.00  0.00     0.009 A 
ATOM     41  C   UNL A   1      48.928  26.382  29.163  1.00  0.00     0.009 A 
ATOM     42  C   UNL A   1      49.661  25.224  31.591  1.00  0.00     0.001 A 
ATOM     43  C   UNL A   1      50.193  25.812  29.310  1.00  0.00     0.001 A 
ATOM     44  C   UNL A   1      50.560  25.236  30.525  1.00  0.00     0.000 A 
ENDBRANCH  25  39
BRANCH  26  45
ATOM     45  C   UNL A   1      38.563  29.370  29.116  1.00  0.00    -0.014 A 
ATOM     46  C   UNL A   1      38.064  29.968  27.950  1.00  0.00     0.009 A 
ATOM     47  C   UNL A   1      37.696  29.175  30.204  1.00  0.00     0.009 A 
ATOM     48  C   UNL A   1      36.731  30.382  27.886  1.00  0.00     0.001 A 
ATOM     49  C   UNL A   1      36.357  29.561  30.125  1.00  0.00     0.001 A 
ATOM     50  C   UNL A   1      35.879  30.173  28.969  1.00  0.00     0.000 A 
ENDBRANCH  26  45
BRANCH  38  51
ATOM     51  C   UNL A   1      44.229  32.232  31.951  1.00  0.00    -0.014 A 
ATOM     52  C   UNL A   1      44.105  32.296  33.348  1.00  0.00     0.009 A 
ATOM     53  C   UNL A   1      44.598  33.387  31.245  1.00  0.00     0.009 A 
ATOM     54  C   UNL A   1      44.321  33.499  34.021  1.00  0.00     0.001 A 
ATOM     55  C   UNL A   1      44.839  34.582  31.923  1.00  0.00     0.001 A 
ATOM     56  C   UNL A   1      44.693  34.639  33.309  1.00  0.00     0.000 A 
ENDBRANCH  38  51
ENDBRANCH  12  13
ENDBRANCH   5   7
ENDBRANCH   2   3
ENDBRANCH   1   2
BRANCH   1  57
ATOM     57  C   UNL A   1      38.072  21.415  25.357  1.00  0.00     0.117 C 
BRANCH  57  58
ATOM     58  N   UNL A   1      37.579  22.151  24.208  1.00  0.00    -0.356 N 
ATOM     59  C   UNL A   1      36.399  22.622  23.760  1.00  0.00     0.224 C 
ATOM     60  H   UNL A   1      38.309  22.366  23.583  1.00  0.00     0.163 HD
ATOM     61  O   UNL A   1      36.513  23.273  22.708  1.00  0.00    -0.275 OA
BRANCH  59  62
ATOM     62  C   UNL A   1      35.001  22.500  24.395  1.00  0.00     0.095 C 
ATOM     63  C   UNL A   1      34.997  23.379  25.670  1.00  0.00     0.041 C 
ATOM     64  C   UNL A   1      33.711  22.721  23.592  1.00  0.00     0.095 C 
ATOM     65  C   UNL A   1      34.719  24.817  25.352  1.00  0.00    -0.030 C 
ATOM     66  C   UNL A   1      33.351  24.204  23.354  1.00  0.00     0.041 C 
ATOM     67  C   UNL A   1      33.994  25.186  24.288  1.00  0.00    -0.030 C 
BRANCH  64  68
ATOM     68  C   UNL A   1      32.519  22.065  24.288  1.00  0.00     0.224 C 
ATOM     69  O   UNL A   1      31.711  22.714  24.956  1.00  0.00    -0.275 OA
ATOM     70  N   UNL A   1      32.288  20.731  24.187  1.00  0.00    -0.353 N 
ATOM     71  H   UNL A   1      31.411  20.454  24.537  1.00  0.00     0.163 HD
BRANCH  70  72
ATOM     72  C   UNL A   1      33.084  19.623  23.663  1.00  0.00     0.082 C 
ATOM     73  C   UNL A   1      33.935  19.061  24.817  1.00  0.00     0.025 C 
ATOM     74  C   UNL A   1      32.230  18.498  23.060  1.00  0.00     0.025 C 
ATOM     75  C   UNL A   1      34.783  17.864  24.400  1.00  0.00     0.002 C 
ATOM     76  C   UNL A   1      33.103  17.332  22.598  1.00  0.00     0.002 C 
ATOM     77  C   UNL A   1      33.942  16.776  23.743  1.00  0.00     0.000 C 
ENDBRANCH  70  72
ENDBRANCH  64  68
ENDBRANCH  59  62
ENDBRANCH  57  58
ENDBRANCH   1  57
TORSDOF 12
ENDMDL
MODEL 3
REMARK VINA RESULT:     -11.0      2.366      7.254
REMARK SMILES O=C(NCCCNC(=O)[C@H]1CC=CC[C@@H]1C(=O)NC1CCCCC1)c1ccc(-c2c3nc(c(-c4ccccc4)c4ccc([nH]4)c(-c4ccccc4)c4nc(c(-c5ccccc5)c5ccc2[nH]5)C=C4)C=C3)cc1
REMARK SMILES IDX 5 1 4 2 3 3 1 4 2 5 25 7 26 8 72 9 27 10 71 11 28 12 29 13
REMARK SMILES IDX 30 14 65 15 31 16 70 17 64 18 66 19 32 20 69 21 63 22 62 23
REMARK SMILES IDX 33 25 55 26 40 27 54 28 41 29 44 30 53 31 67 32 42 33 43 34
REMARK SMILES IDX 52 36 68 37 45 38 34 39 35 40 39 41 36 42 38 43 37 44 56 45
REMARK SMILES IDX 57 46 61 47 58 48 60 49 59 50 46 51 47 52 51 53 48 54 50 55
REMARK SMILES IDX 49 56 6 57 7 58 8 59 9 61 10 62 11 63 15 64 12 65 14 66
REMARK SMILES IDX 13 67 16 68 17 69 18 70 19 72 20 73 24 74 21 75 23 76 22 77
REMARK H PARENT 3 6 66 24 44 35 7 60 18 71
REMARK Flexibility Score: inf
ROOT
ATOM      1  C   UNL A   1      38.598  19.999  25.001  1.00  0.00     0.042 C 
ENDROOT
BRANCH   1   2
ATOM      2  C   UNL A   1      39.240  19.229  26.147  1.00  0.00     0.118 C 
BRANCH   2   3
ATOM      3  N   UNL A   1      40.613  18.847  25.867  1.00  0.00    -0.352 N 
ATOM      4  O   UNL A   1      42.794  19.074  25.417  1.00  0.00    -0.269 OA
ATOM      5  C   UNL A   1      41.779  19.572  25.897  1.00  0.00     0.251 C 
ATOM      6  H   UNL A   1      40.727  17.903  25.613  1.00  0.00     0.163 HD
BRANCH   5   7
ATOM      7  C   UNL A   1      41.849  20.935  26.481  1.00  0.00     0.039 A 
ATOM      8  C   UNL A   1      41.810  21.159  27.857  1.00  0.00     0.014 A 
ATOM      9  C   UNL A   1      42.095  22.017  25.623  1.00  0.00     0.014 A 
ATOM     10  C   UNL A   1      41.909  22.453  28.368  1.00  0.00     0.010 A 
ATOM     11  C   UNL A   1      42.292  23.303  26.140  1.00  0.00     0.010 A 
ATOM     12  C   UNL A   1      42.202  23.532  27.520  1.00  0.00    -0.014 A 
BRANCH  12  13
ATOM     13  C   UNL A   1      42.571  24.847  28.105  1.00  0.00     0.031 A 
ATOM     14  C   UNL A   1      41.545  25.914  28.362  1.00  0.00     0.074 A 
ATOM     15  C   UNL A   1      43.871  25.082  28.379  1.00  0.00     0.049 A 
ATOM     16  N   UNL A   1      41.722  27.124  28.833  1.00  0.00    -0.248 NA
ATOM     17  C   UNL A   1      40.146  25.591  28.047  1.00  0.00     0.031 C 
ATOM     18  C   UNL A   1      44.966  24.134  28.149  1.00  0.00     0.029 A 
ATOM     19  N   UNL A   1      44.497  26.183  28.908  1.00  0.00    -0.354 N 
ATOM     20  C   UNL A   1      40.465  27.715  28.847  1.00  0.00     0.074 A 
ATOM     21  C   UNL A   1      39.534  26.736  28.330  1.00  0.00     0.031 C 
ATOM     22  C   UNL A   1      46.119  24.680  28.562  1.00  0.00     0.029 A 
ATOM     23  C   UNL A   1      45.860  26.039  29.018  1.00  0.00     0.049 A 
ATOM     24  H   UNL A   1      44.016  26.997  29.182  1.00  0.00     0.167 HD
ATOM     25  C   UNL A   1      40.126  28.962  29.254  1.00  0.00     0.031 A 
ATOM     26  C   UNL A   1      46.807  26.911  29.407  1.00  0.00     0.031 A 
ATOM     27  C   UNL A   1      41.055  29.929  29.779  1.00  0.00     0.049 A 
ATOM     28  C   UNL A   1      46.401  28.295  29.813  1.00  0.00     0.074 A 
ATOM     29  C   UNL A   1      40.788  31.188  30.289  1.00  0.00     0.029 A 
ATOM     30  N   UNL A   1      42.427  29.753  29.847  1.00  0.00    -0.354 N 
ATOM     31  N   UNL A   1      45.198  28.809  29.891  1.00  0.00    -0.248 NA
ATOM     32  C   UNL A   1      47.481  29.223  30.175  1.00  0.00     0.031 C 
ATOM     33  C   UNL A   1      42.005  31.798  30.608  1.00  0.00     0.029 A 
ATOM     34  C   UNL A   1      43.025  30.900  30.344  1.00  0.00     0.049 A 
ATOM     35  H   UNL A   1      42.906  28.935  29.581  1.00  0.00     0.167 HD
ATOM     36  C   UNL A   1      45.375  30.119  30.313  1.00  0.00     0.074 A 
ATOM     37  C   UNL A   1      46.798  30.311  30.503  1.00  0.00     0.031 C 
ATOM     38  C   UNL A   1      44.443  31.079  30.514  1.00  0.00     0.031 A 
BRANCH  25  39
ATOM     39  C   UNL A   1      38.688  29.380  29.126  1.00  0.00    -0.014 A 
ATOM     40  C   UNL A   1      38.181  29.900  27.925  1.00  0.00     0.009 A 
ATOM     41  C   UNL A   1      37.806  29.157  30.196  1.00  0.00     0.009 A 
ATOM     42  C   UNL A   1      36.823  30.204  27.806  1.00  0.00     0.001 A 
ATOM     43  C   UNL A   1      36.446  29.442  30.067  1.00  0.00     0.001 A 
ATOM     44  C   UNL A   1      35.956  29.968  28.873  1.00  0.00     0.000 A 
ENDBRANCH  25  39
BRANCH  26  45
ATOM     45  C   UNL A   1      48.239  26.516  29.372  1.00  0.00    -0.014 A 
ATOM     46  C   UNL A   1      49.020  26.744  28.229  1.00  0.00     0.009 A 
ATOM     47  C   UNL A   1      48.831  25.901  30.487  1.00  0.00     0.009 A 
ATOM     48  C   UNL A   1      50.359  26.344  28.199  1.00  0.00     0.001 A 
ATOM     49  C   UNL A   1      50.177  25.531  30.465  1.00  0.00     0.001 A 
ATOM     50  C   UNL A   1      50.936  25.744  29.317  1.00  0.00     0.000 A 
ENDBRANCH  26  45
BRANCH  38  51
ATOM     51  C   UNL A   1      44.935  32.422  30.966  1.00  0.00    -0.014 A 
ATOM     52  C   UNL A   1      45.247  33.424  30.034  1.00  0.00     0.009 A 
ATOM     53  C   UNL A   1      45.057  32.700  32.335  1.00  0.00     0.009 A 
ATOM     54  C   UNL A   1      45.696  34.673  30.466  1.00  0.00     0.001 A 
ATOM     55  C   UNL A   1      45.482  33.958  32.765  1.00  0.00     0.001 A 
ATOM     56  C   UNL A   1      45.808  34.940  31.830  1.00  0.00     0.000 A 
ENDBRANCH  38  51
ENDBRANCH  12  13
ENDBRANCH   5   7
ENDBRANCH   2   3
ENDBRANCH   1   2
BRANCH   1  57
ATOM     57  C   UNL A   1      38.128  21.404  25.364  1.00  0.00     0.117 C 
BRANCH  57  58
ATOM     58  N   UNL A   1      37.634  22.146  24.219  1.00  0.00    -0.356 N 
ATOM     59  C   UNL A   1      36.454  22.622  23.775  1.00  0.00     0.224 C 
ATOM     60  H   UNL A   1      38.363  22.361  23.593  1.00  0.00     0.163 HD
ATOM     61  O   UNL A   1      36.568  23.277  22.725  1.00  0.00    -0.275 OA
BRANCH  59  62
ATOM     62  C   UNL A   1      35.057  22.502  24.413  1.00  0.00     0.095 C 
ATOM     63  C   UNL A   1      35.037  23.430  25.651  1.00  0.00     0.041 C 
ATOM     64  C   UNL A   1      33.766  22.670  23.600  1.00  0.00     0.095 C 
ATOM     65  C   UNL A   1      34.735  24.851  25.277  1.00  0.00    -0.030 C 
ATOM     66  C   UNL A   1      33.382  24.135  23.303  1.00  0.00     0.041 C 
ATOM     67  C   UNL A   1      34.006  25.165  24.198  1.00  0.00    -0.030 C 
BRANCH  64  68
ATOM     68  C   UNL A   1      32.583  22.021  24.321  1.00  0.00     0.224 C 
ATOM     69  O   UNL A   1      31.793  22.676  25.004  1.00  0.00    -0.275 OA
ATOM     70  N   UNL A   1      32.342  20.689  24.227  1.00  0.00    -0.353 N 
ATOM     71  H   UNL A   1      31.470  20.418  24.594  1.00  0.00     0.163 HD
BRANCH  70  72
ATOM     72  C   UNL A   1      33.121  19.575  23.688  1.00  0.00     0.082 C 
ATOM     73  C   UNL A   1      34.020  19.034  24.815  1.00  0.00     0.025 C 
ATOM     74  C   UNL A   1      32.248  18.438  23.138  1.00  0.00     0.025 C 
ATOM     75  C   UNL A   1      34.855  17.834  24.383  1.00  0.00     0.002 C 
ATOM     76  C   UNL A   1      33.106  17.267  22.660  1.00  0.00     0.002 C 
ATOM     77  C   UNL A   1      33.992  16.733  23.779  1.00  0.00     0.000 C 
ENDBRANCH  70  72
ENDBRANCH  64  68
ENDBRANCH  59  62
ENDBRANCH  57  58
ENDBRANCH   1  57
TORSDOF 12
ENDMDL
