MODEL 1
REMARK VINA RESULT:     -11.4      0.000      0.000
REMARK SMILES Cc1ccc(C(=O)NCCCNC(=O)c2ccc(-c3c4nc(c(-c5ccccc5)c5ccc([nH]5)c(-c5ccccc5)c5nc(c(-c6ccccc6)c6ccc3[nH]6)C=C5)C=C4)cc2)cc1S(=O)(=O)N(C)[C@H]1CCSC1
REMARK SMILES IDX 9 1 8 2 6 3 7 4 5 6 1 7 2 8 3 9 64 10 4 11 63 12 65 13 66 14
REMARK SMILES IDX 67 15 68 16 69 17 70 18 71 19 74 20 72 21 73 22 10 23 11 24
REMARK SMILES IDX 12 25 13 26 14 28 15 29 16 30 62 31 17 32 61 33 18 34 19 35
REMARK SMILES IDX 20 36 55 37 21 38 60 39 54 40 56 41 22 42 59 43 53 44 52 45
REMARK SMILES IDX 23 47 45 48 30 49 44 50 31 51 34 52 43 53 57 54 32 55 33 56
REMARK SMILES IDX 42 58 58 59 35 60 24 61 25 62 29 63 26 64 28 65 27 66 46 67
REMARK SMILES IDX 47 68 51 69 48 70 50 71 49 72 36 73 37 74 41 75 38 76 40 77
REMARK SMILES IDX 39 78
REMARK H PARENT 8 5 12 27 56 46 34 57
REMARK Flexibility Score: inf
ROOT
ATOM      1  C   UNL A   1      33.787  29.312  26.970  1.00  0.00     0.118 C 
ENDROOT
BRANCH   1   2
ATOM      2  N   UNL A   1      34.047  29.227  25.537  1.00  0.00    -0.352 N 
ATOM      3  C   UNL A   1      33.831  28.240  24.601  1.00  0.00     0.251 C 
ATOM      4  O   UNL A   1      34.045  28.525  23.422  1.00  0.00    -0.269 OA
ATOM      5  H   UNL A   1      34.459  30.039  25.164  1.00  0.00     0.163 HD
BRANCH   3   6
ATOM      6  C   UNL A   1      33.351  26.863  24.925  1.00  0.00     0.041 A 
ATOM      7  C   UNL A   1      31.607  23.014  25.955  1.00  0.00     0.046 C 
ATOM      8  C   UNL A   1      32.318  24.268  25.559  1.00  0.00    -0.031 A 
ATOM      9  C   UNL A   1      31.855  25.439  26.202  1.00  0.00     0.005 A 
ATOM     10  C   UNL A   1      33.311  24.423  24.587  1.00  0.00     0.086 A 
ATOM     11  C   UNL A   1      32.364  26.708  25.897  1.00  0.00     0.014 A 
ATOM     12  C   UNL A   1      33.782  25.715  24.279  1.00  0.00     0.035 A 
BRANCH  10  13
ATOM     13  S   UNL A   1      34.135  23.174  23.599  1.00  0.00     0.243 S 
ATOM     14  O   UNL A   1      33.094  22.387  22.997  1.00  0.00    -0.207 OA
ATOM     15  O   UNL A   1      35.091  23.903  22.772  1.00  0.00    -0.207 OA
BRANCH  13  16
ATOM     16  N   UNL A   1      35.043  22.213  24.629  1.00  0.00    -0.197 NA
ATOM     17  C   UNL A   1      34.476  20.914  25.000  1.00  0.00     0.125 C 
BRANCH  16  18
ATOM     18  C   UNL A   1      36.439  22.598  24.923  1.00  0.00     0.083 C 
ATOM     19  C   UNL A   1      36.591  23.595  26.068  1.00  0.00     0.032 C 
ATOM     20  C   UNL A   1      37.343  21.420  25.281  1.00  0.00     0.089 C 
ATOM     21  C   UNL A   1      38.084  23.855  26.161  1.00  0.00     0.071 C 
ATOM     22  S   UNL A   1      38.830  22.206  25.996  1.00  0.00    -0.160 SA
ENDBRANCH  16  18
ENDBRANCH  13  16
ENDBRANCH  10  13
ENDBRANCH   3   6
ENDBRANCH   1   2
BRANCH   1  23
ATOM     23  C   UNL A   1      35.029  29.720  27.767  1.00  0.00     0.042 C 
BRANCH  23  24
ATOM     24  C   UNL A   1      35.381  31.185  27.615  1.00  0.00     0.118 C 
BRANCH  24  25
ATOM     25  N   UNL A   1      34.369  32.116  28.112  1.00  0.00    -0.352 N 
ATOM     26  C   UNL A   1      34.457  33.010  29.169  1.00  0.00     0.251 C 
ATOM     27  H   UNL A   1      33.510  32.108  27.632  1.00  0.00     0.163 HD
ATOM     28  O   UNL A   1      33.509  33.736  29.450  1.00  0.00    -0.269 OA
BRANCH  26  29
ATOM     29  C   UNL A   1      35.763  33.195  29.847  1.00  0.00     0.039 A 
ATOM     30  C   UNL A   1      36.751  33.886  29.140  1.00  0.00     0.014 A 
ATOM     31  C   UNL A   1      36.098  32.382  30.923  1.00  0.00     0.014 A 
ATOM     32  C   UNL A   1      38.070  33.475  29.271  1.00  0.00     0.010 A 
ATOM     33  C   UNL A   1      37.375  31.878  30.964  1.00  0.00     0.010 A 
ATOM     34  C   UNL A   1      38.334  32.371  30.078  1.00  0.00    -0.014 A 
BRANCH  34  35
ATOM     35  C   UNL A   1      39.610  31.685  30.102  1.00  0.00     0.031 A 
ATOM     36  C   UNL A   1      39.662  30.365  29.467  1.00  0.00     0.074 A 
ATOM     37  C   UNL A   1      40.691  32.240  30.688  1.00  0.00     0.049 A 
ATOM     38  N   UNL A   1      40.381  29.388  29.888  1.00  0.00    -0.248 NA
ATOM     39  C   UNL A   1      38.802  30.015  28.340  1.00  0.00     0.031 C 
ATOM     40  C   UNL A   1      42.073  31.773  30.657  1.00  0.00     0.029 A 
ATOM     41  N   UNL A   1      40.718  33.278  31.603  1.00  0.00    -0.354 N 
ATOM     42  C   UNL A   1      40.320  28.405  28.928  1.00  0.00     0.074 A 
ATOM     43  C   UNL A   1      39.230  28.782  28.063  1.00  0.00     0.031 C 
ATOM     44  C   UNL A   1      42.753  32.348  31.668  1.00  0.00     0.029 A 
ATOM     45  C   UNL A   1      41.805  33.107  32.467  1.00  0.00     0.049 A 
ATOM     46  H   UNL A   1      40.073  34.021  31.640  1.00  0.00     0.167 HD
ATOM     47  C   UNL A   1      41.314  27.478  28.878  1.00  0.00     0.031 A 
ATOM     48  C   UNL A   1      41.602  32.936  33.811  1.00  0.00     0.031 A 
ATOM     49  C   UNL A   1      42.268  27.685  29.968  1.00  0.00     0.049 A 
ATOM     50  C   UNL A   1      41.927  31.534  34.270  1.00  0.00     0.074 A 
ATOM     51  C   UNL A   1      43.473  28.367  30.016  1.00  0.00     0.029 A 
ATOM     52  N   UNL A   1      41.853  27.522  31.287  1.00  0.00    -0.354 N 
ATOM     53  N   UNL A   1      42.058  30.517  33.462  1.00  0.00    -0.248 NA
ATOM     54  C   UNL A   1      42.108  31.163  35.671  1.00  0.00     0.031 C 
ATOM     55  C   UNL A   1      43.730  28.699  31.372  1.00  0.00     0.029 A 
ATOM     56  C   UNL A   1      42.713  28.175  32.152  1.00  0.00     0.049 A 
ATOM     57  H   UNL A   1      41.057  27.013  31.564  1.00  0.00     0.167 HD
ATOM     58  C   UNL A   1      42.321  29.387  34.185  1.00  0.00     0.074 A 
ATOM     59  C   UNL A   1      42.361  29.846  35.563  1.00  0.00     0.031 C 
ATOM     60  C   UNL A   1      42.471  28.166  33.592  1.00  0.00     0.031 A 
BRANCH  47  61
ATOM     61  C   UNL A   1      41.598  26.622  27.667  1.00  0.00    -0.014 A 
ATOM     62  C   UNL A   1      41.584  25.221  27.803  1.00  0.00     0.009 A 
ATOM     63  C   UNL A   1      41.941  27.109  26.394  1.00  0.00     0.009 A 
ATOM     64  C   UNL A   1      41.965  24.368  26.760  1.00  0.00     0.001 A 
ATOM     65  C   UNL A   1      42.354  26.264  25.354  1.00  0.00     0.001 A 
ATOM     66  C   UNL A   1      42.373  24.890  25.540  1.00  0.00     0.000 A 
ENDBRANCH  47  61
BRANCH  48  67
ATOM     67  C   UNL A   1      40.455  33.752  34.311  1.00  0.00    -0.014 A 
ATOM     68  C   UNL A   1      39.311  33.034  34.718  1.00  0.00     0.009 A 
ATOM     69  C   UNL A   1      40.692  35.016  34.867  1.00  0.00     0.009 A 
ATOM     70  C   UNL A   1      38.587  33.445  35.837  1.00  0.00     0.001 A 
ATOM     71  C   UNL A   1      39.940  35.435  35.969  1.00  0.00     0.001 A 
ATOM     72  C   UNL A   1      38.944  34.614  36.501  1.00  0.00     0.000 A 
ENDBRANCH  48  67
BRANCH  60  73
ATOM     73  C   UNL A   1      42.497  26.848  34.324  1.00  0.00    -0.014 A 
ATOM     74  C   UNL A   1      41.449  26.368  35.120  1.00  0.00     0.009 A 
ATOM     75  C   UNL A   1      43.587  25.973  34.122  1.00  0.00     0.009 A 
ATOM     76  C   UNL A   1      41.523  25.120  35.750  1.00  0.00     0.001 A 
ATOM     77  C   UNL A   1      43.637  24.701  34.694  1.00  0.00     0.001 A 
ATOM     78  C   UNL A   1      42.613  24.285  35.532  1.00  0.00     0.000 A 
ENDBRANCH  60  73
ENDBRANCH  34  35
ENDBRANCH  26  29
ENDBRANCH  24  25
ENDBRANCH  23  24
ENDBRANCH   1  23
TORSDOF 13
ENDMDL
MODEL 2
REMARK VINA RESULT:     -11.3      2.193      3.282
REMARK SMILES Cc1ccc(C(=O)NCCCNC(=O)c2ccc(-c3c4nc(c(-c5ccccc5)c5ccc([nH]5)c(-c5ccccc5)c5nc(c(-c6ccccc6)c6ccc3[nH]6)C=C5)C=C4)cc2)cc1S(=O)(=O)N(C)[C@H]1CCSC1
REMARK SMILES IDX 9 1 8 2 6 3 7 4 5 6 1 7 2 8 3 9 64 10 4 11 63 12 65 13 66 14
REMARK SMILES IDX 67 15 68 16 69 17 70 18 71 19 74 20 72 21 73 22 10 23 11 24
REMARK SMILES IDX 12 25 13 26 14 28 15 29 16 30 62 31 17 32 61 33 18 34 19 35
REMARK SMILES IDX 20 36 55 37 21 38 60 39 54 40 56 41 22 42 59 43 53 44 52 45
REMARK SMILES IDX 23 47 45 48 30 49 44 50 31 51 34 52 43 53 57 54 32 55 33 56
REMARK SMILES IDX 42 58 58 59 35 60 24 61 25 62 29 63 26 64 28 65 27 66 46 67
REMARK SMILES IDX 47 68 51 69 48 70 50 71 49 72 36 73 37 74 41 75 38 76 40 77
REMARK SMILES IDX 39 78
REMARK H PARENT 8 5 12 27 56 46 34 57
REMARK Flexibility Score: inf
ROOT
ATOM      1  C   UNL A   1      31.762  29.735  25.873  1.00  0.00     0.118 C 
ENDROOT
BRANCH   1   2
ATOM      2  N   UNL A   1      32.410  29.799  24.567  1.00  0.00    -0.352 N 
ATOM      3  C   UNL A   1      33.113  28.879  23.822  1.00  0.00     0.251 C 
ATOM      4  O   UNL A   1      33.431  29.205  22.678  1.00  0.00    -0.269 OA
ATOM      5  H   UNL A   1      32.327  30.677  24.130  1.00  0.00     0.163 HD
BRANCH   3   6
ATOM      6  C   UNL A   1      33.503  27.522  24.310  1.00  0.00     0.041 A 
ATOM      7  C   UNL A   1      34.520  23.683  26.084  1.00  0.00     0.046 C 
ATOM      8  C   UNL A   1      34.201  24.947  25.352  1.00  0.00    -0.031 A 
ATOM      9  C   UNL A   1      34.266  26.119  26.139  1.00  0.00     0.005 A 
ATOM     10  C   UNL A   1      33.776  25.089  24.027  1.00  0.00     0.086 A 
ATOM     11  C   UNL A   1      33.931  27.380  25.629  1.00  0.00     0.014 A 
ATOM     12  C   UNL A   1      33.415  26.365  23.550  1.00  0.00     0.035 A 
BRANCH  10  13
ATOM     13  S   UNL A   1      33.595  23.839  22.755  1.00  0.00     0.243 S 
ATOM     14  O   UNL A   1      33.168  24.532  21.570  1.00  0.00    -0.207 OA
ATOM     15  O   UNL A   1      34.846  23.088  22.769  1.00  0.00    -0.207 OA
BRANCH  13  16
ATOM     16  N   UNL A   1      32.401  22.769  23.243  1.00  0.00    -0.197 NA
ATOM     17  C   UNL A   1      31.014  23.230  23.145  1.00  0.00     0.125 C 
BRANCH  16  18
ATOM     18  C   UNL A   1      32.768  21.366  23.522  1.00  0.00     0.083 C 
ATOM     19  C   UNL A   1      32.425  20.890  24.931  1.00  0.00     0.032 C 
ATOM     20  C   UNL A   1      32.115  20.357  22.579  1.00  0.00     0.089 C 
ATOM     21  C   UNL A   1      32.914  19.454  24.987  1.00  0.00     0.071 C 
ATOM     22  S   UNL A   1      32.384  18.746  23.400  1.00  0.00    -0.160 SA
ENDBRANCH  16  18
ENDBRANCH  13  16
ENDBRANCH  10  13
ENDBRANCH   3   6
ENDBRANCH   1   2
BRANCH   1  23
ATOM     23  C   UNL A   1      32.320  30.767  26.854  1.00  0.00     0.042 C 
BRANCH  23  24
ATOM     24  C   UNL A   1      33.596  30.317  27.533  1.00  0.00     0.118 C 
BRANCH  24  25
ATOM     25  N   UNL A   1      34.265  31.344  28.330  1.00  0.00    -0.352 N 
ATOM     26  C   UNL A   1      35.493  31.282  28.973  1.00  0.00     0.251 C 
ATOM     27  H   UNL A   1      33.779  32.195  28.422  1.00  0.00     0.163 HD
ATOM     28  O   UNL A   1      35.917  32.248  29.597  1.00  0.00    -0.269 OA
BRANCH  26  29
ATOM     29  C   UNL A   1      36.356  30.095  28.759  1.00  0.00     0.039 A 
ATOM     30  C   UNL A   1      36.667  29.329  29.885  1.00  0.00     0.014 A 
ATOM     31  C   UNL A   1      37.125  30.005  27.606  1.00  0.00     0.014 A 
ATOM     32  C   UNL A   1      37.935  28.771  29.980  1.00  0.00     0.010 A 
ATOM     33  C   UNL A   1      38.423  29.575  27.740  1.00  0.00     0.010 A 
ATOM     34  C   UNL A   1      38.842  29.036  28.957  1.00  0.00    -0.014 A 
BRANCH  34  35
ATOM     35  C   UNL A   1      40.257  28.739  29.047  1.00  0.00     0.031 A 
ATOM     36  C   UNL A   1      40.701  27.460  28.487  1.00  0.00     0.074 A 
ATOM     37  C   UNL A   1      41.117  29.604  29.624  1.00  0.00     0.049 A 
ATOM     38  N   UNL A   1      41.649  26.747  28.977  1.00  0.00    -0.248 NA
ATOM     39  C   UNL A   1      40.015  26.828  27.362  1.00  0.00     0.031 C 
ATOM     40  C   UNL A   1      42.575  29.545  29.649  1.00  0.00     0.029 A 
ATOM     41  N   UNL A   1      40.818  30.649  30.480  1.00  0.00    -0.354 N 
ATOM     42  C   UNL A   1      41.902  25.742  28.072  1.00  0.00     0.074 A 
ATOM     43  C   UNL A   1      40.781  25.755  27.163  1.00  0.00     0.031 C 
ATOM     44  C   UNL A   1      43.029  30.336  30.640  1.00  0.00     0.029 A 
ATOM     45  C   UNL A   1      41.878  30.833  31.376  1.00  0.00     0.049 A 
ATOM     46  H   UNL A   1      39.990  31.181  30.462  1.00  0.00     0.167 HD
ATOM     47  C   UNL A   1      43.117  25.131  28.095  1.00  0.00     0.031 A 
ATOM     48  C   UNL A   1      41.683  30.675  32.722  1.00  0.00     0.031 A 
ATOM     49  C   UNL A   1      43.935  25.651  29.192  1.00  0.00     0.049 A 
ATOM     50  C   UNL A   1      42.371  29.445  33.265  1.00  0.00     0.074 A 
ATOM     51  C   UNL A   1      44.897  26.647  29.228  1.00  0.00     0.029 A 
ATOM     52  N   UNL A   1      43.535  25.439  30.508  1.00  0.00    -0.354 N 
ATOM     53  N   UNL A   1      42.811  28.469  32.518  1.00  0.00    -0.248 NA
ATOM     54  C   UNL A   1      42.598  29.206  34.688  1.00  0.00     0.031 C 
ATOM     55  C   UNL A   1      45.001  27.101  30.569  1.00  0.00     0.029 A 
ATOM     56  C   UNL A   1      44.145  26.348  31.355  1.00  0.00     0.049 A 
ATOM     57  H   UNL A   1      42.904  24.740  30.796  1.00  0.00     0.167 HD
ATOM     58  C   UNL A   1      43.355  27.495  33.308  1.00  0.00     0.074 A 
ATOM     59  C   UNL A   1      43.214  28.011  34.659  1.00  0.00     0.031 C 
ATOM     60  C   UNL A   1      43.863  26.340  32.787  1.00  0.00     0.031 A 
BRANCH  47  61
ATOM     61  C   UNL A   1      43.674  24.334  26.940  1.00  0.00    -0.014 A 
ATOM     62  C   UNL A   1      44.058  22.998  27.154  1.00  0.00     0.009 A 
ATOM     63  C   UNL A   1      43.903  24.836  25.646  1.00  0.00     0.009 A 
ATOM     64  C   UNL A   1      44.702  22.240  26.168  1.00  0.00     0.001 A 
ATOM     65  C   UNL A   1      44.575  24.095  24.663  1.00  0.00     0.001 A 
ATOM     66  C   UNL A   1      44.982  22.796  24.927  1.00  0.00     0.000 A 
ENDBRANCH  47  61
BRANCH  48  67
ATOM     67  C   UNL A   1      40.335  31.157  33.152  1.00  0.00    -0.014 A 
ATOM     68  C   UNL A   1      39.958  32.439  32.699  1.00  0.00     0.009 A 
ATOM     69  C   UNL A   1      39.333  30.229  33.465  1.00  0.00     0.009 A 
ATOM     70  C   UNL A   1      38.641  32.685  32.310  1.00  0.00     0.001 A 
ATOM     71  C   UNL A   1      38.010  30.498  33.102  1.00  0.00     0.001 A 
ATOM     72  C   UNL A   1      37.680  31.689  32.453  1.00  0.00     0.000 A 
ENDBRANCH  48  67
BRANCH  60  73
ATOM     73  C   UNL A   1      44.231  25.119  33.591  1.00  0.00    -0.014 A 
ATOM     74  C   UNL A   1      43.307  24.309  34.263  1.00  0.00     0.009 A 
ATOM     75  C   UNL A   1      45.573  24.677  33.592  1.00  0.00     0.009 A 
ATOM     76  C   UNL A   1      43.710  23.170  34.969  1.00  0.00     0.001 A 
ATOM     77  C   UNL A   1      45.971  23.506  34.238  1.00  0.00     0.001 A 
ATOM     78  C   UNL A   1      45.040  22.765  34.951  1.00  0.00     0.000 A 
ENDBRANCH  60  73
ENDBRANCH  34  35
ENDBRANCH  26  29
ENDBRANCH  24  25
ENDBRANCH  23  24
ENDBRANCH   1  23
TORSDOF 13
ENDMDL
MODEL 3
REMARK VINA RESULT:     -11.3      1.258      1.680
REMARK SMILES Cc1ccc(C(=O)NCCCNC(=O)c2ccc(-c3c4nc(c(-c5ccccc5)c5ccc([nH]5)c(-c5ccccc5)c5nc(c(-c6ccccc6)c6ccc3[nH]6)C=C5)C=C4)cc2)cc1S(=O)(=O)N(C)[C@H]1CCSC1
REMARK SMILES IDX 9 1 8 2 6 3 7 4 5 6 1 7 2 8 3 9 64 10 4 11 63 12 65 13 66 14
REMARK SMILES IDX 67 15 68 16 69 17 70 18 71 19 74 20 72 21 73 22 10 23 11 24
REMARK SMILES IDX 12 25 13 26 14 28 15 29 16 30 62 31 17 32 61 33 18 34 19 35
REMARK SMILES IDX 20 36 55 37 21 38 60 39 54 40 56 41 22 42 59 43 53 44 52 45
REMARK SMILES IDX 23 47 45 48 30 49 44 50 31 51 34 52 43 53 57 54 32 55 33 56
REMARK SMILES IDX 42 58 58 59 35 60 24 61 25 62 29 63 26 64 28 65 27 66 46 67
REMARK SMILES IDX 47 68 51 69 48 70 50 71 49 72 36 73 37 74 41 75 38 76 40 77
REMARK SMILES IDX 39 78
REMARK H PARENT 8 5 12 27 56 46 34 57
REMARK Flexibility Score: inf
ROOT
ATOM      1  C   UNL A   1      33.553  29.807  27.018  1.00  0.00     0.118 C 
ENDROOT
BRANCH   1   2
ATOM      2  N   UNL A   1      33.596  29.657  25.568  1.00  0.00    -0.352 N 
ATOM      3  C   UNL A   1      33.163  28.667  24.714  1.00  0.00     0.251 C 
ATOM      4  O   UNL A   1      33.230  28.897  23.505  1.00  0.00    -0.269 OA
ATOM      5  H   UNL A   1      34.019  30.417  25.107  1.00  0.00     0.163 HD
BRANCH   3   6
ATOM      6  C   UNL A   1      32.617  27.350  25.158  1.00  0.00     0.041 A 
ATOM      7  C   UNL A   1      30.697  23.606  26.263  1.00  0.00     0.046 C 
ATOM      8  C   UNL A   1      31.472  24.844  25.941  1.00  0.00    -0.031 A 
ATOM      9  C   UNL A   1      30.684  25.999  25.735  1.00  0.00     0.005 A 
ATOM     10  C   UNL A   1      32.851  24.968  25.745  1.00  0.00     0.086 A 
ATOM     11  C   UNL A   1      31.243  27.227  25.359  1.00  0.00     0.014 A 
ATOM     12  C   UNL A   1      33.383  26.208  25.336  1.00  0.00     0.035 A 
BRANCH  10  13
ATOM     13  S   UNL A   1      34.138  23.735  25.933  1.00  0.00     0.243 S 
ATOM     14  O   UNL A   1      35.387  24.444  25.872  1.00  0.00    -0.207 OA
ATOM     15  O   UNL A   1      33.772  22.971  27.121  1.00  0.00    -0.207 OA
BRANCH  13  16
ATOM     16  N   UNL A   1      34.031  22.671  24.641  1.00  0.00    -0.197 NA
ATOM     17  C   UNL A   1      34.482  23.162  23.337  1.00  0.00     0.125 C 
BRANCH  16  18
ATOM     18  C   UNL A   1      33.718  21.252  24.906  1.00  0.00     0.083 C 
ATOM     19  C   UNL A   1      32.617  20.672  24.024  1.00  0.00     0.032 C 
ATOM     20  C   UNL A   1      34.912  20.315  24.741  1.00  0.00     0.089 C 
ATOM     21  C   UNL A   1      32.456  19.238  24.494  1.00  0.00     0.071 C 
ATOM     22  S   UNL A   1      34.163  18.648  24.698  1.00  0.00    -0.160 SA
ENDBRANCH  16  18
ENDBRANCH  13  16
ENDBRANCH  10  13
ENDBRANCH   3   6
ENDBRANCH   1   2
BRANCH   1  23
ATOM     23  C   UNL A   1      34.949  29.917  27.637  1.00  0.00     0.042 C 
BRANCH  23  24
ATOM     24  C   UNL A   1      35.426  31.346  27.783  1.00  0.00     0.118 C 
BRANCH  24  25
ATOM     25  N   UNL A   1      34.416  32.287  28.263  1.00  0.00    -0.352 N 
ATOM     26  C   UNL A   1      34.487  33.164  29.336  1.00  0.00     0.251 C 
ATOM     27  H   UNL A   1      33.572  32.300  27.758  1.00  0.00     0.163 HD
ATOM     28  O   UNL A   1      33.544  33.901  29.600  1.00  0.00    -0.269 OA
BRANCH  26  29
ATOM     29  C   UNL A   1      35.775  33.316  30.056  1.00  0.00     0.039 A 
ATOM     30  C   UNL A   1      36.776  34.050  29.415  1.00  0.00     0.014 A 
ATOM     31  C   UNL A   1      36.088  32.445  31.092  1.00  0.00     0.014 A 
ATOM     32  C   UNL A   1      38.094  33.639  29.555  1.00  0.00     0.010 A 
ATOM     33  C   UNL A   1      37.367  31.945  31.136  1.00  0.00     0.010 A 
ATOM     34  C   UNL A   1      38.344  32.492  30.304  1.00  0.00    -0.014 A 
BRANCH  34  35
ATOM     35  C   UNL A   1      39.623  31.811  30.321  1.00  0.00     0.031 A 
ATOM     36  C   UNL A   1      39.697  30.528  29.618  1.00  0.00     0.074 A 
ATOM     37  C   UNL A   1      40.687  32.339  30.961  1.00  0.00     0.049 A 
ATOM     38  N   UNL A   1      40.412  29.533  30.003  1.00  0.00    -0.248 NA
ATOM     39  C   UNL A   1      38.866  30.234  28.454  1.00  0.00     0.031 C 
ATOM     40  C   UNL A   1      42.072  31.881  30.938  1.00  0.00     0.029 A 
ATOM     41  N   UNL A   1      40.686  33.327  31.930  1.00  0.00    -0.354 N 
ATOM     42  C   UNL A   1      40.379  28.602  28.991  1.00  0.00     0.074 A 
ATOM     43  C   UNL A   1      39.307  29.020  28.121  1.00  0.00     0.031 C 
ATOM     44  C   UNL A   1      42.725  32.404  31.993  1.00  0.00     0.029 A 
ATOM     45  C   UNL A   1      41.755  33.114  32.810  1.00  0.00     0.049 A 
ATOM     46  H   UNL A   1      40.037  34.064  31.992  1.00  0.00     0.167 HD
ATOM     47  C   UNL A   1      41.379  27.684  28.915  1.00  0.00     0.031 A 
ATOM     48  C   UNL A   1      41.522  32.871  34.137  1.00  0.00     0.031 A 
ATOM     49  C   UNL A   1      42.307  27.837  30.036  1.00  0.00     0.049 A 
ATOM     50  C   UNL A   1      41.845  31.448  34.528  1.00  0.00     0.074 A 
ATOM     51  C   UNL A   1      43.507  28.521  30.148  1.00  0.00     0.029 A 
ATOM     52  N   UNL A   1      41.863  27.601  31.334  1.00  0.00    -0.354 N 
ATOM     53  N   UNL A   1      42.000  30.476  33.670  1.00  0.00    -0.248 NA
ATOM     54  C   UNL A   1      41.995  31.003  35.911  1.00  0.00     0.031 C 
ATOM     55  C   UNL A   1      43.730  28.781  31.526  1.00  0.00     0.029 A 
ATOM     56  C   UNL A   1      42.699  28.211  32.253  1.00  0.00     0.049 A 
ATOM     57  H   UNL A   1      41.064  27.074  31.565  1.00  0.00     0.167 HD
ATOM     58  C   UNL A   1      42.253  29.311  34.338  1.00  0.00     0.074 A 
ATOM     59  C   UNL A   1      42.258  29.696  35.739  1.00  0.00     0.031 C 
ATOM     60  C   UNL A   1      42.424  28.124  33.684  1.00  0.00     0.031 A 
BRANCH  47  61
ATOM     61  C   UNL A   1      41.696  26.895  27.667  1.00  0.00    -0.014 A 
ATOM     62  C   UNL A   1      41.613  25.491  27.707  1.00  0.00     0.009 A 
ATOM     63  C   UNL A   1      42.134  27.447  26.450  1.00  0.00     0.009 A 
ATOM     64  C   UNL A   1      42.017  24.689  26.632  1.00  0.00     0.001 A 
ATOM     65  C   UNL A   1      42.571  26.652  25.380  1.00  0.00     0.001 A 
ATOM     66  C   UNL A   1      42.519  25.269  25.474  1.00  0.00     0.000 A 
ENDBRANCH  47  61
BRANCH  48  67
ATOM     67  C   UNL A   1      40.359  33.654  34.654  1.00  0.00    -0.014 A 
ATOM     68  C   UNL A   1      39.126  32.972  34.713  1.00  0.00     0.009 A 
ATOM     69  C   UNL A   1      40.577  34.730  35.523  1.00  0.00     0.009 A 
ATOM     70  C   UNL A   1      38.260  33.181  35.786  1.00  0.00     0.001 A 
ATOM     71  C   UNL A   1      39.686  34.954  36.578  1.00  0.00     0.001 A 
ATOM     72  C   UNL A   1      38.574  34.129  36.754  1.00  0.00     0.000 A 
ENDBRANCH  48  67
BRANCH  60  73
ATOM     73  C   UNL A   1      42.441  26.769  34.345  1.00  0.00    -0.014 A 
ATOM     74  C   UNL A   1      41.392  26.257  35.120  1.00  0.00     0.009 A 
ATOM     75  C   UNL A   1      43.522  25.895  34.092  1.00  0.00     0.009 A 
ATOM     76  C   UNL A   1      41.457  24.977  35.683  1.00  0.00     0.001 A 
ATOM     77  C   UNL A   1      43.562  24.595  34.595  1.00  0.00     0.001 A 
ATOM     78  C   UNL A   1      42.538  24.144  35.415  1.00  0.00     0.000 A 
ENDBRANCH  60  73
ENDBRANCH  34  35
ENDBRANCH  26  29
ENDBRANCH  24  25
ENDBRANCH  23  24
ENDBRANCH   1  23
TORSDOF 13
ENDMDL
