MODEL 1
REMARK VINA RESULT:     -10.8      0.000      0.000
REMARK SMILES C[C@@H](OC[C@@H]1CCCCO1)c1ccc(C(=O)NCCCNC(=O)c2ccc(-c3c4nc(c(-c5ccccc5)c5ccc([nH]5)c(-c5ccccc5)c5nc(c(-c6ccccc6)c6ccc3[nH]6)C=C5)C=C4)cc2)o1
REMARK SMILES IDX 18 1 17 2 15 3 16 4 14 6 11 7 12 8 72 9 13 10 2 11 1 12 3 13
REMARK SMILES IDX 4 14 5 15 6 16 10 17 7 18 9 19 8 20 19 21 20 22 21 23 22 24
REMARK SMILES IDX 23 26 24 27 25 28 71 29 26 30 70 31 27 32 28 33 29 34 64 35
REMARK SMILES IDX 30 36 69 37 63 38 65 39 31 40 68 41 62 42 61 43 32 45 54 46
REMARK SMILES IDX 39 47 53 48 40 49 43 50 52 51 66 52 41 53 42 54 51 56 67 57
REMARK SMILES IDX 44 58 33 59 34 60 38 61 35 62 37 63 36 64 55 65 56 66 60 67
REMARK SMILES IDX 57 68 59 69 58 70 45 71 46 72 50 73 47 74 49 75 48 76
REMARK H PARENT 17 5 21 25 65 44 43 55
REMARK Flexibility Score: inf
ROOT
ATOM      1  C   UNL A   1      31.532  30.871  26.149  1.00  0.00     0.118 C 
ENDROOT
BRANCH   1   2
ATOM      2  N   UNL A   1      32.631  30.089  26.682  1.00  0.00    -0.349 N 
ATOM      3  C   UNL A   1      33.497  29.233  26.039  1.00  0.00     0.286 C 
ATOM      4  O   UNL A   1      34.467  28.850  26.703  1.00  0.00    -0.266 OA
ATOM      5  H   UNL A   1      32.780  30.185  27.650  1.00  0.00     0.163 HD
BRANCH   3   6
ATOM      6  C   UNL A   1      33.259  28.823  24.668  1.00  0.00     0.191 A 
ATOM      7  C   UNL A   1      32.040  27.886  23.069  1.00  0.00     0.133 A 
ATOM      8  C   UNL A   1      33.166  28.390  22.455  1.00  0.00     0.049 A 
ATOM      9  O   UNL A   1      32.098  28.139  24.408  1.00  0.00    -0.453 OA
ATOM     10  C   UNL A   1      33.937  29.000  23.474  1.00  0.00     0.056 A 
BRANCH   7  11
ATOM     11  C   UNL A   1      30.823  27.193  22.532  1.00  0.00     0.181 C 
ATOM     12  C   UNL A   1      30.174  26.328  23.606  1.00  0.00     0.047 C 
BRANCH  11  13
ATOM     13  O   UNL A   1      29.931  28.204  22.059  1.00  0.00    -0.368 OA
BRANCH  13  14
ATOM     14  C   UNL A   1      28.956  28.648  22.995  1.00  0.00     0.193 C 
BRANCH  14  15
ATOM     15  C   UNL A   1      27.809  29.484  22.383  1.00  0.00     0.144 C 
ATOM     16  C   UNL A   1      28.167  30.334  21.159  1.00  0.00     0.034 C 
ATOM     17  O   UNL A   1      27.106  30.257  23.366  1.00  0.00    -0.376 OA
ATOM     18  C   UNL A   1      28.776  31.689  21.500  1.00  0.00     0.005 C 
ATOM     19  C   UNL A   1      27.781  31.442  23.782  1.00  0.00     0.160 C 
ATOM     20  C   UNL A   1      27.992  32.380  22.604  1.00  0.00     0.029 C 
ENDBRANCH  14  15
ENDBRANCH  13  14
ENDBRANCH  11  13
ENDBRANCH   7  11
ENDBRANCH   3   6
ENDBRANCH   1   2
BRANCH   1  21
ATOM     21  C   UNL A   1      31.380  32.213  26.861  1.00  0.00     0.042 C 
BRANCH  21  22
ATOM     22  C   UNL A   1      32.684  33.002  26.979  1.00  0.00     0.118 C 
BRANCH  22  23
ATOM     23  N   UNL A   1      32.531  34.191  27.805  1.00  0.00    -0.352 N 
ATOM     24  C   UNL A   1      33.224  34.613  28.910  1.00  0.00     0.251 C 
ATOM     25  H   UNL A   1      31.807  34.796  27.521  1.00  0.00     0.163 HD
ATOM     26  O   UNL A   1      32.780  35.550  29.570  1.00  0.00    -0.269 OA
BRANCH  24  27
ATOM     27  C   UNL A   1      34.490  33.967  29.329  1.00  0.00     0.039 A 
ATOM     28  C   UNL A   1      35.653  34.253  28.604  1.00  0.00     0.014 A 
ATOM     29  C   UNL A   1      34.532  33.025  30.360  1.00  0.00     0.014 A 
ATOM     30  C   UNL A   1      36.859  33.630  28.937  1.00  0.00     0.010 A 
ATOM     31  C   UNL A   1      35.747  32.447  30.730  1.00  0.00     0.010 A 
ATOM     32  C   UNL A   1      36.921  32.735  30.017  1.00  0.00    -0.014 A 
BRANCH  32  33
ATOM     33  C   UNL A   1      38.199  32.086  30.400  1.00  0.00     0.031 A 
ATOM     34  C   UNL A   1      39.128  32.753  31.378  1.00  0.00     0.074 A 
ATOM     35  C   UNL A   1      38.552  30.918  29.831  1.00  0.00     0.049 A 
ATOM     36  N   UNL A   1      40.311  32.368  31.788  1.00  0.00    -0.248 NA
ATOM     37  C   UNL A   1      38.678  34.029  31.956  1.00  0.00     0.031 C 
ATOM     38  C   UNL A   1      37.758  30.181  28.847  1.00  0.00     0.029 A 
ATOM     39  N   UNL A   1      39.678  30.150  29.995  1.00  0.00    -0.354 N 
ATOM     40  C   UNL A   1      40.754  33.363  32.650  1.00  0.00     0.074 A 
ATOM     41  C   UNL A   1      39.730  34.384  32.680  1.00  0.00     0.031 C 
ATOM     42  C   UNL A   1      38.412  29.057  28.511  1.00  0.00     0.029 A 
ATOM     43  C   UNL A   1      39.681  29.011  29.228  1.00  0.00     0.049 A 
ATOM     44  H   UNL A   1      40.411  30.392  30.605  1.00  0.00     0.167 HD
ATOM     45  C   UNL A   1      41.905  33.418  33.363  1.00  0.00     0.031 A 
ATOM     46  C   UNL A   1      40.606  28.039  29.112  1.00  0.00     0.031 A 
ATOM     47  C   UNL A   1      42.919  32.397  33.353  1.00  0.00     0.049 A 
ATOM     48  C   UNL A   1      41.869  28.119  29.920  1.00  0.00     0.074 A 
ATOM     49  C   UNL A   1      44.094  32.341  34.083  1.00  0.00     0.029 A 
ATOM     50  N   UNL A   1      42.875  31.251  32.576  1.00  0.00    -0.354 N 
ATOM     51  N   UNL A   1      42.250  29.043  30.767  1.00  0.00    -0.248 NA
ATOM     52  C   UNL A   1      42.824  27.012  29.763  1.00  0.00     0.031 C 
ATOM     53  C   UNL A   1      44.779  31.175  33.721  1.00  0.00     0.029 A 
ATOM     54  C   UNL A   1      44.009  30.487  32.798  1.00  0.00     0.049 A 
ATOM     55  H   UNL A   1      42.146  31.015  31.959  1.00  0.00     0.167 HD
ATOM     56  C   UNL A   1      43.476  28.618  31.263  1.00  0.00     0.074 A 
ATOM     57  C   UNL A   1      43.768  27.348  30.630  1.00  0.00     0.031 C 
ATOM     58  C   UNL A   1      44.286  29.226  32.162  1.00  0.00     0.031 A 
BRANCH  45  59
ATOM     59  C   UNL A   1      42.131  34.636  34.213  1.00  0.00    -0.014 A 
ATOM     60  C   UNL A   1      42.730  35.790  33.682  1.00  0.00     0.009 A 
ATOM     61  C   UNL A   1      41.713  34.641  35.552  1.00  0.00     0.009 A 
ATOM     62  C   UNL A   1      42.938  36.912  34.488  1.00  0.00     0.001 A 
ATOM     63  C   UNL A   1      41.899  35.773  36.348  1.00  0.00     0.001 A 
ATOM     64  C   UNL A   1      42.521  36.904  35.817  1.00  0.00     0.000 A 
ENDBRANCH  45  59
BRANCH  46  65
ATOM     65  C   UNL A   1      40.361  26.891  28.203  1.00  0.00    -0.014 A 
ATOM     66  C   UNL A   1      39.633  25.778  28.651  1.00  0.00     0.009 A 
ATOM     67  C   UNL A   1      40.850  26.902  26.889  1.00  0.00     0.009 A 
ATOM     68  C   UNL A   1      39.417  24.688  27.804  1.00  0.00     0.001 A 
ATOM     69  C   UNL A   1      40.615  25.821  26.038  1.00  0.00     0.001 A 
ATOM     70  C   UNL A   1      39.905  24.712  26.498  1.00  0.00     0.000 A 
ENDBRANCH  46  65
BRANCH  58  71
ATOM     71  C   UNL A   1      45.549  28.509  32.538  1.00  0.00    -0.014 A 
ATOM     72  C   UNL A   1      45.564  27.557  33.569  1.00  0.00     0.009 A 
ATOM     73  C   UNL A   1      46.731  28.768  31.830  1.00  0.00     0.009 A 
ATOM     74  C   UNL A   1      46.750  26.900  33.904  1.00  0.00     0.001 A 
ATOM     75  C   UNL A   1      47.910  28.093  32.151  1.00  0.00     0.001 A 
ATOM     76  C   UNL A   1      47.920  27.166  33.193  1.00  0.00     0.000 A 
ENDBRANCH  58  71
ENDBRANCH  32  33
ENDBRANCH  24  27
ENDBRANCH  22  23
ENDBRANCH  21  22
ENDBRANCH   1  21
TORSDOF 14
ENDMDL
MODEL 2
REMARK VINA RESULT:     -10.7      5.053      9.932
REMARK SMILES C[C@@H](OC[C@@H]1CCCCO1)c1ccc(C(=O)NCCCNC(=O)c2ccc(-c3c4nc(c(-c5ccccc5)c5ccc([nH]5)c(-c5ccccc5)c5nc(c(-c6ccccc6)c6ccc3[nH]6)C=C5)C=C4)cc2)o1
REMARK SMILES IDX 18 1 17 2 15 3 16 4 14 6 11 7 12 8 72 9 13 10 2 11 1 12 3 13
REMARK SMILES IDX 4 14 5 15 6 16 10 17 7 18 9 19 8 20 19 21 20 22 21 23 22 24
REMARK SMILES IDX 23 26 24 27 25 28 71 29 26 30 70 31 27 32 28 33 29 34 64 35
REMARK SMILES IDX 30 36 69 37 63 38 65 39 31 40 68 41 62 42 61 43 32 45 54 46
REMARK SMILES IDX 39 47 53 48 40 49 43 50 52 51 66 52 41 53 42 54 51 56 67 57
REMARK SMILES IDX 44 58 33 59 34 60 38 61 35 62 37 63 36 64 55 65 56 66 60 67
REMARK SMILES IDX 57 68 59 69 58 70 45 71 46 72 50 73 47 74 49 75 48 76
REMARK H PARENT 17 5 21 25 65 44 43 55
REMARK Flexibility Score: inf
ROOT
ATOM      1  C   UNL A   1      37.007  20.509  24.855  1.00  0.00     0.118 C 
ENDROOT
BRANCH   1   2
ATOM      2  N   UNL A   1      37.373  21.897  25.063  1.00  0.00    -0.349 N 
ATOM      3  C   UNL A   1      36.676  22.910  25.683  1.00  0.00     0.286 C 
ATOM      4  O   UNL A   1      37.311  23.950  25.893  1.00  0.00    -0.266 OA
ATOM      5  H   UNL A   1      38.253  22.154  24.705  1.00  0.00     0.163 HD
BRANCH   3   6
ATOM      6  C   UNL A   1      35.285  22.738  26.054  1.00  0.00     0.191 A 
ATOM      7  C   UNL A   1      33.162  22.271  25.607  1.00  0.00     0.133 A 
ATOM      8  C   UNL A   1      33.237  22.479  26.967  1.00  0.00     0.049 A 
ATOM      9  O   UNL A   1      34.398  22.436  25.052  1.00  0.00    -0.453 OA
ATOM     10  C   UNL A   1      34.594  22.763  27.255  1.00  0.00     0.056 A 
BRANCH   7  11
ATOM     11  C   UNL A   1      32.030  21.875  24.707  1.00  0.00     0.181 C 
ATOM     12  C   UNL A   1      32.370  22.165  23.250  1.00  0.00     0.047 C 
BRANCH  11  13
ATOM     13  O   UNL A   1      31.779  20.486  24.925  1.00  0.00    -0.368 OA
BRANCH  13  14
ATOM     14  C   UNL A   1      32.533  19.592  24.112  1.00  0.00     0.193 C 
BRANCH  14  15
ATOM     15  C   UNL A   1      33.554  18.726  24.885  1.00  0.00     0.144 C 
ATOM     16  C   UNL A   1      34.501  17.872  24.033  1.00  0.00     0.034 C 
ATOM     17  O   UNL A   1      32.943  17.947  25.922  1.00  0.00    -0.376 OA
ATOM     18  C   UNL A   1      33.912  16.534  23.603  1.00  0.00     0.005 C 
ATOM     19  C   UNL A   1      32.261  16.781  25.465  1.00  0.00     0.160 C 
ATOM     20  C   UNL A   1      33.225  15.837  24.766  1.00  0.00     0.029 C 
ENDBRANCH  14  15
ENDBRANCH  13  14
ENDBRANCH  11  13
ENDBRANCH   7  11
ENDBRANCH   3   6
ENDBRANCH   1   2
BRANCH   1  21
ATOM     21  C   UNL A   1      38.218  19.580  24.895  1.00  0.00     0.042 C 
BRANCH  21  22
ATOM     22  C   UNL A   1      39.183  19.870  26.044  1.00  0.00     0.118 C 
BRANCH  22  23
ATOM     23  N   UNL A   1      40.459  19.191  25.872  1.00  0.00    -0.352 N 
ATOM     24  C   UNL A   1      41.744  19.665  25.938  1.00  0.00     0.251 C 
ATOM     25  H   UNL A   1      40.387  18.229  25.674  1.00  0.00     0.163 HD
ATOM     26  O   UNL A   1      42.663  18.947  25.548  1.00  0.00    -0.269 OA
BRANCH  24  27
ATOM     27  C   UNL A   1      42.051  21.015  26.462  1.00  0.00     0.039 A 
ATOM     28  C   UNL A   1      41.995  21.220  27.846  1.00  0.00     0.014 A 
ATOM     29  C   UNL A   1      42.305  22.097  25.613  1.00  0.00     0.014 A 
ATOM     30  C   UNL A   1      42.232  22.489  28.379  1.00  0.00     0.010 A 
ATOM     31  C   UNL A   1      42.599  23.352  26.149  1.00  0.00     0.010 A 
ATOM     32  C   UNL A   1      42.556  23.564  27.535  1.00  0.00    -0.014 A 
BRANCH  32  33
ATOM     33  C   UNL A   1      42.837  24.912  28.088  1.00  0.00     0.031 A 
ATOM     34  C   UNL A   1      44.234  25.290  28.498  1.00  0.00     0.074 A 
ATOM     35  C   UNL A   1      41.827  25.784  28.268  1.00  0.00     0.049 A 
ATOM     36  N   UNL A   1      44.662  26.397  29.054  1.00  0.00    -0.248 NA
ATOM     37  C   UNL A   1      45.286  24.285  28.275  1.00  0.00     0.031 C 
ATOM     38  C   UNL A   1      40.423  25.534  27.940  1.00  0.00     0.029 A 
ATOM     39  N   UNL A   1      41.829  27.057  28.781  1.00  0.00    -0.354 N 
ATOM     40  C   UNL A   1      46.022  26.212  29.267  1.00  0.00     0.074 A 
ATOM     41  C   UNL A   1      46.344  24.877  28.812  1.00  0.00     0.031 C 
ATOM     42  C   UNL A   1      39.702  26.626  28.241  1.00  0.00     0.029 A 
ATOM     43  C   UNL A   1      40.585  27.638  28.811  1.00  0.00     0.049 A 
ATOM     44  H   UNL A   1      42.643  27.510  29.097  1.00  0.00     0.167 HD
ATOM     45  C   UNL A   1      46.926  27.079  29.783  1.00  0.00     0.031 A 
ATOM     46  C   UNL A   1      40.197  28.849  29.252  1.00  0.00     0.031 A 
ATOM     47  C   UNL A   1      46.616  28.416  30.218  1.00  0.00     0.049 A 
ATOM     48  C   UNL A   1      41.220  29.796  29.811  1.00  0.00     0.074 A 
ATOM     49  C   UNL A   1      47.476  29.385  30.706  1.00  0.00     0.029 A 
ATOM     50  N   UNL A   1      45.348  28.971  30.214  1.00  0.00    -0.354 N 
ATOM     51  N   UNL A   1      42.510  29.623  29.960  1.00  0.00    -0.248 NA
ATOM     52  C   UNL A   1      40.732  31.111  30.251  1.00  0.00     0.031 C 
ATOM     53  C   UNL A   1      46.720  30.518  31.029  1.00  0.00     0.029 A 
ATOM     54  C   UNL A   1      45.398  30.265  30.704  1.00  0.00     0.049 A 
ATOM     55  H   UNL A   1      44.532  28.513  29.908  1.00  0.00     0.167 HD
ATOM     56  C   UNL A   1      42.992  30.814  30.488  1.00  0.00     0.074 A 
ATOM     57  C   UNL A   1      41.858  31.704  30.622  1.00  0.00     0.031 C 
ATOM     58  C   UNL A   1      44.262  31.140  30.830  1.00  0.00     0.031 A 
BRANCH  45  59
ATOM     59  C   UNL A   1      48.344  26.600  29.912  1.00  0.00    -0.014 A 
ATOM     60  C   UNL A   1      48.807  26.016  31.102  1.00  0.00     0.009 A 
ATOM     61  C   UNL A   1      49.219  26.706  28.820  1.00  0.00     0.009 A 
ATOM     62  C   UNL A   1      50.130  25.581  31.207  1.00  0.00     0.001 A 
ATOM     63  C   UNL A   1      50.535  26.247  28.920  1.00  0.00     0.001 A 
ATOM     64  C   UNL A   1      50.991  25.695  30.117  1.00  0.00     0.000 A 
ENDBRANCH  45  59
BRANCH  46  65
ATOM     65  C   UNL A   1      38.769  29.246  29.164  1.00  0.00    -0.014 A 
ATOM     66  C   UNL A   1      38.277  29.861  28.004  1.00  0.00     0.009 A 
ATOM     67  C   UNL A   1      37.894  29.010  30.235  1.00  0.00     0.009 A 
ATOM     68  C   UNL A   1      36.938  30.252  27.926  1.00  0.00     0.001 A 
ATOM     69  C   UNL A   1      36.552  29.382  30.146  1.00  0.00     0.001 A 
ATOM     70  C   UNL A   1      36.076  30.009  28.995  1.00  0.00     0.000 A 
ENDBRANCH  46  65
BRANCH  58  71
ATOM     71  C   UNL A   1      44.494  32.527  31.351  1.00  0.00    -0.014 A 
ATOM     72  C   UNL A   1      44.777  33.591  30.483  1.00  0.00     0.009 A 
ATOM     73  C   UNL A   1      44.396  32.777  32.728  1.00  0.00     0.009 A 
ATOM     74  C   UNL A   1      44.990  34.876  30.987  1.00  0.00     0.001 A 
ATOM     75  C   UNL A   1      44.586  34.066  33.228  1.00  0.00     0.001 A 
ATOM     76  C   UNL A   1      44.891  35.113  32.358  1.00  0.00     0.000 A 
ENDBRANCH  58  71
ENDBRANCH  32  33
ENDBRANCH  24  27
ENDBRANCH  22  23
ENDBRANCH  21  22
ENDBRANCH   1  21
TORSDOF 14
ENDMDL
MODEL 3
REMARK VINA RESULT:     -10.7      5.237      9.974
REMARK SMILES C[C@@H](OC[C@@H]1CCCCO1)c1ccc(C(=O)NCCCNC(=O)c2ccc(-c3c4nc(c(-c5ccccc5)c5ccc([nH]5)c(-c5ccccc5)c5nc(c(-c6ccccc6)c6ccc3[nH]6)C=C5)C=C4)cc2)o1
REMARK SMILES IDX 18 1 17 2 15 3 16 4 14 6 11 7 12 8 72 9 13 10 2 11 1 12 3 13
REMARK SMILES IDX 4 14 5 15 6 16 10 17 7 18 9 19 8 20 19 21 20 22 21 23 22 24
REMARK SMILES IDX 23 26 24 27 25 28 71 29 26 30 70 31 27 32 28 33 29 34 64 35
REMARK SMILES IDX 30 36 69 37 63 38 65 39 31 40 68 41 62 42 61 43 32 45 54 46
REMARK SMILES IDX 39 47 53 48 40 49 43 50 52 51 66 52 41 53 42 54 51 56 67 57
REMARK SMILES IDX 44 58 33 59 34 60 38 61 35 62 37 63 36 64 55 65 56 66 60 67
REMARK SMILES IDX 57 68 59 69 58 70 45 71 46 72 50 73 47 74 49 75 48 76
REMARK H PARENT 17 5 21 25 65 44 43 55
REMARK Flexibility Score: inf
ROOT
ATOM      1  C   UNL A   1      36.946  20.617  24.602  1.00  0.00     0.118 C 
ENDROOT
BRANCH   1   2
ATOM      2  N   UNL A   1      37.324  21.958  25.002  1.00  0.00    -0.349 N 
ATOM      3  C   UNL A   1      36.652  22.865  25.792  1.00  0.00     0.286 C 
ATOM      4  O   UNL A   1      37.297  23.862  26.133  1.00  0.00    -0.266 OA
ATOM      5  H   UNL A   1      38.191  22.268  24.656  1.00  0.00     0.163 HD
BRANCH   3   6
ATOM      6  C   UNL A   1      35.274  22.636  26.182  1.00  0.00     0.191 A 
ATOM      7  C   UNL A   1      33.151  22.155  25.752  1.00  0.00     0.133 A 
ATOM      8  C   UNL A   1      33.255  22.268  27.121  1.00  0.00     0.049 A 
ATOM      9  O   UNL A   1      34.370  22.386  25.181  1.00  0.00    -0.453 OA
ATOM     10  C   UNL A   1      34.612  22.561  27.396  1.00  0.00     0.056 A 
BRANCH   7  11
ATOM     11  C   UNL A   1      32.006  21.798  24.852  1.00  0.00     0.181 C 
ATOM     12  C   UNL A   1      32.311  22.181  23.409  1.00  0.00     0.047 C 
BRANCH  11  13
ATOM     13  O   UNL A   1      31.777  20.395  24.989  1.00  0.00    -0.368 OA
BRANCH  13  14
ATOM     14  C   UNL A   1      32.614  19.558  24.199  1.00  0.00     0.193 C 
BRANCH  14  15
ATOM     15  C   UNL A   1      33.572  18.656  25.009  1.00  0.00     0.144 C 
ATOM     16  C   UNL A   1      34.576  17.829  24.196  1.00  0.00     0.034 C 
ATOM     17  O   UNL A   1      32.883  17.840  25.967  1.00  0.00    -0.376 OA
ATOM     18  C   UNL A   1      34.016  16.513  23.671  1.00  0.00     0.005 C 
ATOM     19  C   UNL A   1      32.233  16.697  25.415  1.00  0.00     0.160 C 
ATOM     20  C   UNL A   1      33.243  15.775  24.752  1.00  0.00     0.029 C 
ENDBRANCH  14  15
ENDBRANCH  13  14
ENDBRANCH  11  13
ENDBRANCH   7  11
ENDBRANCH   3   6
ENDBRANCH   1   2
BRANCH   1  21
ATOM     21  C   UNL A   1      38.028  19.590  24.928  1.00  0.00     0.042 C 
BRANCH  21  22
ATOM     22  C   UNL A   1      39.083  20.095  25.912  1.00  0.00     0.118 C 
BRANCH  22  23
ATOM     23  N   UNL A   1      40.293  19.286  25.879  1.00  0.00    -0.352 N 
ATOM     24  C   UNL A   1      41.610  19.634  26.038  1.00  0.00     0.251 C 
ATOM     25  H   UNL A   1      40.140  18.327  25.716  1.00  0.00     0.163 HD
ATOM     26  O   UNL A   1      42.480  18.811  25.759  1.00  0.00    -0.269 OA
BRANCH  24  27
ATOM     27  C   UNL A   1      42.009  20.972  26.531  1.00  0.00     0.039 A 
ATOM     28  C   UNL A   1      42.004  21.200  27.912  1.00  0.00     0.014 A 
ATOM     29  C   UNL A   1      42.300  22.024  25.658  1.00  0.00     0.014 A 
ATOM     30  C   UNL A   1      42.329  22.461  28.418  1.00  0.00     0.010 A 
ATOM     31  C   UNL A   1      42.681  23.268  26.165  1.00  0.00     0.010 A 
ATOM     32  C   UNL A   1      42.690  23.502  27.548  1.00  0.00    -0.014 A 
BRANCH  32  33
ATOM     33  C   UNL A   1      43.064  24.840  28.070  1.00  0.00     0.031 A 
ATOM     34  C   UNL A   1      42.008  25.879  28.330  1.00  0.00     0.074 A 
ATOM     35  C   UNL A   1      44.362  25.142  28.265  1.00  0.00     0.049 A 
ATOM     36  N   UNL A   1      42.148  27.119  28.729  1.00  0.00    -0.248 NA
ATOM     37  C   UNL A   1      40.612  25.480  28.091  1.00  0.00     0.031 C 
ATOM     38  C   UNL A   1      45.487  24.237  28.025  1.00  0.00     0.029 A 
ATOM     39  N   UNL A   1      44.953  26.301  28.704  1.00  0.00    -0.354 N 
ATOM     40  C   UNL A   1      40.866  27.652  28.765  1.00  0.00     0.074 A 
ATOM     41  C   UNL A   1      39.963  26.613  28.317  1.00  0.00     0.031 C 
ATOM     42  C   UNL A   1      46.630  24.868  28.339  1.00  0.00     0.029 A 
ATOM     43  C   UNL A   1      46.322  26.228  28.769  1.00  0.00     0.049 A 
ATOM     44  H   UNL A   1      44.443  27.106  28.948  1.00  0.00     0.167 HD
ATOM     45  C   UNL A   1      40.471  28.890  29.148  1.00  0.00     0.031 A 
ATOM     46  C   UNL A   1      47.229  27.153  29.132  1.00  0.00     0.031 A 
ATOM     47  C   UNL A   1      41.361  29.921  29.613  1.00  0.00     0.049 A 
ATOM     48  C   UNL A   1      46.766  28.516  29.562  1.00  0.00     0.074 A 
ATOM     49  C   UNL A   1      41.048  31.189  30.071  1.00  0.00     0.029 A 
ATOM     50  N   UNL A   1      42.739  29.800  29.681  1.00  0.00    -0.354 N 
ATOM     51  N   UNL A   1      45.546  28.987  29.636  1.00  0.00    -0.248 NA
ATOM     52  C   UNL A   1      47.808  29.470  29.968  1.00  0.00     0.031 C 
ATOM     53  C   UNL A   1      42.242  31.848  30.386  1.00  0.00     0.029 A 
ATOM     54  C   UNL A   1      43.293  30.975  30.162  1.00  0.00     0.049 A 
ATOM     55  H   UNL A   1      43.249  28.997  29.426  1.00  0.00     0.167 HD
ATOM     56  C   UNL A   1      45.670  30.283  30.121  1.00  0.00     0.074 A 
ATOM     57  C   UNL A   1      47.084  30.518  30.334  1.00  0.00     0.031 C 
ATOM     58  C   UNL A   1      44.700  31.194  30.369  1.00  0.00     0.031 A 
BRANCH  45  59
ATOM     59  C   UNL A   1      39.003  29.200  29.070  1.00  0.00    -0.014 A 
ATOM     60  C   UNL A   1      38.422  29.666  27.880  1.00  0.00     0.009 A 
ATOM     61  C   UNL A   1      38.186  28.995  30.193  1.00  0.00     0.009 A 
ATOM     62  C   UNL A   1      37.056  29.954  27.827  1.00  0.00     0.001 A 
ATOM     63  C   UNL A   1      36.816  29.261  30.129  1.00  0.00     0.001 A 
ATOM     64  C   UNL A   1      36.255  29.750  28.949  1.00  0.00     0.000 A 
ENDBRANCH  45  59
BRANCH  46  65
ATOM     65  C   UNL A   1      48.675  26.815  29.124  1.00  0.00    -0.014 A 
ATOM     66  C   UNL A   1      49.449  27.045  27.977  1.00  0.00     0.009 A 
ATOM     67  C   UNL A   1      49.286  26.264  30.260  1.00  0.00     0.009 A 
ATOM     68  C   UNL A   1      50.805  26.710  27.961  1.00  0.00     0.001 A 
ATOM     69  C   UNL A   1      50.646  25.949  30.249  1.00  0.00     0.001 A 
ATOM     70  C   UNL A   1      51.403  26.166  29.097  1.00  0.00     0.000 A 
ENDBRANCH  46  65
BRANCH  58  71
ATOM     71  C   UNL A   1      45.133  32.518  30.927  1.00  0.00    -0.014 A 
ATOM     72  C   UNL A   1      45.433  33.599  30.085  1.00  0.00     0.009 A 
ATOM     73  C   UNL A   1      45.213  32.692  32.317  1.00  0.00     0.009 A 
ATOM     74  C   UNL A   1      45.834  34.822  30.624  1.00  0.00     0.001 A 
ATOM     75  C   UNL A   1      45.592  33.923  32.854  1.00  0.00     0.001 A 
ATOM     76  C   UNL A   1      45.910  34.985  32.007  1.00  0.00     0.000 A 
ENDBRANCH  58  71
ENDBRANCH  32  33
ENDBRANCH  24  27
ENDBRANCH  22  23
ENDBRANCH  21  22
ENDBRANCH   1  21
TORSDOF 14
ENDMDL
