MODEL 1
REMARK VINA RESULT:     -11.2      0.000      0.000
REMARK SMILES CCNC(=O)c1ccc(N2C[C@@H](C)[C@H](C(=O)NCCCNC(=O)c3ccc(-c4c5nc(c(-c6ccccc6)c6ccc([nH]6)c(-c6ccccc6)c6nc(c(-c7ccccc7)c7ccc4[nH]7)C=C6)C=C5)cc3)C2)nn1
REMARK SMILES IDX 18 1 17 2 15 3 16 4 14 6 10 7 11 8 72 9 12 10 13 11 9 12
REMARK SMILES IDX 6 13 7 14 74 15 8 16 73 17 4 18 3 19 5 21 2 22 1 23 19 24
REMARK SMILES IDX 20 25 21 26 22 27 23 29 24 30 25 31 71 32 26 33 70 34 27 35
REMARK SMILES IDX 28 36 29 37 64 38 30 39 69 40 63 41 65 42 31 43 68 44 62 45
REMARK SMILES IDX 61 46 32 48 54 49 39 50 53 51 40 52 43 53 52 54 66 55 41 56
REMARK SMILES IDX 42 57 51 59 67 60 44 61 33 62 34 63 38 64 35 65 37 66 36 67
REMARK SMILES IDX 55 68 56 69 60 70 57 71 59 72 58 73 45 74 46 75 50 76 47 77
REMARK SMILES IDX 49 78 48 79
REMARK H PARENT 17 5 3 20 21 28 65 47 43 58
REMARK Flexibility Score: inf
ROOT
ATOM      1  C   UNL A   1      36.146  20.319  25.009  1.00  0.00     0.117 C 
ENDROOT
BRANCH   1   2
ATOM      2  N   UNL A   1      36.031  21.697  25.406  1.00  0.00    -0.356 N 
ATOM      3  C   UNL A   1      35.105  22.619  25.013  1.00  0.00     0.225 C 
ATOM      4  O   UNL A   1      35.115  23.701  25.607  1.00  0.00    -0.275 OA
ATOM      5  H   UNL A   1      36.710  22.016  26.044  1.00  0.00     0.163 HD
BRANCH   3   6
ATOM      6  C   UNL A   1      34.102  22.376  23.879  1.00  0.00     0.102 C 
ATOM      7  N   UNL A   1      32.343  23.906  23.421  1.00  0.00    -0.354 N 
ATOM      8  C   UNL A   1      31.657  22.688  23.831  1.00  0.00     0.122 C 
ATOM      9  C   UNL A   1      33.741  23.635  23.081  1.00  0.00     0.132 C 
ATOM     10  C   UNL A   1      32.773  21.754  24.345  1.00  0.00     0.019 C 
ATOM     11  C   UNL A   1      32.614  20.321  23.845  1.00  0.00     0.010 C 
BRANCH   7  12
ATOM     12  C   UNL A   1      31.969  25.218  23.626  1.00  0.00     0.151 A 
ATOM     13  C   UNL A   1      31.520  27.867  24.302  1.00  0.00     0.150 A 
ATOM     14  C   UNL A   1      30.630  26.912  24.749  1.00  0.00     0.040 A 
ATOM     15  N   UNL A   1      32.583  27.541  23.548  1.00  0.00    -0.143 NA
ATOM     16  C   UNL A   1      30.850  25.577  24.381  1.00  0.00     0.051 A 
ATOM     17  N   UNL A   1      32.805  26.207  23.228  1.00  0.00    -0.132 NA
BRANCH  13  18
ATOM     18  C   UNL A   1      31.273  29.308  24.526  1.00  0.00     0.271 C 
ATOM     19  N   UNL A   1      30.432  30.016  23.700  1.00  0.00    -0.351 N 
ATOM     20  H   UNL A   1      30.250  30.942  23.977  1.00  0.00     0.163 HD
ATOM     21  O   UNL A   1      31.857  29.882  25.441  1.00  0.00    -0.267 OA
BRANCH  19  22
ATOM     22  C   UNL A   1      29.774  29.592  22.482  1.00  0.00     0.113 C 
ATOM     23  C   UNL A   1      28.314  29.251  22.700  1.00  0.00     0.027 C 
ENDBRANCH  19  22
ENDBRANCH  13  18
ENDBRANCH   7  12
ENDBRANCH   3   6
ENDBRANCH   1   2
BRANCH   1  24
ATOM     24  C   UNL A   1      37.547  19.864  24.660  1.00  0.00     0.042 C 
BRANCH  24  25
ATOM     25  C   UNL A   1      38.585  20.369  25.638  1.00  0.00     0.118 C 
BRANCH  25  26
ATOM     26  N   UNL A   1      39.722  19.460  25.763  1.00  0.00    -0.352 N 
ATOM     27  C   UNL A   1      41.028  19.689  26.101  1.00  0.00     0.251 C 
ATOM     28  H   UNL A   1      39.512  18.517  25.572  1.00  0.00     0.163 HD
ATOM     29  O   UNL A   1      41.860  18.796  25.947  1.00  0.00    -0.269 OA
BRANCH  27  30
ATOM     30  C   UNL A   1      41.474  20.985  26.622  1.00  0.00     0.039 A 
ATOM     31  C   UNL A   1      41.955  21.942  25.722  1.00  0.00     0.014 A 
ATOM     32  C   UNL A   1      41.443  21.255  27.987  1.00  0.00     0.014 A 
ATOM     33  C   UNL A   1      42.326  23.196  26.191  1.00  0.00     0.010 A 
ATOM     34  C   UNL A   1      41.661  22.543  28.431  1.00  0.00     0.010 A 
ATOM     35  C   UNL A   1      42.127  23.518  27.541  1.00  0.00    -0.014 A 
BRANCH  35  36
ATOM     36  C   UNL A   1      42.431  24.862  28.067  1.00  0.00     0.031 A 
ATOM     37  C   UNL A   1      43.838  25.197  28.464  1.00  0.00     0.074 A 
ATOM     38  C   UNL A   1      41.422  25.731  28.254  1.00  0.00     0.049 A 
ATOM     39  N   UNL A   1      44.300  26.283  29.025  1.00  0.00    -0.248 NA
ATOM     40  C   UNL A   1      44.857  24.154  28.244  1.00  0.00     0.031 C 
ATOM     41  C   UNL A   1      40.013  25.482  27.934  1.00  0.00     0.029 A 
ATOM     42  N   UNL A   1      41.430  27.005  28.753  1.00  0.00    -0.354 N 
ATOM     43  C   UNL A   1      45.650  26.039  29.248  1.00  0.00     0.074 A 
ATOM     44  C   UNL A   1      45.913  24.679  28.840  1.00  0.00     0.031 C 
ATOM     45  C   UNL A   1      39.304  26.592  28.187  1.00  0.00     0.029 A 
ATOM     46  C   UNL A   1      40.196  27.604  28.739  1.00  0.00     0.049 A 
ATOM     47  H   UNL A   1      42.242  27.447  29.090  1.00  0.00     0.167 HD
ATOM     48  C   UNL A   1      46.591  26.887  29.722  1.00  0.00     0.031 A 
ATOM     49  C   UNL A   1      39.832  28.839  29.125  1.00  0.00     0.031 A 
ATOM     50  C   UNL A   1      46.307  28.240  30.115  1.00  0.00     0.049 A 
ATOM     51  C   UNL A   1      40.888  29.754  29.676  1.00  0.00     0.074 A 
ATOM     52  C   UNL A   1      47.181  29.211  30.566  1.00  0.00     0.029 A 
ATOM     53  N   UNL A   1      45.040  28.809  30.102  1.00  0.00    -0.354 N 
ATOM     54  N   UNL A   1      42.173  29.536  29.827  1.00  0.00    -0.248 NA
ATOM     55  C   UNL A   1      40.444  31.086  30.100  1.00  0.00     0.031 C 
ATOM     56  C   UNL A   1      46.432  30.349  30.884  1.00  0.00     0.029 A 
ATOM     57  C   UNL A   1      45.103  30.110  30.565  1.00  0.00     0.049 A 
ATOM     58  H   UNL A   1      44.219  28.353  29.807  1.00  0.00     0.167 HD
ATOM     59  C   UNL A   1      42.699  30.715  30.336  1.00  0.00     0.074 A 
ATOM     60  C   UNL A   1      41.592  31.646  30.453  1.00  0.00     0.031 C 
ATOM     61  C   UNL A   1      43.980  31.007  30.675  1.00  0.00     0.031 A 
BRANCH  48  62
ATOM     62  C   UNL A   1      47.992  26.350  29.849  1.00  0.00    -0.014 A 
ATOM     63  C   UNL A   1      48.888  26.371  28.767  1.00  0.00     0.009 A 
ATOM     64  C   UNL A   1      48.413  25.782  31.061  1.00  0.00     0.009 A 
ATOM     65  C   UNL A   1      50.148  25.778  28.873  1.00  0.00     0.001 A 
ATOM     66  C   UNL A   1      49.689  25.225  31.178  1.00  0.00     0.001 A 
ATOM     67  C   UNL A   1      50.548  25.207  30.080  1.00  0.00     0.000 A 
ENDBRANCH  48  62
BRANCH  49  68
ATOM     68  C   UNL A   1      38.426  29.287  28.955  1.00  0.00    -0.014 A 
ATOM     69  C   UNL A   1      37.992  29.780  27.715  1.00  0.00     0.009 A 
ATOM     70  C   UNL A   1      37.505  29.198  30.010  1.00  0.00     0.009 A 
ATOM     71  C   UNL A   1      36.670  30.195  27.541  1.00  0.00     0.001 A 
ATOM     72  C   UNL A   1      36.176  29.586  29.824  1.00  0.00     0.001 A 
ATOM     73  C   UNL A   1      35.762  30.092  28.593  1.00  0.00     0.000 A 
ENDBRANCH  49  68
BRANCH  61  74
ATOM     74  C   UNL A   1      44.249  32.400  31.168  1.00  0.00    -0.014 A 
ATOM     75  C   UNL A   1      44.079  32.744  32.519  1.00  0.00     0.009 A 
ATOM     76  C   UNL A   1      44.719  33.372  30.270  1.00  0.00     0.009 A 
ATOM     77  C   UNL A   1      44.338  34.046  32.950  1.00  0.00     0.001 A 
ATOM     78  C   UNL A   1      45.012  34.661  30.712  1.00  0.00     0.001 A 
ATOM     79  C   UNL A   1      44.810  35.000  32.049  1.00  0.00     0.000 A 
ENDBRANCH  61  74
ENDBRANCH  35  36
ENDBRANCH  27  30
ENDBRANCH  25  26
ENDBRANCH  24  25
ENDBRANCH   1  24
TORSDOF 13
ENDMDL
MODEL 2
REMARK VINA RESULT:     -11.2      3.032      8.993
REMARK SMILES CCNC(=O)c1ccc(N2C[C@@H](C)[C@H](C(=O)NCCCNC(=O)c3ccc(-c4c5nc(c(-c6ccccc6)c6ccc([nH]6)c(-c6ccccc6)c6nc(c(-c7ccccc7)c7ccc4[nH]7)C=C6)C=C5)cc3)C2)nn1
REMARK SMILES IDX 18 1 17 2 15 3 16 4 14 6 10 7 11 8 72 9 12 10 13 11 9 12
REMARK SMILES IDX 6 13 7 14 74 15 8 16 73 17 4 18 3 19 5 21 2 22 1 23 19 24
REMARK SMILES IDX 20 25 21 26 22 27 23 29 24 30 25 31 71 32 26 33 70 34 27 35
REMARK SMILES IDX 28 36 29 37 64 38 30 39 69 40 63 41 65 42 31 43 68 44 62 45
REMARK SMILES IDX 61 46 32 48 54 49 39 50 53 51 40 52 43 53 52 54 66 55 41 56
REMARK SMILES IDX 42 57 51 59 67 60 44 61 33 62 34 63 38 64 35 65 37 66 36 67
REMARK SMILES IDX 55 68 56 69 60 70 57 71 59 72 58 73 45 74 46 75 50 76 47 77
REMARK SMILES IDX 49 78 48 79
REMARK H PARENT 17 5 3 20 21 28 65 47 43 58
REMARK Flexibility Score: inf
ROOT
ATOM      1  C   UNL A   1      31.433  30.455  25.538  1.00  0.00     0.117 C 
ENDROOT
BRANCH   1   2
ATOM      2  N   UNL A   1      31.966  29.259  26.133  1.00  0.00    -0.356 N 
ATOM      3  C   UNL A   1      31.759  27.962  25.763  1.00  0.00     0.225 C 
ATOM      4  O   UNL A   1      32.446  27.108  26.330  1.00  0.00    -0.275 OA
ATOM      5  H   UNL A   1      32.557  29.394  26.909  1.00  0.00     0.163 HD
BRANCH   3   6
ATOM      6  C   UNL A   1      30.718  27.539  24.719  1.00  0.00     0.102 C 
ATOM      7  N   UNL A   1      30.676  25.340  23.820  1.00  0.00    -0.354 N 
ATOM      8  C   UNL A   1      30.981  26.187  22.675  1.00  0.00     0.122 C 
ATOM      9  C   UNL A   1      30.151  26.131  24.935  1.00  0.00     0.132 C 
ATOM     10  C   UNL A   1      31.232  27.589  23.269  1.00  0.00     0.019 C 
ATOM     11  C   UNL A   1      30.555  28.696  22.468  1.00  0.00     0.010 C 
BRANCH   7  12
ATOM     12  C   UNL A   1      31.104  24.056  24.083  1.00  0.00     0.151 A 
ATOM     13  C   UNL A   1      32.255  21.647  24.824  1.00  0.00     0.150 A 
ATOM     14  C   UNL A   1      32.402  22.075  23.521  1.00  0.00     0.040 A 
ATOM     15  N   UNL A   1      31.566  22.365  25.728  1.00  0.00    -0.143 NA
ATOM     16  C   UNL A   1      31.794  23.282  23.147  1.00  0.00     0.051 A 
ATOM     17  N   UNL A   1      31.006  23.578  25.346  1.00  0.00    -0.132 NA
BRANCH  13  18
ATOM     18  C   UNL A   1      32.741  20.318  25.253  1.00  0.00     0.271 C 
ATOM     19  N   UNL A   1      33.982  20.172  25.826  1.00  0.00    -0.351 N 
ATOM     20  H   UNL A   1      34.186  19.272  26.167  1.00  0.00     0.163 HD
ATOM     21  O   UNL A   1      32.037  19.331  25.060  1.00  0.00    -0.267 OA
BRANCH  19  22
ATOM     22  C   UNL A   1      35.032  21.154  26.000  1.00  0.00     0.113 C 
ATOM     23  C   UNL A   1      35.960  21.227  24.803  1.00  0.00     0.027 C 
ENDBRANCH  19  22
ENDBRANCH  13  18
ENDBRANCH   7  12
ENDBRANCH   3   6
ENDBRANCH   1   2
BRANCH   1  24
ATOM     24  C   UNL A   1      31.254  31.621  26.487  1.00  0.00     0.042 C 
BRANCH  24  25
ATOM     25  C   UNL A   1      32.570  32.189  26.970  1.00  0.00     0.118 C 
BRANCH  25  26
ATOM     26  N   UNL A   1      32.443  33.564  27.449  1.00  0.00    -0.352 N 
ATOM     27  C   UNL A   1      33.164  34.268  28.373  1.00  0.00     0.251 C 
ATOM     28  H   UNL A   1      31.710  34.073  27.032  1.00  0.00     0.163 HD
ATOM     29  O   UNL A   1      32.749  35.358  28.764  1.00  0.00    -0.269 OA
BRANCH  27  30
ATOM     30  C   UNL A   1      34.414  33.748  28.936  1.00  0.00     0.039 A 
ATOM     31  C   UNL A   1      34.353  32.936  30.074  1.00  0.00     0.014 A 
ATOM     32  C   UNL A   1      35.642  34.071  28.366  1.00  0.00     0.014 A 
ATOM     33  C   UNL A   1      35.522  32.386  30.585  1.00  0.00     0.010 A 
ATOM     34  C   UNL A   1      36.779  33.403  28.775  1.00  0.00     0.010 A 
ATOM     35  C   UNL A   1      36.732  32.574  29.903  1.00  0.00    -0.014 A 
BRANCH  35  36
ATOM     36  C   UNL A   1      37.983  31.943  30.363  1.00  0.00     0.031 A 
ATOM     37  C   UNL A   1      38.791  32.608  31.439  1.00  0.00     0.074 A 
ATOM     38  C   UNL A   1      38.414  30.827  29.749  1.00  0.00     0.049 A 
ATOM     39  N   UNL A   1      39.955  32.268  31.924  1.00  0.00    -0.248 NA
ATOM     40  C   UNL A   1      38.237  33.846  32.016  1.00  0.00     0.031 C 
ATOM     41  C   UNL A   1      37.717  30.128  28.666  1.00  0.00     0.029 A 
ATOM     42  N   UNL A   1      39.540  30.079  29.957  1.00  0.00    -0.354 N 
ATOM     43  C   UNL A   1      40.281  33.263  32.837  1.00  0.00     0.074 A 
ATOM     44  C   UNL A   1      39.236  34.258  32.778  1.00  0.00     0.031 C 
ATOM     45  C   UNL A   1      38.401  29.019  28.348  1.00  0.00     0.029 A 
ATOM     46  C   UNL A   1      39.608  28.963  29.162  1.00  0.00     0.049 A 
ATOM     47  H   UNL A   1      40.234  30.319  30.613  1.00  0.00     0.167 HD
ATOM     48  C   UNL A   1      41.344  33.325  33.672  1.00  0.00     0.031 A 
ATOM     49  C   UNL A   1      40.544  27.999  29.106  1.00  0.00     0.031 A 
ATOM     50  C   UNL A   1      42.369  32.320  33.718  1.00  0.00     0.049 A 
ATOM     51  C   UNL A   1      41.730  28.102  30.021  1.00  0.00     0.074 A 
ATOM     52  C   UNL A   1      43.470  32.244  34.551  1.00  0.00     0.029 A 
ATOM     53  N   UNL A   1      42.414  31.209  32.886  1.00  0.00    -0.354 N 
ATOM     54  N   UNL A   1      42.000  29.016  30.924  1.00  0.00    -0.248 NA
ATOM     55  C   UNL A   1      42.733  27.039  29.916  1.00  0.00     0.031 C 
ATOM     56  C   UNL A   1      44.213  31.118  34.180  1.00  0.00     0.029 A 
ATOM     57  C   UNL A   1      43.539  30.455  33.164  1.00  0.00     0.049 A 
ATOM     58  H   UNL A   1      41.743  30.990  32.199  1.00  0.00     0.167 HD
ATOM     59  C   UNL A   1      43.190  28.621  31.517  1.00  0.00     0.074 A 
ATOM     60  C   UNL A   1      43.579  27.378  30.878  1.00  0.00     0.031 C 
ATOM     61  C   UNL A   1      43.900  29.226  32.503  1.00  0.00     0.031 A 
BRANCH  48  62
ATOM     62  C   UNL A   1      41.436  34.529  34.571  1.00  0.00    -0.014 A 
ATOM     63  C   UNL A   1      42.118  35.692  34.173  1.00  0.00     0.009 A 
ATOM     64  C   UNL A   1      40.861  34.489  35.850  1.00  0.00     0.009 A 
ATOM     65  C   UNL A   1      42.279  36.761  35.058  1.00  0.00     0.001 A 
ATOM     66  C   UNL A   1      40.989  35.576  36.719  1.00  0.00     0.001 A 
ATOM     67  C   UNL A   1      41.713  36.702  36.330  1.00  0.00     0.000 A 
ENDBRANCH  48  62
BRANCH  49  68
ATOM     68  C   UNL A   1      40.365  26.842  28.192  1.00  0.00    -0.014 A 
ATOM     69  C   UNL A   1      39.612  25.732  28.604  1.00  0.00     0.009 A 
ATOM     70  C   UNL A   1      40.913  26.847  26.900  1.00  0.00     0.009 A 
ATOM     71  C   UNL A   1      39.429  24.642  27.750  1.00  0.00     0.001 A 
ATOM     72  C   UNL A   1      40.704  25.769  26.038  1.00  0.00     0.001 A 
ATOM     73  C   UNL A   1      39.970  24.664  26.466  1.00  0.00     0.000 A 
ENDBRANCH  49  68
BRANCH  61  74
ATOM     74  C   UNL A   1      45.146  28.528  32.967  1.00  0.00    -0.014 A 
ATOM     75  C   UNL A   1      45.107  27.563  33.986  1.00  0.00     0.009 A 
ATOM     76  C   UNL A   1      46.371  28.816  32.346  1.00  0.00     0.009 A 
ATOM     77  C   UNL A   1      46.280  26.928  34.398  1.00  0.00     0.001 A 
ATOM     78  C   UNL A   1      47.534  28.153  32.735  1.00  0.00     0.001 A 
ATOM     79  C   UNL A   1      47.490  27.218  33.768  1.00  0.00     0.000 A 
ENDBRANCH  61  74
ENDBRANCH  35  36
ENDBRANCH  27  30
ENDBRANCH  25  26
ENDBRANCH  24  25
ENDBRANCH   1  24
TORSDOF 13
ENDMDL
MODEL 3
REMARK VINA RESULT:     -11.2      2.363      7.187
REMARK SMILES CCNC(=O)c1ccc(N2C[C@@H](C)[C@H](C(=O)NCCCNC(=O)c3ccc(-c4c5nc(c(-c6ccccc6)c6ccc([nH]6)c(-c6ccccc6)c6nc(c(-c7ccccc7)c7ccc4[nH]7)C=C6)C=C5)cc3)C2)nn1
REMARK SMILES IDX 18 1 17 2 15 3 16 4 14 6 10 7 11 8 72 9 12 10 13 11 9 12
REMARK SMILES IDX 6 13 7 14 74 15 8 16 73 17 4 18 3 19 5 21 2 22 1 23 19 24
REMARK SMILES IDX 20 25 21 26 22 27 23 29 24 30 25 31 71 32 26 33 70 34 27 35
REMARK SMILES IDX 28 36 29 37 64 38 30 39 69 40 63 41 65 42 31 43 68 44 62 45
REMARK SMILES IDX 61 46 32 48 54 49 39 50 53 51 40 52 43 53 52 54 66 55 41 56
REMARK SMILES IDX 42 57 51 59 67 60 44 61 33 62 34 63 38 64 35 65 37 66 36 67
REMARK SMILES IDX 55 68 56 69 60 70 57 71 59 72 58 73 45 74 46 75 50 76 47 77
REMARK SMILES IDX 49 78 48 79
REMARK H PARENT 17 5 3 20 21 28 65 47 43 58
REMARK Flexibility Score: inf
ROOT
ATOM      1  C   UNL A   1      33.035  27.789  24.866  1.00  0.00     0.117 C 
ENDROOT
BRANCH   1   2
ATOM      2  N   UNL A   1      33.744  26.750  24.167  1.00  0.00    -0.356 N 
ATOM      3  C   UNL A   1      33.282  25.532  23.761  1.00  0.00     0.225 C 
ATOM      4  O   UNL A   1      34.032  24.866  23.042  1.00  0.00    -0.275 OA
ATOM      5  H   UNL A   1      34.686  26.943  23.956  1.00  0.00     0.163 HD
BRANCH   3   6
ATOM      6  C   UNL A   1      31.916  24.968  24.175  1.00  0.00     0.102 C 
ATOM      7  N   UNL A   1      29.920  26.232  23.931  1.00  0.00    -0.354 N 
ATOM      8  C   UNL A   1      30.051  26.048  25.370  1.00  0.00     0.122 C 
ATOM      9  C   UNL A   1      30.781  25.300  23.200  1.00  0.00     0.132 C 
ATOM     10  C   UNL A   1      31.449  25.425  25.568  1.00  0.00     0.019 C 
ATOM     11  C   UNL A   1      31.441  24.272  26.568  1.00  0.00     0.010 C 
BRANCH   7  12
ATOM     12  C   UNL A   1      29.396  27.306  23.242  1.00  0.00     0.151 A 
ATOM     13  C   UNL A   1      28.570  29.692  22.101  1.00  0.00     0.150 A 
ATOM     14  C   UNL A   1      27.683  29.001  22.902  1.00  0.00     0.040 A 
ATOM     15  N   UNL A   1      29.809  29.230  21.861  1.00  0.00    -0.143 NA
ATOM     16  C   UNL A   1      28.100  27.782  23.454  1.00  0.00     0.051 A 
ATOM     17  N   UNL A   1      30.215  28.040  22.452  1.00  0.00    -0.132 NA
BRANCH  13  18
ATOM     18  C   UNL A   1      28.153  30.905  21.367  1.00  0.00     0.271 C 
ATOM     19  N   UNL A   1      28.272  32.150  21.938  1.00  0.00    -0.351 N 
ATOM     20  H   UNL A   1      28.060  32.908  21.346  1.00  0.00     0.163 HD
ATOM     21  O   UNL A   1      27.662  30.791  20.247  1.00  0.00    -0.267 OA
BRANCH  19  22
ATOM     22  C   UNL A   1      28.664  32.506  23.285  1.00  0.00     0.113 C 
ATOM     23  C   UNL A   1      29.423  33.816  23.341  1.00  0.00     0.027 C 
ENDBRANCH  19  22
ENDBRANCH  13  18
ENDBRANCH   7  12
ENDBRANCH   3   6
ENDBRANCH   1   2
BRANCH   1  24
ATOM     24  C   UNL A   1      33.909  28.775  25.611  1.00  0.00     0.042 C 
BRANCH  24  25
ATOM     25  C   UNL A   1      33.626  28.801  27.097  1.00  0.00     0.118 C 
BRANCH  25  26
ATOM     26  N   UNL A   1      33.695  30.149  27.655  1.00  0.00    -0.352 N 
ATOM     27  C   UNL A   1      34.673  30.780  28.373  1.00  0.00     0.251 C 
ATOM     28  H   UNL A   1      32.897  30.701  27.485  1.00  0.00     0.163 HD
ATOM     29  O   UNL A   1      34.430  31.857  28.913  1.00  0.00    -0.269 OA
BRANCH  27  30
ATOM     30  C   UNL A   1      36.008  30.194  28.538  1.00  0.00     0.039 A 
ATOM     31  C   UNL A   1      36.915  30.280  27.477  1.00  0.00     0.014 A 
ATOM     32  C   UNL A   1      36.362  29.546  29.718  1.00  0.00     0.014 A 
ATOM     33  C   UNL A   1      38.203  29.783  27.637  1.00  0.00     0.010 A 
ATOM     34  C   UNL A   1      37.680  29.196  29.932  1.00  0.00     0.010 A 
ATOM     35  C   UNL A   1      38.605  29.289  28.886  1.00  0.00    -0.014 A 
BRANCH  35  36
ATOM     36  C   UNL A   1      39.985  28.826  29.125  1.00  0.00     0.031 A 
ATOM     37  C   UNL A   1      40.968  29.750  29.782  1.00  0.00     0.074 A 
ATOM     38  C   UNL A   1      40.352  27.614  28.674  1.00  0.00     0.049 A 
ATOM     39  N   UNL A   1      42.243  29.573  30.004  1.00  0.00    -0.248 NA
ATOM     40  C   UNL A   1      40.461  31.068  30.205  1.00  0.00     0.031 C 
ATOM     41  C   UNL A   1      39.477  26.659  27.988  1.00  0.00     0.029 A 
ATOM     42  N   UNL A   1      41.561  26.975  28.733  1.00  0.00    -0.354 N 
ATOM     43  C   UNL A   1      42.690  30.763  30.564  1.00  0.00     0.074 A 
ATOM     44  C   UNL A   1      41.574  31.680  30.570  1.00  0.00     0.031 C 
ATOM     45  C   UNL A   1      40.163  25.532  27.747  1.00  0.00     0.029 A 
ATOM     46  C   UNL A   1      41.533  25.708  28.208  1.00  0.00     0.049 A 
ATOM     47  H   UNL A   1      42.370  27.384  29.116  1.00  0.00     0.167 HD
ATOM     48  C   UNL A   1      43.916  31.054  31.057  1.00  0.00     0.031 A 
ATOM     49  C   UNL A   1      42.512  24.791  28.115  1.00  0.00     0.031 A 
ATOM     50  C   UNL A   1      45.011  30.124  31.046  1.00  0.00     0.049 A 
ATOM     51  C   UNL A   1      43.873  25.145  28.642  1.00  0.00     0.074 A 
ATOM     52  C   UNL A   1      46.285  30.281  31.556  1.00  0.00     0.029 A 
ATOM     53  N   UNL A   1      44.951  28.852  30.490  1.00  0.00    -0.354 N 
ATOM     54  N   UNL A   1      44.272  26.252  29.225  1.00  0.00    -0.248 NA
ATOM     55  C   UNL A   1      44.915  24.122  28.507  1.00  0.00     0.031 C 
ATOM     56  C   UNL A   1      47.016  29.127  31.253  1.00  0.00     0.029 A 
ATOM     57  C   UNL A   1      46.176  28.224  30.618  1.00  0.00     0.049 A 
ATOM     58  H   UNL A   1      44.155  28.457  30.067  1.00  0.00     0.167 HD
ATOM     59  C   UNL A   1      45.604  26.047  29.554  1.00  0.00     0.074 A 
ATOM     60  C   UNL A   1      45.937  24.704  29.117  1.00  0.00     0.031 C 
ATOM     61  C   UNL A   1      46.476  26.888  30.164  1.00  0.00     0.031 A 
BRANCH  48  62
ATOM     62  C   UNL A   1      44.115  32.436  31.620  1.00  0.00    -0.014 A 
ATOM     63  C   UNL A   1      44.571  33.497  30.818  1.00  0.00     0.009 A 
ATOM     64  C   UNL A   1      43.875  32.675  32.981  1.00  0.00     0.009 A 
ATOM     65  C   UNL A   1      44.846  34.747  31.380  1.00  0.00     0.001 A 
ATOM     66  C   UNL A   1      44.112  33.937  33.532  1.00  0.00     0.001 A 
ATOM     67  C   UNL A   1      44.614  34.965  32.736  1.00  0.00     0.000 A 
ENDBRANCH  48  62
BRANCH  49  68
ATOM     68  C   UNL A   1      42.222  23.448  27.551  1.00  0.00    -0.014 A 
ATOM     69  C   UNL A   1      41.649  22.456  28.361  1.00  0.00     0.009 A 
ATOM     70  C   UNL A   1      42.482  23.156  26.203  1.00  0.00     0.009 A 
ATOM     71  C   UNL A   1      41.363  21.192  27.839  1.00  0.00     0.001 A 
ATOM     72  C   UNL A   1      42.168  21.902  25.676  1.00  0.00     0.001 A 
ATOM     73  C   UNL A   1      41.617  20.918  26.496  1.00  0.00     0.000 A 
ENDBRANCH  49  68
BRANCH  61  74
ATOM     74  C   UNL A   1      47.858  26.361  30.423  1.00  0.00    -0.014 A 
ATOM     75  C   UNL A   1      48.214  25.822  31.670  1.00  0.00     0.009 A 
ATOM     76  C   UNL A   1      48.806  26.371  29.389  1.00  0.00     0.009 A 
ATOM     77  C   UNL A   1      49.505  25.337  31.884  1.00  0.00     0.001 A 
ATOM     78  C   UNL A   1      50.083  25.852  29.595  1.00  0.00     0.001 A 
ATOM     79  C   UNL A   1      50.436  25.347  30.845  1.00  0.00     0.000 A 
ENDBRANCH  61  74
ENDBRANCH  35  36
ENDBRANCH  27  30
ENDBRANCH  25  26
ENDBRANCH  24  25
ENDBRANCH   1  24
TORSDOF 13
ENDMDL
