MODEL 1
REMARK VINA RESULT:     -12.3      0.000      0.000
REMARK SMILES O=C(NCCCNC(=O)[C@H]1Cc2c([nH]c3ccccc23)[C@@H](c2ccc(OC(F)(F)F)cc2)[NH2+]1)c1ccc(-c2c3nc(c(-c4ccccc4)c4ccc([nH]4)c(-c4ccccc4)c4nc(c(-c5ccccc5)c5ccc2[nH]5)C=C4)C=C3)cc1
REMARK SMILES IDX 5 1 4 2 3 3 1 4 2 5 34 7 35 8 81 9 36 10 80 11 37 12 38 13
REMARK SMILES IDX 39 14 74 15 40 16 79 17 73 18 75 19 41 20 78 21 72 22 71 23
REMARK SMILES IDX 42 25 64 26 49 27 63 28 50 29 53 30 62 31 76 32 51 33 52 34
REMARK SMILES IDX 61 36 77 37 54 38 43 39 44 40 48 41 45 42 47 43 46 44 65 45
REMARK SMILES IDX 66 46 70 47 67 48 69 49 68 50 55 51 56 52 60 53 57 54 59 55
REMARK SMILES IDX 58 56 6 57 7 58 8 59 9 61 10 62 11 63 33 64 12 65 21 66
REMARK SMILES IDX 13 69 20 70 14 71 15 72 19 73 16 75 18 76 17 77 22 78 23 79
REMARK SMILES IDX 32 80 24 81 31 82 25 83 26 84 27 85 28 86 29 87 30 88
REMARK H PARENT 3 6 75 24 53 35 7 60 33 67 33 68 14 74
REMARK Flexibility Score: inf
ROOT
ATOM      1  C   UNL A   1      35.358  23.378  26.232  1.00  0.00     0.042 C 
ENDROOT
BRANCH   1   2
ATOM      2  C   UNL A   1      36.725  23.688  25.653  1.00  0.00     0.118 C 
BRANCH   2   3
ATOM      3  N   UNL A   1      37.710  22.689  26.065  1.00  0.00    -0.352 N 
ATOM      4  O   UNL A   1      39.776  21.913  26.520  1.00  0.00    -0.269 OA
ATOM      5  C   UNL A   1      38.999  22.859  26.500  1.00  0.00     0.251 C 
ATOM      6  H   UNL A   1      37.401  21.755  26.025  1.00  0.00     0.163 HD
BRANCH   5   7
ATOM      7  C   UNL A   1      39.428  24.191  26.958  1.00  0.00     0.039 A 
ATOM      8  C   UNL A   1      39.276  24.535  28.302  1.00  0.00     0.014 A 
ATOM      9  C   UNL A   1      40.021  25.081  26.061  1.00  0.00     0.014 A 
ATOM     10  C   UNL A   1      39.571  25.818  28.722  1.00  0.00     0.010 A 
ATOM     11  C   UNL A   1      40.447  26.330  26.516  1.00  0.00     0.010 A 
ATOM     12  C   UNL A   1      40.219  26.702  27.851  1.00  0.00    -0.014 A 
BRANCH  12  13
ATOM     13  C   UNL A   1      40.793  27.937  28.423  1.00  0.00     0.031 A 
ATOM     14  C   UNL A   1      42.272  28.146  28.513  1.00  0.00     0.074 A 
ATOM     15  C   UNL A   1      39.927  28.885  28.836  1.00  0.00     0.049 A 
ATOM     16  N   UNL A   1      42.920  29.182  28.980  1.00  0.00    -0.248 NA
ATOM     17  C   UNL A   1      43.140  27.062  28.025  1.00  0.00     0.031 C 
ATOM     18  C   UNL A   1      38.463  28.769  28.793  1.00  0.00     0.029 A 
ATOM     19  N   UNL A   1      40.140  30.137  29.348  1.00  0.00    -0.354 N 
ATOM     20  C   UNL A   1      44.267  28.867  28.870  1.00  0.00     0.074 A 
ATOM     21  C   UNL A   1      44.348  27.540  28.300  1.00  0.00     0.031 C 
ATOM     22  C   UNL A   1      37.914  29.919  29.206  1.00  0.00     0.029 A 
ATOM     23  C   UNL A   1      38.979  30.814  29.631  1.00  0.00     0.049 A 
ATOM     24  H   UNL A   1      41.037  30.513  29.500  1.00  0.00     0.167 HD
ATOM     25  C   UNL A   1      45.331  29.626  29.222  1.00  0.00     0.031 A 
ATOM     26  C   UNL A   1      38.787  32.012  30.209  1.00  0.00     0.031 A 
ATOM     27  C   UNL A   1      45.227  30.947  29.787  1.00  0.00     0.049 A 
ATOM     28  C   UNL A   1      39.991  32.798  30.628  1.00  0.00     0.074 A 
ATOM     29  C   UNL A   1      46.247  31.815  30.132  1.00  0.00     0.029 A 
ATOM     30  N   UNL A   1      44.035  31.583  30.100  1.00  0.00    -0.354 N 
ATOM     31  N   UNL A   1      41.260  32.512  30.464  1.00  0.00    -0.248 NA
ATOM     32  C   UNL A   1      39.739  34.068  31.319  1.00  0.00     0.031 C 
ATOM     33  C   UNL A   1      45.676  32.947  30.719  1.00  0.00     0.029 A 
ATOM     34  C   UNL A   1      44.297  32.815  30.678  1.00  0.00     0.049 A 
ATOM     35  H   UNL A   1      43.137  31.215  29.938  1.00  0.00     0.167 HD
ATOM     36  C   UNL A   1      41.959  33.571  31.022  1.00  0.00     0.074 A 
ATOM     37  C   UNL A   1      40.972  34.522  31.494  1.00  0.00     0.031 C 
ATOM     38  C   UNL A   1      43.297  33.739  31.145  1.00  0.00     0.031 A 
BRANCH  25  39
ATOM     39  C   UNL A   1      46.705  29.045  29.048  1.00  0.00    -0.014 A 
ATOM     40  C   UNL A   1      47.307  28.269  30.049  1.00  0.00     0.009 A 
ATOM     41  C   UNL A   1      47.366  29.200  27.818  1.00  0.00     0.009 A 
ATOM     42  C   UNL A   1      48.549  27.667  29.824  1.00  0.00     0.001 A 
ATOM     43  C   UNL A   1      48.595  28.578  27.588  1.00  0.00     0.001 A 
ATOM     44  C   UNL A   1      49.185  27.814  28.592  1.00  0.00     0.000 A 
ENDBRANCH  25  39
BRANCH  26  45
ATOM     45  C   UNL A   1      37.411  32.500  30.486  1.00  0.00    -0.014 A 
ATOM     46  C   UNL A   1      36.703  32.060  31.614  1.00  0.00     0.009 A 
ATOM     47  C   UNL A   1      36.787  33.395  29.602  1.00  0.00     0.009 A 
ATOM     48  C   UNL A   1      35.387  32.476  31.827  1.00  0.00     0.001 A 
ATOM     49  C   UNL A   1      35.487  33.842  29.839  1.00  0.00     0.001 A 
ATOM     50  C   UNL A   1      34.782  33.369  30.942  1.00  0.00     0.000 A 
ENDBRANCH  26  45
BRANCH  38  51
ATOM     51  C   UNL A   1      43.760  35.008  31.800  1.00  0.00    -0.014 A 
ATOM     52  C   UNL A   1      43.963  36.178  31.050  1.00  0.00     0.009 A 
ATOM     53  C   UNL A   1      43.974  35.038  33.186  1.00  0.00     0.009 A 
ATOM     54  C   UNL A   1      44.409  37.344  31.674  1.00  0.00     0.001 A 
ATOM     55  C   UNL A   1      44.386  36.215  33.811  1.00  0.00     0.001 A 
ATOM     56  C   UNL A   1      44.614  37.363  33.053  1.00  0.00     0.000 A 
ENDBRANCH  38  51
ENDBRANCH  12  13
ENDBRANCH   5   7
ENDBRANCH   2   3
ENDBRANCH   1   2
BRANCH   1  57
ATOM     57  C   UNL A   1      34.509  22.632  25.219  1.00  0.00     0.118 C 
BRANCH  57  58
ATOM     58  N   UNL A   1      34.376  23.384  23.981  1.00  0.00    -0.351 N 
ATOM     59  C   UNL A   1      33.797  24.559  23.625  1.00  0.00     0.278 C 
ATOM     60  H   UNL A   1      34.809  22.933  23.221  1.00  0.00     0.163 HD
ATOM     61  O   UNL A   1      33.841  24.824  22.412  1.00  0.00    -0.268 OA
BRANCH  59  62
ATOM     62  C   UNL A   1      33.141  25.577  24.587  1.00  0.00     0.277 C 
ATOM     63  C   UNL A   1      34.057  26.692  25.068  1.00  0.00     0.114 C 
ATOM     64  N   UNL A   1      31.959  26.142  23.881  1.00  0.00    -0.325 N 
ATOM     65  C   UNL A   1      33.318  27.723  25.806  1.00  0.00    -0.006 A 
ATOM     66  C   UNL A   1      31.117  27.076  24.664  1.00  0.00     0.262 C 
ATOM     67  H   UNL A   1      31.370  25.363  23.588  1.00  0.00     0.347 HD
ATOM     68  H   UNL A   1      32.338  26.693  23.111  1.00  0.00     0.347 HD
ATOM     69  C   UNL A   1      31.969  27.892  25.607  1.00  0.00     0.083 A 
ATOM     70  C   UNL A   1      33.816  28.792  26.574  1.00  0.00     0.003 A 
ATOM     71  N   UNL A   1      31.590  28.964  26.380  1.00  0.00    -0.353 N 
ATOM     72  C   UNL A   1      32.717  29.587  26.896  1.00  0.00     0.046 A 
ATOM     73  C   UNL A   1      35.111  29.196  26.951  1.00  0.00     0.010 A 
ATOM     74  H   UNL A   1      30.661  29.247  26.542  1.00  0.00     0.166 HD
ATOM     75  C   UNL A   1      32.865  30.795  27.587  1.00  0.00     0.026 A 
ATOM     76  C   UNL A   1      35.274  30.403  27.627  1.00  0.00     0.001 A 
ATOM     77  C   UNL A   1      34.166  31.190  27.936  1.00  0.00     0.002 A 
BRANCH  66  78
ATOM     78  C   UNL A   1      30.316  27.901  23.651  1.00  0.00     0.016 A 
ATOM     79  C   UNL A   1      28.924  27.802  23.513  1.00  0.00     0.014 A 
ATOM     80  C   UNL A   1      30.975  28.882  22.886  1.00  0.00     0.014 A 
ATOM     81  C   UNL A   1      28.232  28.600  22.599  1.00  0.00     0.047 A 
ATOM     82  C   UNL A   1      30.273  29.711  21.998  1.00  0.00     0.047 A 
ATOM     83  C   UNL A   1      28.898  29.560  21.837  1.00  0.00     0.129 A 
BRANCH  83  84
ATOM     84  O   UNL A   1      28.089  30.266  20.996  1.00  0.00    -0.406 OA
BRANCH  84  85
ATOM     85  C   UNL A   1      27.964  31.659  21.213  1.00  0.00     0.573 C 
ATOM     86  F   UNL A   1      27.279  31.916  22.348  1.00  0.00    -0.132 F 
ATOM     87  F   UNL A   1      29.173  32.259  21.269  1.00  0.00    -0.132 F 
ATOM     88  F   UNL A   1      27.280  32.197  20.179  1.00  0.00    -0.132 F 
ENDBRANCH  84  85
ENDBRANCH  83  84
ENDBRANCH  66  78
ENDBRANCH  59  62
ENDBRANCH  57  58
ENDBRANCH   1  57
TORSDOF 13
ENDMDL
MODEL 2
REMARK VINA RESULT:     -12.3      2.866      4.559
REMARK SMILES O=C(NCCCNC(=O)[C@H]1Cc2c([nH]c3ccccc23)[C@@H](c2ccc(OC(F)(F)F)cc2)[NH2+]1)c1ccc(-c2c3nc(c(-c4ccccc4)c4ccc([nH]4)c(-c4ccccc4)c4nc(c(-c5ccccc5)c5ccc2[nH]5)C=C4)C=C3)cc1
REMARK SMILES IDX 5 1 4 2 3 3 1 4 2 5 34 7 35 8 81 9 36 10 80 11 37 12 38 13
REMARK SMILES IDX 39 14 74 15 40 16 79 17 73 18 75 19 41 20 78 21 72 22 71 23
REMARK SMILES IDX 42 25 64 26 49 27 63 28 50 29 53 30 62 31 76 32 51 33 52 34
REMARK SMILES IDX 61 36 77 37 54 38 43 39 44 40 48 41 45 42 47 43 46 44 65 45
REMARK SMILES IDX 66 46 70 47 67 48 69 49 68 50 55 51 56 52 60 53 57 54 59 55
REMARK SMILES IDX 58 56 6 57 7 58 8 59 9 61 10 62 11 63 33 64 12 65 21 66
REMARK SMILES IDX 13 69 20 70 14 71 15 72 19 73 16 75 18 76 17 77 22 78 23 79
REMARK SMILES IDX 32 80 24 81 31 82 25 83 26 84 27 85 28 86 29 87 30 88
REMARK H PARENT 3 6 75 24 53 35 7 60 33 67 33 68 14 74
REMARK Flexibility Score: inf
ROOT
ATOM      1  C   UNL A   1      35.441  22.221  25.980  1.00  0.00     0.042 C 
ENDROOT
BRANCH   1   2
ATOM      2  C   UNL A   1      36.679  22.159  25.107  1.00  0.00     0.118 C 
BRANCH   2   3
ATOM      3  N   UNL A   1      37.575  21.088  25.540  1.00  0.00    -0.352 N 
ATOM      4  O   UNL A   1      39.569  20.147  26.009  1.00  0.00    -0.269 OA
ATOM      5  C   UNL A   1      38.876  21.156  25.969  1.00  0.00     0.251 C 
ATOM      6  H   UNL A   1      37.186  20.184  25.522  1.00  0.00     0.163 HD
BRANCH   5   7
ATOM      7  C   UNL A   1      39.421  22.456  26.395  1.00  0.00     0.039 A 
ATOM      8  C   UNL A   1      40.628  22.496  27.095  1.00  0.00     0.014 A 
ATOM      9  C   UNL A   1      38.754  23.636  26.062  1.00  0.00     0.014 A 
ATOM     10  C   UNL A   1      41.094  23.696  27.596  1.00  0.00     0.010 A 
ATOM     11  C   UNL A   1      39.298  24.862  26.450  1.00  0.00     0.010 A 
ATOM     12  C   UNL A   1      40.470  24.893  27.222  1.00  0.00    -0.014 A 
BRANCH  12  13
ATOM     13  C   UNL A   1      41.173  26.159  27.518  1.00  0.00     0.031 A 
ATOM     14  C   UNL A   1      42.512  26.468  26.926  1.00  0.00     0.074 A 
ATOM     15  C   UNL A   1      40.544  27.040  28.322  1.00  0.00     0.049 A 
ATOM     16  N   UNL A   1      43.244  27.541  27.087  1.00  0.00    -0.248 NA
ATOM     17  C   UNL A   1      43.116  25.452  26.049  1.00  0.00     0.031 C 
ATOM     18  C   UNL A   1      39.235  26.823  28.952  1.00  0.00     0.029 A 
ATOM     19  N   UNL A   1      40.899  28.297  28.732  1.00  0.00    -0.354 N 
ATOM     20  C   UNL A   1      44.403  27.321  26.356  1.00  0.00     0.074 A 
ATOM     21  C   UNL A   1      44.286  26.009  25.757  1.00  0.00     0.031 C 
ATOM     22  C   UNL A   1      38.875  27.927  29.619  1.00  0.00     0.029 A 
ATOM     23  C   UNL A   1      39.964  28.889  29.545  1.00  0.00     0.049 A 
ATOM     24  H   UNL A   1      41.742  28.732  28.470  1.00  0.00     0.167 HD
ATOM     25  C   UNL A   1      45.465  28.147  26.211  1.00  0.00     0.031 A 
ATOM     26  C   UNL A   1      39.995  30.064  30.196  1.00  0.00     0.031 A 
ATOM     27  C   UNL A   1      45.560  29.451  26.816  1.00  0.00     0.049 A 
ATOM     28  C   UNL A   1      41.210  30.927  30.047  1.00  0.00     0.074 A 
ATOM     29  C   UNL A   1      46.574  30.384  26.689  1.00  0.00     0.029 A 
ATOM     30  N   UNL A   1      44.614  30.000  27.668  1.00  0.00    -0.354 N 
ATOM     31  N   UNL A   1      42.273  30.730  29.306  1.00  0.00    -0.248 NA
ATOM     32  C   UNL A   1      41.235  32.168  30.830  1.00  0.00     0.031 C 
ATOM     33  C   UNL A   1      46.276  31.467  27.521  1.00  0.00     0.029 A 
ATOM     34  C   UNL A   1      45.044  31.240  28.112  1.00  0.00     0.049 A 
ATOM     35  H   UNL A   1      43.765  29.572  27.921  1.00  0.00     0.167 HD
ATOM     36  C   UNL A   1      43.091  31.829  29.524  1.00  0.00     0.074 A 
ATOM     37  C   UNL A   1      42.382  32.704  30.436  1.00  0.00     0.031 C 
ATOM     38  C   UNL A   1      44.322  32.087  29.025  1.00  0.00     0.031 A 
BRANCH  25  39
ATOM     39  C   UNL A   1      46.634  27.665  25.400  1.00  0.00    -0.014 A 
ATOM     40  C   UNL A   1      46.745  27.949  24.030  1.00  0.00     0.009 A 
ATOM     41  C   UNL A   1      47.689  26.997  26.043  1.00  0.00     0.009 A 
ATOM     42  C   UNL A   1      47.886  27.565  23.320  1.00  0.00     0.001 A 
ATOM     43  C   UNL A   1      48.838  26.638  25.336  1.00  0.00     0.001 A 
ATOM     44  C   UNL A   1      48.934  26.920  23.976  1.00  0.00     0.000 A 
ENDBRANCH  25  39
BRANCH  26  45
ATOM     45  C   UNL A   1      38.877  30.453  31.095  1.00  0.00    -0.014 A 
ATOM     46  C   UNL A   1      37.793  31.203  30.617  1.00  0.00     0.009 A 
ATOM     47  C   UNL A   1      38.903  30.091  32.452  1.00  0.00     0.009 A 
ATOM     48  C   UNL A   1      36.781  31.616  31.486  1.00  0.00     0.001 A 
ATOM     49  C   UNL A   1      37.870  30.469  33.311  1.00  0.00     0.001 A 
ATOM     50  C   UNL A   1      36.819  31.246  32.831  1.00  0.00     0.000 A 
ENDBRANCH  26  45
BRANCH  38  51
ATOM     51  C   UNL A   1      44.964  33.378  29.447  1.00  0.00    -0.014 A 
ATOM     52  C   UNL A   1      44.723  34.569  28.745  1.00  0.00     0.009 A 
ATOM     53  C   UNL A   1      45.801  33.404  30.572  1.00  0.00     0.009 A 
ATOM     54  C   UNL A   1      45.340  35.756  29.142  1.00  0.00     0.001 A 
ATOM     55  C   UNL A   1      46.388  34.599  30.987  1.00  0.00     0.001 A 
ATOM     56  C   UNL A   1      46.167  35.771  30.265  1.00  0.00     0.000 A 
ENDBRANCH  38  51
ENDBRANCH  12  13
ENDBRANCH   5   7
ENDBRANCH   2   3
ENDBRANCH   1   2
BRANCH   1  57
ATOM     57  C   UNL A   1      34.878  23.631  26.002  1.00  0.00     0.118 C 
BRANCH  57  58
ATOM     58  N   UNL A   1      33.528  23.655  26.545  1.00  0.00    -0.351 N 
ATOM     59  C   UNL A   1      32.448  24.465  26.408  1.00  0.00     0.278 C 
ATOM     60  H   UNL A   1      33.359  22.904  27.159  1.00  0.00     0.163 HD
ATOM     61  O   UNL A   1      31.475  24.175  27.123  1.00  0.00    -0.268 OA
BRANCH  59  62
ATOM     62  C   UNL A   1      32.328  25.660  25.434  1.00  0.00     0.277 C 
ATOM     63  C   UNL A   1      30.905  26.105  25.131  1.00  0.00     0.114 C 
ATOM     64  N   UNL A   1      33.110  26.782  26.023  1.00  0.00    -0.325 N 
ATOM     65  C   UNL A   1      30.876  27.359  24.370  1.00  0.00    -0.006 A 
ATOM     66  C   UNL A   1      33.212  28.009  25.200  1.00  0.00     0.262 C 
ATOM     67  H   UNL A   1      34.055  26.443  26.198  1.00  0.00     0.347 HD
ATOM     68  H   UNL A   1      32.601  27.057  26.863  1.00  0.00     0.347 HD
ATOM     69  C   UNL A   1      31.941  28.227  24.414  1.00  0.00     0.083 A 
ATOM     70  C   UNL A   1      29.790  27.984  23.730  1.00  0.00     0.003 A 
ATOM     71  N   UNL A   1      31.585  29.323  23.664  1.00  0.00    -0.353 N 
ATOM     72  C   UNL A   1      30.243  29.237  23.324  1.00  0.00     0.046 A 
ATOM     73  C   UNL A   1      28.443  27.625  23.535  1.00  0.00     0.010 A 
ATOM     74  H   UNL A   1      32.190  30.057  23.408  1.00  0.00     0.166 HD
ATOM     75  C   UNL A   1      29.385  30.168  22.727  1.00  0.00     0.026 A 
ATOM     76  C   UNL A   1      27.574  28.547  22.954  1.00  0.00     0.001 A 
ATOM     77  C   UNL A   1      28.041  29.800  22.560  1.00  0.00     0.002 A 
BRANCH  66  78
ATOM     78  C   UNL A   1      33.577  29.150  26.155  1.00  0.00     0.016 A 
ATOM     79  C   UNL A   1      32.714  30.218  26.436  1.00  0.00     0.014 A 
ATOM     80  C   UNL A   1      34.787  29.088  26.872  1.00  0.00     0.014 A 
ATOM     81  C   UNL A   1      33.076  31.219  27.342  1.00  0.00     0.047 A 
ATOM     82  C   UNL A   1      35.132  30.072  27.810  1.00  0.00     0.047 A 
ATOM     83  C   UNL A   1      34.283  31.154  28.036  1.00  0.00     0.129 A 
BRANCH  83  84
ATOM     84  O   UNL A   1      34.494  32.196  28.890  1.00  0.00    -0.406 OA
BRANCH  84  85
ATOM     85  C   UNL A   1      35.144  33.347  28.381  1.00  0.00     0.573 C 
ATOM     86  F   UNL A   1      36.212  33.010  27.627  1.00  0.00    -0.132 F 
ATOM     87  F   UNL A   1      34.299  34.108  27.651  1.00  0.00    -0.132 F 
ATOM     88  F   UNL A   1      35.582  34.091  29.421  1.00  0.00    -0.132 F 
ENDBRANCH  84  85
ENDBRANCH  83  84
ENDBRANCH  66  78
ENDBRANCH  59  62
ENDBRANCH  57  58
ENDBRANCH   1  57
TORSDOF 13
ENDMDL
MODEL 3
REMARK VINA RESULT:     -12.2      4.393      8.813
REMARK SMILES O=C(NCCCNC(=O)[C@H]1Cc2c([nH]c3ccccc23)[C@@H](c2ccc(OC(F)(F)F)cc2)[NH2+]1)c1ccc(-c2c3nc(c(-c4ccccc4)c4ccc([nH]4)c(-c4ccccc4)c4nc(c(-c5ccccc5)c5ccc2[nH]5)C=C4)C=C3)cc1
REMARK SMILES IDX 5 1 4 2 3 3 1 4 2 5 34 7 35 8 81 9 36 10 80 11 37 12 38 13
REMARK SMILES IDX 39 14 74 15 40 16 79 17 73 18 75 19 41 20 78 21 72 22 71 23
REMARK SMILES IDX 42 25 64 26 49 27 63 28 50 29 53 30 62 31 76 32 51 33 52 34
REMARK SMILES IDX 61 36 77 37 54 38 43 39 44 40 48 41 45 42 47 43 46 44 65 45
REMARK SMILES IDX 66 46 70 47 67 48 69 49 68 50 55 51 56 52 60 53 57 54 59 55
REMARK SMILES IDX 58 56 6 57 7 58 8 59 9 61 10 62 11 63 33 64 12 65 21 66
REMARK SMILES IDX 13 69 20 70 14 71 15 72 19 73 16 75 18 76 17 77 22 78 23 79
REMARK SMILES IDX 32 80 24 81 31 82 25 83 26 84 27 85 28 86 29 87 30 88
REMARK H PARENT 3 6 75 24 53 35 7 60 33 67 33 68 14 74
REMARK Flexibility Score: inf
ROOT
ATOM      1  C   UNL A   1      32.862  28.193  26.924  1.00  0.00     0.042 C 
ENDROOT
BRANCH   1   2
ATOM      2  C   UNL A   1      34.238  28.814  27.062  1.00  0.00     0.118 C 
BRANCH   2   3
ATOM      3  N   UNL A   1      34.153  30.165  27.616  1.00  0.00    -0.352 N 
ATOM      4  O   UNL A   1      34.613  31.811  29.084  1.00  0.00    -0.269 OA
ATOM      5  C   UNL A   1      34.986  30.802  28.499  1.00  0.00     0.251 C 
ATOM      6  H   UNL A   1      33.383  30.696  27.307  1.00  0.00     0.163 HD
BRANCH   5   7
ATOM      7  C   UNL A   1      36.338  30.263  28.722  1.00  0.00     0.039 A 
ATOM      8  C   UNL A   1      37.301  30.393  27.719  1.00  0.00     0.014 A 
ATOM      9  C   UNL A   1      36.661  29.666  29.942  1.00  0.00     0.014 A 
ATOM     10  C   UNL A   1      38.537  29.797  27.871  1.00  0.00     0.010 A 
ATOM     11  C   UNL A   1      37.955  29.185  30.147  1.00  0.00     0.010 A 
ATOM     12  C   UNL A   1      38.896  29.247  29.108  1.00  0.00    -0.014 A 
BRANCH  12  13
ATOM     13  C   UNL A   1      40.317  28.905  29.324  1.00  0.00     0.031 A 
ATOM     14  C   UNL A   1      41.254  29.846  30.012  1.00  0.00     0.074 A 
ATOM     15  C   UNL A   1      40.730  27.692  28.900  1.00  0.00     0.049 A 
ATOM     16  N   UNL A   1      42.524  29.678  30.281  1.00  0.00    -0.248 NA
ATOM     17  C   UNL A   1      40.712  31.141  30.452  1.00  0.00     0.031 C 
ATOM     18  C   UNL A   1      39.887  26.706  28.212  1.00  0.00     0.029 A 
ATOM     19  N   UNL A   1      41.945  27.069  29.001  1.00  0.00    -0.354 N 
ATOM     20  C   UNL A   1      42.939  30.850  30.895  1.00  0.00     0.074 A 
ATOM     21  C   UNL A   1      41.791  31.730  30.953  1.00  0.00     0.031 C 
ATOM     22  C   UNL A   1      40.593  25.587  28.004  1.00  0.00     0.029 A 
ATOM     23  C   UNL A   1      41.958  25.809  28.455  1.00  0.00     0.049 A 
ATOM     24  H   UNL A   1      42.732  27.485  29.423  1.00  0.00     0.167 HD
ATOM     25  C   UNL A   1      44.173  31.156  31.360  1.00  0.00     0.031 A 
ATOM     26  C   UNL A   1      42.970  24.939  28.296  1.00  0.00     0.031 A 
ATOM     27  C   UNL A   1      45.302  30.263  31.293  1.00  0.00     0.049 A 
ATOM     28  C   UNL A   1      44.330  25.335  28.781  1.00  0.00     0.074 A 
ATOM     29  C   UNL A   1      46.582  30.461  31.780  1.00  0.00     0.029 A 
ATOM     30  N   UNL A   1      45.290  29.013  30.694  1.00  0.00    -0.354 N 
ATOM     31  N   UNL A   1      44.694  26.426  29.412  1.00  0.00    -0.248 NA
ATOM     32  C   UNL A   1      45.421  24.388  28.524  1.00  0.00     0.031 C 
ATOM     33  C   UNL A   1      47.362  29.362  31.414  1.00  0.00     0.029 A 
ATOM     34  C   UNL A   1      46.553  28.448  30.758  1.00  0.00     0.049 A 
ATOM     35  H   UNL A   1      44.502  28.590  30.283  1.00  0.00     0.167 HD
ATOM     36  C   UNL A   1      46.055  26.291  29.639  1.00  0.00     0.074 A 
ATOM     37  C   UNL A   1      46.441  24.997  29.111  1.00  0.00     0.031 C 
ATOM     38  C   UNL A   1      46.913  27.162  30.220  1.00  0.00     0.031 A 
BRANCH  25  39
ATOM     39  C   UNL A   1      44.392  32.519  31.950  1.00  0.00    -0.014 A 
ATOM     40  C   UNL A   1      44.253  32.755  33.326  1.00  0.00     0.009 A 
ATOM     41  C   UNL A   1      44.841  33.562  31.123  1.00  0.00     0.009 A 
ATOM     42  C   UNL A   1      44.551  34.013  33.860  1.00  0.00     0.001 A 
ATOM     43  C   UNL A   1      45.161  34.810  31.663  1.00  0.00     0.001 A 
ATOM     44  C   UNL A   1      45.013  35.034  33.030  1.00  0.00     0.000 A 
ENDBRANCH  25  39
BRANCH  26  45
ATOM     45  C   UNL A   1      42.746  23.650  27.590  1.00  0.00    -0.014 A 
ATOM     46  C   UNL A   1      42.377  22.495  28.295  1.00  0.00     0.009 A 
ATOM     47  C   UNL A   1      42.925  23.566  26.199  1.00  0.00     0.009 A 
ATOM     48  C   UNL A   1      42.233  21.277  27.628  1.00  0.00     0.001 A 
ATOM     49  C   UNL A   1      42.740  22.356  25.528  1.00  0.00     0.001 A 
ATOM     50  C   UNL A   1      42.411  21.209  26.246  1.00  0.00     0.000 A 
ENDBRANCH  26  45
BRANCH  38  51
ATOM     51  C   UNL A   1      48.346  26.727  30.328  1.00  0.00    -0.014 A 
ATOM     52  C   UNL A   1      49.281  27.062  29.336  1.00  0.00     0.009 A 
ATOM     53  C   UNL A   1      48.767  25.992  31.445  1.00  0.00     0.009 A 
ATOM     54  C   UNL A   1      50.606  26.636  29.446  1.00  0.00     0.001 A 
ATOM     55  C   UNL A   1      50.099  25.597  31.569  1.00  0.00     0.001 A 
ATOM     56  C   UNL A   1      51.014  25.910  30.564  1.00  0.00     0.000 A 
ENDBRANCH  38  51
ENDBRANCH  12  13
ENDBRANCH   5   7
ENDBRANCH   2   3
ENDBRANCH   1   2
BRANCH   1  57
ATOM     57  C   UNL A   1      32.672  27.629  25.527  1.00  0.00     0.118 C 
BRANCH  57  58
ATOM     58  N   UNL A   1      31.702  26.544  25.520  1.00  0.00    -0.351 N 
ATOM     59  C   UNL A   1      31.713  25.245  25.129  1.00  0.00     0.278 C 
ATOM     60  H   UNL A   1      30.831  26.819  25.886  1.00  0.00     0.163 HD
ATOM     61  O   UNL A   1      30.624  24.655  25.223  1.00  0.00    -0.268 OA
BRANCH  59  62
ATOM     62  C   UNL A   1      32.946  24.458  24.627  1.00  0.00     0.277 C 
ATOM     63  C   UNL A   1      34.152  24.490  25.552  1.00  0.00     0.114 C 
ATOM     64  N   UNL A   1      32.502  23.055  24.397  1.00  0.00    -0.325 N 
ATOM     65  C   UNL A   1      35.202  23.563  25.112  1.00  0.00    -0.006 A 
ATOM     66  C   UNL A   1      33.510  22.140  23.815  1.00  0.00     0.262 C 
ATOM     67  H   UNL A   1      31.703  23.082  23.765  1.00  0.00     0.347 HD
ATOM     68  H   UNL A   1      32.293  22.680  25.322  1.00  0.00     0.347 HD
ATOM     69  C   UNL A   1      34.892  22.485  24.318  1.00  0.00     0.083 A 
ATOM     70  C   UNL A   1      36.528  23.444  25.566  1.00  0.00     0.003 A 
ATOM     71  N   UNL A   1      36.060  21.782  24.138  1.00  0.00    -0.353 N 
ATOM     72  C   UNL A   1      37.044  22.294  24.972  1.00  0.00     0.046 A 
ATOM     73  C   UNL A   1      37.305  24.166  26.492  1.00  0.00     0.010 A 
ATOM     74  H   UNL A   1      36.180  21.030  23.514  1.00  0.00     0.166 HD
ATOM     75  C   UNL A   1      38.326  21.824  25.278  1.00  0.00     0.026 A 
ATOM     76  C   UNL A   1      38.578  23.702  26.816  1.00  0.00     0.001 A 
ATOM     77  C   UNL A   1      39.076  22.546  26.219  1.00  0.00     0.002 A 
BRANCH  66  78
ATOM     78  C   UNL A   1      33.049  20.715  24.140  1.00  0.00     0.016 A 
ATOM     79  C   UNL A   1      32.542  19.835  23.172  1.00  0.00     0.014 A 
ATOM     80  C   UNL A   1      33.230  20.211  25.442  1.00  0.00     0.014 A 
ATOM     81  C   UNL A   1      32.167  18.532  23.509  1.00  0.00     0.047 A 
ATOM     82  C   UNL A   1      32.891  18.890  25.769  1.00  0.00     0.047 A 
ATOM     83  C   UNL A   1      32.339  18.049  24.805  1.00  0.00     0.129 A 
BRANCH  83  84
ATOM     84  O   UNL A   1      31.934  16.759  24.980  1.00  0.00    -0.406 OA
BRANCH  84  85
ATOM     85  C   UNL A   1      32.928  15.751  25.006  1.00  0.00     0.573 C 
ATOM     86  F   UNL A   1      33.852  16.002  25.957  1.00  0.00    -0.132 F 
ATOM     87  F   UNL A   1      32.386  14.530  25.212  1.00  0.00    -0.132 F 
ATOM     88  F   UNL A   1      33.554  15.731  23.807  1.00  0.00    -0.132 F 
ENDBRANCH  84  85
ENDBRANCH  83  84
ENDBRANCH  66  78
ENDBRANCH  59  62
ENDBRANCH  57  58
ENDBRANCH   1  57
TORSDOF 13
ENDMDL
