MODEL 1
REMARK VINA RESULT:      -9.9      0.000      0.000
REMARK SMILES C[C@H](Oc1ccc(/C=C2/SC(=S)N(c3ccc(F)cc3)C2=O)cc1)C(=O)NCCCNC(=O)c1ccc(-c2c3nc(c(-c4ccccc4)c4ccc([nH]4)c(-c4ccccc4)c4nc(c(-c5ccccc5)c5ccc2[nH]5)C=C4)C=C3)cc1
REMARK SMILES IDX 28 1 27 2 25 3 26 4 2 6 1 7 3 8 4 9 5 10 24 11 6 12 23 13
REMARK SMILES IDX 7 14 8 15 9 16 10 17 21 18 11 19 13 20 22 21 12 22 14 23
REMARK SMILES IDX 15 24 20 25 16 26 19 27 17 28 18 29 29 30 30 31 31 32 32 33
REMARK SMILES IDX 33 35 34 36 35 37 81 38 36 39 80 40 37 41 38 42 39 43 74 44
REMARK SMILES IDX 40 45 79 46 73 47 75 48 41 49 78 50 72 51 71 52 42 54 64 55
REMARK SMILES IDX 49 56 63 57 50 58 53 59 62 60 76 61 51 62 52 63 61 65 77 66
REMARK SMILES IDX 54 67 43 68 44 69 48 70 45 71 47 72 46 73 65 74 66 75 70 76
REMARK SMILES IDX 67 77 69 78 68 79 55 80 56 81 60 82 57 83 59 84 58 85
REMARK H PARENT 27 5 31 34 75 53 53 64
REMARK Flexibility Score: inf
ROOT
ATOM      1  C   UNL A   1      43.249  20.848  25.757  1.00  0.00     0.118 C 
ENDROOT
BRANCH   1   2
ATOM      2  N   UNL A   1      44.592  20.402  25.419  1.00  0.00    -0.353 N 
ATOM      3  C   UNL A   1      45.734  21.142  25.244  1.00  0.00     0.260 C 
ATOM      4  O   UNL A   1      46.779  20.541  24.978  1.00  0.00    -0.271 OA
ATOM      5  H   UNL A   1      44.697  19.431  25.298  1.00  0.00     0.163 HD
BRANCH   3   6
ATOM      6  C   UNL A   1      45.707  22.669  25.421  1.00  0.00     0.258 C 
ATOM      7  C   UNL A   1      46.403  23.315  24.219  1.00  0.00     0.064 C 
BRANCH   6   8
ATOM      8  O   UNL A   1      46.289  22.871  26.709  1.00  0.00    -0.481 OA
BRANCH   8   9
ATOM      9  C   UNL A   1      45.690  23.598  27.686  1.00  0.00     0.120 A 
ATOM     10  C   UNL A   1      44.482  23.328  28.318  1.00  0.00     0.047 A 
ATOM     11  C   UNL A   1      46.383  24.766  28.013  1.00  0.00     0.047 A 
ATOM     12  C   UNL A   1      43.905  24.284  29.165  1.00  0.00     0.012 A 
ATOM     13  C   UNL A   1      45.831  25.701  28.886  1.00  0.00     0.012 A 
ATOM     14  C   UNL A   1      44.554  25.497  29.413  1.00  0.00    -0.024 A 
BRANCH  14  15
ATOM     15  C   UNL A   1      43.901  26.533  30.220  1.00  0.00     0.029 C 
ATOM     16  C   UNL A   1      43.933  26.615  31.561  1.00  0.00     0.081 C 
ATOM     17  S   UNL A   1      43.030  27.796  32.429  1.00  0.00    -0.054 SA
ATOM     18  C   UNL A   1      44.659  25.726  32.522  1.00  0.00     0.270 C 
ATOM     19  C   UNL A   1      43.412  27.085  33.998  1.00  0.00     0.152 C 
ATOM     20  N   UNL A   1      44.234  25.979  33.828  1.00  0.00    -0.261 N 
ATOM     21  O   UNL A   1      45.484  24.896  32.172  1.00  0.00    -0.268 OA
ATOM     22  S   UNL A   1      42.874  27.818  35.404  1.00  0.00    -0.051 S 
BRANCH  20  23
ATOM     23  C   UNL A   1      44.651  25.105  34.884  1.00  0.00     0.051 A 
ATOM     24  C   UNL A   1      45.703  25.466  35.744  1.00  0.00     0.030 A 
ATOM     25  C   UNL A   1      44.075  23.833  35.037  1.00  0.00     0.030 A 
ATOM     26  C   UNL A   1      46.152  24.590  36.738  1.00  0.00     0.041 A 
ATOM     27  C   UNL A   1      44.529  22.954  36.025  1.00  0.00     0.041 A 
ATOM     28  C   UNL A   1      45.561  23.342  36.868  1.00  0.00     0.123 A 
ATOM     29  F   UNL A   1      46.000  22.496  37.809  1.00  0.00    -0.207 F 
ENDBRANCH  20  23
ENDBRANCH  14  15
ENDBRANCH   8   9
ENDBRANCH   6   8
ENDBRANCH   3   6
ENDBRANCH   1   2
BRANCH   1  30
ATOM     30  C   UNL A   1      42.251  19.703  25.848  1.00  0.00     0.042 C 
BRANCH  30  31
ATOM     31  C   UNL A   1      41.126  19.941  26.848  1.00  0.00     0.118 C 
BRANCH  31  32
ATOM     32  N   UNL A   1      39.815  20.047  26.216  1.00  0.00    -0.352 N 
ATOM     33  C   UNL A   1      38.994  21.140  26.070  1.00  0.00     0.251 C 
ATOM     34  H   UNL A   1      39.466  19.208  25.838  1.00  0.00     0.163 HD
ATOM     35  O   UNL A   1      37.854  20.999  25.640  1.00  0.00    -0.269 OA
BRANCH  33  36
ATOM     36  C   UNL A   1      39.475  22.483  26.456  1.00  0.00     0.039 A 
ATOM     37  C   UNL A   1      40.481  22.592  27.421  1.00  0.00     0.014 A 
ATOM     38  C   UNL A   1      38.941  23.628  25.863  1.00  0.00     0.014 A 
ATOM     39  C   UNL A   1      41.013  23.848  27.728  1.00  0.00     0.010 A 
ATOM     40  C   UNL A   1      39.521  24.867  26.115  1.00  0.00     0.010 A 
ATOM     41  C   UNL A   1      40.566  24.988  27.045  1.00  0.00    -0.014 A 
BRANCH  41  42
ATOM     42  C   UNL A   1      41.168  26.327  27.266  1.00  0.00     0.031 A 
ATOM     43  C   UNL A   1      42.505  26.652  26.663  1.00  0.00     0.074 A 
ATOM     44  C   UNL A   1      40.570  27.203  28.098  1.00  0.00     0.049 A 
ATOM     45  N   UNL A   1      43.284  27.681  26.884  1.00  0.00    -0.248 NA
ATOM     46  C   UNL A   1      43.055  25.673  25.711  1.00  0.00     0.031 C 
ATOM     47  C   UNL A   1      39.285  27.001  28.768  1.00  0.00     0.029 A 
ATOM     48  N   UNL A   1      40.985  28.435  28.538  1.00  0.00    -0.354 N 
ATOM     49  C   UNL A   1      44.427  27.454  26.130  1.00  0.00     0.074 A 
ATOM     50  C   UNL A   1      44.254  26.179  25.469  1.00  0.00     0.031 C 
ATOM     51  C   UNL A   1      39.010  28.076  29.524  1.00  0.00     0.029 A 
ATOM     52  C   UNL A   1      40.120  29.019  29.431  1.00  0.00     0.049 A 
ATOM     53  H   UNL A   1      41.822  28.860  28.242  1.00  0.00     0.167 HD
ATOM     54  C   UNL A   1      45.520  28.241  25.992  1.00  0.00     0.031 A 
ATOM     55  C   UNL A   1      40.217  30.174  30.114  1.00  0.00     0.031 A 
ATOM     56  C   UNL A   1      45.681  29.522  26.625  1.00  0.00     0.049 A 
ATOM     57  C   UNL A   1      41.437  31.034  29.940  1.00  0.00     0.074 A 
ATOM     58  C   UNL A   1      46.729  30.418  26.506  1.00  0.00     0.029 A 
ATOM     59  N   UNL A   1      44.762  30.093  27.491  1.00  0.00    -0.354 N 
ATOM     60  N   UNL A   1      42.496  30.822  29.197  1.00  0.00    -0.248 NA
ATOM     61  C   UNL A   1      41.471  32.297  30.693  1.00  0.00     0.031 C 
ATOM     62  C   UNL A   1      46.459  31.518  27.324  1.00  0.00     0.029 A 
ATOM     63  C   UNL A   1      45.222  31.325  27.920  1.00  0.00     0.049 A 
ATOM     64  H   UNL A   1      43.908  29.682  27.760  1.00  0.00     0.167 HD
ATOM     65  C   UNL A   1      43.307  31.936  29.369  1.00  0.00     0.074 A 
ATOM     66  C   UNL A   1      42.617  32.823  30.282  1.00  0.00     0.031 C 
ATOM     67  C   UNL A   1      44.515  32.201  28.816  1.00  0.00     0.031 A 
BRANCH  54  68
ATOM     68  C   UNL A   1      46.635  27.727  25.126  1.00  0.00    -0.014 A 
ATOM     69  C   UNL A   1      47.552  26.780  25.607  1.00  0.00     0.009 A 
ATOM     70  C   UNL A   1      46.751  28.176  23.801  1.00  0.00     0.009 A 
ATOM     71  C   UNL A   1      48.588  26.322  24.790  1.00  0.00     0.001 A 
ATOM     72  C   UNL A   1      47.771  27.697  22.979  1.00  0.00     0.001 A 
ATOM     73  C   UNL A   1      48.693  26.777  23.476  1.00  0.00     0.000 A 
ENDBRANCH  54  68
BRANCH  55  74
ATOM     74  C   UNL A   1      39.122  30.593  31.025  1.00  0.00    -0.014 A 
ATOM     75  C   UNL A   1      39.141  30.212  32.375  1.00  0.00     0.009 A 
ATOM     76  C   UNL A   1      38.055  31.373  30.553  1.00  0.00     0.009 A 
ATOM     77  C   UNL A   1      38.100  30.584  33.229  1.00  0.00     0.001 A 
ATOM     78  C   UNL A   1      37.028  31.763  31.416  1.00  0.00     0.001 A 
ATOM     79  C   UNL A   1      37.047  31.362  32.751  1.00  0.00     0.000 A 
ENDBRANCH  55  74
BRANCH  67  80
ATOM     80  C   UNL A   1      45.144  33.524  29.138  1.00  0.00    -0.014 A 
ATOM     81  C   UNL A   1      44.871  34.667  28.374  1.00  0.00     0.009 A 
ATOM     82  C   UNL A   1      45.979  33.634  30.262  1.00  0.00     0.009 A 
ATOM     83  C   UNL A   1      45.442  35.895  28.717  1.00  0.00     0.001 A 
ATOM     84  C   UNL A   1      46.531  34.867  30.614  1.00  0.00     0.001 A 
ATOM     85  C   UNL A   1      46.266  35.995  29.838  1.00  0.00     0.000 A 
ENDBRANCH  67  80
ENDBRANCH  41  42
ENDBRANCH  33  36
ENDBRANCH  31  32
ENDBRANCH  30  31
ENDBRANCH   1  30
TORSDOF 14
ENDMDL
MODEL 2
REMARK VINA RESULT:      -9.6      5.111      9.868
REMARK SMILES C[C@H](Oc1ccc(/C=C2/SC(=S)N(c3ccc(F)cc3)C2=O)cc1)C(=O)NCCCNC(=O)c1ccc(-c2c3nc(c(-c4ccccc4)c4ccc([nH]4)c(-c4ccccc4)c4nc(c(-c5ccccc5)c5ccc2[nH]5)C=C4)C=C3)cc1
REMARK SMILES IDX 28 1 27 2 25 3 26 4 2 6 1 7 3 8 4 9 5 10 24 11 6 12 23 13
REMARK SMILES IDX 7 14 8 15 9 16 10 17 21 18 11 19 13 20 22 21 12 22 14 23
REMARK SMILES IDX 15 24 20 25 16 26 19 27 17 28 18 29 29 30 30 31 31 32 32 33
REMARK SMILES IDX 33 35 34 36 35 37 81 38 36 39 80 40 37 41 38 42 39 43 74 44
REMARK SMILES IDX 40 45 79 46 73 47 75 48 41 49 78 50 72 51 71 52 42 54 64 55
REMARK SMILES IDX 49 56 63 57 50 58 53 59 62 60 76 61 51 62 52 63 61 65 77 66
REMARK SMILES IDX 54 67 43 68 44 69 48 70 45 71 47 72 46 73 65 74 66 75 70 76
REMARK SMILES IDX 67 77 69 78 68 79 55 80 56 81 60 82 57 83 59 84 58 85
REMARK H PARENT 27 5 31 34 75 53 53 64
REMARK Flexibility Score: inf
ROOT
ATOM      1  C   UNL A   1      42.338  22.914  25.916  1.00  0.00     0.118 C 
ENDROOT
BRANCH   1   2
ATOM      2  N   UNL A   1      41.768  21.610  26.222  1.00  0.00    -0.353 N 
ATOM      3  C   UNL A   1      40.458  21.205  26.188  1.00  0.00     0.260 C 
ATOM      4  O   UNL A   1      40.207  20.030  26.469  1.00  0.00    -0.271 OA
ATOM      5  H   UNL A   1      42.416  20.919  26.491  1.00  0.00     0.163 HD
BRANCH   3   6
ATOM      6  C   UNL A   1      39.351  22.186  25.765  1.00  0.00     0.258 C 
ATOM      7  C   UNL A   1      39.147  23.208  26.887  1.00  0.00     0.064 C 
BRANCH   6   8
ATOM      8  O   UNL A   1      38.253  21.336  25.437  1.00  0.00    -0.481 OA
BRANCH   8   9
ATOM      9  C   UNL A   1      37.003  21.804  25.187  1.00  0.00     0.120 A 
ATOM     10  C   UNL A   1      35.899  21.750  26.028  1.00  0.00     0.047 A 
ATOM     11  C   UNL A   1      36.858  22.340  23.906  1.00  0.00     0.047 A 
ATOM     12  C   UNL A   1      34.631  22.100  25.543  1.00  0.00     0.012 A 
ATOM     13  C   UNL A   1      35.605  22.726  23.433  1.00  0.00     0.012 A 
ATOM     14  C   UNL A   1      34.471  22.541  24.226  1.00  0.00    -0.024 A 
BRANCH  14  15
ATOM     15  C   UNL A   1      33.131  22.810  23.695  1.00  0.00     0.029 C 
ATOM     16  C   UNL A   1      32.459  23.968  23.819  1.00  0.00     0.081 C 
ATOM     17  S   UNL A   1      30.838  24.150  23.270  1.00  0.00    -0.054 SA
ATOM     18  C   UNL A   1      32.919  25.236  24.467  1.00  0.00     0.270 C 
ATOM     19  C   UNL A   1      30.662  25.747  23.996  1.00  0.00     0.152 C 
ATOM     20  N   UNL A   1      31.845  26.115  24.622  1.00  0.00    -0.261 N 
ATOM     21  O   UNL A   1      34.074  25.428  24.815  1.00  0.00    -0.268 OA
ATOM     22  S   UNL A   1      29.244  26.613  23.783  1.00  0.00    -0.051 S 
BRANCH  20  23
ATOM     23  C   UNL A   1      32.019  27.307  25.398  1.00  0.00     0.051 A 
ATOM     24  C   UNL A   1      31.681  27.334  26.763  1.00  0.00     0.030 A 
ATOM     25  C   UNL A   1      32.455  28.500  24.798  1.00  0.00     0.030 A 
ATOM     26  C   UNL A   1      31.795  28.512  27.508  1.00  0.00     0.041 A 
ATOM     27  C   UNL A   1      32.560  29.680  25.541  1.00  0.00     0.041 A 
ATOM     28  C   UNL A   1      32.232  29.674  26.890  1.00  0.00     0.123 A 
ATOM     29  F   UNL A   1      32.326  30.806  27.599  1.00  0.00    -0.207 F 
ENDBRANCH  20  23
ENDBRANCH  14  15
ENDBRANCH   8   9
ENDBRANCH   6   8
ENDBRANCH   3   6
ENDBRANCH   1   2
BRANCH   1  30
ATOM     30  C   UNL A   1      43.295  22.879  24.734  1.00  0.00     0.042 C 
BRANCH  30  31
ATOM     31  C   UNL A   1      44.272  24.047  24.694  1.00  0.00     0.118 C 
BRANCH  31  32
ATOM     32  N   UNL A   1      45.541  23.753  25.350  1.00  0.00    -0.352 N 
ATOM     33  C   UNL A   1      46.080  24.277  26.501  1.00  0.00     0.251 C 
ATOM     34  H   UNL A   1      46.096  23.076  24.899  1.00  0.00     0.163 HD
ATOM     35  O   UNL A   1      47.235  24.011  26.816  1.00  0.00    -0.269 OA
BRANCH  33  36
ATOM     36  C   UNL A   1      45.275  25.181  27.349  1.00  0.00     0.039 A 
ATOM     37  C   UNL A   1      44.412  24.630  28.301  1.00  0.00     0.014 A 
ATOM     38  C   UNL A   1      45.376  26.566  27.209  1.00  0.00     0.014 A 
ATOM     39  C   UNL A   1      43.716  25.471  29.173  1.00  0.00     0.010 A 
ATOM     40  C   UNL A   1      44.740  27.399  28.124  1.00  0.00     0.010 A 
ATOM     41  C   UNL A   1      43.909  26.859  29.119  1.00  0.00    -0.014 A 
BRANCH  41  42
ATOM     42  C   UNL A   1      43.267  27.783  30.086  1.00  0.00     0.031 A 
ATOM     43  C   UNL A   1      43.891  28.002  31.436  1.00  0.00     0.074 A 
ATOM     44  C   UNL A   1      42.072  28.335  29.797  1.00  0.00     0.049 A 
ATOM     45  N   UNL A   1      43.402  28.615  32.484  1.00  0.00    -0.248 NA
ATOM     46  C   UNL A   1      45.230  27.424  31.644  1.00  0.00     0.031 C 
ATOM     47  C   UNL A   1      41.346  28.183  28.536  1.00  0.00     0.029 A 
ATOM     48  N   UNL A   1      41.246  29.119  30.564  1.00  0.00    -0.354 N 
ATOM     49  C   UNL A   1      44.353  28.463  33.484  1.00  0.00     0.074 A 
ATOM     50  C   UNL A   1      45.434  27.678  32.927  1.00  0.00     0.031 C 
ATOM     51  C   UNL A   1      40.189  28.861  28.610  1.00  0.00     0.029 A 
ATOM     52  C   UNL A   1      40.070  29.453  29.938  1.00  0.00     0.049 A 
ATOM     53  H   UNL A   1      41.475  29.412  31.476  1.00  0.00     0.167 HD
ATOM     54  C   UNL A   1      44.334  28.943  34.750  1.00  0.00     0.031 A 
ATOM     55  C   UNL A   1      39.006  30.142  30.389  1.00  0.00     0.031 A 
ATOM     56  C   UNL A   1      43.276  29.748  35.295  1.00  0.00     0.049 A 
ATOM     57  C   UNL A   1      39.010  30.670  31.795  1.00  0.00     0.074 A 
ATOM     58  C   UNL A   1      43.189  30.325  36.550  1.00  0.00     0.029 A 
ATOM     59  N   UNL A   1      42.120  30.096  34.612  1.00  0.00    -0.354 N 
ATOM     60  N   UNL A   1      39.932  30.548  32.719  1.00  0.00    -0.248 NA
ATOM     61  C   UNL A   1      37.830  31.439  32.219  1.00  0.00     0.031 C 
ATOM     62  C   UNL A   1      41.966  30.998  36.638  1.00  0.00     0.029 A 
ATOM     63  C   UNL A   1      41.312  30.874  35.422  1.00  0.00     0.049 A 
ATOM     64  H   UNL A   1      41.908  29.830  33.689  1.00  0.00     0.167 HD
ATOM     65  C   UNL A   1      39.458  31.248  33.821  1.00  0.00     0.074 A 
ATOM     66  C   UNL A   1      38.170  31.796  33.450  1.00  0.00     0.031 C 
ATOM     67  C   UNL A   1      40.041  31.423  35.031  1.00  0.00     0.031 A 
BRANCH  54  68
ATOM     68  C   UNL A   1      45.497  28.597  35.635  1.00  0.00    -0.014 A 
ATOM     69  C   UNL A   1      46.628  29.426  35.707  1.00  0.00     0.009 A 
ATOM     70  C   UNL A   1      45.449  27.441  36.429  1.00  0.00     0.009 A 
ATOM     71  C   UNL A   1      47.704  29.083  36.529  1.00  0.00     0.001 A 
ATOM     72  C   UNL A   1      46.515  27.114  37.269  1.00  0.00     0.001 A 
ATOM     73  C   UNL A   1      47.644  27.931  37.311  1.00  0.00     0.000 A 
ENDBRANCH  54  68
BRANCH  55  74
ATOM     74  C   UNL A   1      37.844  30.382  29.496  1.00  0.00    -0.014 A 
ATOM     75  C   UNL A   1      36.926  29.352  29.239  1.00  0.00     0.009 A 
ATOM     76  C   UNL A   1      37.645  31.635  28.897  1.00  0.00     0.009 A 
ATOM     77  C   UNL A   1      35.845  29.566  28.381  1.00  0.00     0.001 A 
ATOM     78  C   UNL A   1      36.550  31.853  28.059  1.00  0.00     0.001 A 
ATOM     79  C   UNL A   1      35.655  30.816  27.795  1.00  0.00     0.000 A 
ENDBRANCH  55  74
BRANCH  67  80
ATOM     80  C   UNL A   1      39.318  32.284  36.025  1.00  0.00    -0.014 A 
ATOM     81  C   UNL A   1      38.370  31.744  36.905  1.00  0.00     0.009 A 
ATOM     82  C   UNL A   1      39.638  33.648  36.116  1.00  0.00     0.009 A 
ATOM     83  C   UNL A   1      37.738  32.560  37.845  1.00  0.00     0.001 A 
ATOM     84  C   UNL A   1      39.020  34.457  37.071  1.00  0.00     0.001 A 
ATOM     85  C   UNL A   1      38.067  33.913  37.931  1.00  0.00     0.000 A 
ENDBRANCH  67  80
ENDBRANCH  41  42
ENDBRANCH  33  36
ENDBRANCH  31  32
ENDBRANCH  30  31
ENDBRANCH   1  30
TORSDOF 14
ENDMDL
MODEL 3
REMARK VINA RESULT:      -9.6      4.316     10.150
REMARK SMILES C[C@H](Oc1ccc(/C=C2/SC(=S)N(c3ccc(F)cc3)C2=O)cc1)C(=O)NCCCNC(=O)c1ccc(-c2c3nc(c(-c4ccccc4)c4ccc([nH]4)c(-c4ccccc4)c4nc(c(-c5ccccc5)c5ccc2[nH]5)C=C4)C=C3)cc1
REMARK SMILES IDX 28 1 27 2 25 3 26 4 2 6 1 7 3 8 4 9 5 10 24 11 6 12 23 13
REMARK SMILES IDX 7 14 8 15 9 16 10 17 21 18 11 19 13 20 22 21 12 22 14 23
REMARK SMILES IDX 15 24 20 25 16 26 19 27 17 28 18 29 29 30 30 31 31 32 32 33
REMARK SMILES IDX 33 35 34 36 35 37 81 38 36 39 80 40 37 41 38 42 39 43 74 44
REMARK SMILES IDX 40 45 79 46 73 47 75 48 41 49 78 50 72 51 71 52 42 54 64 55
REMARK SMILES IDX 49 56 63 57 50 58 53 59 62 60 76 61 51 62 52 63 61 65 77 66
REMARK SMILES IDX 54 67 43 68 44 69 48 70 45 71 47 72 46 73 65 74 66 75 70 76
REMARK SMILES IDX 67 77 69 78 68 79 55 80 56 81 60 82 57 83 59 84 58 85
REMARK H PARENT 27 5 31 34 75 53 53 64
REMARK Flexibility Score: inf
ROOT
ATOM      1  C   UNL A   1      34.730  33.154  30.465  1.00  0.00     0.118 C 
ENDROOT
BRANCH   1   2
ATOM      2  N   UNL A   1      35.090  34.012  31.583  1.00  0.00    -0.353 N 
ATOM      3  C   UNL A   1      36.286  34.115  32.248  1.00  0.00     0.260 C 
ATOM      4  O   UNL A   1      36.371  34.938  33.164  1.00  0.00    -0.271 OA
ATOM      5  H   UNL A   1      34.374  34.603  31.910  1.00  0.00     0.163 HD
BRANCH   3   6
ATOM      6  C   UNL A   1      37.489  33.258  31.822  1.00  0.00     0.258 C 
ATOM      7  C   UNL A   1      37.320  31.851  32.404  1.00  0.00     0.064 C 
BRANCH   6   8
ATOM      8  O   UNL A   1      38.617  34.020  32.252  1.00  0.00    -0.481 OA
BRANCH   8   9
ATOM      9  C   UNL A   1      39.670  34.304  31.444  1.00  0.00     0.120 A 
ATOM     10  C   UNL A   1      40.995  34.492  31.819  1.00  0.00     0.047 A 
ATOM     11  C   UNL A   1      39.313  34.468  30.104  1.00  0.00     0.047 A 
ATOM     12  C   UNL A   1      41.925  34.976  30.889  1.00  0.00     0.012 A 
ATOM     13  C   UNL A   1      40.244  34.911  29.167  1.00  0.00     0.012 A 
ATOM     14  C   UNL A   1      41.541  35.236  29.570  1.00  0.00    -0.024 A 
BRANCH  14  15
ATOM     15  C   UNL A   1      42.492  35.834  28.629  1.00  0.00     0.029 C 
ATOM     16  C   UNL A   1      43.490  35.184  28.006  1.00  0.00     0.081 C 
ATOM     17  S   UNL A   1      44.636  35.998  27.013  1.00  0.00    -0.054 SA
ATOM     18  C   UNL A   1      43.832  33.729  28.084  1.00  0.00     0.270 C 
ATOM     19  C   UNL A   1      45.649  34.566  26.827  1.00  0.00     0.152 C 
ATOM     20  N   UNL A   1      45.083  33.496  27.507  1.00  0.00    -0.261 N 
ATOM     21  O   UNL A   1      43.104  32.898  28.605  1.00  0.00    -0.268 OA
ATOM     22  S   UNL A   1      47.009  34.622  25.852  1.00  0.00    -0.051 S 
BRANCH  20  23
ATOM     23  C   UNL A   1      45.693  32.208  27.650  1.00  0.00     0.051 A 
ATOM     24  C   UNL A   1      46.701  31.989  28.605  1.00  0.00     0.030 A 
ATOM     25  C   UNL A   1      45.357  31.152  26.785  1.00  0.00     0.030 A 
ATOM     26  C   UNL A   1      47.339  30.749  28.706  1.00  0.00     0.041 A 
ATOM     27  C   UNL A   1      46.002  29.915  26.880  1.00  0.00     0.041 A 
ATOM     28  C   UNL A   1      46.984  29.724  27.841  1.00  0.00     0.123 A 
ATOM     29  F   UNL A   1      47.606  28.541  27.927  1.00  0.00    -0.207 F 
ENDBRANCH  20  23
ENDBRANCH  14  15
ENDBRANCH   8   9
ENDBRANCH   6   8
ENDBRANCH   3   6
ENDBRANCH   1   2
BRANCH   1  30
ATOM     30  C   UNL A   1      34.844  33.856  29.120  1.00  0.00     0.042 C 
BRANCH  30  31
ATOM     31  C   UNL A   1      35.331  32.956  27.991  1.00  0.00     0.118 C 
BRANCH  31  32
ATOM     32  N   UNL A   1      34.522  31.753  27.832  1.00  0.00    -0.352 N 
ATOM     33  C   UNL A   1      34.886  30.430  27.911  1.00  0.00     0.251 C 
ATOM     34  H   UNL A   1      33.570  31.913  27.637  1.00  0.00     0.163 HD
ATOM     35  O   UNL A   1      34.088  29.552  27.597  1.00  0.00    -0.269 OA
BRANCH  33  36
ATOM     36  C   UNL A   1      36.248  30.063  28.352  1.00  0.00     0.039 A 
ATOM     37  C   UNL A   1      36.425  29.526  29.631  1.00  0.00     0.014 A 
ATOM     38  C   UNL A   1      37.343  30.242  27.506  1.00  0.00     0.014 A 
ATOM     39  C   UNL A   1      37.692  29.088  30.029  1.00  0.00     0.010 A 
ATOM     40  C   UNL A   1      38.587  29.739  27.874  1.00  0.00     0.010 A 
ATOM     41  C   UNL A   1      38.772  29.151  29.135  1.00  0.00    -0.014 A 
BRANCH  41  42
ATOM     42  C   UNL A   1      40.110  28.609  29.477  1.00  0.00     0.031 A 
ATOM     43  C   UNL A   1      41.090  29.462  30.231  1.00  0.00     0.074 A 
ATOM     44  C   UNL A   1      40.483  27.399  29.014  1.00  0.00     0.049 A 
ATOM     45  N   UNL A   1      42.361  29.252  30.466  1.00  0.00    -0.248 NA
ATOM     46  C   UNL A   1      40.581  30.737  30.764  1.00  0.00     0.031 C 
ATOM     47  C   UNL A   1      39.638  26.482  28.248  1.00  0.00     0.029 A 
ATOM     48  N   UNL A   1      41.687  26.746  29.104  1.00  0.00    -0.354 N 
ATOM     49  C   UNL A   1      42.810  30.382  31.136  1.00  0.00     0.074 A 
ATOM     50  C   UNL A   1      41.685  31.285  31.247  1.00  0.00     0.031 C 
ATOM     51  C   UNL A   1      40.345  25.380  27.948  1.00  0.00     0.029 A 
ATOM     52  C   UNL A   1      41.704  25.534  28.457  1.00  0.00     0.049 A 
ATOM     53  H   UNL A   1      42.464  27.111  29.586  1.00  0.00     0.167 HD
ATOM     54  C   UNL A   1      44.046  30.640  31.625  1.00  0.00     0.031 A 
ATOM     55  C   UNL A   1      42.706  24.654  28.275  1.00  0.00     0.031 A 
ATOM     56  C   UNL A   1      45.156  29.732  31.542  1.00  0.00     0.049 A 
ATOM     57  C   UNL A   1      44.066  24.961  28.833  1.00  0.00     0.074 A 
ATOM     58  C   UNL A   1      46.434  29.881  32.053  1.00  0.00     0.029 A 
ATOM     59  N   UNL A   1      45.118  28.497  30.912  1.00  0.00    -0.354 N 
ATOM     60  N   UNL A   1      44.468  26.018  29.494  1.00  0.00    -0.248 NA
ATOM     61  C   UNL A   1      45.112  23.947  28.625  1.00  0.00     0.031 C 
ATOM     62  C   UNL A   1      47.178  28.750  31.706  1.00  0.00     0.029 A 
ATOM     63  C   UNL A   1      46.351  27.878  31.015  1.00  0.00     0.049 A 
ATOM     64  H   UNL A   1      44.330  28.118  30.460  1.00  0.00     0.167 HD
ATOM     65  C   UNL A   1      45.800  25.786  29.808  1.00  0.00     0.074 A 
ATOM     66  C   UNL A   1      46.139  24.485  29.269  1.00  0.00     0.031 C 
ATOM     67  C   UNL A   1      46.665  26.578  30.486  1.00  0.00     0.031 A 
BRANCH  54  68
ATOM     68  C   UNL A   1      44.260  31.972  32.288  1.00  0.00    -0.014 A 
ATOM     69  C   UNL A   1      43.823  32.209  33.600  1.00  0.00     0.009 A 
ATOM     70  C   UNL A   1      44.932  32.993  31.598  1.00  0.00     0.009 A 
ATOM     71  C   UNL A   1      44.022  33.456  34.196  1.00  0.00     0.001 A 
ATOM     72  C   UNL A   1      45.152  34.230  32.206  1.00  0.00     0.001 A 
ATOM     73  C   UNL A   1      44.690  34.463  33.501  1.00  0.00     0.000 A 
ENDBRANCH  54  68
BRANCH  55  74
ATOM     74  C   UNL A   1      42.459  23.390  27.537  1.00  0.00    -0.014 A 
ATOM     75  C   UNL A   1      41.948  22.268  28.207  1.00  0.00     0.009 A 
ATOM     76  C   UNL A   1      42.731  23.297  26.163  1.00  0.00     0.009 A 
ATOM     77  C   UNL A   1      41.737  21.070  27.520  1.00  0.00     0.001 A 
ATOM     78  C   UNL A   1      42.496  22.105  25.475  1.00  0.00     0.001 A 
ATOM     79  C   UNL A   1      42.007  20.990  26.155  1.00  0.00     0.000 A 
ENDBRANCH  55  74
BRANCH  67  80
ATOM     80  C   UNL A   1      48.044  26.041  30.730  1.00  0.00    -0.014 A 
ATOM     81  C   UNL A   1      48.419  25.538  31.984  1.00  0.00     0.009 A 
ATOM     82  C   UNL A   1      48.961  25.986  29.669  1.00  0.00     0.009 A 
ATOM     83  C   UNL A   1      49.697  25.010  32.177  1.00  0.00     0.001 A 
ATOM     84  C   UNL A   1      50.231  25.439  29.859  1.00  0.00     0.001 A 
ATOM     85  C   UNL A   1      50.599  24.956  31.114  1.00  0.00     0.000 A 
ENDBRANCH  67  80
ENDBRANCH  41  42
ENDBRANCH  33  36
ENDBRANCH  31  32
ENDBRANCH  30  31
ENDBRANCH   1  30
TORSDOF 14
ENDMDL
