MODEL 1
REMARK VINA RESULT:     -10.8      0.000      0.000
REMARK SMILES O=C(NCCCNC(=O)c1ccc(-c2c3nc(c(-c4ccccc4)c4ccc([nH]4)c(-c4ccccc4)c4nc(c(-c5ccccc5)c5ccc2[nH]5)C=C4)C=C3)cc1)c1ccc(N/C=C\C(=O)c2ccco2)cc1
REMARK SMILES IDX 4 1 3 2 1 3 2 4 58 6 59 7 73 8 60 9 72 10 61 11 62 12 63 14
REMARK SMILES IDX 64 15 65 16 66 17 67 18 68 19 71 20 69 21 70 22 5 23 6 24
REMARK SMILES IDX 7 25 8 26 9 28 10 29 11 30 57 31 12 32 56 33 13 34 14 35
REMARK SMILES IDX 15 36 50 37 16 38 55 39 49 40 51 41 17 42 54 43 48 44 47 45
REMARK SMILES IDX 18 47 40 48 25 49 39 50 26 51 29 52 38 53 52 54 27 55 28 56
REMARK SMILES IDX 37 58 53 59 30 60 19 61 20 62 24 63 21 64 23 65 22 66 41 67
REMARK SMILES IDX 42 68 46 69 43 70 45 71 44 72 31 73 32 74 36 75 33 76 35 77
REMARK SMILES IDX 34 78
REMARK H PARENT 3 5 62 13 7 27 51 46 29 57
REMARK Flexibility Score: inf
ROOT
ATOM      1  C   UNL A   1      31.193  30.161  24.955  1.00  0.00     0.118 C 
ENDROOT
BRANCH   1   2
ATOM      2  N   UNL A   1      30.472  30.444  23.724  1.00  0.00    -0.352 N 
ATOM      3  O   UNL A   1      29.660  30.028  21.665  1.00  0.00    -0.269 OA
ATOM      4  C   UNL A   1      30.060  29.585  22.740  1.00  0.00     0.251 C 
ATOM      5  H   UNL A   1      30.248  31.391  23.576  1.00  0.00     0.163 HD
BRANCH   4   6
ATOM      6  C   UNL A   1      30.117  28.127  22.958  1.00  0.00     0.039 A 
ATOM      7  C   UNL A   1      29.105  27.453  23.650  1.00  0.00     0.016 A 
ATOM      8  C   UNL A   1      31.192  27.417  22.429  1.00  0.00     0.016 A 
ATOM      9  C   UNL A   1      29.214  26.082  23.891  1.00  0.00     0.027 A 
ATOM     10  C   UNL A   1      31.273  26.041  22.641  1.00  0.00     0.027 A 
ATOM     11  C   UNL A   1      30.288  25.356  23.375  1.00  0.00     0.038 A 
BRANCH  11  12
ATOM     12  N   UNL A   1      30.486  23.988  23.611  1.00  0.00    -0.362 N 
ATOM     13  H   UNL A   1      29.719  23.413  23.391  1.00  0.00     0.166 HD
BRANCH  12  14
ATOM     14  C   UNL A   1      31.582  23.330  24.101  1.00  0.00     0.087 C 
ATOM     15  C   UNL A   1      32.174  23.446  25.300  1.00  0.00     0.074 C 
BRANCH  15  16
ATOM     16  C   UNL A   1      31.763  24.325  26.439  1.00  0.00     0.222 C 
ATOM     17  O   UNL A   1      31.054  23.823  27.310  1.00  0.00    -0.286 OA
BRANCH  16  18
ATOM     18  C   UNL A   1      32.206  25.703  26.465  1.00  0.00     0.173 A 
ATOM     19  C   UNL A   1      33.310  26.341  25.923  1.00  0.00     0.054 A 
ATOM     20  O   UNL A   1      31.496  26.596  27.221  1.00  0.00    -0.461 OA
ATOM     21  C   UNL A   1      33.288  27.672  26.406  1.00  0.00     0.043 A 
ATOM     22  C   UNL A   1      32.163  27.777  27.188  1.00  0.00     0.196 A 
ENDBRANCH  16  18
ENDBRANCH  15  16
ENDBRANCH  12  14
ENDBRANCH  11  12
ENDBRANCH   4   6
ENDBRANCH   1   2
BRANCH   1  23
ATOM     23  C   UNL A   1      30.953  31.218  26.022  1.00  0.00     0.042 C 
BRANCH  23  24
ATOM     24  C   UNL A   1      32.216  31.713  26.708  1.00  0.00     0.118 C 
BRANCH  24  25
ATOM     25  N   UNL A   1      32.131  33.109  27.113  1.00  0.00    -0.352 N 
ATOM     26  C   UNL A   1      32.918  33.840  27.966  1.00  0.00     0.251 C 
ATOM     27  H   UNL A   1      31.386  33.610  26.709  1.00  0.00     0.163 HD
ATOM     28  O   UNL A   1      32.558  34.963  28.306  1.00  0.00    -0.269 OA
BRANCH  26  29
ATOM     29  C   UNL A   1      34.182  33.281  28.494  1.00  0.00     0.039 A 
ATOM     30  C   UNL A   1      35.377  33.592  27.838  1.00  0.00     0.014 A 
ATOM     31  C   UNL A   1      34.199  32.432  29.602  1.00  0.00     0.014 A 
ATOM     32  C   UNL A   1      36.586  33.096  28.327  1.00  0.00     0.010 A 
ATOM     33  C   UNL A   1      35.411  32.020  30.146  1.00  0.00     0.010 A 
ATOM     34  C   UNL A   1      36.617  32.331  29.504  1.00  0.00    -0.014 A 
BRANCH  34  35
ATOM     35  C   UNL A   1      37.900  31.831  30.060  1.00  0.00     0.031 A 
ATOM     36  C   UNL A   1      38.506  30.555  29.539  1.00  0.00     0.074 A 
ATOM     37  C   UNL A   1      38.494  32.497  31.068  1.00  0.00     0.049 A 
ATOM     38  N   UNL A   1      39.605  29.951  29.915  1.00  0.00    -0.248 NA
ATOM     39  C   UNL A   1      37.769  29.851  28.478  1.00  0.00     0.031 C 
ATOM     40  C   UNL A   1      37.983  33.717  31.699  1.00  0.00     0.029 A 
ATOM     41  N   UNL A   1      39.661  32.239  31.742  1.00  0.00    -0.354 N 
ATOM     42  C   UNL A   1      39.677  28.791  29.153  1.00  0.00     0.074 A 
ATOM     43  C   UNL A   1      38.484  28.747  28.336  1.00  0.00     0.031 C 
ATOM     44  C   UNL A   1      38.850  34.120  32.642  1.00  0.00     0.029 A 
ATOM     45  C   UNL A   1      39.954  33.169  32.711  1.00  0.00     0.049 A 
ATOM     46  H   UNL A   1      40.234  31.462  31.551  1.00  0.00     0.167 HD
ATOM     47  C   UNL A   1      40.656  27.856  29.118  1.00  0.00     0.031 A 
ATOM     48  C   UNL A   1      40.996  33.248  33.559  1.00  0.00     0.031 A 
ATOM     49  C   UNL A   1      41.849  27.908  29.919  1.00  0.00     0.049 A 
ATOM     50  C   UNL A   1      42.074  32.203  33.498  1.00  0.00     0.074 A 
ATOM     51  C   UNL A   1      42.932  27.047  29.909  1.00  0.00     0.029 A 
ATOM     52  N   UNL A   1      42.114  28.873  30.877  1.00  0.00    -0.354 N 
ATOM     53  N   UNL A   1      42.166  31.156  32.714  1.00  0.00    -0.248 NA
ATOM     54  C   UNL A   1      43.199  32.360  34.429  1.00  0.00     0.031 C 
ATOM     55  C   UNL A   1      43.828  27.460  30.901  1.00  0.00     0.029 A 
ATOM     56  C   UNL A   1      43.332  28.614  31.484  1.00  0.00     0.049 A 
ATOM     57  H   UNL A   1      41.524  29.632  31.095  1.00  0.00     0.167 HD
ATOM     58  C   UNL A   1      43.372  30.546  33.037  1.00  0.00     0.074 A 
ATOM     59  C   UNL A   1      43.983  31.351  34.074  1.00  0.00     0.031 C 
ATOM     60  C   UNL A   1      43.924  29.422  32.520  1.00  0.00     0.031 A 
BRANCH  47  61
ATOM     61  C   UNL A   1      40.470  26.692  28.184  1.00  0.00    -0.014 A 
ATOM     62  C   UNL A   1      39.763  25.544  28.577  1.00  0.00     0.009 A 
ATOM     63  C   UNL A   1      40.988  26.754  26.880  1.00  0.00     0.009 A 
ATOM     64  C   UNL A   1      39.615  24.467  27.699  1.00  0.00     0.001 A 
ATOM     65  C   UNL A   1      40.809  25.690  25.994  1.00  0.00     0.001 A 
ATOM     66  C   UNL A   1      40.134  24.543  26.408  1.00  0.00     0.000 A 
ENDBRANCH  47  61
BRANCH  48  67
ATOM     67  C   UNL A   1      41.082  34.373  34.527  1.00  0.00    -0.014 A 
ATOM     68  C   UNL A   1      41.753  35.558  34.187  1.00  0.00     0.009 A 
ATOM     69  C   UNL A   1      40.492  34.269  35.797  1.00  0.00     0.009 A 
ATOM     70  C   UNL A   1      41.857  36.603  35.108  1.00  0.00     0.001 A 
ATOM     71  C   UNL A   1      40.570  35.327  36.704  1.00  0.00     0.001 A 
ATOM     72  C   UNL A   1      41.261  36.489  36.364  1.00  0.00     0.000 A 
ENDBRANCH  48  67
BRANCH  60  73
ATOM     73  C   UNL A   1      45.273  29.015  33.045  1.00  0.00    -0.014 A 
ATOM     74  C   UNL A   1      46.459  29.483  32.458  1.00  0.00     0.009 A 
ATOM     75  C   UNL A   1      45.354  28.174  34.166  1.00  0.00     0.009 A 
ATOM     76  C   UNL A   1      47.699  29.085  32.961  1.00  0.00     0.001 A 
ATOM     77  C   UNL A   1      46.595  27.804  34.687  1.00  0.00     0.001 A 
ATOM     78  C   UNL A   1      47.766  28.251  34.076  1.00  0.00     0.000 A 
ENDBRANCH  60  73
ENDBRANCH  34  35
ENDBRANCH  26  29
ENDBRANCH  24  25
ENDBRANCH  23  24
ENDBRANCH   1  23
TORSDOF 14
ENDMDL
MODEL 2
REMARK VINA RESULT:     -10.7      3.704      8.781
REMARK SMILES O=C(NCCCNC(=O)c1ccc(-c2c3nc(c(-c4ccccc4)c4ccc([nH]4)c(-c4ccccc4)c4nc(c(-c5ccccc5)c5ccc2[nH]5)C=C4)C=C3)cc1)c1ccc(N/C=C\C(=O)c2ccco2)cc1
REMARK SMILES IDX 4 1 3 2 1 3 2 4 58 6 59 7 73 8 60 9 72 10 61 11 62 12 63 14
REMARK SMILES IDX 64 15 65 16 66 17 67 18 68 19 71 20 69 21 70 22 5 23 6 24
REMARK SMILES IDX 7 25 8 26 9 28 10 29 11 30 57 31 12 32 56 33 13 34 14 35
REMARK SMILES IDX 15 36 50 37 16 38 55 39 49 40 51 41 17 42 54 43 48 44 47 45
REMARK SMILES IDX 18 47 40 48 25 49 39 50 26 51 29 52 38 53 52 54 27 55 28 56
REMARK SMILES IDX 37 58 53 59 30 60 19 61 20 62 24 63 21 64 23 65 22 66 41 67
REMARK SMILES IDX 42 68 46 69 43 70 45 71 44 72 31 73 32 74 36 75 33 76 35 77
REMARK SMILES IDX 34 78
REMARK H PARENT 3 5 62 13 7 27 51 46 29 57
REMARK Flexibility Score: inf
ROOT
ATOM      1  C   UNL A   1      35.974  20.417  24.989  1.00  0.00     0.118 C 
ENDROOT
BRANCH   1   2
ATOM      2  N   UNL A   1      35.075  19.281  24.871  1.00  0.00    -0.352 N 
ATOM      3  O   UNL A   1      33.115  18.178  24.989  1.00  0.00    -0.269 OA
ATOM      4  C   UNL A   1      33.705  19.250  24.876  1.00  0.00     0.251 C 
ATOM      5  H   UNL A   1      35.515  18.405  24.775  1.00  0.00     0.163 HD
BRANCH   4   6
ATOM      6  C   UNL A   1      32.937  20.505  24.767  1.00  0.00     0.039 A 
ATOM      7  C   UNL A   1      32.520  21.205  25.904  1.00  0.00     0.016 A 
ATOM      8  C   UNL A   1      32.658  21.006  23.499  1.00  0.00     0.016 A 
ATOM      9  C   UNL A   1      31.746  22.359  25.772  1.00  0.00     0.027 A 
ATOM     10  C   UNL A   1      31.917  22.181  23.375  1.00  0.00     0.027 A 
ATOM     11  C   UNL A   1      31.449  22.872  24.508  1.00  0.00     0.038 A 
BRANCH  11  12
ATOM     12  N   UNL A   1      30.643  24.000  24.296  1.00  0.00    -0.362 N 
ATOM     13  H   UNL A   1      29.724  23.923  24.639  1.00  0.00     0.166 HD
BRANCH  12  14
ATOM     14  C   UNL A   1      30.938  25.189  23.687  1.00  0.00     0.087 C 
ATOM     15  C   UNL A   1      31.100  26.404  24.233  1.00  0.00     0.074 C 
BRANCH  15  16
ATOM     16  C   UNL A   1      31.020  26.771  25.681  1.00  0.00     0.222 C 
ATOM     17  O   UNL A   1      30.443  25.984  26.431  1.00  0.00    -0.286 OA
BRANCH  16  18
ATOM     18  C   UNL A   1      31.611  28.015  26.129  1.00  0.00     0.173 A 
ATOM     19  C   UNL A   1      32.334  28.353  27.261  1.00  0.00     0.054 A 
ATOM     20  O   UNL A   1      31.383  29.142  25.386  1.00  0.00    -0.461 OA
ATOM     21  C   UNL A   1      32.518  29.756  27.223  1.00  0.00     0.043 A 
ATOM     22  C   UNL A   1      31.925  30.187  26.060  1.00  0.00     0.196 A 
ENDBRANCH  16  18
ENDBRANCH  15  16
ENDBRANCH  12  14
ENDBRANCH  11  12
ENDBRANCH   4   6
ENDBRANCH   1   2
BRANCH   1  23
ATOM     23  C   UNL A   1      37.411  20.057  24.643  1.00  0.00     0.042 C 
BRANCH  23  24
ATOM     24  C   UNL A   1      38.418  20.382  25.736  1.00  0.00     0.118 C 
BRANCH  24  25
ATOM     25  N   UNL A   1      39.522  19.434  25.788  1.00  0.00    -0.352 N 
ATOM     26  C   UNL A   1      40.847  19.625  26.086  1.00  0.00     0.251 C 
ATOM     27  H   UNL A   1      39.277  18.504  25.576  1.00  0.00     0.163 HD
ATOM     28  O   UNL A   1      41.646  18.712  25.895  1.00  0.00    -0.269 OA
BRANCH  26  29
ATOM     29  C   UNL A   1      41.325  20.922  26.614  1.00  0.00     0.039 A 
ATOM     30  C   UNL A   1      41.799  21.878  25.711  1.00  0.00     0.014 A 
ATOM     31  C   UNL A   1      41.342  21.190  27.983  1.00  0.00     0.014 A 
ATOM     32  C   UNL A   1      42.236  23.118  26.180  1.00  0.00     0.010 A 
ATOM     33  C   UNL A   1      41.683  22.459  28.441  1.00  0.00     0.010 A 
ATOM     34  C   UNL A   1      42.153  23.431  27.546  1.00  0.00    -0.014 A 
BRANCH  34  35
ATOM     35  C   UNL A   1      42.574  24.760  28.056  1.00  0.00     0.031 A 
ATOM     36  C   UNL A   1      41.552  25.841  28.289  1.00  0.00     0.074 A 
ATOM     37  C   UNL A   1      43.880  25.012  28.262  1.00  0.00     0.049 A 
ATOM     38  N   UNL A   1      41.731  27.068  28.709  1.00  0.00    -0.248 NA
ATOM     39  C   UNL A   1      40.151  25.511  27.985  1.00  0.00     0.031 C 
ATOM     40  C   UNL A   1      44.976  24.068  28.025  1.00  0.00     0.029 A 
ATOM     41  N   UNL A   1      44.510  26.143  28.718  1.00  0.00    -0.354 N 
ATOM     42  C   UNL A   1      40.472  27.658  28.697  1.00  0.00     0.074 A 
ATOM     43  C   UNL A   1      39.549  26.674  28.176  1.00  0.00     0.031 C 
ATOM     44  C   UNL A   1      46.137  24.647  28.371  1.00  0.00     0.029 A 
ATOM     45  C   UNL A   1      45.875  26.012  28.815  1.00  0.00     0.049 A 
ATOM     46  H   UNL A   1      44.031  26.970  28.952  1.00  0.00     0.167 HD
ATOM     47  C   UNL A   1      40.112  28.898  29.104  1.00  0.00     0.031 A 
ATOM     48  C   UNL A   1      46.810  26.891  29.218  1.00  0.00     0.031 A 
ATOM     49  C   UNL A   1      41.027  29.871  29.636  1.00  0.00     0.049 A 
ATOM     50  C   UNL A   1      46.386  28.260  29.670  1.00  0.00     0.074 A 
ATOM     51  C   UNL A   1      40.751  31.131  30.138  1.00  0.00     0.029 A 
ATOM     52  N   UNL A   1      42.398  29.694  29.731  1.00  0.00    -0.354 N 
ATOM     53  N   UNL A   1      45.181  28.773  29.730  1.00  0.00    -0.248 NA
ATOM     54  C   UNL A   1      47.450  29.164  30.126  1.00  0.00     0.031 C 
ATOM     55  C   UNL A   1      41.962  31.737  30.486  1.00  0.00     0.029 A 
ATOM     56  C   UNL A   1      42.986  30.832  30.259  1.00  0.00     0.049 A 
ATOM     57  H   UNL A   1      42.884  28.880  29.462  1.00  0.00     0.167 HD
ATOM     58  C   UNL A   1      45.338  30.049  30.256  1.00  0.00     0.074 A 
ATOM     59  C   UNL A   1      46.752  30.223  30.515  1.00  0.00     0.031 C 
ATOM     60  C   UNL A   1      44.396  30.992  30.504  1.00  0.00     0.031 A 
BRANCH  47  61
ATOM     61  C   UNL A   1      38.660  29.273  28.980  1.00  0.00    -0.014 A 
ATOM     62  C   UNL A   1      38.133  29.773  27.778  1.00  0.00     0.009 A 
ATOM     63  C   UNL A   1      37.799  29.099  30.075  1.00  0.00     0.009 A 
ATOM     64  C   UNL A   1      36.785  30.130  27.689  1.00  0.00     0.001 A 
ATOM     65  C   UNL A   1      36.445  29.425  29.973  1.00  0.00     0.001 A 
ATOM     66  C   UNL A   1      35.942  29.952  28.784  1.00  0.00     0.000 A 
ENDBRANCH  47  61
BRANCH  48  67
ATOM     67  C   UNL A   1      48.243  26.497  29.232  1.00  0.00    -0.014 A 
ATOM     68  C   UNL A   1      48.800  25.870  30.358  1.00  0.00     0.009 A 
ATOM     69  C   UNL A   1      49.063  26.743  28.119  1.00  0.00     0.009 A 
ATOM     70  C   UNL A   1      50.154  25.526  30.380  1.00  0.00     0.001 A 
ATOM     71  C   UNL A   1      50.408  26.369  28.132  1.00  0.00     0.001 A 
ATOM     72  C   UNL A   1      50.955  25.771  29.265  1.00  0.00     0.000 A 
ENDBRANCH  48  67
BRANCH  60  73
ATOM     73  C   UNL A   1      44.862  32.283  31.117  1.00  0.00    -0.014 A 
ATOM     74  C   UNL A   1      45.231  33.380  30.322  1.00  0.00     0.009 A 
ATOM     75  C   UNL A   1      44.902  32.412  32.514  1.00  0.00     0.009 A 
ATOM     76  C   UNL A   1      45.666  34.566  30.915  1.00  0.00     0.001 A 
ATOM     77  C   UNL A   1      45.307  33.610  33.105  1.00  0.00     0.001 A 
ATOM     78  C   UNL A   1      45.699  34.682  32.304  1.00  0.00     0.000 A 
ENDBRANCH  60  73
ENDBRANCH  34  35
ENDBRANCH  26  29
ENDBRANCH  24  25
ENDBRANCH  23  24
ENDBRANCH   1  23
TORSDOF 14
ENDMDL
MODEL 3
REMARK VINA RESULT:     -10.7      3.596      8.639
REMARK SMILES O=C(NCCCNC(=O)c1ccc(-c2c3nc(c(-c4ccccc4)c4ccc([nH]4)c(-c4ccccc4)c4nc(c(-c5ccccc5)c5ccc2[nH]5)C=C4)C=C3)cc1)c1ccc(N/C=C\C(=O)c2ccco2)cc1
REMARK SMILES IDX 4 1 3 2 1 3 2 4 58 6 59 7 73 8 60 9 72 10 61 11 62 12 63 14
REMARK SMILES IDX 64 15 65 16 66 17 67 18 68 19 71 20 69 21 70 22 5 23 6 24
REMARK SMILES IDX 7 25 8 26 9 28 10 29 11 30 57 31 12 32 56 33 13 34 14 35
REMARK SMILES IDX 15 36 50 37 16 38 55 39 49 40 51 41 17 42 54 43 48 44 47 45
REMARK SMILES IDX 18 47 40 48 25 49 39 50 26 51 29 52 38 53 52 54 27 55 28 56
REMARK SMILES IDX 37 58 53 59 30 60 19 61 20 62 24 63 21 64 23 65 22 66 41 67
REMARK SMILES IDX 42 68 46 69 43 70 45 71 44 72 31 73 32 74 36 75 33 76 35 77
REMARK SMILES IDX 34 78
REMARK H PARENT 3 5 62 13 7 27 51 46 29 57
REMARK Flexibility Score: inf
ROOT
ATOM      1  C   UNL A   1      36.003  20.512  24.907  1.00  0.00     0.118 C 
ENDROOT
BRANCH   1   2
ATOM      2  N   UNL A   1      34.917  19.550  25.005  1.00  0.00    -0.352 N 
ATOM      3  O   UNL A   1      32.809  18.847  25.369  1.00  0.00    -0.269 OA
ATOM      4  C   UNL A   1      33.565  19.767  25.064  1.00  0.00     0.251 C 
ATOM      5  H   UNL A   1      35.193  18.605  25.033  1.00  0.00     0.163 HD
BRANCH   4   6
ATOM      6  C   UNL A   1      33.018  21.108  24.786  1.00  0.00     0.039 A 
ATOM      7  C   UNL A   1      32.491  21.906  25.807  1.00  0.00     0.016 A 
ATOM      8  C   UNL A   1      33.064  21.587  23.480  1.00  0.00     0.016 A 
ATOM      9  C   UNL A   1      31.928  23.148  25.506  1.00  0.00     0.027 A 
ATOM     10  C   UNL A   1      32.535  22.845  23.194  1.00  0.00     0.027 A 
ATOM     11  C   UNL A   1      31.958  23.641  24.200  1.00  0.00     0.038 A 
BRANCH  11  12
ATOM     12  N   UNL A   1      31.376  24.857  23.815  1.00  0.00    -0.362 N 
ATOM     13  H   UNL A   1      31.623  25.170  22.915  1.00  0.00     0.166 HD
BRANCH  12  14
ATOM     14  C   UNL A   1      30.518  25.676  24.498  1.00  0.00     0.087 C 
ATOM     15  C   UNL A   1      29.993  26.853  24.125  1.00  0.00     0.074 C 
BRANCH  15  16
ATOM     16  C   UNL A   1      30.197  27.574  22.830  1.00  0.00     0.222 C 
ATOM     17  O   UNL A   1      31.050  27.127  22.065  1.00  0.00    -0.286 OA
BRANCH  16  18
ATOM     18  C   UNL A   1      29.399  28.747  22.541  1.00  0.00     0.173 A 
ATOM     19  C   UNL A   1      28.169  29.180  23.007  1.00  0.00     0.054 A 
ATOM     20  O   UNL A   1      29.837  29.601  21.565  1.00  0.00    -0.461 OA
ATOM     21  C   UNL A   1      27.827  30.327  22.250  1.00  0.00     0.043 A 
ATOM     22  C   UNL A   1      28.877  30.543  21.390  1.00  0.00     0.196 A 
ENDBRANCH  16  18
ENDBRANCH  15  16
ENDBRANCH  12  14
ENDBRANCH  11  12
ENDBRANCH   4   6
ENDBRANCH   1   2
BRANCH   1  23
ATOM     23  C   UNL A   1      37.354  19.841  24.708  1.00  0.00     0.042 C 
BRANCH  23  24
ATOM     24  C   UNL A   1      38.412  20.255  25.718  1.00  0.00     0.118 C 
BRANCH  24  25
ATOM     25  N   UNL A   1      39.571  19.374  25.718  1.00  0.00    -0.352 N 
ATOM     26  C   UNL A   1      40.888  19.631  26.000  1.00  0.00     0.251 C 
ATOM     27  H   UNL A   1      39.377  18.439  25.476  1.00  0.00     0.163 HD
ATOM     28  O   UNL A   1      41.735  18.775  25.764  1.00  0.00    -0.269 OA
BRANCH  26  29
ATOM     29  C   UNL A   1      41.299  20.935  26.567  1.00  0.00     0.039 A 
ATOM     30  C   UNL A   1      41.817  21.906  25.706  1.00  0.00     0.014 A 
ATOM     31  C   UNL A   1      41.211  21.196  27.936  1.00  0.00     0.014 A 
ATOM     32  C   UNL A   1      42.193  23.152  26.211  1.00  0.00     0.010 A 
ATOM     33  C   UNL A   1      41.490  22.468  28.423  1.00  0.00     0.010 A 
ATOM     34  C   UNL A   1      42.004  23.455  27.569  1.00  0.00    -0.014 A 
BRANCH  34  35
ATOM     35  C   UNL A   1      42.359  24.790  28.114  1.00  0.00     0.031 A 
ATOM     36  C   UNL A   1      43.778  25.092  28.515  1.00  0.00     0.074 A 
ATOM     37  C   UNL A   1      41.396  25.713  28.295  1.00  0.00     0.049 A 
ATOM     38  N   UNL A   1      44.274  26.189  29.028  1.00  0.00    -0.248 NA
ATOM     39  C   UNL A   1      44.764  24.013  28.343  1.00  0.00     0.031 C 
ATOM     40  C   UNL A   1      39.973  25.529  27.996  1.00  0.00     0.029 A 
ATOM     41  N   UNL A   1      41.470  26.997  28.777  1.00  0.00    -0.354 N 
ATOM     42  C   UNL A   1      45.619  25.923  29.259  1.00  0.00     0.074 A 
ATOM     43  C   UNL A   1      45.848  24.546  28.884  1.00  0.00     0.031 C 
ATOM     44  C   UNL A   1      39.316  26.668  28.268  1.00  0.00     0.029 A 
ATOM     45  C   UNL A   1      40.259  27.648  28.796  1.00  0.00     0.049 A 
ATOM     46  H   UNL A   1      42.309  27.411  29.081  1.00  0.00     0.167 HD
ATOM     47  C   UNL A   1      46.582  26.755  29.721  1.00  0.00     0.031 A 
ATOM     48  C   UNL A   1      39.944  28.894  29.193  1.00  0.00     0.031 A 
ATOM     49  C   UNL A   1      46.358  28.129  30.080  1.00  0.00     0.049 A 
ATOM     50  C   UNL A   1      41.031  29.801  29.696  1.00  0.00     0.074 A 
ATOM     51  C   UNL A   1      47.280  29.074  30.494  1.00  0.00     0.029 A 
ATOM     52  N   UNL A   1      45.120  28.754  30.072  1.00  0.00    -0.354 N 
ATOM     53  N   UNL A   1      42.313  29.560  29.831  1.00  0.00    -0.248 NA
ATOM     54  C   UNL A   1      40.630  31.159  30.087  1.00  0.00     0.031 C 
ATOM     55  C   UNL A   1      46.592  30.256  30.789  1.00  0.00     0.029 A 
ATOM     56  C   UNL A   1      45.251  30.065  30.499  1.00  0.00     0.049 A 
ATOM     57  H   UNL A   1      44.273  28.330  29.802  1.00  0.00     0.167 HD
ATOM     58  C   UNL A   1      42.875  30.742  30.294  1.00  0.00     0.074 A 
ATOM     59  C   UNL A   1      41.798  31.704  30.399  1.00  0.00     0.031 C 
ATOM     60  C   UNL A   1      44.167  31.009  30.604  1.00  0.00     0.031 A 
BRANCH  47  61
ATOM     61  C   UNL A   1      47.970  26.193  29.870  1.00  0.00    -0.014 A 
ATOM     62  C   UNL A   1      48.840  26.091  28.772  1.00  0.00     0.009 A 
ATOM     63  C   UNL A   1      48.423  25.782  31.133  1.00  0.00     0.009 A 
ATOM     64  C   UNL A   1      50.118  25.551  28.929  1.00  0.00     0.001 A 
ATOM     65  C   UNL A   1      49.714  25.273  31.293  1.00  0.00     0.001 A 
ATOM     66  C   UNL A   1      50.556  25.147  30.189  1.00  0.00     0.000 A 
ENDBRANCH  47  61
BRANCH  48  67
ATOM     67  C   UNL A   1      38.537  29.366  29.111  1.00  0.00    -0.014 A 
ATOM     68  C   UNL A   1      37.686  29.270  30.223  1.00  0.00     0.009 A 
ATOM     69  C   UNL A   1      38.038  29.917  27.919  1.00  0.00     0.009 A 
ATOM     70  C   UNL A   1      36.356  29.688  30.134  1.00  0.00     0.001 A 
ATOM     71  C   UNL A   1      36.717  30.363  27.844  1.00  0.00     0.001 A 
ATOM     72  C   UNL A   1      35.874  30.239  28.947  1.00  0.00     0.000 A 
ENDBRANCH  48  67
BRANCH  60  73
ATOM     73  C   UNL A   1      44.492  32.406  31.053  1.00  0.00    -0.014 A 
ATOM     74  C   UNL A   1      44.437  32.772  32.407  1.00  0.00     0.009 A 
ATOM     75  C   UNL A   1      44.889  33.363  30.106  1.00  0.00     0.009 A 
ATOM     76  C   UNL A   1      44.737  34.078  32.798  1.00  0.00     0.001 A 
ATOM     77  C   UNL A   1      45.220  34.660  30.503  1.00  0.00     0.001 A 
ATOM     78  C   UNL A   1      45.132  35.018  31.847  1.00  0.00     0.000 A 
ENDBRANCH  60  73
ENDBRANCH  34  35
ENDBRANCH  26  29
ENDBRANCH  24  25
ENDBRANCH  23  24
ENDBRANCH   1  23
TORSDOF 14
ENDMDL
