MODEL 1
REMARK VINA RESULT:     -11.6      0.000      0.000
REMARK SMILES N#Cc1ccc2c(c1)C=C(C(=O)NCCCNC(=O)c1ccc(-c3c4nc(c(-c5ccccc5)c5ccc([nH]5)c(-c5ccccc5)c5nc(c(-c6ccccc6)c6ccc3[nH]6)C=C5)C=C4)cc1)[C@@H](C(F)(F)F)O2
REMARK SMILES IDX 15 1 14 2 13 3 11 4 12 5 10 7 3 8 4 9 8 10 5 11 7 12 6 13
REMARK SMILES IDX 9 14 73 15 68 16 2 17 1 18 69 19 70 20 71 21 72 22 16 23
REMARK SMILES IDX 17 24 18 25 19 27 20 28 21 29 67 30 22 31 66 32 23 33 24 34
REMARK SMILES IDX 25 35 60 36 26 37 65 38 59 39 61 40 27 41 64 42 58 43 57 44
REMARK SMILES IDX 28 46 50 47 35 48 49 49 36 50 39 51 48 52 62 53 37 54 38 55
REMARK SMILES IDX 47 57 63 58 40 59 29 60 30 61 34 62 31 63 33 64 32 65 51 66
REMARK SMILES IDX 52 67 56 68 53 69 55 70 54 71 41 72 42 73 46 74 43 75 45 76
REMARK SMILES IDX 44 77
REMARK H PARENT 13 6 17 26 61 45 39 56
REMARK Flexibility Score: inf
ROOT
ATOM      1  C   UNL A   1      33.809  28.578  26.036  1.00  0.00     0.042 C 
ENDROOT
BRANCH   1   2
ATOM      2  C   UNL A   1      33.820  27.066  25.925  1.00  0.00     0.118 C 
BRANCH   2   3
ATOM      3  N   UNL A   1      33.874  26.624  24.539  1.00  0.00    -0.352 N 
ATOM      4  C   UNL A   1      33.047  26.622  23.466  1.00  0.00     0.251 C 
ATOM      5  O   UNL A   1      33.522  26.147  22.431  1.00  0.00    -0.270 OA
ATOM      6  H   UNL A   1      34.744  26.218  24.324  1.00  0.00     0.163 HD
BRANCH   4   7
ATOM      7  C   UNL A   1      31.648  27.140  23.472  1.00  0.00     0.067 C 
ATOM      8  C   UNL A   1      28.588  30.830  22.838  1.00  0.00     0.053 A 
ATOM      9  C   UNL A   1      27.507  29.953  22.983  1.00  0.00     0.023 A 
ATOM     10  C   UNL A   1      29.902  30.342  22.891  1.00  0.00     0.031 A 
ATOM     11  C   UNL A   1      27.737  28.594  23.179  1.00  0.00     0.048 A 
ATOM     12  C   UNL A   1      30.133  28.978  23.093  1.00  0.00     0.018 A 
ATOM     13  C   UNL A   1      29.043  28.118  23.240  1.00  0.00     0.128 A 
ATOM     14  C   UNL A   1      31.484  28.426  23.108  1.00  0.00     0.025 C 
ATOM     15  O   UNL A   1      29.179  26.772  23.401  1.00  0.00    -0.475 OA
ATOM     16  C   UNL A   1      30.466  26.311  23.878  1.00  0.00     0.314 C 
BRANCH   8  17
ATOM     17  C   UNL A   1      28.342  32.224  22.621  1.00  0.00     0.099 C 
ATOM     18  N   UNL A   1      28.156  33.358  22.444  1.00  0.00    -0.192 NA
ENDBRANCH   8  17
BRANCH  16  19
ATOM     19  C   UNL A   1      30.394  26.096  25.405  1.00  0.00     0.429 C 
ATOM     20  F   UNL A   1      30.709  27.244  26.055  1.00  0.00    -0.167 F 
ATOM     21  F   UNL A   1      29.157  25.745  25.828  1.00  0.00    -0.167 F 
ATOM     22  F   UNL A   1      31.240  25.136  25.837  1.00  0.00    -0.167 F 
ENDBRANCH  16  19
ENDBRANCH   4   7
ENDBRANCH   2   3
ENDBRANCH   1   2
BRANCH   1  23
ATOM     23  C   UNL A   1      33.215  29.033  27.357  1.00  0.00     0.118 C 
BRANCH  23  24
ATOM     24  N   UNL A   1      33.479  30.449  27.624  1.00  0.00    -0.352 N 
ATOM     25  C   UNL A   1      34.580  31.067  28.165  1.00  0.00     0.251 C 
ATOM     26  H   UNL A   1      32.745  31.058  27.377  1.00  0.00     0.163 HD
ATOM     27  O   UNL A   1      34.521  32.240  28.518  1.00  0.00    -0.269 OA
BRANCH  25  28
ATOM     28  C   UNL A   1      35.823  30.294  28.345  1.00  0.00     0.039 A 
ATOM     29  C   UNL A   1      36.048  29.631  29.547  1.00  0.00     0.014 A 
ATOM     30  C   UNL A   1      36.792  30.289  27.341  1.00  0.00     0.014 A 
ATOM     31  C   UNL A   1      37.329  29.212  29.855  1.00  0.00     0.010 A 
ATOM     32  C   UNL A   1      38.038  29.714  27.599  1.00  0.00     0.010 A 
ATOM     33  C   UNL A   1      38.342  29.238  28.883  1.00  0.00    -0.014 A 
BRANCH  33  34
ATOM     34  C   UNL A   1      39.699  28.765  29.252  1.00  0.00     0.031 A 
ATOM     35  C   UNL A   1      40.206  27.425  28.788  1.00  0.00     0.074 A 
ATOM     36  C   UNL A   1      40.505  29.590  29.950  1.00  0.00     0.049 A 
ATOM     37  N   UNL A   1      41.378  26.880  28.991  1.00  0.00    -0.248 NA
ATOM     38  C   UNL A   1      39.287  26.584  28.003  1.00  0.00     0.031 C 
ATOM     39  C   UNL A   1      40.131  30.924  30.428  1.00  0.00     0.029 A 
ATOM     40  N   UNL A   1      41.811  29.452  30.345  1.00  0.00    -0.354 N 
ATOM     41  C   UNL A   1      41.329  25.632  28.382  1.00  0.00     0.074 A 
ATOM     42  C   UNL A   1      40.000  25.479  27.834  1.00  0.00     0.031 C 
ATOM     43  C   UNL A   1      41.201  31.510  30.978  1.00  0.00     0.029 A 
ATOM     44  C   UNL A   1      42.306  30.560  30.991  1.00  0.00     0.049 A 
ATOM     45  H   UNL A   1      42.343  28.640  30.182  1.00  0.00     0.167 HD
ATOM     46  C   UNL A   1      42.311  24.706  28.278  1.00  0.00     0.031 A 
ATOM     47  C   UNL A   1      43.507  30.789  31.555  1.00  0.00     0.031 A 
ATOM     48  C   UNL A   1      43.637  24.877  28.815  1.00  0.00     0.049 A 
ATOM     49  C   UNL A   1      44.556  29.719  31.478  1.00  0.00     0.074 A 
ATOM     50  C   UNL A   1      44.707  24.003  28.738  1.00  0.00     0.029 A 
ATOM     51  N   UNL A   1      44.074  25.985  29.524  1.00  0.00    -0.354 N 
ATOM     52  N   UNL A   1      44.500  28.554  30.879  1.00  0.00    -0.248 NA
ATOM     53  C   UNL A   1      45.835  29.993  32.145  1.00  0.00     0.031 C 
ATOM     54  C   UNL A   1      45.760  24.540  29.479  1.00  0.00     0.029 A 
ATOM     55  C   UNL A   1      45.388  25.798  29.924  1.00  0.00     0.049 A 
ATOM     56  H   UNL A   1      43.533  26.786  29.714  1.00  0.00     0.167 HD
ATOM     57  C   UNL A   1      45.743  27.967  31.072  1.00  0.00     0.074 A 
ATOM     58  C   UNL A   1      46.540  28.916  31.824  1.00  0.00     0.031 C 
ATOM     59  C   UNL A   1      46.178  26.750  30.666  1.00  0.00     0.031 A 
BRANCH  46  60
ATOM     60  C   UNL A   1      42.010  23.411  27.566  1.00  0.00    -0.014 A 
ATOM     61  C   UNL A   1      41.440  22.343  28.280  1.00  0.00     0.009 A 
ATOM     62  C   UNL A   1      42.401  23.198  26.235  1.00  0.00     0.009 A 
ATOM     63  C   UNL A   1      41.299  21.085  27.691  1.00  0.00     0.001 A 
ATOM     64  C   UNL A   1      42.222  21.948  25.635  1.00  0.00     0.001 A 
ATOM     65  C   UNL A   1      41.688  20.889  26.368  1.00  0.00     0.000 A 
ENDBRANCH  46  60
BRANCH  47  66
ATOM     66  C   UNL A   1      43.758  32.094  32.225  1.00  0.00    -0.014 A 
ATOM     67  C   UNL A   1      44.332  33.163  31.513  1.00  0.00     0.009 A 
ATOM     68  C   UNL A   1      43.499  32.260  33.593  1.00  0.00     0.009 A 
ATOM     69  C   UNL A   1      44.685  34.347  32.165  1.00  0.00     0.001 A 
ATOM     70  C   UNL A   1      43.811  33.463  34.233  1.00  0.00     0.001 A 
ATOM     71  C   UNL A   1      44.419  34.498  33.522  1.00  0.00     0.000 A 
ENDBRANCH  47  66
BRANCH  59  72
ATOM     72  C   UNL A   1      47.597  26.357  30.993  1.00  0.00    -0.014 A 
ATOM     73  C   UNL A   1      48.595  26.482  30.011  1.00  0.00     0.009 A 
ATOM     74  C   UNL A   1      47.926  25.756  32.217  1.00  0.00     0.009 A 
ATOM     75  C   UNL A   1      49.880  25.988  30.234  1.00  0.00     0.001 A 
ATOM     76  C   UNL A   1      49.226  25.304  32.456  1.00  0.00     0.001 A 
ATOM     77  C   UNL A   1      50.196  25.405  31.459  1.00  0.00     0.000 A 
ENDBRANCH  59  72
ENDBRANCH  33  34
ENDBRANCH  25  28
ENDBRANCH  23  24
ENDBRANCH   1  23
TORSDOF 12
ENDMDL
MODEL 2
REMARK VINA RESULT:     -11.5      2.048      3.963
REMARK SMILES N#Cc1ccc2c(c1)C=C(C(=O)NCCCNC(=O)c1ccc(-c3c4nc(c(-c5ccccc5)c5ccc([nH]5)c(-c5ccccc5)c5nc(c(-c6ccccc6)c6ccc3[nH]6)C=C5)C=C4)cc1)[C@@H](C(F)(F)F)O2
REMARK SMILES IDX 15 1 14 2 13 3 11 4 12 5 10 7 3 8 4 9 8 10 5 11 7 12 6 13
REMARK SMILES IDX 9 14 73 15 68 16 2 17 1 18 69 19 70 20 71 21 72 22 16 23
REMARK SMILES IDX 17 24 18 25 19 27 20 28 21 29 67 30 22 31 66 32 23 33 24 34
REMARK SMILES IDX 25 35 60 36 26 37 65 38 59 39 61 40 27 41 64 42 58 43 57 44
REMARK SMILES IDX 28 46 50 47 35 48 49 49 36 50 39 51 48 52 62 53 37 54 38 55
REMARK SMILES IDX 47 57 63 58 40 59 29 60 30 61 34 62 31 63 33 64 32 65 51 66
REMARK SMILES IDX 52 67 56 68 53 69 55 70 54 71 41 72 42 73 46 74 43 75 45 76
REMARK SMILES IDX 44 77
REMARK H PARENT 13 6 17 26 61 45 39 56
REMARK Flexibility Score: inf
ROOT
ATOM      1  C   UNL A   1      33.721  29.122  25.834  1.00  0.00     0.042 C 
ENDROOT
BRANCH   1   2
ATOM      2  C   UNL A   1      32.396  29.086  25.098  1.00  0.00     0.118 C 
BRANCH   2   3
ATOM      3  N   UNL A   1      31.494  28.087  25.652  1.00  0.00    -0.352 N 
ATOM      4  C   UNL A   1      31.394  26.736  25.658  1.00  0.00     0.251 C 
ATOM      5  O   UNL A   1      30.443  26.278  26.296  1.00  0.00    -0.270 OA
ATOM      6  H   UNL A   1      30.760  28.505  26.157  1.00  0.00     0.163 HD
BRANCH   4   7
ATOM      7  C   UNL A   1      32.334  25.813  24.959  1.00  0.00     0.067 C 
ATOM      8  C   UNL A   1      36.442  23.261  25.001  1.00  0.00     0.053 A 
ATOM      9  C   UNL A   1      36.085  22.675  23.781  1.00  0.00     0.023 A 
ATOM     10  C   UNL A   1      35.576  24.173  25.624  1.00  0.00     0.031 A 
ATOM     11  C   UNL A   1      34.869  22.996  23.186  1.00  0.00     0.048 A 
ATOM     12  C   UNL A   1      34.357  24.500  25.023  1.00  0.00     0.018 A 
ATOM     13  C   UNL A   1      34.019  23.909  23.803  1.00  0.00     0.128 A 
ATOM     14  C   UNL A   1      33.410  25.409  25.661  1.00  0.00     0.025 C 
ATOM     15  O   UNL A   1      32.835  24.142  23.171  1.00  0.00    -0.475 OA
ATOM     16  C   UNL A   1      32.138  25.356  23.544  1.00  0.00     0.314 C 
BRANCH   8  17
ATOM     17  C   UNL A   1      37.688  22.913  25.615  1.00  0.00     0.099 C 
ATOM     18  N   UNL A   1      38.705  22.631  26.102  1.00  0.00    -0.192 NA
ENDBRANCH   8  17
BRANCH  16  19
ATOM     19  C   UNL A   1      32.461  26.462  22.518  1.00  0.00     0.429 C 
ATOM     20  F   UNL A   1      33.595  27.116  22.874  1.00  0.00    -0.167 F 
ATOM     21  F   UNL A   1      32.676  25.977  21.272  1.00  0.00    -0.167 F 
ATOM     22  F   UNL A   1      31.476  27.380  22.414  1.00  0.00    -0.167 F 
ENDBRANCH  16  19
ENDBRANCH   4   7
ENDBRANCH   2   3
ENDBRANCH   1   2
BRANCH   1  23
ATOM     23  C   UNL A   1      33.519  29.130  27.339  1.00  0.00     0.118 C 
BRANCH  23  24
ATOM     24  N   UNL A   1      33.716  30.462  27.917  1.00  0.00    -0.352 N 
ATOM     25  C   UNL A   1      34.781  30.989  28.607  1.00  0.00     0.251 C 
ATOM     26  H   UNL A   1      32.960  31.080  27.792  1.00  0.00     0.163 HD
ATOM     27  O   UNL A   1      34.664  32.052  29.208  1.00  0.00    -0.269 OA
BRANCH  25  28
ATOM     28  C   UNL A   1      36.053  30.246  28.643  1.00  0.00     0.039 A 
ATOM     29  C   UNL A   1      36.393  29.525  29.784  1.00  0.00     0.014 A 
ATOM     30  C   UNL A   1      36.937  30.325  27.566  1.00  0.00     0.014 A 
ATOM     31  C   UNL A   1      37.705  29.129  29.964  1.00  0.00     0.010 A 
ATOM     32  C   UNL A   1      38.215  29.774  27.691  1.00  0.00     0.010 A 
ATOM     33  C   UNL A   1      38.634  29.239  28.918  1.00  0.00    -0.014 A 
BRANCH  33  34
ATOM     34  C   UNL A   1      40.029  28.788  29.150  1.00  0.00     0.031 A 
ATOM     35  C   UNL A   1      40.489  27.428  28.697  1.00  0.00     0.074 A 
ATOM     36  C   UNL A   1      40.904  29.648  29.708  1.00  0.00     0.049 A 
ATOM     37  N   UNL A   1      41.682  26.896  28.789  1.00  0.00    -0.248 NA
ATOM     38  C   UNL A   1      39.492  26.546  28.065  1.00  0.00     0.031 C 
ATOM     39  C   UNL A   1      40.577  31.004  30.159  1.00  0.00     0.029 A 
ATOM     40  N   UNL A   1      42.247  29.534  29.955  1.00  0.00    -0.354 N 
ATOM     41  C   UNL A   1      41.573  25.619  28.252  1.00  0.00     0.074 A 
ATOM     42  C   UNL A   1      40.191  25.436  27.870  1.00  0.00     0.031 C 
ATOM     43  C   UNL A   1      41.698  31.619  30.552  1.00  0.00     0.029 A 
ATOM     44  C   UNL A   1      42.805  30.674  30.484  1.00  0.00     0.049 A 
ATOM     45  H   UNL A   1      42.763  28.715  29.772  1.00  0.00     0.167 HD
ATOM     46  C   UNL A   1      42.543  24.691  28.080  1.00  0.00     0.031 A 
ATOM     47  C   UNL A   1      44.062  30.933  30.893  1.00  0.00     0.031 A 
ATOM     48  C   UNL A   1      43.922  24.892  28.451  1.00  0.00     0.049 A 
ATOM     49  C   UNL A   1      45.103  29.863  30.748  1.00  0.00     0.074 A 
ATOM     50  C   UNL A   1      44.983  24.018  28.294  1.00  0.00     0.029 A 
ATOM     51  N   UNL A   1      44.429  26.036  29.049  1.00  0.00    -0.354 N 
ATOM     52  N   UNL A   1      44.988  28.670  30.217  1.00  0.00    -0.248 NA
ATOM     53  C   UNL A   1      46.448  30.173  31.247  1.00  0.00     0.031 C 
ATOM     54  C   UNL A   1      46.110  24.594  28.880  1.00  0.00     0.029 A 
ATOM     55  C   UNL A   1      45.781  25.872  29.302  1.00  0.00     0.049 A 
ATOM     56  H   UNL A   1      43.907  26.844  29.260  1.00  0.00     0.167 HD
ATOM     57  C   UNL A   1      46.249  28.096  30.293  1.00  0.00     0.074 A 
ATOM     58  C   UNL A   1      47.120  29.084  30.900  1.00  0.00     0.031 C 
ATOM     59  C   UNL A   1      46.645  26.861  29.900  1.00  0.00     0.031 A 
BRANCH  46  60
ATOM     60  C   UNL A   1      42.173  23.362  27.473  1.00  0.00    -0.014 A 
ATOM     61  C   UNL A   1      41.638  22.351  28.289  1.00  0.00     0.009 A 
ATOM     62  C   UNL A   1      42.465  23.061  26.133  1.00  0.00     0.009 A 
ATOM     63  C   UNL A   1      41.436  21.062  27.791  1.00  0.00     0.001 A 
ATOM     64  C   UNL A   1      42.225  21.781  25.626  1.00  0.00     0.001 A 
ATOM     65  C   UNL A   1      41.727  20.779  26.458  1.00  0.00     0.000 A 
ENDBRANCH  46  60
BRANCH  47  66
ATOM     66  C   UNL A   1      44.377  32.271  31.464  1.00  0.00    -0.014 A 
ATOM     67  C   UNL A   1      44.204  32.520  32.837  1.00  0.00     0.009 A 
ATOM     68  C   UNL A   1      44.778  33.329  30.634  1.00  0.00     0.009 A 
ATOM     69  C   UNL A   1      44.378  33.804  33.358  1.00  0.00     0.001 A 
ATOM     70  C   UNL A   1      44.996  34.603  31.166  1.00  0.00     0.001 A 
ATOM     71  C   UNL A   1      44.779  34.843  32.523  1.00  0.00     0.000 A 
ENDBRANCH  47  66
BRANCH  59  72
ATOM     72  C   UNL A   1      48.095  26.489  30.079  1.00  0.00    -0.014 A 
ATOM     73  C   UNL A   1      48.993  26.665  29.013  1.00  0.00     0.009 A 
ATOM     74  C   UNL A   1      48.549  25.857  31.247  1.00  0.00     0.009 A 
ATOM     75  C   UNL A   1      50.302  26.192  29.098  1.00  0.00     0.001 A 
ATOM     76  C   UNL A   1      49.873  25.425  31.347  1.00  0.00     0.001 A 
ATOM     77  C   UNL A   1      50.743  25.578  30.268  1.00  0.00     0.000 A 
ENDBRANCH  59  72
ENDBRANCH  33  34
ENDBRANCH  25  28
ENDBRANCH  23  24
ENDBRANCH   1  23
TORSDOF 12
ENDMDL
MODEL 3
REMARK VINA RESULT:     -11.5      2.023      7.163
REMARK SMILES N#Cc1ccc2c(c1)C=C(C(=O)NCCCNC(=O)c1ccc(-c3c4nc(c(-c5ccccc5)c5ccc([nH]5)c(-c5ccccc5)c5nc(c(-c6ccccc6)c6ccc3[nH]6)C=C5)C=C4)cc1)[C@@H](C(F)(F)F)O2
REMARK SMILES IDX 15 1 14 2 13 3 11 4 12 5 10 7 3 8 4 9 8 10 5 11 7 12 6 13
REMARK SMILES IDX 9 14 73 15 68 16 2 17 1 18 69 19 70 20 71 21 72 22 16 23
REMARK SMILES IDX 17 24 18 25 19 27 20 28 21 29 67 30 22 31 66 32 23 33 24 34
REMARK SMILES IDX 25 35 60 36 26 37 65 38 59 39 61 40 27 41 64 42 58 43 57 44
REMARK SMILES IDX 28 46 50 47 35 48 49 49 36 50 39 51 48 52 62 53 37 54 38 55
REMARK SMILES IDX 47 57 63 58 40 59 29 60 30 61 34 62 31 63 33 64 32 65 51 66
REMARK SMILES IDX 52 67 56 68 53 69 55 70 54 71 41 72 42 73 46 74 43 75 45 76
REMARK SMILES IDX 44 77
REMARK H PARENT 13 6 17 26 61 45 39 56
REMARK Flexibility Score: inf
ROOT
ATOM      1  C   UNL A   1      33.752  28.984  25.807  1.00  0.00     0.042 C 
ENDROOT
BRANCH   1   2
ATOM      2  C   UNL A   1      32.452  29.076  25.033  1.00  0.00     0.118 C 
BRANCH   2   3
ATOM      3  N   UNL A   1      31.509  28.041  25.431  1.00  0.00    -0.352 N 
ATOM      4  C   UNL A   1      31.424  26.692  25.346  1.00  0.00     0.251 C 
ATOM      5  O   UNL A   1      30.417  26.191  25.854  1.00  0.00    -0.270 OA
ATOM      6  H   UNL A   1      30.723  28.423  25.882  1.00  0.00     0.163 HD
BRANCH   4   7
ATOM      7  C   UNL A   1      32.441  25.817  24.693  1.00  0.00     0.067 C 
ATOM      8  C   UNL A   1      36.586  23.344  24.984  1.00  0.00     0.053 A 
ATOM      9  C   UNL A   1      36.348  22.804  23.716  1.00  0.00     0.023 A 
ATOM     10  C   UNL A   1      35.651  24.212  25.567  1.00  0.00     0.031 A 
ATOM     11  C   UNL A   1      35.180  23.127  23.031  1.00  0.00     0.048 A 
ATOM     12  C   UNL A   1      34.479  24.542  24.877  1.00  0.00     0.018 A 
ATOM     13  C   UNL A   1      34.260  23.996  23.610  1.00  0.00     0.128 A 
ATOM     14  C   UNL A   1      33.462  25.404  25.468  1.00  0.00     0.025 C 
ATOM     15  O   UNL A   1      33.130  24.234  22.888  1.00  0.00    -0.475 OA
ATOM     16  C   UNL A   1      32.376  25.417  23.249  1.00  0.00     0.314 C 
BRANCH   8  17
ATOM     17  C   UNL A   1      37.783  22.994  25.689  1.00  0.00     0.099 C 
ATOM     18  N   UNL A   1      38.750  22.698  26.263  1.00  0.00    -0.192 NA
ENDBRANCH   8  17
BRANCH  16  19
ATOM     19  C   UNL A   1      32.761  26.572  22.300  1.00  0.00     0.429 C 
ATOM     20  F   UNL A   1      31.732  27.450  22.189  1.00  0.00    -0.167 F 
ATOM     21  F   UNL A   1      33.824  27.284  22.743  1.00  0.00    -0.167 F 
ATOM     22  F   UNL A   1      33.069  26.144  21.057  1.00  0.00    -0.167 F 
ENDBRANCH  16  19
ENDBRANCH   4   7
ENDBRANCH   2   3
ENDBRANCH   1   2
BRANCH   1  23
ATOM     23  C   UNL A   1      33.508  28.999  27.306  1.00  0.00     0.118 C 
BRANCH  23  24
ATOM     24  N   UNL A   1      33.662  30.338  27.879  1.00  0.00    -0.352 N 
ATOM     25  C   UNL A   1      34.718  30.907  28.550  1.00  0.00     0.251 C 
ATOM     26  H   UNL A   1      32.881  30.927  27.766  1.00  0.00     0.163 HD
ATOM     27  O   UNL A   1      34.572  31.966  29.151  1.00  0.00    -0.269 OA
BRANCH  25  28
ATOM     28  C   UNL A   1      36.019  30.213  28.564  1.00  0.00     0.039 A 
ATOM     29  C   UNL A   1      36.416  29.526  29.707  1.00  0.00     0.014 A 
ATOM     30  C   UNL A   1      36.871  30.307  27.463  1.00  0.00     0.014 A 
ATOM     31  C   UNL A   1      37.746  29.184  29.859  1.00  0.00     0.010 A 
ATOM     32  C   UNL A   1      38.172  29.808  27.562  1.00  0.00     0.010 A 
ATOM     33  C   UNL A   1      38.643  29.311  28.786  1.00  0.00    -0.014 A 
BRANCH  33  34
ATOM     34  C   UNL A   1      40.060  28.917  28.989  1.00  0.00     0.031 A 
ATOM     35  C   UNL A   1      41.023  29.828  29.703  1.00  0.00     0.074 A 
ATOM     36  C   UNL A   1      40.456  27.693  28.588  1.00  0.00     0.049 A 
ATOM     37  N   UNL A   1      42.282  29.619  29.995  1.00  0.00    -0.248 NA
ATOM     38  C   UNL A   1      40.520  31.140  30.144  1.00  0.00     0.031 C 
ATOM     39  C   UNL A   1      39.601  26.713  27.910  1.00  0.00     0.029 A 
ATOM     40  N   UNL A   1      41.656  27.044  28.722  1.00  0.00    -0.354 N 
ATOM     41  C   UNL A   1      42.723  30.774  30.629  1.00  0.00     0.074 A 
ATOM     42  C   UNL A   1      41.612  31.699  30.647  1.00  0.00     0.031 C 
ATOM     43  C   UNL A   1      40.276  25.568  27.761  1.00  0.00     0.029 A 
ATOM     44  C   UNL A   1      41.642  25.760  28.233  1.00  0.00     0.049 A 
ATOM     45  H   UNL A   1      42.451  27.458  29.131  1.00  0.00     0.167 HD
ATOM     46  C   UNL A   1      43.941  31.031  31.160  1.00  0.00     0.031 A 
ATOM     47  C   UNL A   1      42.620  24.838  28.146  1.00  0.00     0.031 A 
ATOM     48  C   UNL A   1      45.036  30.093  31.149  1.00  0.00     0.049 A 
ATOM     49  C   UNL A   1      43.978  25.174  28.687  1.00  0.00     0.074 A 
ATOM     50  C   UNL A   1      46.302  30.255  31.684  1.00  0.00     0.029 A 
ATOM     51  N   UNL A   1      45.000  28.830  30.579  1.00  0.00    -0.354 N 
ATOM     52  N   UNL A   1      44.372  26.262  29.303  1.00  0.00    -0.248 NA
ATOM     53  C   UNL A   1      45.026  24.157  28.532  1.00  0.00     0.031 C 
ATOM     54  C   UNL A   1      47.059  29.130  31.357  1.00  0.00     0.029 A 
ATOM     55  C   UNL A   1      46.236  28.218  30.716  1.00  0.00     0.049 A 
ATOM     56  H   UNL A   1      44.214  28.427  30.143  1.00  0.00     0.167 HD
ATOM     57  C   UNL A   1      45.704  26.052  29.633  1.00  0.00     0.074 A 
ATOM     58  C   UNL A   1      46.042  24.721  29.170  1.00  0.00     0.031 C 
ATOM     59  C   UNL A   1      46.565  26.890  30.259  1.00  0.00     0.031 A 
BRANCH  46  60
ATOM     60  C   UNL A   1      44.183  32.376  31.797  1.00  0.00    -0.014 A 
ATOM     61  C   UNL A   1      43.884  32.563  33.158  1.00  0.00     0.009 A 
ATOM     62  C   UNL A   1      44.580  33.487  31.036  1.00  0.00     0.009 A 
ATOM     63  C   UNL A   1      43.944  33.833  33.733  1.00  0.00     0.001 A 
ATOM     64  C   UNL A   1      44.678  34.751  31.625  1.00  0.00     0.001 A 
ATOM     65  C   UNL A   1      44.344  34.926  32.967  1.00  0.00     0.000 A 
ENDBRANCH  46  60
BRANCH  47  66
ATOM     66  C   UNL A   1      42.320  23.518  27.528  1.00  0.00    -0.014 A 
ATOM     67  C   UNL A   1      41.878  22.442  28.320  1.00  0.00     0.009 A 
ATOM     68  C   UNL A   1      42.545  23.298  26.161  1.00  0.00     0.009 A 
ATOM     69  C   UNL A   1      41.715  21.169  27.769  1.00  0.00     0.001 A 
ATOM     70  C   UNL A   1      42.336  22.034  25.603  1.00  0.00     0.001 A 
ATOM     71  C   UNL A   1      41.939  20.968  26.410  1.00  0.00     0.000 A 
ENDBRANCH  47  66
BRANCH  59  72
ATOM     72  C   UNL A   1      47.968  26.403  30.518  1.00  0.00    -0.014 A 
ATOM     73  C   UNL A   1      48.919  26.444  29.483  1.00  0.00     0.009 A 
ATOM     74  C   UNL A   1      48.319  25.797  31.733  1.00  0.00     0.009 A 
ATOM     75  C   UNL A   1      50.176  25.864  29.647  1.00  0.00     0.001 A 
ATOM     76  C   UNL A   1      49.595  25.257  31.911  1.00  0.00     0.001 A 
ATOM     77  C   UNL A   1      50.515  25.276  30.864  1.00  0.00     0.000 A 
ENDBRANCH  59  72
ENDBRANCH  33  34
ENDBRANCH  25  28
ENDBRANCH  23  24
ENDBRANCH   1  23
TORSDOF 12
ENDMDL
