MODEL 1
REMARK VINA RESULT:     -12.2      0.000      0.000
REMARK SMILES O=C(NCCCNC(=O)c1cccc(S(=O)(=O)Nc2ccccc2N2CCOCC2)c1)c1ccc(-c2c3nc(c(-c4ccccc4)c4ccc([nH]4)c(-c4ccccc4)c4nc(c(-c5ccccc5)c5ccc2[nH]5)C=C4)C=C3)cc1
REMARK SMILES IDX 6 1 5 2 4 3 3 4 1 5 2 6 32 8 33 9 79 10 34 11 78 12 35 13
REMARK SMILES IDX 36 14 37 15 72 16 38 17 77 18 71 19 73 20 39 21 76 22 70 23
REMARK SMILES IDX 69 24 40 26 62 27 47 28 61 29 48 30 51 31 60 32 74 33 49 34
REMARK SMILES IDX 50 35 59 37 75 38 52 39 41 40 42 41 46 42 43 43 45 44 44 45
REMARK SMILES IDX 63 46 64 47 68 48 65 49 67 50 66 51 53 52 54 53 58 54 55 55
REMARK SMILES IDX 57 56 56 57 7 58 8 59 9 61 10 62 11 63 31 64 12 65 14 66
REMARK SMILES IDX 13 67 15 68 16 69 17 70 18 71 19 73 20 74 24 75 21 76 23 77
REMARK SMILES IDX 22 78 25 79 26 80 30 81 27 82 29 83 28 84
REMARK H PARENT 3 7 73 25 51 36 7 60 18 72
REMARK Flexibility Score: inf
ROOT
ATOM      1  C   UNL A   1      31.589  29.702  25.108  1.00  0.00     0.118 C 
ENDROOT
BRANCH   1   2
ATOM      2  C   UNL A   1      31.244  30.642  26.232  1.00  0.00     0.042 C 
BRANCH   2   3
ATOM      3  C   UNL A   1      32.490  31.328  26.747  1.00  0.00     0.118 C 
BRANCH   3   4
ATOM      4  N   UNL A   1      32.227  32.713  27.134  1.00  0.00    -0.352 N 
ATOM      5  O   UNL A   1      32.444  34.574  28.401  1.00  0.00    -0.269 OA
ATOM      6  C   UNL A   1      32.935  33.529  27.984  1.00  0.00     0.251 C 
ATOM      7  H   UNL A   1      31.428  33.120  26.728  1.00  0.00     0.163 HD
BRANCH   6   8
ATOM      8  C   UNL A   1      34.287  33.112  28.406  1.00  0.00     0.039 A 
ATOM      9  C   UNL A   1      34.415  32.230  29.475  1.00  0.00     0.014 A 
ATOM     10  C   UNL A   1      35.424  33.611  27.767  1.00  0.00     0.014 A 
ATOM     11  C   UNL A   1      35.647  32.040  30.064  1.00  0.00     0.010 A 
ATOM     12  C   UNL A   1      36.689  33.256  28.247  1.00  0.00     0.010 A 
ATOM     13  C   UNL A   1      36.806  32.483  29.413  1.00  0.00    -0.014 A 
BRANCH  13  14
ATOM     14  C   UNL A   1      38.102  31.960  29.903  1.00  0.00     0.031 A 
ATOM     15  C   UNL A   1      38.920  32.697  30.920  1.00  0.00     0.074 A 
ATOM     16  C   UNL A   1      38.498  30.759  29.432  1.00  0.00     0.049 A 
ATOM     17  N   UNL A   1      40.066  32.348  31.447  1.00  0.00    -0.248 NA
ATOM     18  C   UNL A   1      38.404  33.986  31.405  1.00  0.00     0.031 C 
ATOM     19  C   UNL A   1      37.769  29.958  28.438  1.00  0.00     0.029 A 
ATOM     20  N   UNL A   1      39.580  29.981  29.743  1.00  0.00    -0.354 N 
ATOM     21  C   UNL A   1      40.425  33.384  32.298  1.00  0.00     0.074 A 
ATOM     22  C   UNL A   1      39.379  34.381  32.216  1.00  0.00     0.031 C 
ATOM     23  C   UNL A   1      38.381  28.780  28.280  1.00  0.00     0.029 A 
ATOM     24  C   UNL A   1      39.602  28.785  29.066  1.00  0.00     0.049 A 
ATOM     25  H   UNL A   1      40.273  30.250  30.389  1.00  0.00     0.167 HD
ATOM     26  C   UNL A   1      41.535  33.487  33.067  1.00  0.00     0.031 A 
ATOM     27  C   UNL A   1      40.529  27.812  29.038  1.00  0.00     0.031 A 
ATOM     28  C   UNL A   1      42.561  32.479  33.139  1.00  0.00     0.049 A 
ATOM     29  C   UNL A   1      41.763  27.988  29.865  1.00  0.00     0.074 A 
ATOM     30  C   UNL A   1      43.703  32.472  33.922  1.00  0.00     0.029 A 
ATOM     31  N   UNL A   1      42.577  31.308  32.397  1.00  0.00    -0.354 N 
ATOM     32  N   UNL A   1      42.067  28.956  30.696  1.00  0.00    -0.248 NA
ATOM     33  C   UNL A   1      42.789  26.946  29.743  1.00  0.00     0.031 C 
ATOM     34  C   UNL A   1      44.444  31.330  33.602  1.00  0.00     0.029 A 
ATOM     35  C   UNL A   1      43.732  30.592  32.670  1.00  0.00     0.049 A 
ATOM     36  H   UNL A   1      41.874  31.027  31.769  1.00  0.00     0.167 HD
ATOM     37  C   UNL A   1      43.316  28.635  31.203  1.00  0.00     0.074 A 
ATOM     38  C   UNL A   1      43.693  27.365  30.616  1.00  0.00     0.031 C 
ATOM     39  C   UNL A   1      44.089  29.335  32.068  1.00  0.00     0.031 A 
BRANCH  26  40
ATOM     40  C   UNL A   1      41.732  34.745  33.868  1.00  0.00    -0.014 A 
ATOM     41  C   UNL A   1      41.253  34.865  35.180  1.00  0.00     0.009 A 
ATOM     42  C   UNL A   1      42.502  35.789  33.327  1.00  0.00     0.009 A 
ATOM     43  C   UNL A   1      41.532  36.010  35.931  1.00  0.00     0.001 A 
ATOM     44  C   UNL A   1      42.799  36.921  34.088  1.00  0.00     0.001 A 
ATOM     45  C   UNL A   1      42.311  37.032  35.388  1.00  0.00     0.000 A 
ENDBRANCH  26  40
BRANCH  27  46
ATOM     46  C   UNL A   1      40.358  26.640  28.141  1.00  0.00    -0.014 A 
ATOM     47  C   UNL A   1      40.929  26.620  26.862  1.00  0.00     0.009 A 
ATOM     48  C   UNL A   1      39.598  25.534  28.562  1.00  0.00     0.009 A 
ATOM     49  C   UNL A   1      40.713  25.534  26.009  1.00  0.00     0.001 A 
ATOM     50  C   UNL A   1      39.419  24.433  27.724  1.00  0.00     0.001 A 
ATOM     51  C   UNL A   1      39.962  24.442  26.443  1.00  0.00     0.000 A 
ENDBRANCH  27  46
BRANCH  39  52
ATOM     52  C   UNL A   1      45.406  28.719  32.439  1.00  0.00    -0.014 A 
ATOM     53  C   UNL A   1      45.508  27.810  33.504  1.00  0.00     0.009 A 
ATOM     54  C   UNL A   1      46.556  29.041  31.702  1.00  0.00     0.009 A 
ATOM     55  C   UNL A   1      46.745  27.267  33.849  1.00  0.00     0.001 A 
ATOM     56  C   UNL A   1      47.785  28.468  32.027  1.00  0.00     0.001 A 
ATOM     57  C   UNL A   1      47.880  27.591  33.106  1.00  0.00     0.000 A 
ENDBRANCH  39  52
ENDBRANCH  13  14
ENDBRANCH   6   8
ENDBRANCH   3   4
ENDBRANCH   2   3
ENDBRANCH   1   2
BRANCH   1  58
ATOM     58  N   UNL A   1      30.878  30.064  23.885  1.00  0.00    -0.352 N 
ATOM     59  C   UNL A   1      30.507  29.268  22.833  1.00  0.00     0.251 C 
ATOM     60  H   UNL A   1      30.629  31.013  23.805  1.00  0.00     0.163 HD
ATOM     61  O   UNL A   1      30.153  29.768  21.771  1.00  0.00    -0.269 OA
BRANCH  59  62
ATOM     62  C   UNL A   1      30.443  27.806  23.024  1.00  0.00     0.041 A 
ATOM     63  C   UNL A   1      29.356  27.196  23.640  1.00  0.00     0.014 A 
ATOM     64  C   UNL A   1      31.567  27.053  22.696  1.00  0.00     0.036 A 
ATOM     65  C   UNL A   1      29.404  25.822  23.895  1.00  0.00     0.002 A 
ATOM     66  C   UNL A   1      31.651  25.709  22.982  1.00  0.00     0.088 A 
ATOM     67  C   UNL A   1      30.553  25.077  23.572  1.00  0.00     0.022 A 
BRANCH  66  68
ATOM     68  S   UNL A   1      33.090  24.811  22.485  1.00  0.00     0.261 S 
ATOM     69  O   UNL A   1      32.676  23.437  22.273  1.00  0.00    -0.201 OA
ATOM     70  O   UNL A   1      33.673  25.567  21.394  1.00  0.00    -0.201 OA
BRANCH  68  71
ATOM     71  N   UNL A   1      34.301  24.722  23.674  1.00  0.00    -0.278 N 
ATOM     72  H   UNL A   1      34.574  25.558  24.113  1.00  0.00     0.180 HD
BRANCH  71  73
ATOM     73  C   UNL A   1      34.956  23.500  24.086  1.00  0.00     0.072 A 
ATOM     74  C   UNL A   1      36.209  23.189  23.525  1.00  0.00     0.029 A 
ATOM     75  C   UNL A   1      34.370  22.646  25.061  1.00  0.00     0.061 A 
ATOM     76  C   UNL A   1      36.885  22.023  23.894  1.00  0.00     0.002 A 
ATOM     77  C   UNL A   1      35.091  21.487  25.416  1.00  0.00     0.028 A 
ATOM     78  C   UNL A   1      36.325  21.172  24.839  1.00  0.00     0.002 A 
BRANCH  75  79
ATOM     79  N   UNL A   1      33.180  22.970  25.708  1.00  0.00    -0.365 N 
ATOM     80  C   UNL A   1      32.162  21.924  25.917  1.00  0.00     0.145 C 
ATOM     81  C   UNL A   1      33.129  24.047  26.715  1.00  0.00     0.145 C 
ATOM     82  C   UNL A   1      30.776  22.577  26.033  1.00  0.00     0.181 C 
ATOM     83  C   UNL A   1      31.697  24.597  26.823  1.00  0.00     0.181 C 
ATOM     84  O   UNL A   1      30.745  23.554  27.088  1.00  0.00    -0.378 OA
ENDBRANCH  75  79
ENDBRANCH  71  73
ENDBRANCH  68  71
ENDBRANCH  66  68
ENDBRANCH  59  62
ENDBRANCH   1  58
TORSDOF 14
ENDMDL
MODEL 2
REMARK VINA RESULT:     -12.2      3.331      8.788
REMARK SMILES O=C(NCCCNC(=O)c1cccc(S(=O)(=O)Nc2ccccc2N2CCOCC2)c1)c1ccc(-c2c3nc(c(-c4ccccc4)c4ccc([nH]4)c(-c4ccccc4)c4nc(c(-c5ccccc5)c5ccc2[nH]5)C=C4)C=C3)cc1
REMARK SMILES IDX 6 1 5 2 4 3 3 4 1 5 2 6 32 8 33 9 79 10 34 11 78 12 35 13
REMARK SMILES IDX 36 14 37 15 72 16 38 17 77 18 71 19 73 20 39 21 76 22 70 23
REMARK SMILES IDX 69 24 40 26 62 27 47 28 61 29 48 30 51 31 60 32 74 33 49 34
REMARK SMILES IDX 50 35 59 37 75 38 52 39 41 40 42 41 46 42 43 43 45 44 44 45
REMARK SMILES IDX 63 46 64 47 68 48 65 49 67 50 66 51 53 52 54 53 58 54 55 55
REMARK SMILES IDX 57 56 56 57 7 58 8 59 9 61 10 62 11 63 31 64 12 65 14 66
REMARK SMILES IDX 13 67 15 68 16 69 17 70 18 71 19 73 20 74 24 75 21 76 23 77
REMARK SMILES IDX 22 78 25 79 26 80 30 81 27 82 29 83 28 84
REMARK H PARENT 3 7 73 25 51 36 7 60 18 72
REMARK Flexibility Score: inf
ROOT
ATOM      1  C   UNL A   1      37.289  21.289  24.579  1.00  0.00     0.118 C 
ENDROOT
BRANCH   1   2
ATOM      2  C   UNL A   1      38.056  20.016  24.818  1.00  0.00     0.042 C 
BRANCH   2   3
ATOM      3  C   UNL A   1      39.001  20.181  25.988  1.00  0.00     0.118 C 
BRANCH   3   4
ATOM      4  N   UNL A   1      40.167  19.308  25.871  1.00  0.00    -0.352 N 
ATOM      5  O   UNL A   1      42.361  18.826  25.605  1.00  0.00    -0.269 OA
ATOM      6  C   UNL A   1      41.502  19.620  25.981  1.00  0.00     0.251 C 
ATOM      7  H   UNL A   1      39.969  18.362  25.689  1.00  0.00     0.163 HD
BRANCH   6   8
ATOM      8  C   UNL A   1      41.881  20.934  26.535  1.00  0.00     0.039 A 
ATOM      9  C   UNL A   1      42.181  21.971  25.657  1.00  0.00     0.014 A 
ATOM     10  C   UNL A   1      41.968  21.134  27.914  1.00  0.00     0.014 A 
ATOM     11  C   UNL A   1      42.798  23.111  26.128  1.00  0.00     0.010 A 
ATOM     12  C   UNL A   1      42.409  22.369  28.399  1.00  0.00     0.010 A 
ATOM     13  C   UNL A   1      42.846  23.359  27.505  1.00  0.00    -0.014 A 
BRANCH  13  14
ATOM     14  C   UNL A   1      43.200  24.731  27.937  1.00  0.00     0.031 A 
ATOM     15  C   UNL A   1      44.625  25.173  28.082  1.00  0.00     0.074 A 
ATOM     16  C   UNL A   1      42.182  25.591  28.146  1.00  0.00     0.049 A 
ATOM     17  N   UNL A   1      45.077  26.349  28.439  1.00  0.00    -0.248 NA
ATOM     18  C   UNL A   1      45.677  24.183  27.807  1.00  0.00     0.031 C 
ATOM     19  C   UNL A   1      40.755  25.258  28.028  1.00  0.00     0.029 A 
ATOM     20  N   UNL A   1      42.176  26.922  28.464  1.00  0.00    -0.354 N 
ATOM     21  C   UNL A   1      46.460  26.233  28.462  1.00  0.00     0.074 A 
ATOM     22  C   UNL A   1      46.777  24.871  28.089  1.00  0.00     0.031 C 
ATOM     23  C   UNL A   1      40.023  26.364  28.195  1.00  0.00     0.029 A 
ATOM     24  C   UNL A   1      40.913  27.457  28.546  1.00  0.00     0.049 A 
ATOM     25  H   UNL A   1      42.996  27.446  28.617  1.00  0.00     0.167 HD
ATOM     26  C   UNL A   1      47.372  27.182  28.777  1.00  0.00     0.031 A 
ATOM     27  C   UNL A   1      40.503  28.684  28.914  1.00  0.00     0.031 A 
ATOM     28  C   UNL A   1      47.035  28.536  29.139  1.00  0.00     0.049 A 
ATOM     29  C   UNL A   1      41.542  29.689  29.300  1.00  0.00     0.074 A 
ATOM     30  C   UNL A   1      47.890  29.584  29.433  1.00  0.00     0.029 A 
ATOM     31  N   UNL A   1      45.744  29.025  29.266  1.00  0.00    -0.354 N 
ATOM     32  N   UNL A   1      42.848  29.574  29.277  1.00  0.00    -0.248 NA
ATOM     33  C   UNL A   1      41.053  30.987  29.776  1.00  0.00     0.031 C 
ATOM     34  C   UNL A   1      47.116  30.687  29.806  1.00  0.00     0.029 A 
ATOM     35  C   UNL A   1      45.779  30.347  29.678  1.00  0.00     0.049 A 
ATOM     36  H   UNL A   1      44.924  28.509  29.091  1.00  0.00     0.167 HD
ATOM     37  C   UNL A   1      43.338  30.790  29.727  1.00  0.00     0.074 A 
ATOM     38  C   UNL A   1      42.189  31.638  29.977  1.00  0.00     0.031 C 
ATOM     39  C   UNL A   1      44.623  31.168  29.928  1.00  0.00     0.031 A 
BRANCH  26  40
ATOM     40  C   UNL A   1      48.826  26.798  28.788  1.00  0.00    -0.014 A 
ATOM     41  C   UNL A   1      49.428  26.226  29.918  1.00  0.00     0.009 A 
ATOM     42  C   UNL A   1      49.577  26.921  27.607  1.00  0.00     0.009 A 
ATOM     43  C   UNL A   1      50.757  25.795  29.868  1.00  0.00     0.001 A 
ATOM     44  C   UNL A   1      50.897  26.467  27.553  1.00  0.00     0.001 A 
ATOM     45  C   UNL A   1      51.486  25.907  28.684  1.00  0.00     0.000 A 
ENDBRANCH  26  40
BRANCH  27  46
ATOM     46  C   UNL A   1      39.053  28.992  29.009  1.00  0.00    -0.014 A 
ATOM     47  C   UNL A   1      38.343  29.473  27.901  1.00  0.00     0.009 A 
ATOM     48  C   UNL A   1      38.373  28.819  30.227  1.00  0.00     0.009 A 
ATOM     49  C   UNL A   1      36.993  29.811  28.021  1.00  0.00     0.001 A 
ATOM     50  C   UNL A   1      37.014  29.116  30.333  1.00  0.00     0.001 A 
ATOM     51  C   UNL A   1      36.330  29.628  29.234  1.00  0.00     0.000 A 
ENDBRANCH  27  46
BRANCH  39  52
ATOM     52  C   UNL A   1      44.841  32.568  30.422  1.00  0.00    -0.014 A 
ATOM     53  C   UNL A   1      44.927  32.847  31.795  1.00  0.00     0.009 A 
ATOM     54  C   UNL A   1      44.979  33.617  29.500  1.00  0.00     0.009 A 
ATOM     55  C   UNL A   1      45.106  34.158  32.236  1.00  0.00     0.001 A 
ATOM     56  C   UNL A   1      45.195  34.922  29.944  1.00  0.00     0.001 A 
ATOM     57  C   UNL A   1      45.246  35.192  31.311  1.00  0.00     0.000 A 
ENDBRANCH  39  52
ENDBRANCH  13  14
ENDBRANCH   6   8
ENDBRANCH   3   4
ENDBRANCH   2   3
ENDBRANCH   1   2
BRANCH   1  58
ATOM     58  N   UNL A   1      37.844  22.390  25.363  1.00  0.00    -0.352 N 
ATOM     59  C   UNL A   1      37.243  23.555  25.762  1.00  0.00     0.251 C 
ATOM     60  H   UNL A   1      38.780  22.278  25.646  1.00  0.00     0.163 HD
ATOM     61  O   UNL A   1      37.918  24.488  26.186  1.00  0.00    -0.269 OA
BRANCH  59  62
ATOM     62  C   UNL A   1      35.770  23.640  25.770  1.00  0.00     0.041 A 
ATOM     63  C   UNL A   1      35.002  22.940  26.694  1.00  0.00     0.014 A 
ATOM     64  C   UNL A   1      35.149  24.334  24.736  1.00  0.00     0.036 A 
ATOM     65  C   UNL A   1      33.609  22.971  26.579  1.00  0.00     0.002 A 
ATOM     66  C   UNL A   1      33.781  24.337  24.579  1.00  0.00     0.088 A 
ATOM     67  C   UNL A   1      32.996  23.664  25.520  1.00  0.00     0.022 A 
BRANCH  66  68
ATOM     68  S   UNL A   1      33.065  25.287  23.272  1.00  0.00     0.261 S 
ATOM     69  O   UNL A   1      33.843  25.012  22.079  1.00  0.00    -0.201 OA
ATOM     70  O   UNL A   1      31.648  24.991  23.296  1.00  0.00    -0.201 OA
BRANCH  68  71
ATOM     71  N   UNL A   1      33.183  26.969  23.489  1.00  0.00    -0.278 N 
ATOM     72  H   UNL A   1      33.437  27.514  22.712  1.00  0.00     0.180 HD
BRANCH  71  73
ATOM     73  C   UNL A   1      32.935  27.653  24.739  1.00  0.00     0.072 A 
ATOM     74  C   UNL A   1      33.900  27.558  25.759  1.00  0.00     0.029 A 
ATOM     75  C   UNL A   1      31.761  28.433  24.928  1.00  0.00     0.061 A 
ATOM     76  C   UNL A   1      33.710  28.204  26.983  1.00  0.00     0.002 A 
ATOM     77  C   UNL A   1      31.613  29.081  26.172  1.00  0.00     0.028 A 
ATOM     78  C   UNL A   1      32.565  28.966  27.189  1.00  0.00     0.002 A 
BRANCH  75  79
ATOM     79  N   UNL A   1      30.832  28.629  23.909  1.00  0.00    -0.365 N 
ATOM     80  C   UNL A   1      31.257  29.285  22.658  1.00  0.00     0.145 C 
ATOM     81  C   UNL A   1      29.691  27.710  23.729  1.00  0.00     0.145 C 
ATOM     82  C   UNL A   1      30.043  29.952  21.994  1.00  0.00     0.181 C 
ATOM     83  C   UNL A   1      28.549  28.429  22.994  1.00  0.00     0.181 C 
ATOM     84  O   UNL A   1      28.991  29.001  21.752  1.00  0.00    -0.378 OA
ENDBRANCH  75  79
ENDBRANCH  71  73
ENDBRANCH  68  71
ENDBRANCH  66  68
ENDBRANCH  59  62
ENDBRANCH   1  58
TORSDOF 14
ENDMDL
MODEL 3
REMARK VINA RESULT:     -12.2      3.288      8.635
REMARK SMILES O=C(NCCCNC(=O)c1cccc(S(=O)(=O)Nc2ccccc2N2CCOCC2)c1)c1ccc(-c2c3nc(c(-c4ccccc4)c4ccc([nH]4)c(-c4ccccc4)c4nc(c(-c5ccccc5)c5ccc2[nH]5)C=C4)C=C3)cc1
REMARK SMILES IDX 6 1 5 2 4 3 3 4 1 5 2 6 32 8 33 9 79 10 34 11 78 12 35 13
REMARK SMILES IDX 36 14 37 15 72 16 38 17 77 18 71 19 73 20 39 21 76 22 70 23
REMARK SMILES IDX 69 24 40 26 62 27 47 28 61 29 48 30 51 31 60 32 74 33 49 34
REMARK SMILES IDX 50 35 59 37 75 38 52 39 41 40 42 41 46 42 43 43 45 44 44 45
REMARK SMILES IDX 63 46 64 47 68 48 65 49 67 50 66 51 53 52 54 53 58 54 55 55
REMARK SMILES IDX 57 56 56 57 7 58 8 59 9 61 10 62 11 63 31 64 12 65 14 66
REMARK SMILES IDX 13 67 15 68 16 69 17 70 18 71 19 73 20 74 24 75 21 76 23 77
REMARK SMILES IDX 22 78 25 79 26 80 30 81 27 82 29 83 28 84
REMARK H PARENT 3 7 73 25 51 36 7 60 18 72
REMARK Flexibility Score: inf
ROOT
ATOM      1  C   UNL A   1      37.300  21.263  24.474  1.00  0.00     0.118 C 
ENDROOT
BRANCH   1   2
ATOM      2  C   UNL A   1      38.023  19.967  24.730  1.00  0.00     0.042 C 
BRANCH   2   3
ATOM      3  C   UNL A   1      38.901  20.088  25.956  1.00  0.00     0.118 C 
BRANCH   3   4
ATOM      4  N   UNL A   1      40.082  19.231  25.864  1.00  0.00    -0.352 N 
ATOM      5  O   UNL A   1      42.287  18.778  25.647  1.00  0.00    -0.269 OA
ATOM      6  C   UNL A   1      41.409  19.559  26.005  1.00  0.00     0.251 C 
ATOM      7  H   UNL A   1      39.900  18.282  25.676  1.00  0.00     0.163 HD
BRANCH   6   8
ATOM      8  C   UNL A   1      41.759  20.877  26.570  1.00  0.00     0.039 A 
ATOM      9  C   UNL A   1      41.959  21.947  25.704  1.00  0.00     0.014 A 
ATOM     10  C   UNL A   1      41.915  21.049  27.947  1.00  0.00     0.014 A 
ATOM     11  C   UNL A   1      42.548  23.105  26.168  1.00  0.00     0.010 A 
ATOM     12  C   UNL A   1      42.325  22.293  28.438  1.00  0.00     0.010 A 
ATOM     13  C   UNL A   1      42.664  23.323  27.546  1.00  0.00    -0.014 A 
BRANCH  13  14
ATOM     14  C   UNL A   1      42.978  24.700  27.992  1.00  0.00     0.031 A 
ATOM     15  C   UNL A   1      41.904  25.702  28.290  1.00  0.00     0.074 A 
ATOM     16  C   UNL A   1      44.280  25.006  28.170  1.00  0.00     0.049 A 
ATOM     17  N   UNL A   1      42.038  26.937  28.701  1.00  0.00    -0.248 NA
ATOM     18  C   UNL A   1      40.508  25.280  28.098  1.00  0.00     0.031 C 
ATOM     19  C   UNL A   1      45.406  24.096  27.909  1.00  0.00     0.029 A 
ATOM     20  N   UNL A   1      44.884  26.139  28.643  1.00  0.00    -0.354 N 
ATOM     21  C   UNL A   1      40.751  27.451  28.786  1.00  0.00     0.074 A 
ATOM     22  C   UNL A   1      39.847  26.397  28.379  1.00  0.00     0.031 C 
ATOM     23  C   UNL A   1      46.547  24.677  28.293  1.00  0.00     0.029 A 
ATOM     24  C   UNL A   1      46.253  26.036  28.717  1.00  0.00     0.049 A 
ATOM     25  H   UNL A   1      44.388  26.947  28.906  1.00  0.00     0.167 HD
ATOM     26  C   UNL A   1      40.373  28.695  29.163  1.00  0.00     0.031 A 
ATOM     27  C   UNL A   1      47.184  26.949  29.042  1.00  0.00     0.031 A 
ATOM     28  C   UNL A   1      41.290  29.728  29.572  1.00  0.00     0.049 A 
ATOM     29  C   UNL A   1      46.725  28.326  29.405  1.00  0.00     0.074 A 
ATOM     30  C   UNL A   1      41.001  31.008  30.013  1.00  0.00     0.029 A 
ATOM     31  N   UNL A   1      42.671  29.605  29.579  1.00  0.00    -0.354 N 
ATOM     32  N   UNL A   1      45.501  28.783  29.521  1.00  0.00    -0.248 NA
ATOM     33  C   UNL A   1      47.773  29.318  29.671  1.00  0.00     0.031 C 
ATOM     34  C   UNL A   1      42.208  31.682  30.221  1.00  0.00     0.029 A 
ATOM     35  C   UNL A   1      43.249  30.801  29.974  1.00  0.00     0.049 A 
ATOM     36  H   UNL A   1      43.168  28.790  29.338  1.00  0.00     0.167 HD
ATOM     37  C   UNL A   1      45.632  30.115  29.881  1.00  0.00     0.074 A 
ATOM     38  C   UNL A   1      47.052  30.378  30.004  1.00  0.00     0.031 C 
ATOM     39  C   UNL A   1      44.664  31.041  30.081  1.00  0.00     0.031 A 
BRANCH  26  40
ATOM     40  C   UNL A   1      38.909  29.038  29.118  1.00  0.00    -0.014 A 
ATOM     41  C   UNL A   1      38.088  28.909  30.247  1.00  0.00     0.009 A 
ATOM     42  C   UNL A   1      38.371  29.597  27.947  1.00  0.00     0.009 A 
ATOM     43  C   UNL A   1      36.753  29.322  30.201  1.00  0.00     0.001 A 
ATOM     44  C   UNL A   1      37.044  30.031  27.911  1.00  0.00     0.001 A 
ATOM     45  C   UNL A   1      36.236  29.891  29.037  1.00  0.00     0.000 A 
ENDBRANCH  26  40
BRANCH  27  46
ATOM     46  C   UNL A   1      48.628  26.611  28.957  1.00  0.00    -0.014 A 
ATOM     47  C   UNL A   1      49.321  26.118  30.070  1.00  0.00     0.009 A 
ATOM     48  C   UNL A   1      49.327  26.798  27.751  1.00  0.00     0.009 A 
ATOM     49  C   UNL A   1      50.691  25.857  29.990  1.00  0.00     0.001 A 
ATOM     50  C   UNL A   1      50.686  26.496  27.662  1.00  0.00     0.001 A 
ATOM     51  C   UNL A   1      51.370  26.042  28.786  1.00  0.00     0.000 A 
ENDBRANCH  27  46
BRANCH  39  52
ATOM     52  C   UNL A   1      45.122  32.415  30.474  1.00  0.00    -0.014 A 
ATOM     53  C   UNL A   1      45.363  33.403  29.507  1.00  0.00     0.009 A 
ATOM     54  C   UNL A   1      45.297  32.728  31.831  1.00  0.00     0.009 A 
ATOM     55  C   UNL A   1      45.811  34.667  29.889  1.00  0.00     0.001 A 
ATOM     56  C   UNL A   1      45.710  34.005  32.212  1.00  0.00     0.001 A 
ATOM     57  C   UNL A   1      45.978  34.968  31.241  1.00  0.00     0.000 A 
ENDBRANCH  39  52
ENDBRANCH  13  14
ENDBRANCH   6   8
ENDBRANCH   3   4
ENDBRANCH   2   3
ENDBRANCH   1   2
BRANCH   1  58
ATOM     58  N   UNL A   1      37.838  22.337  25.305  1.00  0.00    -0.352 N 
ATOM     59  C   UNL A   1      37.239  23.502  25.706  1.00  0.00     0.251 C 
ATOM     60  H   UNL A   1      38.760  22.204  25.624  1.00  0.00     0.163 HD
ATOM     61  O   UNL A   1      37.909  24.414  26.179  1.00  0.00    -0.269 OA
BRANCH  59  62
ATOM     62  C   UNL A   1      35.768  23.610  25.655  1.00  0.00     0.041 A 
ATOM     63  C   UNL A   1      34.950  22.848  26.482  1.00  0.00     0.014 A 
ATOM     64  C   UNL A   1      35.204  24.398  24.655  1.00  0.00     0.036 A 
ATOM     65  C   UNL A   1      33.564  22.912  26.308  1.00  0.00     0.002 A 
ATOM     66  C   UNL A   1      33.845  24.436  24.439  1.00  0.00     0.088 A 
ATOM     67  C   UNL A   1      33.009  23.700  25.283  1.00  0.00     0.022 A 
BRANCH  66  68
ATOM     68  S   UNL A   1      33.203  25.503  23.184  1.00  0.00     0.261 S 
ATOM     69  O   UNL A   1      34.009  25.288  21.997  1.00  0.00    -0.201 OA
ATOM     70  O   UNL A   1      31.776  25.254  23.144  1.00  0.00    -0.201 OA
BRANCH  68  71
ATOM     71  N   UNL A   1      33.367  27.159  23.528  1.00  0.00    -0.278 N 
ATOM     72  H   UNL A   1      33.712  27.742  22.816  1.00  0.00     0.180 HD
BRANCH  71  73
ATOM     73  C   UNL A   1      33.034  27.769  24.796  1.00  0.00     0.072 A 
ATOM     74  C   UNL A   1      33.972  27.696  25.843  1.00  0.00     0.029 A 
ATOM     75  C   UNL A   1      31.804  28.459  24.978  1.00  0.00     0.061 A 
ATOM     76  C   UNL A   1      33.700  28.274  27.085  1.00  0.00     0.002 A 
ATOM     77  C   UNL A   1      31.574  29.041  26.242  1.00  0.00     0.028 A 
ATOM     78  C   UNL A   1      32.501  28.946  27.284  1.00  0.00     0.002 A 
BRANCH  75  79
ATOM     79  N   UNL A   1      30.895  28.636  23.937  1.00  0.00    -0.365 N 
ATOM     80  C   UNL A   1      31.367  29.173  22.648  1.00  0.00     0.145 C 
ATOM     81  C   UNL A   1      29.702  27.776  23.812  1.00  0.00     0.145 C 
ATOM     82  C   UNL A   1      30.200  29.861  21.924  1.00  0.00     0.181 C 
ATOM     83  C   UNL A   1      28.610  28.506  23.015  1.00  0.00     0.181 C 
ATOM     84  O   UNL A   1      29.094  28.960  21.740  1.00  0.00    -0.378 OA
ENDBRANCH  75  79
ENDBRANCH  71  73
ENDBRANCH  68  71
ENDBRANCH  66  68
ENDBRANCH  59  62
ENDBRANCH   1  58
TORSDOF 14
ENDMDL
