MODEL 1
REMARK VINA RESULT:      -9.8      0.000      0.000
REMARK SMILES O=C(NCCCNC(=O)C1CCN(C(=O)COc2ccc(Cl)cc2Cl)CC1)c1ccc(-c2c3nc(c(-c4ccccc4)c4ccc([nH]4)c(-c4ccccc4)c4nc(c(-c5ccccc5)c5ccc2[nH]5)C=C4)C=C3)cc1
REMARK SMILES IDX 5 1 4 2 3 3 1 4 2 5 28 7 29 8 75 9 30 10 74 11 31 12 32 13
REMARK SMILES IDX 33 14 68 15 34 16 73 17 67 18 69 19 35 20 72 21 66 22 65 23
REMARK SMILES IDX 36 25 58 26 43 27 57 28 44 29 47 30 56 31 70 32 45 33 46 34
REMARK SMILES IDX 55 36 71 37 48 38 37 39 38 40 42 41 39 42 41 43 40 44 59 45
REMARK SMILES IDX 60 46 64 47 61 48 63 49 62 50 49 51 50 52 54 53 51 54 53 55
REMARK SMILES IDX 52 56 6 57 7 58 8 59 9 61 10 62 11 63 27 64 12 65 26 66
REMARK SMILES IDX 13 67 14 68 15 69 16 70 17 71 18 72 19 73 24 74 20 75 23 76
REMARK SMILES IDX 25 77 21 78 22 79
REMARK H PARENT 3 6 69 24 47 35 7 60
REMARK Flexibility Score: inf
ROOT
ATOM      1  C   UNL A   1      34.513  34.677  28.159  1.00  0.00     0.042 C 
ENDROOT
BRANCH   1   2
ATOM      2  C   UNL A   1      35.193  33.323  28.015  1.00  0.00     0.118 C 
BRANCH   2   3
ATOM      3  N   UNL A   1      34.248  32.224  27.875  1.00  0.00    -0.352 N 
ATOM      4  O   UNL A   1      33.555  30.104  27.559  1.00  0.00    -0.269 OA
ATOM      5  C   UNL A   1      34.469  30.871  27.859  1.00  0.00     0.251 C 
ATOM      6  H   UNL A   1      33.305  32.494  27.777  1.00  0.00     0.163 HD
BRANCH   5   7
ATOM      7  C   UNL A   1      35.805  30.330  28.185  1.00  0.00     0.039 A 
ATOM      8  C   UNL A   1      36.806  30.272  27.212  1.00  0.00     0.014 A 
ATOM      9  C   UNL A   1      36.074  29.920  29.493  1.00  0.00     0.014 A 
ATOM     10  C   UNL A   1      38.031  29.688  27.512  1.00  0.00     0.010 A 
ATOM     11  C   UNL A   1      37.338  29.421  29.819  1.00  0.00     0.010 A 
ATOM     12  C   UNL A   1      38.323  29.293  28.827  1.00  0.00    -0.014 A 
BRANCH  12  13
ATOM     13  C   UNL A   1      39.707  28.886  29.170  1.00  0.00     0.031 A 
ATOM     14  C   UNL A   1      40.655  29.825  29.857  1.00  0.00     0.074 A 
ATOM     15  C   UNL A   1      40.102  27.643  28.831  1.00  0.00     0.049 A 
ATOM     16  N   UNL A   1      41.904  29.623  30.196  1.00  0.00    -0.248 NA
ATOM     17  C   UNL A   1      40.148  31.160  30.208  1.00  0.00     0.031 C 
ATOM     18  C   UNL A   1      39.267  26.648  28.149  1.00  0.00     0.029 A 
ATOM     19  N   UNL A   1      41.299  26.999  29.012  1.00  0.00    -0.354 N 
ATOM     20  C   UNL A   1      42.339  30.807  30.775  1.00  0.00     0.074 A 
ATOM     21  C   UNL A   1      41.225  31.731  30.735  1.00  0.00     0.031 C 
ATOM     22  C   UNL A   1      39.966  25.515  27.993  1.00  0.00     0.029 A 
ATOM     23  C   UNL A   1      41.318  25.726  28.492  1.00  0.00     0.049 A 
ATOM     24  H   UNL A   1      42.069  27.407  29.469  1.00  0.00     0.167 HD
ATOM     25  C   UNL A   1      43.560  31.093  31.286  1.00  0.00     0.031 A 
ATOM     26  C   UNL A   1      42.322  24.837  28.388  1.00  0.00     0.031 A 
ATOM     27  C   UNL A   1      44.660  30.164  31.323  1.00  0.00     0.049 A 
ATOM     28  C   UNL A   1      43.676  25.210  28.917  1.00  0.00     0.074 A 
ATOM     29  C   UNL A   1      45.914  30.341  31.885  1.00  0.00     0.029 A 
ATOM     30  N   UNL A   1      44.650  28.898  30.761  1.00  0.00    -0.354 N 
ATOM     31  N   UNL A   1      44.045  26.304  29.537  1.00  0.00    -0.248 NA
ATOM     32  C   UNL A   1      44.753  24.229  28.726  1.00  0.00     0.031 C 
ATOM     33  C   UNL A   1      46.686  29.213  31.595  1.00  0.00     0.029 A 
ATOM     34  C   UNL A   1      45.892  28.305  30.913  1.00  0.00     0.049 A 
ATOM     35  H   UNL A   1      43.874  28.482  30.320  1.00  0.00     0.167 HD
ATOM     36  C   UNL A   1      45.393  26.139  29.820  1.00  0.00     0.074 A 
ATOM     37  C   UNL A   1      45.768  24.827  29.335  1.00  0.00     0.031 C 
ATOM     38  C   UNL A   1      46.249  27.001  30.419  1.00  0.00     0.031 A 
BRANCH  25  39
ATOM     39  C   UNL A   1      43.803  32.476  31.824  1.00  0.00    -0.014 A 
ATOM     40  C   UNL A   1      43.624  32.779  33.181  1.00  0.00     0.009 A 
ATOM     41  C   UNL A   1      44.327  33.462  30.971  1.00  0.00     0.009 A 
ATOM     42  C   UNL A   1      43.953  34.046  33.672  1.00  0.00     0.001 A 
ATOM     43  C   UNL A   1      44.679  34.719  31.468  1.00  0.00     0.001 A 
ATOM     44  C   UNL A   1      44.488  35.011  32.817  1.00  0.00     0.000 A 
ENDBRANCH  25  39
BRANCH  26  45
ATOM     45  C   UNL A   1      42.103  23.540  27.695  1.00  0.00    -0.014 A 
ATOM     46  C   UNL A   1      42.413  23.387  26.336  1.00  0.00     0.009 A 
ATOM     47  C   UNL A   1      41.554  22.451  28.393  1.00  0.00     0.009 A 
ATOM     48  C   UNL A   1      42.141  22.183  25.683  1.00  0.00     0.001 A 
ATOM     49  C   UNL A   1      41.321  21.236  27.746  1.00  0.00     0.001 A 
ATOM     50  C   UNL A   1      41.600  21.109  26.389  1.00  0.00     0.000 A 
ENDBRANCH  26  45
BRANCH  38  51
ATOM     51  C   UNL A   1      47.669  26.546  30.592  1.00  0.00    -0.014 A 
ATOM     52  C   UNL A   1      48.090  25.926  31.779  1.00  0.00     0.009 A 
ATOM     53  C   UNL A   1      48.585  26.696  29.539  1.00  0.00     0.009 A 
ATOM     54  C   UNL A   1      49.410  25.493  31.919  1.00  0.00     0.001 A 
ATOM     55  C   UNL A   1      49.895  26.233  29.670  1.00  0.00     0.001 A 
ATOM     56  C   UNL A   1      50.308  25.639  30.862  1.00  0.00     0.000 A 
ENDBRANCH  38  51
ENDBRANCH  12  13
ENDBRANCH   5   7
ENDBRANCH   2   3
ENDBRANCH   1   2
BRANCH   1  57
ATOM     57  C   UNL A   1      33.397  34.712  29.193  1.00  0.00     0.117 C 
BRANCH  57  58
ATOM     58  N   UNL A   1      33.776  35.436  30.391  1.00  0.00    -0.356 N 
ATOM     59  C   UNL A   1      34.283  34.996  31.572  1.00  0.00     0.223 C 
ATOM     60  H   UNL A   1      33.645  36.411  30.340  1.00  0.00     0.163 HD
ATOM     61  O   UNL A   1      34.390  35.823  32.478  1.00  0.00    -0.275 OA
BRANCH  59  62
ATOM     62  C   UNL A   1      34.675  33.532  31.742  1.00  0.00     0.082 C 
ATOM     63  C   UNL A   1      34.389  33.065  33.185  1.00  0.00     0.035 C 
ATOM     64  C   UNL A   1      36.148  33.266  31.379  1.00  0.00     0.035 C 
ATOM     65  C   UNL A   1      35.406  33.618  34.192  1.00  0.00     0.120 C 
ATOM     66  C   UNL A   1      37.116  33.791  32.434  1.00  0.00     0.120 C 
ATOM     67  N   UNL A   1      36.758  33.291  33.754  1.00  0.00    -0.340 N 
ATOM     68  C   UNL A   1      37.584  32.548  34.585  1.00  0.00     0.260 C 
ATOM     69  O   UNL A   1      37.323  32.365  35.777  1.00  0.00    -0.271 OA
BRANCH  68  70
ATOM     70  C   UNL A   1      38.807  31.864  33.962  1.00  0.00     0.329 C 
BRANCH  70  71
ATOM     71  O   UNL A   1      38.742  30.448  33.816  1.00  0.00    -0.482 OA
BRANCH  71  72
ATOM     72  C   UNL A   1      39.948  29.800  33.723  1.00  0.00     0.138 A 
ATOM     73  C   UNL A   1      41.114  30.312  34.301  1.00  0.00     0.049 A 
ATOM     74  C   UNL A   1      39.978  28.517  33.160  1.00  0.00     0.084 A 
ATOM     75  C   UNL A   1      42.293  29.563  34.305  1.00  0.00     0.024 A 
ATOM     76  C   UNL A   1      41.158  27.767  33.158  1.00  0.00     0.045 A 
ATOM     77  Cl  UNL A   1      38.566  27.819  32.449  1.00  0.00    -0.080 Cl
ATOM     78  C   UNL A   1      42.309  28.293  33.738  1.00  0.00     0.042 A 
ATOM     79  Cl  UNL A   1      43.755  27.364  33.777  1.00  0.00    -0.084 Cl
ENDBRANCH  71  72
ENDBRANCH  70  71
ENDBRANCH  68  70
ENDBRANCH  59  62
ENDBRANCH  57  58
ENDBRANCH   1  57
TORSDOF 13
ENDMDL
MODEL 2
REMARK VINA RESULT:      -9.6      4.796     10.137
REMARK SMILES O=C(NCCCNC(=O)C1CCN(C(=O)COc2ccc(Cl)cc2Cl)CC1)c1ccc(-c2c3nc(c(-c4ccccc4)c4ccc([nH]4)c(-c4ccccc4)c4nc(c(-c5ccccc5)c5ccc2[nH]5)C=C4)C=C3)cc1
REMARK SMILES IDX 5 1 4 2 3 3 1 4 2 5 28 7 29 8 75 9 30 10 74 11 31 12 32 13
REMARK SMILES IDX 33 14 68 15 34 16 73 17 67 18 69 19 35 20 72 21 66 22 65 23
REMARK SMILES IDX 36 25 58 26 43 27 57 28 44 29 47 30 56 31 70 32 45 33 46 34
REMARK SMILES IDX 55 36 71 37 48 38 37 39 38 40 42 41 39 42 41 43 40 44 59 45
REMARK SMILES IDX 60 46 64 47 61 48 63 49 62 50 49 51 50 52 54 53 51 54 53 55
REMARK SMILES IDX 52 56 6 57 7 58 8 59 9 61 10 62 11 63 27 64 12 65 26 66
REMARK SMILES IDX 13 67 14 68 15 69 16 70 17 71 18 72 19 73 24 74 20 75 23 76
REMARK SMILES IDX 25 77 21 78 22 79
REMARK H PARENT 3 6 69 24 47 35 7 60
REMARK Flexibility Score: inf
ROOT
ATOM      1  C   UNL A   1      37.829  19.646  25.009  1.00  0.00     0.042 C 
ENDROOT
BRANCH   1   2
ATOM      2  C   UNL A   1      39.044  20.137  25.781  1.00  0.00     0.118 C 
BRANCH   2   3
ATOM      3  N   UNL A   1      40.103  19.142  25.869  1.00  0.00    -0.352 N 
ATOM      4  O   UNL A   1      42.209  18.349  25.971  1.00  0.00    -0.269 OA
ATOM      5  C   UNL A   1      41.445  19.304  26.102  1.00  0.00     0.251 C 
ATOM      6  H   UNL A   1      39.811  18.210  25.741  1.00  0.00     0.163 HD
BRANCH   5   7
ATOM      7  C   UNL A   1      41.979  20.623  26.496  1.00  0.00     0.039 A 
ATOM      8  C   UNL A   1      42.380  21.548  25.528  1.00  0.00     0.014 A 
ATOM      9  C   UNL A   1      42.035  20.960  27.852  1.00  0.00     0.014 A 
ATOM     10  C   UNL A   1      42.954  22.752  25.915  1.00  0.00     0.010 A 
ATOM     11  C   UNL A   1      42.524  22.211  28.237  1.00  0.00     0.010 A 
ATOM     12  C   UNL A   1      42.995  23.113  27.271  1.00  0.00    -0.014 A 
BRANCH  12  13
ATOM     13  C   UNL A   1      43.400  24.490  27.642  1.00  0.00     0.031 A 
ATOM     14  C   UNL A   1      42.387  25.537  28.002  1.00  0.00     0.074 A 
ATOM     15  C   UNL A   1      44.715  24.786  27.632  1.00  0.00     0.049 A 
ATOM     16  N   UNL A   1      42.586  26.792  28.320  1.00  0.00    -0.248 NA
ATOM     17  C   UNL A   1      40.972  25.136  28.004  1.00  0.00     0.031 C 
ATOM     18  C   UNL A   1      45.789  23.848  27.286  1.00  0.00     0.029 A 
ATOM     19  N   UNL A   1      45.377  25.952  27.920  1.00  0.00    -0.354 N 
ATOM     20  C   UNL A   1      41.328  27.336  28.536  1.00  0.00     0.074 A 
ATOM     21  C   UNL A   1      40.366  26.279  28.304  1.00  0.00     0.031 C 
ATOM     22  C   UNL A   1      46.972  24.466  27.406  1.00  0.00     0.029 A 
ATOM     23  C   UNL A   1      46.740  25.859  27.762  1.00  0.00     0.049 A 
ATOM     24  H   UNL A   1      44.921  26.775  28.210  1.00  0.00     0.167 HD
ATOM     25  C   UNL A   1      41.009  28.604  28.890  1.00  0.00     0.031 A 
ATOM     26  C   UNL A   1      47.698  26.799  27.851  1.00  0.00     0.031 A 
ATOM     27  C   UNL A   1      41.976  29.647  29.121  1.00  0.00     0.049 A 
ATOM     28  C   UNL A   1      47.302  28.206  28.192  1.00  0.00     0.074 A 
ATOM     29  C   UNL A   1      41.752  30.944  29.551  1.00  0.00     0.029 A 
ATOM     30  N   UNL A   1      43.341  29.522  28.923  1.00  0.00    -0.354 N 
ATOM     31  N   UNL A   1      46.114  28.681  28.475  1.00  0.00    -0.248 NA
ATOM     32  C   UNL A   1      48.376  29.207  28.220  1.00  0.00     0.031 C 
ATOM     33  C   UNL A   1      42.972  31.625  29.539  1.00  0.00     0.029 A 
ATOM     34  C   UNL A   1      43.965  30.734  29.167  1.00  0.00     0.049 A 
ATOM     35  H   UNL A   1      43.799  28.694  28.649  1.00  0.00     0.167 HD
ATOM     36  C   UNL A   1      46.299  30.033  28.725  1.00  0.00     0.074 A 
ATOM     37  C   UNL A   1      47.717  30.294  28.593  1.00  0.00     0.031 C 
ATOM     38  C   UNL A   1      45.376  30.978  29.025  1.00  0.00     0.031 A 
BRANCH  25  39
ATOM     39  C   UNL A   1      39.556  28.965  29.022  1.00  0.00    -0.014 A 
ATOM     40  C   UNL A   1      38.801  29.391  27.920  1.00  0.00     0.009 A 
ATOM     41  C   UNL A   1      38.908  28.766  30.253  1.00  0.00     0.009 A 
ATOM     42  C   UNL A   1      37.429  29.624  28.051  1.00  0.00     0.001 A 
ATOM     43  C   UNL A   1      37.533  28.975  30.376  1.00  0.00     0.001 A 
ATOM     44  C   UNL A   1      36.795  29.408  29.276  1.00  0.00     0.000 A 
ENDBRANCH  25  39
BRANCH  26  45
ATOM     45  C   UNL A   1      49.111  26.457  27.546  1.00  0.00    -0.014 A 
ATOM     46  C   UNL A   1      49.592  26.480  26.229  1.00  0.00     0.009 A 
ATOM     47  C   UNL A   1      49.984  26.076  28.579  1.00  0.00     0.009 A 
ATOM     48  C   UNL A   1      50.904  26.093  25.949  1.00  0.00     0.001 A 
ATOM     49  C   UNL A   1      51.307  25.727  28.301  1.00  0.00     0.001 A 
ATOM     50  C   UNL A   1      51.761  25.721  26.985  1.00  0.00     0.000 A 
ENDBRANCH  26  45
BRANCH  38  51
ATOM     51  C   UNL A   1      45.876  32.377  29.244  1.00  0.00    -0.014 A 
ATOM     52  C   UNL A   1      46.367  32.782  30.495  1.00  0.00     0.009 A 
ATOM     53  C   UNL A   1      45.899  33.287  28.175  1.00  0.00     0.009 A 
ATOM     54  C   UNL A   1      46.844  34.081  30.679  1.00  0.00     0.001 A 
ATOM     55  C   UNL A   1      46.406  34.574  28.354  1.00  0.00     0.001 A 
ATOM     56  C   UNL A   1      46.871  34.972  29.607  1.00  0.00     0.000 A 
ENDBRANCH  38  51
ENDBRANCH  12  13
ENDBRANCH   5   7
ENDBRANCH   2   3
ENDBRANCH   1   2
BRANCH   1  57
ATOM     57  C   UNL A   1      36.769  20.711  24.763  1.00  0.00     0.117 C 
BRANCH  57  58
ATOM     58  N   UNL A   1      35.475  20.337  25.302  1.00  0.00    -0.356 N 
ATOM     59  C   UNL A   1      34.446  21.101  25.751  1.00  0.00     0.223 C 
ATOM     60  H   UNL A   1      35.316  19.367  25.350  1.00  0.00     0.163 HD
ATOM     61  O   UNL A   1      33.505  20.514  26.285  1.00  0.00    -0.275 OA
BRANCH  59  62
ATOM     62  C   UNL A   1      34.493  22.618  25.602  1.00  0.00     0.082 C 
ATOM     63  C   UNL A   1      33.794  23.296  26.800  1.00  0.00     0.035 C 
ATOM     64  C   UNL A   1      33.872  23.104  24.279  1.00  0.00     0.035 C 
ATOM     65  C   UNL A   1      32.266  23.178  26.729  1.00  0.00     0.120 C 
ATOM     66  C   UNL A   1      32.349  23.013  24.278  1.00  0.00     0.120 C 
ATOM     67  N   UNL A   1      31.794  23.683  25.445  1.00  0.00    -0.340 N 
ATOM     68  C   UNL A   1      30.886  24.732  25.416  1.00  0.00     0.260 C 
ATOM     69  O   UNL A   1      30.267  25.092  26.420  1.00  0.00    -0.271 OA
BRANCH  68  70
ATOM     70  C   UNL A   1      30.730  25.514  24.106  1.00  0.00     0.329 C 
BRANCH  70  71
ATOM     71  O   UNL A   1      31.813  26.364  23.736  1.00  0.00    -0.482 OA
BRANCH  71  72
ATOM     72  C   UNL A   1      31.794  27.625  24.277  1.00  0.00     0.138 A 
ATOM     73  C   UNL A   1      30.842  28.580  23.906  1.00  0.00     0.049 A 
ATOM     74  C   UNL A   1      32.664  27.912  25.337  1.00  0.00     0.084 A 
ATOM     75  C   UNL A   1      30.767  29.805  24.573  1.00  0.00     0.024 A 
ATOM     76  C   UNL A   1      32.595  29.140  26.004  1.00  0.00     0.045 A 
ATOM     77  Cl  UNL A   1      33.850  26.767  25.858  1.00  0.00    -0.080 Cl
ATOM     78  C   UNL A   1      31.641  30.078  25.621  1.00  0.00     0.042 A 
ATOM     79  Cl  UNL A   1      31.521  31.575  26.458  1.00  0.00    -0.084 Cl
ENDBRANCH  71  72
ENDBRANCH  70  71
ENDBRANCH  68  70
ENDBRANCH  59  62
ENDBRANCH  57  58
ENDBRANCH   1  57
TORSDOF 13
ENDMDL
MODEL 3
REMARK VINA RESULT:      -9.5      5.134     10.559
REMARK SMILES O=C(NCCCNC(=O)C1CCN(C(=O)COc2ccc(Cl)cc2Cl)CC1)c1ccc(-c2c3nc(c(-c4ccccc4)c4ccc([nH]4)c(-c4ccccc4)c4nc(c(-c5ccccc5)c5ccc2[nH]5)C=C4)C=C3)cc1
REMARK SMILES IDX 5 1 4 2 3 3 1 4 2 5 28 7 29 8 75 9 30 10 74 11 31 12 32 13
REMARK SMILES IDX 33 14 68 15 34 16 73 17 67 18 69 19 35 20 72 21 66 22 65 23
REMARK SMILES IDX 36 25 58 26 43 27 57 28 44 29 47 30 56 31 70 32 45 33 46 34
REMARK SMILES IDX 55 36 71 37 48 38 37 39 38 40 42 41 39 42 41 43 40 44 59 45
REMARK SMILES IDX 60 46 64 47 61 48 63 49 62 50 49 51 50 52 54 53 51 54 53 55
REMARK SMILES IDX 52 56 6 57 7 58 8 59 9 61 10 62 11 63 27 64 12 65 26 66
REMARK SMILES IDX 13 67 14 68 15 69 16 70 17 71 18 72 19 73 24 74 20 75 23 76
REMARK SMILES IDX 25 77 21 78 22 79
REMARK H PARENT 3 6 69 24 47 35 7 60
REMARK Flexibility Score: inf
ROOT
ATOM      1  C   UNL A   1      37.616  19.792  25.045  1.00  0.00     0.042 C 
ENDROOT
BRANCH   1   2
ATOM      2  C   UNL A   1      38.887  20.305  25.706  1.00  0.00     0.118 C 
BRANCH   2   3
ATOM      3  N   UNL A   1      39.923  19.287  25.812  1.00  0.00    -0.352 N 
ATOM      4  O   UNL A   1      42.010  18.450  25.946  1.00  0.00    -0.269 OA
ATOM      5  C   UNL A   1      41.265  19.421  26.063  1.00  0.00     0.251 C 
ATOM      6  H   UNL A   1      39.613  18.361  25.685  1.00  0.00     0.163 HD
BRANCH   5   7
ATOM      7  C   UNL A   1      41.822  20.731  26.458  1.00  0.00     0.039 A 
ATOM      8  C   UNL A   1      42.147  21.687  25.492  1.00  0.00     0.014 A 
ATOM      9  C   UNL A   1      41.977  21.026  27.815  1.00  0.00     0.014 A 
ATOM     10  C   UNL A   1      42.743  22.883  25.873  1.00  0.00     0.010 A 
ATOM     11  C   UNL A   1      42.488  22.267  28.203  1.00  0.00     0.010 A 
ATOM     12  C   UNL A   1      42.884  23.201  27.233  1.00  0.00    -0.014 A 
BRANCH  12  13
ATOM     13  C   UNL A   1      43.310  24.569  27.616  1.00  0.00     0.031 A 
ATOM     14  C   UNL A   1      42.315  25.621  28.011  1.00  0.00     0.074 A 
ATOM     15  C   UNL A   1      44.628  24.852  27.585  1.00  0.00     0.049 A 
ATOM     16  N   UNL A   1      42.533  26.869  28.344  1.00  0.00    -0.248 NA
ATOM     17  C   UNL A   1      40.896  25.234  28.035  1.00  0.00     0.031 C 
ATOM     18  C   UNL A   1      45.685  23.908  27.205  1.00  0.00     0.029 A 
ATOM     19  N   UNL A   1      45.307  26.006  27.877  1.00  0.00    -0.354 N 
ATOM     20  C   UNL A   1      41.285  27.422  28.592  1.00  0.00     0.074 A 
ATOM     21  C   UNL A   1      40.308  26.378  28.363  1.00  0.00     0.031 C 
ATOM     22  C   UNL A   1      46.876  24.512  27.311  1.00  0.00     0.029 A 
ATOM     23  C   UNL A   1      46.665  25.902  27.692  1.00  0.00     0.049 A 
ATOM     24  H   UNL A   1      44.865  26.829  28.189  1.00  0.00     0.167 HD
ATOM     25  C   UNL A   1      40.986  28.688  28.971  1.00  0.00     0.031 A 
ATOM     26  C   UNL A   1      47.634  26.831  27.776  1.00  0.00     0.031 A 
ATOM     27  C   UNL A   1      41.968  29.717  29.198  1.00  0.00     0.049 A 
ATOM     28  C   UNL A   1      47.260  28.236  28.146  1.00  0.00     0.074 A 
ATOM     29  C   UNL A   1      41.766  31.010  29.652  1.00  0.00     0.029 A 
ATOM     30  N   UNL A   1      43.328  29.581  28.972  1.00  0.00    -0.354 N 
ATOM     31  N   UNL A   1      46.083  28.719  28.459  1.00  0.00    -0.248 NA
ATOM     32  C   UNL A   1      48.345  29.226  28.167  1.00  0.00     0.031 C 
ATOM     33  C   UNL A   1      42.992  31.679  29.626  1.00  0.00     0.029 A 
ATOM     34  C   UNL A   1      43.969  30.784  29.222  1.00  0.00     0.049 A 
ATOM     35  H   UNL A   1      43.772  28.753  28.678  1.00  0.00     0.167 HD
ATOM     36  C   UNL A   1      46.287  30.066  28.724  1.00  0.00     0.074 A 
ATOM     37  C   UNL A   1      47.705  30.314  28.569  1.00  0.00     0.031 C 
ATOM     38  C   UNL A   1      45.380  31.015  29.057  1.00  0.00     0.031 A 
BRANCH  25  39
ATOM     39  C   UNL A   1      39.540  29.061  29.136  1.00  0.00    -0.014 A 
ATOM     40  C   UNL A   1      38.761  29.486  28.050  1.00  0.00     0.009 A 
ATOM     41  C   UNL A   1      38.921  28.876  30.384  1.00  0.00     0.009 A 
ATOM     42  C   UNL A   1      37.395  29.731  28.213  1.00  0.00     0.001 A 
ATOM     43  C   UNL A   1      37.551  29.097  30.539  1.00  0.00     0.001 A 
ATOM     44  C   UNL A   1      36.790  29.528  29.455  1.00  0.00     0.000 A 
ENDBRANCH  25  39
BRANCH  26  45
ATOM     45  C   UNL A   1      49.039  26.479  27.439  1.00  0.00    -0.014 A 
ATOM     46  C   UNL A   1      49.499  26.535  26.116  1.00  0.00     0.009 A 
ATOM     47  C   UNL A   1      49.922  26.055  28.446  1.00  0.00     0.009 A 
ATOM     48  C   UNL A   1      50.801  26.138  25.804  1.00  0.00     0.001 A 
ATOM     49  C   UNL A   1      51.235  25.698  28.137  1.00  0.00     0.001 A 
ATOM     50  C   UNL A   1      51.668  25.725  26.814  1.00  0.00     0.000 A 
ENDBRANCH  26  45
BRANCH  38  51
ATOM     51  C   UNL A   1      45.898  32.405  29.286  1.00  0.00    -0.014 A 
ATOM     52  C   UNL A   1      45.936  33.344  28.243  1.00  0.00     0.009 A 
ATOM     53  C   UNL A   1      46.310  32.795  30.570  1.00  0.00     0.009 A 
ATOM     54  C   UNL A   1      46.405  34.638  28.476  1.00  0.00     0.001 A 
ATOM     55  C   UNL A   1      46.748  34.099  30.806  1.00  0.00     0.001 A 
ATOM     56  C   UNL A   1      46.802  35.016  29.758  1.00  0.00     0.000 A 
ENDBRANCH  38  51
ENDBRANCH  12  13
ENDBRANCH   5   7
ENDBRANCH   2   3
ENDBRANCH   1   2
BRANCH   1  57
ATOM     57  C   UNL A   1      36.568  20.864  24.785  1.00  0.00     0.117 C 
BRANCH  57  58
ATOM     58  N   UNL A   1      35.237  20.442  25.176  1.00  0.00    -0.356 N 
ATOM     59  C   UNL A   1      34.042  21.084  25.097  1.00  0.00     0.223 C 
ATOM     60  H   UNL A   1      35.190  19.538  25.564  1.00  0.00     0.163 HD
ATOM     61  O   UNL A   1      33.076  20.538  25.631  1.00  0.00    -0.275 OA
BRANCH  59  62
ATOM     62  C   UNL A   1      33.938  22.429  24.385  1.00  0.00     0.082 C 
ATOM     63  C   UNL A   1      34.313  23.575  25.348  1.00  0.00     0.035 C 
ATOM     64  C   UNL A   1      32.542  22.676  23.782  1.00  0.00     0.035 C 
ATOM     65  C   UNL A   1      33.212  23.857  26.379  1.00  0.00     0.120 C 
ATOM     66  C   UNL A   1      31.495  23.000  24.842  1.00  0.00     0.120 C 
ATOM     67  N   UNL A   1      31.947  24.092  25.693  1.00  0.00    -0.340 N 
ATOM     68  C   UNL A   1      31.281  25.295  25.881  1.00  0.00     0.260 C 
ATOM     69  O   UNL A   1      31.576  26.073  26.791  1.00  0.00    -0.271 OA
BRANCH  68  70
ATOM     70  C   UNL A   1      30.210  25.694  24.858  1.00  0.00     0.329 C 
BRANCH  70  71
ATOM     71  O   UNL A   1      30.643  26.487  23.756  1.00  0.00    -0.482 OA
BRANCH  71  72
ATOM     72  C   UNL A   1      29.930  27.637  23.530  1.00  0.00     0.138 A 
ATOM     73  C   UNL A   1      28.566  27.620  23.223  1.00  0.00     0.049 A 
ATOM     74  C   UNL A   1      30.556  28.870  23.761  1.00  0.00     0.084 A 
ATOM     75  C   UNL A   1      27.842  28.811  23.134  1.00  0.00     0.024 A 
ATOM     76  C   UNL A   1      29.836  30.064  23.668  1.00  0.00     0.045 A 
ATOM     77  Cl  UNL A   1      32.234  28.959  24.166  1.00  0.00    -0.080 Cl
ATOM     78  C   UNL A   1      28.478  30.027  23.361  1.00  0.00     0.042 A 
ATOM     79  Cl  UNL A   1      27.573  31.487  23.283  1.00  0.00    -0.084 Cl
ENDBRANCH  71  72
ENDBRANCH  70  71
ENDBRANCH  68  70
ENDBRANCH  59  62
ENDBRANCH  57  58
ENDBRANCH   1  57
TORSDOF 13
ENDMDL
