MODEL 1
REMARK VINA RESULT:      -9.0      0.000      0.000
REMARK SMILES CS(=O)(=O)c1ccc(/C=C(/C(=O)NCCCNC(=O)c2ccc(-c3c4nc(c(-c5ccccc5)c5ccc([nH]5)c(-c5ccccc5)c5nc(c(-c6ccccc6)c6ccc3[nH]6)C=C5)C=C4)cc2)c2cccc(Br)c2)cc1
REMARK SMILES IDX 15 1 14 2 13 3 11 4 12 5 10 7 9 8 8 9 5 10 6 11 76 12 7 13
REMARK SMILES IDX 75 14 2 15 1 16 3 17 4 18 68 19 69 20 74 21 70 22 72 23
REMARK SMILES IDX 71 24 73 25 16 26 17 27 18 28 19 30 20 31 21 32 67 33 22 34
REMARK SMILES IDX 66 35 23 36 24 37 25 38 60 39 26 40 65 41 59 42 61 43 27 44
REMARK SMILES IDX 64 45 58 46 57 47 28 49 50 50 35 51 49 52 36 53 39 54 48 55
REMARK SMILES IDX 62 56 37 57 38 58 47 60 63 61 40 62 29 63 30 64 34 65 31 66
REMARK SMILES IDX 33 67 32 68 51 69 52 70 56 71 53 72 55 73 54 74 41 75 42 76
REMARK SMILES IDX 46 77 43 78 45 79 44 80
REMARK H PARENT 13 6 17 29 61 48 39 59
REMARK Flexibility Score: inf
ROOT
ATOM      1  C   UNL A   1      34.683  33.235  30.378  1.00  0.00     0.042 C 
ENDROOT
BRANCH   1   2
ATOM      2  C   UNL A   1      35.040  32.164  31.412  1.00  0.00     0.118 C 
BRANCH   2   3
ATOM      3  N   UNL A   1      35.117  32.734  32.745  1.00  0.00    -0.352 N 
ATOM      4  C   UNL A   1      36.075  32.749  33.711  1.00  0.00     0.251 C 
ATOM      5  O   UNL A   1      35.784  33.343  34.753  1.00  0.00    -0.269 OA
ATOM      6  H   UNL A   1      34.299  33.215  33.007  1.00  0.00     0.163 HD
BRANCH   4   7
ATOM      7  C   UNL A   1      37.450  32.155  33.528  1.00  0.00     0.047 C 
ATOM      8  C   UNL A   1      37.733  30.893  33.923  1.00  0.00     0.022 C 
BRANCH   8   9
ATOM      9  C   UNL A   1      38.989  30.133  33.757  1.00  0.00    -0.025 A 
ATOM     10  C   UNL A   1      41.403  28.708  33.639  1.00  0.00     0.067 A 
ATOM     11  C   UNL A   1      40.310  28.283  32.884  1.00  0.00     0.021 A 
ATOM     12  C   UNL A   1      41.322  29.868  34.411  1.00  0.00     0.021 A 
ATOM     13  C   UNL A   1      39.114  29.006  32.932  1.00  0.00     0.009 A 
ATOM     14  C   UNL A   1      40.117  30.575  34.466  1.00  0.00     0.009 A 
BRANCH  10  15
ATOM     15  S   UNL A   1      42.913  27.771  33.610  1.00  0.00     0.175 S 
ATOM     16  C   UNL A   1      42.633  26.439  34.749  1.00  0.00     0.163 C 
ATOM     17  O   UNL A   1      43.957  28.605  34.169  1.00  0.00    -0.224 OA
ATOM     18  O   UNL A   1      43.032  27.215  32.274  1.00  0.00    -0.224 OA
ENDBRANCH  10  15
ENDBRANCH   8   9
BRANCH   7  19
ATOM     19  C   UNL A   1      38.531  33.067  33.070  1.00  0.00    -0.012 A 
ATOM     20  C   UNL A   1      39.522  33.461  33.986  1.00  0.00     0.009 A 
ATOM     21  C   UNL A   1      38.647  33.467  31.733  1.00  0.00     0.024 A 
ATOM     22  C   UNL A   1      40.621  34.215  33.575  1.00  0.00     0.002 A 
ATOM     23  C   UNL A   1      39.761  34.204  31.324  1.00  0.00     0.018 A 
ATOM     24  C   UNL A   1      40.747  34.578  32.237  1.00  0.00     0.016 A 
ATOM     25  Br  UNL A   1      39.963  34.658  29.500  1.00  0.00    -0.051 Br
ENDBRANCH   7  19
ENDBRANCH   4   7
ENDBRANCH   2   3
ENDBRANCH   1   2
BRANCH   1  26
ATOM     26  C   UNL A   1      35.048  32.858  28.940  1.00  0.00     0.118 C 
BRANCH  26  27
ATOM     27  N   UNL A   1      34.259  31.743  28.442  1.00  0.00    -0.352 N 
ATOM     28  C   UNL A   1      34.646  30.481  28.065  1.00  0.00     0.251 C 
ATOM     29  H   UNL A   1      33.294  31.922  28.361  1.00  0.00     0.163 HD
ATOM     30  O   UNL A   1      33.843  29.757  27.481  1.00  0.00    -0.269 OA
BRANCH  28  31
ATOM     31  C   UNL A   1      36.012  29.983  28.338  1.00  0.00     0.039 A 
ATOM     32  C   UNL A   1      36.972  30.079  27.324  1.00  0.00     0.014 A 
ATOM     33  C   UNL A   1      36.342  29.367  29.548  1.00  0.00     0.014 A 
ATOM     34  C   UNL A   1      38.268  29.605  27.540  1.00  0.00     0.010 A 
ATOM     35  C   UNL A   1      37.652  28.946  29.784  1.00  0.00     0.010 A 
ATOM     36  C   UNL A   1      38.626  29.058  28.782  1.00  0.00    -0.014 A 
BRANCH  36  37
ATOM     37  C   UNL A   1      40.017  28.607  29.044  1.00  0.00     0.031 A 
ATOM     38  C   UNL A   1      41.003  29.517  29.722  1.00  0.00     0.074 A 
ATOM     39  C   UNL A   1      40.409  27.389  28.626  1.00  0.00     0.049 A 
ATOM     40  N   UNL A   1      42.267  29.306  30.000  1.00  0.00    -0.248 NA
ATOM     41  C   UNL A   1      40.514  30.846  30.123  1.00  0.00     0.031 C 
ATOM     42  C   UNL A   1      39.564  26.421  27.925  1.00  0.00     0.029 A 
ATOM     43  N   UNL A   1      41.625  26.758  28.726  1.00  0.00    -0.354 N 
ATOM     44  C   UNL A   1      42.725  30.478  30.589  1.00  0.00     0.074 A 
ATOM     45  C   UNL A   1      41.617  31.409  30.595  1.00  0.00     0.031 C 
ATOM     46  C   UNL A   1      40.277  25.310  27.680  1.00  0.00     0.029 A 
ATOM     47  C   UNL A   1      41.636  25.499  28.176  1.00  0.00     0.049 A 
ATOM     48  H   UNL A   1      42.411  27.168  29.151  1.00  0.00     0.167 HD
ATOM     49  C   UNL A   1      43.952  30.750  31.094  1.00  0.00     0.031 A 
ATOM     50  C   UNL A   1      42.631  24.597  28.077  1.00  0.00     0.031 A 
ATOM     51  C   UNL A   1      45.054  29.824  31.100  1.00  0.00     0.049 A 
ATOM     52  C   UNL A   1      43.984  24.924  28.642  1.00  0.00     0.074 A 
ATOM     53  C   UNL A   1      46.318  29.990  31.642  1.00  0.00     0.029 A 
ATOM     54  N   UNL A   1      45.024  28.559  30.538  1.00  0.00    -0.354 N 
ATOM     55  N   UNL A   1      44.382  26.014  29.251  1.00  0.00    -0.248 NA
ATOM     56  C   UNL A   1      45.020  23.889  28.513  1.00  0.00     0.031 C 
ATOM     57  C   UNL A   1      47.067  28.840  31.368  1.00  0.00     0.029 A 
ATOM     58  C   UNL A   1      46.253  27.941  30.698  1.00  0.00     0.049 A 
ATOM     59  H   UNL A   1      44.243  28.158  30.090  1.00  0.00     0.167 HD
ATOM     60  C   UNL A   1      45.708  25.789  29.598  1.00  0.00     0.074 A 
ATOM     61  C   UNL A   1      46.040  24.454  29.145  1.00  0.00     0.031 C 
ATOM     62  C   UNL A   1      46.571  26.615  30.235  1.00  0.00     0.031 A 
BRANCH  49  63
ATOM     63  C   UNL A   1      44.170  32.120  31.677  1.00  0.00    -0.014 A 
ATOM     64  C   UNL A   1      44.039  32.352  33.055  1.00  0.00     0.009 A 
ATOM     65  C   UNL A   1      44.540  33.184  30.840  1.00  0.00     0.009 A 
ATOM     66  C   UNL A   1      44.236  33.632  33.578  1.00  0.00     0.001 A 
ATOM     67  C   UNL A   1      44.764  34.456  31.370  1.00  0.00     0.001 A 
ATOM     68  C   UNL A   1      44.601  34.682  32.736  1.00  0.00     0.000 A 
ENDBRANCH  49  63
BRANCH  50  69
ATOM     69  C   UNL A   1      42.377  23.284  27.433  1.00  0.00    -0.014 A 
ATOM     70  C   UNL A   1      41.813  22.231  28.169  1.00  0.00     0.009 A 
ATOM     71  C   UNL A   1      42.689  23.079  26.081  1.00  0.00     0.009 A 
ATOM     72  C   UNL A   1      41.588  20.990  27.569  1.00  0.00     0.001 A 
ATOM     73  C   UNL A   1      42.439  21.844  25.477  1.00  0.00     0.001 A 
ATOM     74  C   UNL A   1      41.896  20.800  26.223  1.00  0.00     0.000 A 
ENDBRANCH  50  69
BRANCH  62  75
ATOM     75  C   UNL A   1      47.953  26.086  30.499  1.00  0.00    -0.014 A 
ATOM     76  C   UNL A   1      48.941  26.107  29.504  1.00  0.00     0.009 A 
ATOM     77  C   UNL A   1      48.275  25.586  31.770  1.00  0.00     0.009 A 
ATOM     78  C   UNL A   1      50.217  25.605  29.766  1.00  0.00     0.001 A 
ATOM     79  C   UNL A   1      49.559  25.109  32.037  1.00  0.00     0.001 A 
ATOM     80  C   UNL A   1      50.526  25.110  31.033  1.00  0.00     0.000 A 
ENDBRANCH  62  75
ENDBRANCH  36  37
ENDBRANCH  28  31
ENDBRANCH  26  27
ENDBRANCH   1  26
TORSDOF 13
ENDMDL
MODEL 2
REMARK VINA RESULT:      -8.9      4.954      7.937
REMARK SMILES CS(=O)(=O)c1ccc(/C=C(/C(=O)NCCCNC(=O)c2ccc(-c3c4nc(c(-c5ccccc5)c5ccc([nH]5)c(-c5ccccc5)c5nc(c(-c6ccccc6)c6ccc3[nH]6)C=C5)C=C4)cc2)c2cccc(Br)c2)cc1
REMARK SMILES IDX 15 1 14 2 13 3 11 4 12 5 10 7 9 8 8 9 5 10 6 11 76 12 7 13
REMARK SMILES IDX 75 14 2 15 1 16 3 17 4 18 68 19 69 20 74 21 70 22 72 23
REMARK SMILES IDX 71 24 73 25 16 26 17 27 18 28 19 30 20 31 21 32 67 33 22 34
REMARK SMILES IDX 66 35 23 36 24 37 25 38 60 39 26 40 65 41 59 42 61 43 27 44
REMARK SMILES IDX 64 45 58 46 57 47 28 49 50 50 35 51 49 52 36 53 39 54 48 55
REMARK SMILES IDX 62 56 37 57 38 58 47 60 63 61 40 62 29 63 30 64 34 65 31 66
REMARK SMILES IDX 33 67 32 68 51 69 52 70 56 71 53 72 55 73 54 74 41 75 42 76
REMARK SMILES IDX 46 77 43 78 45 79 44 80
REMARK H PARENT 13 6 17 29 61 48 39 59
REMARK Flexibility Score: inf
ROOT
ATOM      1  C   UNL A   1      34.112  28.469  25.801  1.00  0.00     0.042 C 
ENDROOT
BRANCH   1   2
ATOM      2  C   UNL A   1      32.985  28.719  24.795  1.00  0.00     0.118 C 
BRANCH   2   3
ATOM      3  N   UNL A   1      33.424  28.432  23.441  1.00  0.00    -0.352 N 
ATOM      4  C   UNL A   1      33.580  27.288  22.722  1.00  0.00     0.251 C 
ATOM      5  O   UNL A   1      33.990  27.426  21.566  1.00  0.00    -0.269 OA
ATOM      6  H   UNL A   1      33.660  29.242  22.932  1.00  0.00     0.163 HD
BRANCH   4   7
ATOM      7  C   UNL A   1      33.209  25.921  23.243  1.00  0.00     0.047 C 
ATOM      8  C   UNL A   1      33.855  24.808  22.828  1.00  0.00     0.022 C 
BRANCH   8   9
ATOM      9  C   UNL A   1      33.676  23.412  23.281  1.00  0.00    -0.025 A 
ATOM     10  C   UNL A   1      33.317  20.712  23.950  1.00  0.00     0.067 A 
ATOM     11  C   UNL A   1      34.266  21.474  24.631  1.00  0.00     0.021 A 
ATOM     12  C   UNL A   1      32.506  21.296  22.976  1.00  0.00     0.021 A 
ATOM     13  C   UNL A   1      34.430  22.824  24.306  1.00  0.00     0.009 A 
ATOM     14  C   UNL A   1      32.688  22.642  22.646  1.00  0.00     0.009 A 
BRANCH  10  15
ATOM     15  S   UNL A   1      33.132  18.986  24.333  1.00  0.00     0.175 S 
ATOM     16  C   UNL A   1      32.326  18.298  22.909  1.00  0.00     0.163 C 
ATOM     17  O   UNL A   1      32.209  18.881  25.444  1.00  0.00    -0.224 OA
ATOM     18  O   UNL A   1      34.471  18.432  24.415  1.00  0.00    -0.224 OA
ENDBRANCH  10  15
ENDBRANCH   8   9
BRANCH   7  19
ATOM     19  C   UNL A   1      31.989  25.821  24.086  1.00  0.00    -0.012 A 
ATOM     20  C   UNL A   1      32.125  25.453  25.437  1.00  0.00     0.009 A 
ATOM     21  C   UNL A   1      30.723  26.174  23.604  1.00  0.00     0.024 A 
ATOM     22  C   UNL A   1      31.027  25.463  26.297  1.00  0.00     0.002 A 
ATOM     23  C   UNL A   1      29.632  26.202  24.477  1.00  0.00     0.018 A 
ATOM     24  C   UNL A   1      29.778  25.850  25.818  1.00  0.00     0.016 A 
ATOM     25  Br  UNL A   1      27.944  26.774  23.845  1.00  0.00    -0.051 Br
ENDBRANCH   7  19
ENDBRANCH   4   7
ENDBRANCH   2   3
ENDBRANCH   1   2
BRANCH   1  26
ATOM     26  C   UNL A   1      33.694  28.650  27.262  1.00  0.00     0.118 C 
BRANCH  26  27
ATOM     27  N   UNL A   1      33.672  30.047  27.664  1.00  0.00    -0.352 N 
ATOM     28  C   UNL A   1      34.615  30.795  28.325  1.00  0.00     0.251 C 
ATOM     29  H   UNL A   1      32.850  30.534  27.424  1.00  0.00     0.163 HD
ATOM     30  O   UNL A   1      34.310  31.909  28.744  1.00  0.00    -0.269 OA
BRANCH  28  31
ATOM     31  C   UNL A   1      35.983  30.279  28.551  1.00  0.00     0.039 A 
ATOM     32  C   UNL A   1      36.900  30.337  27.495  1.00  0.00     0.014 A 
ATOM     33  C   UNL A   1      36.354  29.684  29.759  1.00  0.00     0.014 A 
ATOM     34  C   UNL A   1      38.196  29.846  27.667  1.00  0.00     0.010 A 
ATOM     35  C   UNL A   1      37.665  29.246  29.950  1.00  0.00     0.010 A 
ATOM     36  C   UNL A   1      38.598  29.319  28.904  1.00  0.00    -0.014 A 
BRANCH  36  37
ATOM     37  C   UNL A   1      39.992  28.851  29.118  1.00  0.00     0.031 A 
ATOM     38  C   UNL A   1      41.023  29.762  29.723  1.00  0.00     0.074 A 
ATOM     39  C   UNL A   1      40.343  27.613  28.719  1.00  0.00     0.049 A 
ATOM     40  N   UNL A   1      42.294  29.535  29.950  1.00  0.00    -0.248 NA
ATOM     41  C   UNL A   1      40.576  31.110  30.105  1.00  0.00     0.031 C 
ATOM     42  C   UNL A   1      39.450  26.641  28.086  1.00  0.00     0.029 A 
ATOM     43  N   UNL A   1      41.550  26.963  28.783  1.00  0.00    -0.354 N 
ATOM     44  C   UNL A   1      42.799  30.714  30.483  1.00  0.00     0.074 A 
ATOM     45  C   UNL A   1      41.708  31.666  30.510  1.00  0.00     0.031 C 
ATOM     46  C   UNL A   1      40.131  25.511  27.844  1.00  0.00     0.029 A 
ATOM     47  C   UNL A   1      41.515  25.688  28.272  1.00  0.00     0.049 A 
ATOM     48  H   UNL A   1      42.363  27.370  29.160  1.00  0.00     0.167 HD
ATOM     49  C   UNL A   1      44.052  30.978  30.923  1.00  0.00     0.031 A 
ATOM     50  C   UNL A   1      42.489  24.765  28.156  1.00  0.00     0.031 A 
ATOM     51  C   UNL A   1      45.137  30.033  30.908  1.00  0.00     0.049 A 
ATOM     52  C   UNL A   1      43.871  25.083  28.649  1.00  0.00     0.074 A 
ATOM     53  C   UNL A   1      46.427  30.190  31.388  1.00  0.00     0.029 A 
ATOM     54  N   UNL A   1      45.059  28.752  30.386  1.00  0.00    -0.354 N 
ATOM     55  N   UNL A   1      44.316  26.183  29.207  1.00  0.00    -0.248 NA
ATOM     56  C   UNL A   1      44.882  24.026  28.505  1.00  0.00     0.031 C 
ATOM     57  C   UNL A   1      47.142  29.019  31.115  1.00  0.00     0.029 A 
ATOM     58  C   UNL A   1      46.284  28.116  30.509  1.00  0.00     0.049 A 
ATOM     59  H   UNL A   1      44.252  28.353  29.986  1.00  0.00     0.167 HD
ATOM     60  C   UNL A   1      45.652  25.943  29.501  1.00  0.00     0.074 A 
ATOM     61  C   UNL A   1      45.939  24.590  29.073  1.00  0.00     0.031 C 
ATOM     62  C   UNL A   1      46.557  26.772  30.073  1.00  0.00     0.031 A 
BRANCH  49  63
ATOM     63  C   UNL A   1      44.320  32.360  31.454  1.00  0.00    -0.014 A 
ATOM     64  C   UNL A   1      44.750  33.393  30.607  1.00  0.00     0.009 A 
ATOM     65  C   UNL A   1      44.110  32.639  32.813  1.00  0.00     0.009 A 
ATOM     66  C   UNL A   1      45.001  34.669  31.118  1.00  0.00     0.001 A 
ATOM     67  C   UNL A   1      44.336  33.922  33.316  1.00  0.00     0.001 A 
ATOM     68  C   UNL A   1      44.791  34.932  32.471  1.00  0.00     0.000 A 
ENDBRANCH  49  63
BRANCH  50  69
ATOM     69  C   UNL A   1      42.183  23.439  27.563  1.00  0.00    -0.014 A 
ATOM     70  C   UNL A   1      41.607  22.428  28.348  1.00  0.00     0.009 A 
ATOM     71  C   UNL A   1      42.457  23.179  26.212  1.00  0.00     0.009 A 
ATOM     72  C   UNL A   1      41.333  21.175  27.797  1.00  0.00     0.001 A 
ATOM     73  C   UNL A   1      42.158  21.932  25.658  1.00  0.00     0.001 A 
ATOM     74  C   UNL A   1      41.604  20.930  26.451  1.00  0.00     0.000 A 
ENDBRANCH  50  69
BRANCH  62  75
ATOM     75  C   UNL A   1      47.940  26.225  30.291  1.00  0.00    -0.014 A 
ATOM     76  C   UNL A   1      48.328  25.709  31.536  1.00  0.00     0.009 A 
ATOM     77  C   UNL A   1      48.855  26.203  29.228  1.00  0.00     0.009 A 
ATOM     78  C   UNL A   1      49.620  25.211  31.722  1.00  0.00     0.001 A 
ATOM     79  C   UNL A   1      50.137  25.681  29.409  1.00  0.00     0.001 A 
ATOM     80  C   UNL A   1      50.521  25.195  30.657  1.00  0.00     0.000 A 
ENDBRANCH  62  75
ENDBRANCH  36  37
ENDBRANCH  28  31
ENDBRANCH  26  27
ENDBRANCH   1  26
TORSDOF 13
ENDMDL
MODEL 3
REMARK VINA RESULT:      -8.7      5.288     10.897
REMARK SMILES CS(=O)(=O)c1ccc(/C=C(/C(=O)NCCCNC(=O)c2ccc(-c3c4nc(c(-c5ccccc5)c5ccc([nH]5)c(-c5ccccc5)c5nc(c(-c6ccccc6)c6ccc3[nH]6)C=C5)C=C4)cc2)c2cccc(Br)c2)cc1
REMARK SMILES IDX 15 1 14 2 13 3 11 4 12 5 10 7 9 8 8 9 5 10 6 11 76 12 7 13
REMARK SMILES IDX 75 14 2 15 1 16 3 17 4 18 68 19 69 20 74 21 70 22 72 23
REMARK SMILES IDX 71 24 73 25 16 26 17 27 18 28 19 30 20 31 21 32 67 33 22 34
REMARK SMILES IDX 66 35 23 36 24 37 25 38 60 39 26 40 65 41 59 42 61 43 27 44
REMARK SMILES IDX 64 45 58 46 57 47 28 49 50 50 35 51 49 52 36 53 39 54 48 55
REMARK SMILES IDX 62 56 37 57 38 58 47 60 63 61 40 62 29 63 30 64 34 65 31 66
REMARK SMILES IDX 33 67 32 68 51 69 52 70 56 71 53 72 55 73 54 74 41 75 42 76
REMARK SMILES IDX 46 77 43 78 45 79 44 80
REMARK H PARENT 13 6 17 29 61 48 39 59
REMARK Flexibility Score: inf
ROOT
ATOM      1  C   UNL A   1      35.947  23.660  26.078  1.00  0.00     0.042 C 
ENDROOT
BRANCH   1   2
ATOM      2  C   UNL A   1      35.076  22.409  25.936  1.00  0.00     0.118 C 
BRANCH   2   3
ATOM      3  N   UNL A   1      33.992  22.418  26.903  1.00  0.00    -0.352 N 
ATOM      4  C   UNL A   1      32.831  23.117  27.014  1.00  0.00     0.251 C 
ATOM      5  O   UNL A   1      32.135  22.859  27.999  1.00  0.00    -0.269 OA
ATOM      6  H   UNL A   1      34.128  21.777  27.639  1.00  0.00     0.163 HD
BRANCH   4   7
ATOM      7  C   UNL A   1      32.351  24.101  25.974  1.00  0.00     0.047 C 
ATOM      8  C   UNL A   1      31.602  25.175  26.311  1.00  0.00     0.022 C 
BRANCH   8   9
ATOM      9  C   UNL A   1      31.112  26.268  25.445  1.00  0.00    -0.025 A 
ATOM     10  C   UNL A   1      29.996  28.296  23.861  1.00  0.00     0.067 A 
ATOM     11  C   UNL A   1      31.176  28.537  24.563  1.00  0.00     0.021 A 
ATOM     12  C   UNL A   1      29.395  27.037  23.896  1.00  0.00     0.021 A 
ATOM     13  C   UNL A   1      31.739  27.517  25.339  1.00  0.00     0.009 A 
ATOM     14  C   UNL A   1      29.954  26.029  24.687  1.00  0.00     0.009 A 
BRANCH  10  15
ATOM     15  S   UNL A   1      29.257  29.600  22.905  1.00  0.00     0.175 S 
ATOM     16  C   UNL A   1      27.545  29.148  22.783  1.00  0.00     0.163 C 
ATOM     17  O   UNL A   1      29.817  29.535  21.571  1.00  0.00    -0.224 OA
ATOM     18  O   UNL A   1      29.357  30.809  23.702  1.00  0.00    -0.224 OA
ENDBRANCH  10  15
ENDBRANCH   8   9
BRANCH   7  19
ATOM     19  C   UNL A   1      32.572  23.747  24.548  1.00  0.00    -0.012 A 
ATOM     20  C   UNL A   1      33.366  24.593  23.753  1.00  0.00     0.009 A 
ATOM     21  C   UNL A   1      32.095  22.551  23.997  1.00  0.00     0.024 A 
ATOM     22  C   UNL A   1      33.702  24.243  22.445  1.00  0.00     0.002 A 
ATOM     23  C   UNL A   1      32.454  22.197  22.693  1.00  0.00     0.018 A 
ATOM     24  C   UNL A   1      33.254  23.035  21.918  1.00  0.00     0.016 A 
ATOM     25  Br  UNL A   1      31.889  20.536  21.988  1.00  0.00    -0.051 Br
ENDBRANCH   7  19
ENDBRANCH   4   7
ENDBRANCH   2   3
ENDBRANCH   1   2
BRANCH   1  26
ATOM     26  C   UNL A   1      37.132  23.706  25.111  1.00  0.00     0.118 C 
BRANCH  26  27
ATOM     27  N   UNL A   1      38.174  22.754  25.465  1.00  0.00    -0.352 N 
ATOM     28  C   UNL A   1      39.359  22.943  26.131  1.00  0.00     0.251 C 
ATOM     29  H   UNL A   1      38.001  21.828  25.181  1.00  0.00     0.163 HD
ATOM     30  O   UNL A   1      40.188  22.036  26.148  1.00  0.00    -0.269 OA
BRANCH  28  31
ATOM     31  C   UNL A   1      39.659  24.219  26.818  1.00  0.00     0.039 A 
ATOM     32  C   UNL A   1      39.163  24.413  28.112  1.00  0.00     0.014 A 
ATOM     33  C   UNL A   1      40.363  25.246  26.184  1.00  0.00     0.014 A 
ATOM     34  C   UNL A   1      39.413  25.611  28.785  1.00  0.00     0.010 A 
ATOM     35  C   UNL A   1      40.662  26.420  26.878  1.00  0.00     0.010 A 
ATOM     36  C   UNL A   1      40.187  26.615  28.183  1.00  0.00    -0.014 A 
BRANCH  36  37
ATOM     37  C   UNL A   1      40.512  27.868  28.913  1.00  0.00     0.031 A 
ATOM     38  C   UNL A   1      41.836  28.031  29.605  1.00  0.00     0.074 A 
ATOM     39  C   UNL A   1      39.589  28.846  28.993  1.00  0.00     0.049 A 
ATOM     40  N   UNL A   1      42.277  29.039  30.318  1.00  0.00    -0.248 NA
ATOM     41  C   UNL A   1      42.782  26.909  29.502  1.00  0.00     0.031 C 
ATOM     42  C   UNL A   1      38.253  28.802  28.397  1.00  0.00     0.029 A 
ATOM     43  N   UNL A   1      39.636  30.069  29.616  1.00  0.00    -0.354 N 
ATOM     44  C   UNL A   1      43.539  28.665  30.761  1.00  0.00     0.074 A 
ATOM     45  C   UNL A   1      43.779  27.325  30.270  1.00  0.00     0.031 C 
ATOM     46  C   UNL A   1      37.616  29.954  28.660  1.00  0.00     0.029 A 
ATOM     47  C   UNL A   1      38.483  30.803  29.470  1.00  0.00     0.049 A 
ATOM     48  H   UNL A   1      40.419  30.389  30.117  1.00  0.00     0.167 HD
ATOM     49  C   UNL A   1      44.426  29.377  31.498  1.00  0.00     0.031 A 
ATOM     50  C   UNL A   1      38.158  32.022  29.939  1.00  0.00     0.031 A 
ATOM     51  C   UNL A   1      44.196  30.713  31.980  1.00  0.00     0.049 A 
ATOM     52  C   UNL A   1      39.158  32.791  30.756  1.00  0.00     0.074 A 
ATOM     53  C   UNL A   1      45.059  31.537  32.684  1.00  0.00     0.029 A 
ATOM     54  N   UNL A   1      43.019  31.423  31.807  1.00  0.00    -0.354 N 
ATOM     55  N   UNL A   1      40.371  32.446  31.113  1.00  0.00    -0.248 NA
ATOM     56  C   UNL A   1      38.743  34.121  31.224  1.00  0.00     0.031 C 
ATOM     57  C   UNL A   1      44.386  32.729  32.976  1.00  0.00     0.029 A 
ATOM     58  C   UNL A   1      43.122  32.665  32.412  1.00  0.00     0.049 A 
ATOM     59  H   UNL A   1      42.225  31.092  31.327  1.00  0.00     0.167 HD
ATOM     60  C   UNL A   1      40.873  33.525  31.829  1.00  0.00     0.074 A 
ATOM     61  C   UNL A   1      39.839  34.539  31.841  1.00  0.00     0.031 C 
ATOM     62  C   UNL A   1      42.083  33.661  32.423  1.00  0.00     0.031 A 
BRANCH  49  63
ATOM     63  C   UNL A   1      45.732  28.712  31.837  1.00  0.00    -0.014 A 
ATOM     64  C   UNL A   1      46.848  28.833  30.995  1.00  0.00     0.009 A 
ATOM     65  C   UNL A   1      45.855  27.980  33.028  1.00  0.00     0.009 A 
ATOM     66  C   UNL A   1      48.051  28.202  31.322  1.00  0.00     0.001 A 
ATOM     67  C   UNL A   1      47.066  27.374  33.365  1.00  0.00     0.001 A 
ATOM     68  C   UNL A   1      48.160  27.476  32.506  1.00  0.00     0.000 A 
ENDBRANCH  49  63
BRANCH  50  69
ATOM     69  C   UNL A   1      36.828  32.604  29.628  1.00  0.00    -0.014 A 
ATOM     70  C   UNL A   1      36.628  33.316  28.435  1.00  0.00     0.009 A 
ATOM     71  C   UNL A   1      35.753  32.444  30.514  1.00  0.00     0.009 A 
ATOM     72  C   UNL A   1      35.382  33.876  28.148  1.00  0.00     0.001 A 
ATOM     73  C   UNL A   1      34.501  32.985  30.212  1.00  0.00     0.001 A 
ATOM     74  C   UNL A   1      34.319  33.706  29.033  1.00  0.00     0.000 A 
ENDBRANCH  50  69
BRANCH  62  75
ATOM     75  C   UNL A   1      42.361  34.965  33.115  1.00  0.00    -0.014 A 
ATOM     76  C   UNL A   1      43.124  35.967  32.498  1.00  0.00     0.009 A 
ATOM     77  C   UNL A   1      41.827  35.203  34.391  1.00  0.00     0.009 A 
ATOM     78  C   UNL A   1      43.377  37.170  33.159  1.00  0.00     0.001 A 
ATOM     79  C   UNL A   1      42.060  36.416  35.039  1.00  0.00     0.001 A 
ATOM     80  C   UNL A   1      42.842  37.395  34.428  1.00  0.00     0.000 A 
ENDBRANCH  62  75
ENDBRANCH  36  37
ENDBRANCH  28  31
ENDBRANCH  26  27
ENDBRANCH   1  26
TORSDOF 13
ENDMDL
