MODEL 1
REMARK VINA RESULT:     -11.6      0.000      0.000
REMARK SMILES Cc1ccc2nc(CC3(CC(=O)NCCCNC(=O)c4ccc(-c5c6nc(c(-c7ccccc7)c7ccc([nH]7)c(-c7ccccc7)c7nc(c(-c8ccccc8)c8ccc5[nH]8)C=C7)C=C6)cc4)CCCCC3)sc2c1
REMARK SMILES IDX 14 1 13 2 11 3 12 4 10 6 9 7 68 8 72 9 69 10 71 11 70 12
REMARK SMILES IDX 8 13 7 14 1 15 2 16 3 17 75 18 4 19 74 20 5 21 73 22 6 23
REMARK SMILES IDX 15 24 16 25 17 26 18 27 19 29 20 30 21 31 67 32 22 33 66 34
REMARK SMILES IDX 23 35 24 36 25 37 60 38 26 39 65 40 59 41 61 42 27 43 64 44
REMARK SMILES IDX 58 45 57 46 28 48 50 49 35 50 49 51 36 52 39 53 48 54 62 55
REMARK SMILES IDX 37 56 38 57 47 59 63 60 40 61 29 62 30 63 34 64 31 65 33 66
REMARK SMILES IDX 32 67 51 68 52 69 56 70 53 71 55 72 54 73 41 74 42 75 46 76
REMARK SMILES IDX 43 77 45 78 44 79
REMARK H PARENT 13 5 17 28 61 47 39 58
REMARK Flexibility Score: inf
ROOT
ATOM      1  C   UNL A   1      31.402  27.482  26.517  1.00  0.00     0.117 C 
ENDROOT
BRANCH   1   2
ATOM      2  N   UNL A   1      30.883  26.163  26.830  1.00  0.00    -0.356 N 
ATOM      3  C   UNL A   1      30.811  25.040  26.068  1.00  0.00     0.220 C 
ATOM      4  O   UNL A   1      30.282  24.042  26.565  1.00  0.00    -0.275 OA
ATOM      5  H   UNL A   1      30.526  26.066  27.742  1.00  0.00     0.163 HD
BRANCH   3   6
ATOM      6  C   UNL A   1      31.359  24.992  24.645  1.00  0.00     0.107 C 
BRANCH   6   7
ATOM      7  C   UNL A   1      32.894  24.721  24.457  1.00  0.00    -0.015 C 
ATOM      8  C   UNL A   1      33.649  26.085  24.542  1.00  0.00     0.008 C 
ATOM      9  C   UNL A   1      33.221  24.154  23.048  1.00  0.00     0.008 C 
ATOM     10  C   UNL A   1      33.321  27.041  23.387  1.00  0.00     0.001 C 
ATOM     11  C   UNL A   1      32.857  25.070  21.884  1.00  0.00     0.001 C 
ATOM     12  C   UNL A   1      33.564  26.409  22.020  1.00  0.00     0.000 C 
BRANCH   7  13
ATOM     13  C   UNL A   1      33.394  23.782  25.613  1.00  0.00     0.075 C 
BRANCH  13  14
ATOM     14  C   UNL A   1      33.496  22.326  25.258  1.00  0.00     0.094 A 
ATOM     15  C   UNL A   1      33.417  16.240  24.190  1.00  0.00     0.044 C 
ATOM     16  C   UNL A   1      33.779  17.678  24.423  1.00  0.00    -0.050 A 
ATOM     17  C   UNL A   1      35.117  18.065  24.525  1.00  0.00     0.006 A 
ATOM     18  C   UNL A   1      32.757  18.638  24.533  1.00  0.00     0.024 A 
ATOM     19  C   UNL A   1      35.460  19.403  24.735  1.00  0.00     0.030 A 
ATOM     20  C   UNL A   1      33.114  19.976  24.771  1.00  0.00     0.055 A 
ATOM     21  C   UNL A   1      34.449  20.372  24.862  1.00  0.00     0.082 A 
ATOM     22  S   UNL A   1      32.106  21.355  25.008  1.00  0.00    -0.119 S 
ATOM     23  N   UNL A   1      34.650  21.718  25.088  1.00  0.00    -0.241 NA
ENDBRANCH  13  14
ENDBRANCH   7  13
ENDBRANCH   6   7
ENDBRANCH   3   6
ENDBRANCH   1   2
BRANCH   1  24
ATOM     24  C   UNL A   1      32.242  28.036  27.664  1.00  0.00     0.042 C 
BRANCH  24  25
ATOM     25  C   UNL A   1      33.518  28.737  27.229  1.00  0.00     0.118 C 
BRANCH  25  26
ATOM     26  N   UNL A   1      33.531  30.146  27.591  1.00  0.00    -0.352 N 
ATOM     27  C   UNL A   1      34.483  30.904  28.230  1.00  0.00     0.251 C 
ATOM     28  H   UNL A   1      32.719  30.641  27.335  1.00  0.00     0.163 HD
ATOM     29  O   UNL A   1      34.188  32.040  28.594  1.00  0.00    -0.269 OA
BRANCH  27  30
ATOM     30  C   UNL A   1      35.845  30.384  28.506  1.00  0.00     0.039 A 
ATOM     31  C   UNL A   1      36.803  30.441  27.485  1.00  0.00     0.014 A 
ATOM     32  C   UNL A   1      36.181  29.784  29.721  1.00  0.00     0.014 A 
ATOM     33  C   UNL A   1      38.095  29.948  27.701  1.00  0.00     0.010 A 
ATOM     34  C   UNL A   1      37.494  29.386  29.971  1.00  0.00     0.010 A 
ATOM     35  C   UNL A   1      38.460  29.441  28.957  1.00  0.00    -0.014 A 
BRANCH  35  36
ATOM     36  C   UNL A   1      39.831  28.929  29.221  1.00  0.00     0.031 A 
ATOM     37  C   UNL A   1      40.858  29.816  29.875  1.00  0.00     0.074 A 
ATOM     38  C   UNL A   1      40.178  27.692  28.816  1.00  0.00     0.049 A 
ATOM     39  N   UNL A   1      42.121  29.574  30.127  1.00  0.00    -0.248 NA
ATOM     40  C   UNL A   1      40.418  31.164  30.266  1.00  0.00     0.031 C 
ATOM     41  C   UNL A   1      39.298  26.747  28.127  1.00  0.00     0.029 A 
ATOM     42  N   UNL A   1      41.372  27.023  28.917  1.00  0.00    -0.354 N 
ATOM     43  C   UNL A   1      42.629  30.748  30.671  1.00  0.00     0.074 A 
ATOM     44  C   UNL A   1      41.553  31.714  30.669  1.00  0.00     0.031 C 
ATOM     45  C   UNL A   1      39.973  25.611  27.891  1.00  0.00     0.029 A 
ATOM     46  C   UNL A   1      41.341  25.760  28.378  1.00  0.00     0.049 A 
ATOM     47  H   UNL A   1      42.173  27.411  29.337  1.00  0.00     0.167 HD
ATOM     48  C   UNL A   1      43.872  30.998  31.147  1.00  0.00     0.031 A 
ATOM     49  C   UNL A   1      42.306  24.825  28.283  1.00  0.00     0.031 A 
ATOM     50  C   UNL A   1      44.936  30.032  31.177  1.00  0.00     0.049 A 
ATOM     51  C   UNL A   1      43.671  25.112  28.840  1.00  0.00     0.074 A 
ATOM     52  C   UNL A   1      46.205  30.162  31.713  1.00  0.00     0.029 A 
ATOM     53  N   UNL A   1      44.855  28.754  30.646  1.00  0.00    -0.354 N 
ATOM     54  N   UNL A   1      44.112  26.201  29.420  1.00  0.00    -0.248 NA
ATOM     55  C   UNL A   1      44.666  24.035  28.740  1.00  0.00     0.031 C 
ATOM     56  C   UNL A   1      46.908  28.978  31.464  1.00  0.00     0.029 A 
ATOM     57  C   UNL A   1      46.058  28.093  30.818  1.00  0.00     0.049 A 
ATOM     58  H   UNL A   1      44.058  28.374  30.210  1.00  0.00     0.167 HD
ATOM     59  C   UNL A   1      45.429  25.935  29.772  1.00  0.00     0.074 A 
ATOM     60  C   UNL A   1      45.709  24.576  29.354  1.00  0.00     0.031 C 
ATOM     61  C   UNL A   1      46.325  26.745  30.388  1.00  0.00     0.031 A 
BRANCH  48  62
ATOM     62  C   UNL A   1      44.143  32.384  31.665  1.00  0.00    -0.014 A 
ATOM     63  C   UNL A   1      43.861  32.738  32.995  1.00  0.00     0.009 A 
ATOM     64  C   UNL A   1      44.693  33.352  30.809  1.00  0.00     0.009 A 
ATOM     65  C   UNL A   1      44.077  34.043  33.442  1.00  0.00     0.001 A 
ATOM     66  C   UNL A   1      44.937  34.648  31.269  1.00  0.00     0.001 A 
ATOM     67  C   UNL A   1      44.616  34.996  32.579  1.00  0.00     0.000 A 
ENDBRANCH  48  62
BRANCH  49  68
ATOM     68  C   UNL A   1      41.998  23.516  27.652  1.00  0.00    -0.014 A 
ATOM     69  C   UNL A   1      42.294  23.293  26.300  1.00  0.00     0.009 A 
ATOM     70  C   UNL A   1      41.436  22.475  28.407  1.00  0.00     0.009 A 
ATOM     71  C   UNL A   1      42.021  22.057  25.711  1.00  0.00     0.001 A 
ATOM     72  C   UNL A   1      41.187  21.232  27.821  1.00  0.00     0.001 A 
ATOM     73  C   UNL A   1      41.474  21.025  26.473  1.00  0.00     0.000 A 
ENDBRANCH  49  68
BRANCH  61  74
ATOM     74  C   UNL A   1      47.687  26.176  30.664  1.00  0.00    -0.014 A 
ATOM     75  C   UNL A   1      48.680  26.152  29.673  1.00  0.00     0.009 A 
ATOM     76  C   UNL A   1      47.994  25.697  31.948  1.00  0.00     0.009 A 
ATOM     77  C   UNL A   1      49.945  25.632  29.954  1.00  0.00     0.001 A 
ATOM     78  C   UNL A   1      49.267  25.203  32.234  1.00  0.00     0.001 A 
ATOM     79  C   UNL A   1      50.238  25.163  31.235  1.00  0.00     0.000 A 
ENDBRANCH  61  74
ENDBRANCH  35  36
ENDBRANCH  27  30
ENDBRANCH  25  26
ENDBRANCH  24  25
ENDBRANCH   1  24
TORSDOF 13
ENDMDL
MODEL 2
REMARK VINA RESULT:     -11.4      1.285      2.028
REMARK SMILES Cc1ccc2nc(CC3(CC(=O)NCCCNC(=O)c4ccc(-c5c6nc(c(-c7ccccc7)c7ccc([nH]7)c(-c7ccccc7)c7nc(c(-c8ccccc8)c8ccc5[nH]8)C=C7)C=C6)cc4)CCCCC3)sc2c1
REMARK SMILES IDX 14 1 13 2 11 3 12 4 10 6 9 7 68 8 72 9 69 10 71 11 70 12
REMARK SMILES IDX 8 13 7 14 1 15 2 16 3 17 75 18 4 19 74 20 5 21 73 22 6 23
REMARK SMILES IDX 15 24 16 25 17 26 18 27 19 29 20 30 21 31 67 32 22 33 66 34
REMARK SMILES IDX 23 35 24 36 25 37 60 38 26 39 65 40 59 41 61 42 27 43 64 44
REMARK SMILES IDX 58 45 57 46 28 48 50 49 35 50 49 51 36 52 39 53 48 54 62 55
REMARK SMILES IDX 37 56 38 57 47 59 63 60 40 61 29 62 30 63 34 64 31 65 33 66
REMARK SMILES IDX 32 67 51 68 52 69 56 70 53 71 55 72 54 73 41 74 42 75 46 76
REMARK SMILES IDX 43 77 45 78 44 79
REMARK H PARENT 13 5 17 28 61 47 39 58
REMARK Flexibility Score: inf
ROOT
ATOM      1  C   UNL A   1      31.319  28.112  26.636  1.00  0.00     0.117 C 
ENDROOT
BRANCH   1   2
ATOM      2  N   UNL A   1      31.152  26.708  26.964  1.00  0.00    -0.356 N 
ATOM      3  C   UNL A   1      31.376  25.595  26.217  1.00  0.00     0.220 C 
ATOM      4  O   UNL A   1      31.115  24.502  26.725  1.00  0.00    -0.275 OA
ATOM      5  H   UNL A   1      30.821  26.535  27.875  1.00  0.00     0.163 HD
BRANCH   3   6
ATOM      6  C   UNL A   1      31.933  25.672  24.799  1.00  0.00     0.107 C 
BRANCH   6   7
ATOM      7  C   UNL A   1      30.984  25.271  23.614  1.00  0.00    -0.015 C 
ATOM      8  C   UNL A   1      31.475  25.997  22.322  1.00  0.00     0.008 C 
ATOM      9  C   UNL A   1      29.527  25.762  23.837  1.00  0.00     0.008 C 
ATOM     10  C   UNL A   1      31.329  27.524  22.383  1.00  0.00     0.001 C 
ATOM     11  C   UNL A   1      29.367  27.275  23.949  1.00  0.00     0.001 C 
ATOM     12  C   UNL A   1      29.902  27.959  22.701  1.00  0.00     0.000 C 
BRANCH   7  13
ATOM     13  C   UNL A   1      31.067  23.717  23.395  1.00  0.00     0.075 C 
BRANCH  13  14
ATOM     14  C   UNL A   1      32.419  23.107  23.634  1.00  0.00     0.094 A 
ATOM     15  C   UNL A   1      37.815  20.557  25.238  1.00  0.00     0.044 C 
ATOM     16  C   UNL A   1      36.700  21.354  24.625  1.00  0.00    -0.050 A 
ATOM     17  C   UNL A   1      36.974  22.352  23.687  1.00  0.00     0.006 A 
ATOM     18  C   UNL A   1      35.372  21.084  24.999  1.00  0.00     0.024 A 
ATOM     19  C   UNL A   1      35.940  23.093  23.108  1.00  0.00     0.030 A 
ATOM     20  C   UNL A   1      34.343  21.853  24.429  1.00  0.00     0.055 A 
ATOM     21  C   UNL A   1      34.608  22.844  23.484  1.00  0.00     0.082 A 
ATOM     22  S   UNL A   1      32.644  21.803  24.724  1.00  0.00    -0.119 S 
ATOM     23  N   UNL A   1      33.501  23.512  23.004  1.00  0.00    -0.241 NA
ENDBRANCH  13  14
ENDBRANCH   7  13
ENDBRANCH   6   7
ENDBRANCH   3   6
ENDBRANCH   1   2
BRANCH   1  24
ATOM     24  C   UNL A   1      32.737  28.406  26.153  1.00  0.00     0.042 C 
BRANCH  24  25
ATOM     25  C   UNL A   1      33.741  28.660  27.265  1.00  0.00     0.118 C 
BRANCH  25  26
ATOM     26  N   UNL A   1      33.720  30.037  27.731  1.00  0.00    -0.352 N 
ATOM     27  C   UNL A   1      34.672  30.783  28.386  1.00  0.00     0.251 C 
ATOM     28  H   UNL A   1      32.881  30.518  27.547  1.00  0.00     0.163 HD
ATOM     29  O   UNL A   1      34.353  31.877  28.846  1.00  0.00    -0.269 OA
BRANCH  27  30
ATOM     30  C   UNL A   1      36.062  30.296  28.566  1.00  0.00     0.039 A 
ATOM     31  C   UNL A   1      36.429  29.765  29.810  1.00  0.00     0.014 A 
ATOM     32  C   UNL A   1      37.027  30.409  27.564  1.00  0.00     0.014 A 
ATOM     33  C   UNL A   1      37.734  29.309  30.025  1.00  0.00     0.010 A 
ATOM     34  C   UNL A   1      38.297  29.862  27.743  1.00  0.00     0.010 A 
ATOM     35  C   UNL A   1      38.673  29.327  28.983  1.00  0.00    -0.014 A 
BRANCH  35  36
ATOM     36  C   UNL A   1      40.061  28.830  29.177  1.00  0.00     0.031 A 
ATOM     37  C   UNL A   1      41.116  29.736  29.756  1.00  0.00     0.074 A 
ATOM     38  C   UNL A   1      40.394  27.588  28.775  1.00  0.00     0.049 A 
ATOM     39  N   UNL A   1      42.393  29.508  29.940  1.00  0.00    -0.248 NA
ATOM     40  C   UNL A   1      40.688  31.088  30.148  1.00  0.00     0.031 C 
ATOM     41  C   UNL A   1      39.485  26.624  28.154  1.00  0.00     0.029 A 
ATOM     42  N   UNL A   1      41.598  26.929  28.820  1.00  0.00    -0.354 N 
ATOM     43  C   UNL A   1      42.921  30.694  30.434  1.00  0.00     0.074 A 
ATOM     44  C   UNL A   1      41.839  31.653  30.476  1.00  0.00     0.031 C 
ATOM     45  C   UNL A   1      40.154  25.489  27.901  1.00  0.00     0.029 A 
ATOM     46  C   UNL A   1      41.546  25.656  28.307  1.00  0.00     0.049 A 
ATOM     47  H   UNL A   1      42.418  27.330  29.187  1.00  0.00     0.167 HD
ATOM     48  C   UNL A   1      44.187  30.962  30.834  1.00  0.00     0.031 A 
ATOM     49  C   UNL A   1      42.512  24.727  28.173  1.00  0.00     0.031 A 
ATOM     50  C   UNL A   1      45.259  30.004  30.820  1.00  0.00     0.049 A 
ATOM     51  C   UNL A   1      43.904  25.034  28.647  1.00  0.00     0.074 A 
ATOM     52  C   UNL A   1      46.556  30.153  31.281  1.00  0.00     0.029 A 
ATOM     53  N   UNL A   1      45.159  28.716  30.318  1.00  0.00    -0.354 N 
ATOM     54  N   UNL A   1      44.368  26.136  29.181  1.00  0.00    -0.248 NA
ATOM     55  C   UNL A   1      44.900  23.961  28.510  1.00  0.00     0.031 C 
ATOM     56  C   UNL A   1      47.252  28.969  31.014  1.00  0.00     0.029 A 
ATOM     57  C   UNL A   1      46.375  28.067  30.433  1.00  0.00     0.049 A 
ATOM     58  H   UNL A   1      44.341  28.322  29.934  1.00  0.00     0.167 HD
ATOM     59  C   UNL A   1      45.705  25.886  29.463  1.00  0.00     0.074 A 
ATOM     60  C   UNL A   1      45.972  24.522  29.054  1.00  0.00     0.031 C 
ATOM     61  C   UNL A   1      46.628  26.713  30.013  1.00  0.00     0.031 A 
BRANCH  48  62
ATOM     62  C   UNL A   1      44.476  32.359  31.311  1.00  0.00    -0.014 A 
ATOM     63  C   UNL A   1      44.907  33.361  30.426  1.00  0.00     0.009 A 
ATOM     64  C   UNL A   1      44.310  32.680  32.668  1.00  0.00     0.009 A 
ATOM     65  C   UNL A   1      45.215  34.639  30.898  1.00  0.00     0.001 A 
ATOM     66  C   UNL A   1      44.589  33.968  33.131  1.00  0.00     0.001 A 
ATOM     67  C   UNL A   1      45.053  34.941  32.249  1.00  0.00     0.000 A 
ENDBRANCH  48  62
BRANCH  49  68
ATOM     68  C   UNL A   1      42.179  23.405  27.584  1.00  0.00    -0.014 A 
ATOM     69  C   UNL A   1      41.541  22.424  28.356  1.00  0.00     0.009 A 
ATOM     70  C   UNL A   1      42.470  23.129  26.238  1.00  0.00     0.009 A 
ATOM     71  C   UNL A   1      41.213  21.187  27.798  1.00  0.00     0.001 A 
ATOM     72  C   UNL A   1      42.118  21.900  25.676  1.00  0.00     0.001 A 
ATOM     73  C   UNL A   1      41.495  20.928  26.457  1.00  0.00     0.000 A 
ENDBRANCH  49  68
BRANCH  61  74
ATOM     74  C   UNL A   1      48.008  26.159  30.221  1.00  0.00    -0.014 A 
ATOM     75  C   UNL A   1      48.951  26.144  29.182  1.00  0.00     0.009 A 
ATOM     76  C   UNL A   1      48.384  25.685  31.489  1.00  0.00     0.009 A 
ATOM     77  C   UNL A   1      50.233  25.638  29.400  1.00  0.00     0.001 A 
ATOM     78  C   UNL A   1      49.674  25.205  31.711  1.00  0.00     0.001 A 
ATOM     79  C   UNL A   1      50.595  25.173  30.666  1.00  0.00     0.000 A 
ENDBRANCH  61  74
ENDBRANCH  35  36
ENDBRANCH  27  30
ENDBRANCH  25  26
ENDBRANCH  24  25
ENDBRANCH   1  24
TORSDOF 13
ENDMDL
MODEL 3
REMARK VINA RESULT:     -11.4      2.508      7.938
REMARK SMILES Cc1ccc2nc(CC3(CC(=O)NCCCNC(=O)c4ccc(-c5c6nc(c(-c7ccccc7)c7ccc([nH]7)c(-c7ccccc7)c7nc(c(-c8ccccc8)c8ccc5[nH]8)C=C7)C=C6)cc4)CCCCC3)sc2c1
REMARK SMILES IDX 14 1 13 2 11 3 12 4 10 6 9 7 68 8 72 9 69 10 71 11 70 12
REMARK SMILES IDX 8 13 7 14 1 15 2 16 3 17 75 18 4 19 74 20 5 21 73 22 6 23
REMARK SMILES IDX 15 24 16 25 17 26 18 27 19 29 20 30 21 31 67 32 22 33 66 34
REMARK SMILES IDX 23 35 24 36 25 37 60 38 26 39 65 40 59 41 61 42 27 43 64 44
REMARK SMILES IDX 58 45 57 46 28 48 50 49 35 50 49 51 36 52 39 53 48 54 62 55
REMARK SMILES IDX 37 56 38 57 47 59 63 60 40 61 29 62 30 63 34 64 31 65 33 66
REMARK SMILES IDX 32 67 51 68 52 69 56 70 53 71 55 72 54 73 41 74 42 75 46 76
REMARK SMILES IDX 43 77 45 78 44 79
REMARK H PARENT 13 5 17 28 61 47 39 58
REMARK Flexibility Score: inf
ROOT
ATOM      1  C   UNL A   1      36.784  20.707  24.727  1.00  0.00     0.117 C 
ENDROOT
BRANCH   1   2
ATOM      2  N   UNL A   1      37.197  22.018  25.194  1.00  0.00    -0.356 N 
ATOM      3  C   UNL A   1      36.472  23.028  25.742  1.00  0.00     0.220 C 
ATOM      4  O   UNL A   1      37.064  24.072  26.024  1.00  0.00    -0.275 OA
ATOM      5  H   UNL A   1      38.158  22.206  25.096  1.00  0.00     0.163 HD
BRANCH   3   6
ATOM      6  C   UNL A   1      34.976  22.896  26.011  1.00  0.00     0.107 C 
BRANCH   6   7
ATOM      7  C   UNL A   1      33.983  23.331  24.875  1.00  0.00    -0.015 C 
ATOM      8  C   UNL A   1      32.587  23.602  25.518  1.00  0.00     0.008 C 
ATOM      9  C   UNL A   1      33.749  22.200  23.836  1.00  0.00     0.008 C 
ATOM     10  C   UNL A   1      31.923  22.345  26.096  1.00  0.00     0.001 C 
ATOM     11  C   UNL A   1      33.135  20.923  24.400  1.00  0.00     0.001 C 
ATOM     12  C   UNL A   1      31.802  21.225  25.067  1.00  0.00     0.000 C 
BRANCH   7  13
ATOM     13  C   UNL A   1      34.512  24.655  24.213  1.00  0.00     0.075 C 
BRANCH  13  14
ATOM     14  C   UNL A   1      33.862  25.919  24.699  1.00  0.00     0.094 A 
ATOM     15  C   UNL A   1      31.270  31.350  26.105  1.00  0.00     0.044 C 
ATOM     16  C   UNL A   1      32.020  30.050  26.087  1.00  0.00    -0.050 A 
ATOM     17  C   UNL A   1      32.814  29.674  27.173  1.00  0.00     0.006 A 
ATOM     18  C   UNL A   1      31.914  29.207  24.967  1.00  0.00     0.024 A 
ATOM     19  C   UNL A   1      33.509  28.462  27.166  1.00  0.00     0.030 A 
ATOM     20  C   UNL A   1      32.639  28.003  24.960  1.00  0.00     0.055 A 
ATOM     21  C   UNL A   1      33.424  27.615  26.045  1.00  0.00     0.082 A 
ATOM     22  S   UNL A   1      32.760  26.802  23.727  1.00  0.00    -0.119 S 
ATOM     23  N   UNL A   1      34.071  26.406  25.904  1.00  0.00    -0.241 NA
ENDBRANCH  13  14
ENDBRANCH   7  13
ENDBRANCH   6   7
ENDBRANCH   3   6
ENDBRANCH   1   2
BRANCH   1  24
ATOM     24  C   UNL A   1      37.882  19.669  24.939  1.00  0.00     0.042 C 
BRANCH  24  25
ATOM     25  C   UNL A   1      38.920  20.054  25.980  1.00  0.00     0.118 C 
BRANCH  25  26
ATOM     26  N   UNL A   1      40.128  19.249  25.886  1.00  0.00    -0.352 N 
ATOM     27  C   UNL A   1      41.453  19.594  26.010  1.00  0.00     0.251 C 
ATOM     28  H   UNL A   1      39.970  18.295  25.701  1.00  0.00     0.163 HD
ATOM     29  O   UNL A   1      42.310  18.768  25.703  1.00  0.00    -0.269 OA
BRANCH  27  30
ATOM     30  C   UNL A   1      41.874  20.935  26.486  1.00  0.00     0.039 A 
ATOM     31  C   UNL A   1      41.971  21.155  27.867  1.00  0.00     0.014 A 
ATOM     32  C   UNL A   1      42.112  21.995  25.610  1.00  0.00     0.014 A 
ATOM     33  C   UNL A   1      42.351  22.410  28.356  1.00  0.00     0.010 A 
ATOM     34  C   UNL A   1      42.588  23.214  26.092  1.00  0.00     0.010 A 
ATOM     35  C   UNL A   1      42.691  23.443  27.471  1.00  0.00    -0.014 A 
BRANCH  35  36
ATOM     36  C   UNL A   1      43.117  24.780  27.963  1.00  0.00     0.031 A 
ATOM     37  C   UNL A   1      42.088  25.831  28.291  1.00  0.00     0.074 A 
ATOM     38  C   UNL A   1      44.427  25.078  28.055  1.00  0.00     0.049 A 
ATOM     39  N   UNL A   1      42.264  27.072  28.668  1.00  0.00    -0.248 NA
ATOM     40  C   UNL A   1      40.676  25.445  28.141  1.00  0.00     0.031 C 
ATOM     41  C   UNL A   1      45.529  24.173  27.723  1.00  0.00     0.029 A 
ATOM     42  N   UNL A   1      45.054  26.235  28.447  1.00  0.00    -0.354 N 
ATOM     43  C   UNL A   1      40.991  27.621  28.766  1.00  0.00     0.074 A 
ATOM     44  C   UNL A   1      40.056  26.594  28.363  1.00  0.00     0.031 C 
ATOM     45  C   UNL A   1      46.694  24.799  27.950  1.00  0.00     0.029 A 
ATOM     46  C   UNL A   1      46.424  26.158  28.408  1.00  0.00     0.049 A 
ATOM     47  H   UNL A   1      44.567  27.042  28.730  1.00  0.00     0.167 HD
ATOM     48  C   UNL A   1      40.626  28.861  29.171  1.00  0.00     0.031 A 
ATOM     49  C   UNL A   1      47.362  27.079  28.703  1.00  0.00     0.031 A 
ATOM     50  C   UNL A   1      41.550  29.876  29.599  1.00  0.00     0.049 A 
ATOM     51  C   UNL A   1      46.937  28.440  29.176  1.00  0.00     0.074 A 
ATOM     52  C   UNL A   1      41.276  31.135  30.105  1.00  0.00     0.029 A 
ATOM     53  N   UNL A   1      42.930  29.748  29.570  1.00  0.00    -0.354 N 
ATOM     54  N   UNL A   1      45.727  28.917  29.334  1.00  0.00    -0.248 NA
ATOM     55  C   UNL A   1      48.010  29.384  29.522  1.00  0.00     0.031 C 
ATOM     56  C   UNL A   1      42.492  31.786  30.339  1.00  0.00     0.029 A 
ATOM     57  C   UNL A   1      43.522  30.913  30.025  1.00  0.00     0.049 A 
ATOM     58  H   UNL A   1      43.416  28.946  29.270  1.00  0.00     0.167 HD
ATOM     59  C   UNL A   1      45.891  30.210  29.817  1.00  0.00     0.074 A 
ATOM     60  C   UNL A   1      47.317  30.435  29.938  1.00  0.00     0.031 C 
ATOM     61  C   UNL A   1      44.943  31.126  30.131  1.00  0.00     0.031 A 
BRANCH  48  62
ATOM     62  C   UNL A   1      39.157  29.185  29.156  1.00  0.00    -0.014 A 
ATOM     63  C   UNL A   1      38.357  29.012  30.298  1.00  0.00     0.009 A 
ATOM     64  C   UNL A   1      38.564  29.675  27.981  1.00  0.00     0.009 A 
ATOM     65  C   UNL A   1      36.986  29.273  30.248  1.00  0.00     0.001 A 
ATOM     66  C   UNL A   1      37.199  29.965  27.945  1.00  0.00     0.001 A 
ATOM     67  C   UNL A   1      36.409  29.751  29.073  1.00  0.00     0.000 A 
ENDBRANCH  48  62
BRANCH  49  68
ATOM     68  C   UNL A   1      48.799  26.726  28.583  1.00  0.00    -0.014 A 
ATOM     69  C   UNL A   1      49.491  26.964  27.387  1.00  0.00     0.009 A 
ATOM     70  C   UNL A   1      49.493  26.178  29.675  1.00  0.00     0.009 A 
ATOM     71  C   UNL A   1      50.847  26.648  27.280  1.00  0.00     0.001 A 
ATOM     72  C   UNL A   1      50.855  25.887  29.571  1.00  0.00     0.001 A 
ATOM     73  C   UNL A   1      51.530  26.116  28.374  1.00  0.00     0.000 A 
ENDBRANCH  49  68
BRANCH  61  74
ATOM     74  C   UNL A   1      45.417  32.451  30.656  1.00  0.00    -0.014 A 
ATOM     75  C   UNL A   1      45.541  32.686  32.035  1.00  0.00     0.009 A 
ATOM     76  C   UNL A   1      45.788  33.463  29.757  1.00  0.00     0.009 A 
ATOM     77  C   UNL A   1      45.998  33.918  32.502  1.00  0.00     0.001 A 
ATOM     78  C   UNL A   1      46.270  34.685  30.226  1.00  0.00     0.001 A 
ATOM     79  C   UNL A   1      46.367  34.916  31.598  1.00  0.00     0.000 A 
ENDBRANCH  61  74
ENDBRANCH  35  36
ENDBRANCH  27  30
ENDBRANCH  25  26
ENDBRANCH  24  25
ENDBRANCH   1  24
TORSDOF 13
ENDMDL
