MODEL 1
REMARK VINA RESULT:     -11.3      0.000      0.000
REMARK SMILES CC[C@]1(C(=O)NCCCNC(=O)c2ccc(-c3c4nc(c(-c5ccccc5)c5ccc([nH]5)c(-c5ccccc5)c5nc(c(-c6ccccc6)c6ccc3[nH]6)C=C5)C=C4)cc2)CCC[N@@H+](Cc2cc(OC)ccc2F)C1
REMARK SMILES IDX 7 1 6 2 4 3 5 4 3 6 61 7 75 8 62 9 64 10 63 11 2 13 1 14
REMARK SMILES IDX 65 15 66 16 67 17 73 18 68 19 72 20 74 21 71 22 69 23 70 24
REMARK SMILES IDX 8 25 9 26 10 27 11 28 12 30 13 31 14 32 60 33 15 34 59 35
REMARK SMILES IDX 16 36 17 37 18 38 53 39 19 40 58 41 52 42 54 43 20 44 57 45
REMARK SMILES IDX 51 46 50 47 21 49 43 50 28 51 42 52 29 53 32 54 41 55 55 56
REMARK SMILES IDX 30 57 31 58 40 60 56 61 33 62 22 63 23 64 27 65 24 66 26 67
REMARK SMILES IDX 25 68 44 69 45 70 49 71 46 72 48 73 47 74 34 75 35 76 39 77
REMARK SMILES IDX 36 78 38 79 37 80
REMARK H PARENT 6 5 64 12 10 29 54 48 32 59
REMARK Flexibility Score: inf
ROOT
ATOM      1  C   UNL A   1      31.606  30.925  26.195  1.00  0.00     0.117 C 
ENDROOT
BRANCH   1   2
ATOM      2  N   UNL A   1      31.447  29.817  27.127  1.00  0.00    -0.355 N 
ATOM      3  C   UNL A   1      31.800  28.500  27.078  1.00  0.00     0.231 C 
ATOM      4  O   UNL A   1      31.460  27.834  28.061  1.00  0.00    -0.274 OA
ATOM      5  H   UNL A   1      30.991  30.069  27.962  1.00  0.00     0.163 HD
BRANCH   3   6
ATOM      6  C   UNL A   1      32.557  27.866  25.876  1.00  0.00     0.098 C 
ATOM      7  C   UNL A   1      32.792  26.367  26.190  1.00  0.00     0.028 C 
ATOM      8  C   UNL A   1      31.705  28.095  24.602  1.00  0.00     0.279 C 
ATOM      9  C   UNL A   1      32.963  25.483  24.961  1.00  0.00     0.063 C 
ATOM     10  N   UNL A   1      31.960  27.176  23.487  1.00  0.00    -0.330 N 
ATOM     11  C   UNL A   1      31.920  25.771  23.883  1.00  0.00     0.262 C 
ATOM     12  H   UNL A   1      32.924  27.342  23.198  1.00  0.00     0.348 HD
BRANCH   6  13
ATOM     13  C   UNL A   1      33.933  28.611  25.747  1.00  0.00     0.019 C 
ATOM     14  C   UNL A   1      34.685  28.958  27.025  1.00  0.00     0.005 C 
ENDBRANCH   6  13
BRANCH  10  15
ATOM     15  C   UNL A   1      31.133  27.478  22.300  1.00  0.00     0.302 C 
BRANCH  15  16
ATOM     16  C   UNL A   1      29.924  28.371  22.489  1.00  0.00     0.046 A 
ATOM     17  C   UNL A   1      29.955  29.718  22.088  1.00  0.00     0.059 A 
ATOM     18  C   UNL A   1      28.761  27.907  23.113  1.00  0.00     0.132 A 
ATOM     19  C   UNL A   1      28.857  30.560  22.308  1.00  0.00     0.119 A 
ATOM     20  C   UNL A   1      27.635  28.712  23.256  1.00  0.00     0.043 A 
ATOM     21  F   UNL A   1      28.703  26.657  23.594  1.00  0.00    -0.206 F 
ATOM     22  C   UNL A   1      27.680  30.042  22.847  1.00  0.00     0.049 A 
BRANCH  19  23
ATOM     23  O   UNL A   1      29.036  31.872  21.957  1.00  0.00    -0.497 OA
ATOM     24  C   UNL A   1      28.063  32.388  21.049  1.00  0.00     0.278 C 
ENDBRANCH  19  23
ENDBRANCH  15  16
ENDBRANCH  10  15
ENDBRANCH   3   6
ENDBRANCH   1   2
BRANCH   1  25
ATOM     25  C   UNL A   1      31.383  32.275  26.859  1.00  0.00     0.042 C 
BRANCH  25  26
ATOM     26  C   UNL A   1      32.619  33.158  26.903  1.00  0.00     0.118 C 
BRANCH  26  27
ATOM     27  N   UNL A   1      32.487  34.273  27.834  1.00  0.00    -0.352 N 
ATOM     28  C   UNL A   1      33.223  34.593  28.946  1.00  0.00     0.251 C 
ATOM     29  H   UNL A   1      31.751  34.894  27.631  1.00  0.00     0.163 HD
ATOM     30  O   UNL A   1      32.824  35.486  29.697  1.00  0.00    -0.269 OA
BRANCH  28  31
ATOM     31  C   UNL A   1      34.470  33.867  29.273  1.00  0.00     0.039 A 
ATOM     32  C   UNL A   1      35.658  34.247  28.642  1.00  0.00     0.014 A 
ATOM     33  C   UNL A   1      34.476  32.801  30.176  1.00  0.00     0.014 A 
ATOM     34  C   UNL A   1      36.857  33.609  28.969  1.00  0.00     0.010 A 
ATOM     35  C   UNL A   1      35.683  32.229  30.571  1.00  0.00     0.010 A 
ATOM     36  C   UNL A   1      36.886  32.621  29.966  1.00  0.00    -0.014 A 
BRANCH  36  37
ATOM     37  C   UNL A   1      38.160  31.984  30.385  1.00  0.00     0.031 A 
ATOM     38  C   UNL A   1      39.023  32.626  31.436  1.00  0.00     0.074 A 
ATOM     39  C   UNL A   1      38.577  30.859  29.771  1.00  0.00     0.049 A 
ATOM     40  N   UNL A   1      40.185  32.239  31.902  1.00  0.00    -0.248 NA
ATOM     41  C   UNL A   1      38.532  33.883  32.023  1.00  0.00     0.031 C 
ATOM     42  C   UNL A   1      37.862  30.158  28.703  1.00  0.00     0.029 A 
ATOM     43  N   UNL A   1      39.709  30.107  29.962  1.00  0.00    -0.354 N 
ATOM     44  C   UNL A   1      40.573  33.217  32.809  1.00  0.00     0.074 A 
ATOM     45  C   UNL A   1      39.547  34.237  32.796  1.00  0.00     0.031 C 
ATOM     46  C   UNL A   1      38.548  29.054  28.365  1.00  0.00     0.029 A 
ATOM     47  C   UNL A   1      39.768  28.992  29.162  1.00  0.00     0.049 A 
ATOM     48  H   UNL A   1      40.411  30.343  30.611  1.00  0.00     0.167 HD
ATOM     49  C   UNL A   1      41.676  33.258  33.595  1.00  0.00     0.031 A 
ATOM     50  C   UNL A   1      40.699  28.023  29.083  1.00  0.00     0.031 A 
ATOM     51  C   UNL A   1      42.684  32.234  33.633  1.00  0.00     0.049 A 
ATOM     52  C   UNL A   1      41.908  28.085  29.971  1.00  0.00     0.074 A 
ATOM     53  C   UNL A   1      43.792  32.143  34.457  1.00  0.00     0.029 A 
ATOM     54  N   UNL A   1      42.708  31.122  32.805  1.00  0.00    -0.354 N 
ATOM     55  N   UNL A   1      42.222  28.978  30.878  1.00  0.00    -0.248 NA
ATOM     56  C   UNL A   1      42.886  26.998  29.828  1.00  0.00     0.031 C 
ATOM     57  C   UNL A   1      44.511  30.997  34.097  1.00  0.00     0.029 A 
ATOM     58  C   UNL A   1      43.825  30.352  33.080  1.00  0.00     0.049 A 
ATOM     59  H   UNL A   1      42.030  30.911  32.123  1.00  0.00     0.167 HD
ATOM     60  C   UNL A   1      43.421  28.548  31.431  1.00  0.00     0.074 A 
ATOM     61  C   UNL A   1      43.770  27.309  30.766  1.00  0.00     0.031 C 
ATOM     62  C   UNL A   1      44.164  29.127  32.405  1.00  0.00     0.031 A 
BRANCH  49  63
ATOM     63  C   UNL A   1      41.846  34.465  34.475  1.00  0.00    -0.014 A 
ATOM     64  C   UNL A   1      41.352  34.487  35.789  1.00  0.00     0.009 A 
ATOM     65  C   UNL A   1      42.518  35.595  33.983  1.00  0.00     0.009 A 
ATOM     66  C   UNL A   1      41.488  35.632  36.576  1.00  0.00     0.001 A 
ATOM     67  C   UNL A   1      42.677  36.729  34.782  1.00  0.00     0.001 A 
ATOM     68  C   UNL A   1      42.152  36.751  36.074  1.00  0.00     0.000 A 
ENDBRANCH  49  63
BRANCH  50  69
ATOM     69  C   UNL A   1      40.501  26.881  28.155  1.00  0.00    -0.014 A 
ATOM     70  C   UNL A   1      39.763  25.761  28.566  1.00  0.00     0.009 A 
ATOM     71  C   UNL A   1      41.039  26.905  26.858  1.00  0.00     0.009 A 
ATOM     72  C   UNL A   1      39.582  24.678  27.703  1.00  0.00     0.001 A 
ATOM     73  C   UNL A   1      40.836  25.829  25.991  1.00  0.00     0.001 A 
ATOM     74  C   UNL A   1      40.114  24.715  26.415  1.00  0.00     0.000 A 
ENDBRANCH  50  69
BRANCH  62  75
ATOM     75  C   UNL A   1      45.413  28.408  32.827  1.00  0.00    -0.014 A 
ATOM     76  C   UNL A   1      46.650  28.689  32.227  1.00  0.00     0.009 A 
ATOM     77  C   UNL A   1      45.354  27.455  33.855  1.00  0.00     0.009 A 
ATOM     78  C   UNL A   1      47.799  28.002  32.625  1.00  0.00     0.001 A 
ATOM     79  C   UNL A   1      46.508  26.789  34.269  1.00  0.00     0.001 A 
ATOM     80  C   UNL A   1      47.727  27.055  33.648  1.00  0.00     0.000 A 
ENDBRANCH  62  75
ENDBRANCH  36  37
ENDBRANCH  28  31
ENDBRANCH  26  27
ENDBRANCH  25  26
ENDBRANCH   1  25
TORSDOF 14
ENDMDL
MODEL 2
REMARK VINA RESULT:     -11.3      1.607      6.189
REMARK SMILES CC[C@]1(C(=O)NCCCNC(=O)c2ccc(-c3c4nc(c(-c5ccccc5)c5ccc([nH]5)c(-c5ccccc5)c5nc(c(-c6ccccc6)c6ccc3[nH]6)C=C5)C=C4)cc2)CCC[N@@H+](Cc2cc(OC)ccc2F)C1
REMARK SMILES IDX 7 1 6 2 4 3 5 4 3 6 61 7 75 8 62 9 64 10 63 11 2 13 1 14
REMARK SMILES IDX 65 15 66 16 67 17 73 18 68 19 72 20 74 21 71 22 69 23 70 24
REMARK SMILES IDX 8 25 9 26 10 27 11 28 12 30 13 31 14 32 60 33 15 34 59 35
REMARK SMILES IDX 16 36 17 37 18 38 53 39 19 40 58 41 52 42 54 43 20 44 57 45
REMARK SMILES IDX 51 46 50 47 21 49 43 50 28 51 42 52 29 53 32 54 41 55 55 56
REMARK SMILES IDX 30 57 31 58 40 60 56 61 33 62 22 63 23 64 27 65 24 66 26 67
REMARK SMILES IDX 25 68 44 69 45 70 49 71 46 72 48 73 47 74 34 75 35 76 39 77
REMARK SMILES IDX 36 78 38 79 37 80
REMARK H PARENT 6 5 64 12 10 29 54 48 32 59
REMARK Flexibility Score: inf
ROOT
ATOM      1  C   UNL A   1      31.744  30.855  26.150  1.00  0.00     0.117 C 
ENDROOT
BRANCH   1   2
ATOM      2  N   UNL A   1      31.520  29.779  27.106  1.00  0.00    -0.355 N 
ATOM      3  C   UNL A   1      31.798  28.444  27.088  1.00  0.00     0.231 C 
ATOM      4  O   UNL A   1      31.420  27.820  28.085  1.00  0.00    -0.274 OA
ATOM      5  H   UNL A   1      31.080  30.075  27.935  1.00  0.00     0.163 HD
BRANCH   3   6
ATOM      6  C   UNL A   1      32.519  27.741  25.901  1.00  0.00     0.098 C 
ATOM      7  C   UNL A   1      32.687  26.243  26.259  1.00  0.00     0.028 C 
ATOM      8  C   UNL A   1      31.670  27.971  24.625  1.00  0.00     0.279 C 
ATOM      9  C   UNL A   1      32.811  25.316  25.055  1.00  0.00     0.063 C 
ATOM     10  N   UNL A   1      31.878  27.009  23.537  1.00  0.00    -0.330 N 
ATOM     11  C   UNL A   1      31.776  25.619  23.975  1.00  0.00     0.262 C 
ATOM     12  H   UNL A   1      32.846  27.123  23.239  1.00  0.00     0.348 HD
BRANCH   6  13
ATOM     13  C   UNL A   1      33.927  28.419  25.745  1.00  0.00     0.019 C 
ATOM     14  C   UNL A   1      34.716  28.737  27.008  1.00  0.00     0.005 C 
ENDBRANCH   6  13
BRANCH  10  15
ATOM     15  C   UNL A   1      31.059  27.313  22.345  1.00  0.00     0.302 C 
BRANCH  15  16
ATOM     16  C   UNL A   1      29.885  28.256  22.516  1.00  0.00     0.046 A 
ATOM     17  C   UNL A   1      29.979  29.600  22.118  1.00  0.00     0.059 A 
ATOM     18  C   UNL A   1      28.693  27.840  23.118  1.00  0.00     0.132 A 
ATOM     19  C   UNL A   1      28.914  30.488  22.321  1.00  0.00     0.119 A 
ATOM     20  C   UNL A   1      27.600  28.692  23.244  1.00  0.00     0.043 A 
ATOM     21  F   UNL A   1      28.574  26.593  23.596  1.00  0.00    -0.206 F 
ATOM     22  C   UNL A   1      27.707  30.019  22.839  1.00  0.00     0.049 A 
BRANCH  19  23
ATOM     23  O   UNL A   1      29.153  31.791  21.975  1.00  0.00    -0.497 OA
ATOM     24  C   UNL A   1      28.505  32.760  22.799  1.00  0.00     0.278 C 
ENDBRANCH  19  23
ENDBRANCH  15  16
ENDBRANCH  10  15
ENDBRANCH   3   6
ENDBRANCH   1   2
BRANCH   1  25
ATOM     25  C   UNL A   1      31.496  32.227  26.758  1.00  0.00     0.042 C 
BRANCH  25  26
ATOM     26  C   UNL A   1      32.758  32.942  27.215  1.00  0.00     0.118 C 
BRANCH  26  27
ATOM     27  N   UNL A   1      32.502  34.297  27.690  1.00  0.00    -0.352 N 
ATOM     28  C   UNL A   1      33.047  34.987  28.742  1.00  0.00     0.251 C 
ATOM     29  H   UNL A   1      31.830  34.795  27.171  1.00  0.00     0.163 HD
ATOM     30  O   UNL A   1      32.552  36.066  29.077  1.00  0.00    -0.269 OA
BRANCH  28  31
ATOM     31  C   UNL A   1      34.198  34.446  29.497  1.00  0.00     0.039 A 
ATOM     32  C   UNL A   1      33.956  33.696  30.651  1.00  0.00     0.014 A 
ATOM     33  C   UNL A   1      35.514  34.690  29.094  1.00  0.00     0.014 A 
ATOM     34  C   UNL A   1      35.023  33.133  31.355  1.00  0.00     0.010 A 
ATOM     35  C   UNL A   1      36.570  34.052  29.740  1.00  0.00     0.010 A 
ATOM     36  C   UNL A   1      36.338  33.274  30.883  1.00  0.00    -0.014 A 
BRANCH  36  37
ATOM     37  C   UNL A   1      37.479  32.620  31.571  1.00  0.00     0.031 A 
ATOM     38  C   UNL A   1      38.166  31.435  30.949  1.00  0.00     0.074 A 
ATOM     39  C   UNL A   1      37.858  33.051  32.790  1.00  0.00     0.049 A 
ATOM     40  N   UNL A   1      39.153  30.712  31.419  1.00  0.00    -0.248 NA
ATOM     41  C   UNL A   1      37.663  30.985  29.642  1.00  0.00     0.031 C 
ATOM     42  C   UNL A   1      37.248  34.159  33.529  1.00  0.00     0.029 A 
ATOM     43  N   UNL A   1      38.854  32.605  33.623  1.00  0.00    -0.354 N 
ATOM     44  C   UNL A   1      39.364  29.708  30.481  1.00  0.00     0.074 A 
ATOM     45  C   UNL A   1      38.376  29.888  29.440  1.00  0.00     0.031 C 
ATOM     46  C   UNL A   1      37.910  34.334  34.684  1.00  0.00     0.029 A 
ATOM     47  C   UNL A   1      38.963  33.330  34.785  1.00  0.00     0.049 A 
ATOM     48  H   UNL A   1      39.434  31.839  33.409  1.00  0.00     0.167 HD
ATOM     49  C   UNL A   1      40.305  28.733  30.476  1.00  0.00     0.031 A 
ATOM     50  C   UNL A   1      39.820  33.204  35.816  1.00  0.00     0.031 A 
ATOM     51  C   UNL A   1      41.307  28.568  31.495  1.00  0.00     0.049 A 
ATOM     52  C   UNL A   1      40.859  32.121  35.784  1.00  0.00     0.074 A 
ATOM     53  C   UNL A   1      42.355  27.665  31.536  1.00  0.00     0.029 A 
ATOM     54  N   UNL A   1      41.381  29.321  32.656  1.00  0.00    -0.354 N 
ATOM     55  N   UNL A   1      41.094  31.228  34.853  1.00  0.00    -0.248 NA
ATOM     56  C   UNL A   1      41.758  32.037  36.944  1.00  0.00     0.031 C 
ATOM     57  C   UNL A   1      43.038  27.844  32.744  1.00  0.00     0.029 A 
ATOM     58  C   UNL A   1      42.442  28.888  33.433  1.00  0.00     0.049 A 
ATOM     59  H   UNL A   1      40.771  30.057  32.892  1.00  0.00     0.167 HD
ATOM     60  C   UNL A   1      42.182  30.492  35.303  1.00  0.00     0.074 A 
ATOM     61  C   UNL A   1      42.568  31.052  36.583  1.00  0.00     0.031 C 
ATOM     62  C   UNL A   1      42.808  29.448  34.707  1.00  0.00     0.031 A 
BRANCH  49  63
ATOM     63  C   UNL A   1      40.281  27.764  29.328  1.00  0.00    -0.014 A 
ATOM     64  C   UNL A   1      40.998  28.012  28.147  1.00  0.00     0.009 A 
ATOM     65  C   UNL A   1      39.537  26.578  29.434  1.00  0.00     0.009 A 
ATOM     66  C   UNL A   1      40.932  27.116  27.078  1.00  0.00     0.001 A 
ATOM     67  C   UNL A   1      39.496  25.670  28.375  1.00  0.00     0.001 A 
ATOM     68  C   UNL A   1      40.183  25.945  27.193  1.00  0.00     0.000 A 
ENDBRANCH  49  63
BRANCH  50  69
ATOM     69  C   UNL A   1      39.760  34.161  36.949  1.00  0.00    -0.014 A 
ATOM     70  C   UNL A   1      40.512  35.344  36.911  1.00  0.00     0.009 A 
ATOM     71  C   UNL A   1      38.950  33.904  38.067  1.00  0.00     0.009 A 
ATOM     72  C   UNL A   1      40.470  36.244  37.978  1.00  0.00     0.001 A 
ATOM     73  C   UNL A   1      38.894  34.817  39.122  1.00  0.00     0.001 A 
ATOM     74  C   UNL A   1      39.658  35.983  39.079  1.00  0.00     0.000 A 
ENDBRANCH  50  69
BRANCH  62  75
ATOM     75  C   UNL A   1      43.992  28.864  35.424  1.00  0.00    -0.014 A 
ATOM     76  C   UNL A   1      43.843  27.790  36.315  1.00  0.00     0.009 A 
ATOM     77  C   UNL A   1      45.274  29.381  35.185  1.00  0.00     0.009 A 
ATOM     78  C   UNL A   1      44.955  27.268  36.980  1.00  0.00     0.001 A 
ATOM     79  C   UNL A   1      46.386  28.840  35.831  1.00  0.00     0.001 A 
ATOM     80  C   UNL A   1      46.225  27.791  36.735  1.00  0.00     0.000 A 
ENDBRANCH  62  75
ENDBRANCH  36  37
ENDBRANCH  28  31
ENDBRANCH  26  27
ENDBRANCH  25  26
ENDBRANCH   1  25
TORSDOF 14
ENDMDL
MODEL 3
REMARK VINA RESULT:     -11.2      5.527     10.008
REMARK SMILES CC[C@]1(C(=O)NCCCNC(=O)c2ccc(-c3c4nc(c(-c5ccccc5)c5ccc([nH]5)c(-c5ccccc5)c5nc(c(-c6ccccc6)c6ccc3[nH]6)C=C5)C=C4)cc2)CCC[N@@H+](Cc2cc(OC)ccc2F)C1
REMARK SMILES IDX 7 1 6 2 4 3 5 4 3 6 61 7 75 8 62 9 64 10 63 11 2 13 1 14
REMARK SMILES IDX 65 15 66 16 67 17 73 18 68 19 72 20 74 21 71 22 69 23 70 24
REMARK SMILES IDX 8 25 9 26 10 27 11 28 12 30 13 31 14 32 60 33 15 34 59 35
REMARK SMILES IDX 16 36 17 37 18 38 53 39 19 40 58 41 52 42 54 43 20 44 57 45
REMARK SMILES IDX 51 46 50 47 21 49 43 50 28 51 42 52 29 53 32 54 41 55 55 56
REMARK SMILES IDX 30 57 31 58 40 60 56 61 33 62 22 63 23 64 27 65 24 66 26 67
REMARK SMILES IDX 25 68 44 69 45 70 49 71 46 72 48 73 47 74 34 75 35 76 39 77
REMARK SMILES IDX 36 78 38 79 37 80
REMARK H PARENT 6 5 64 12 10 29 54 48 32 59
REMARK Flexibility Score: inf
ROOT
ATOM      1  C   UNL A   1      36.814  20.469  24.981  1.00  0.00     0.117 C 
ENDROOT
BRANCH   1   2
ATOM      2  N   UNL A   1      36.978  21.514  23.980  1.00  0.00    -0.355 N 
ATOM      3  C   UNL A   1      36.317  22.682  23.735  1.00  0.00     0.231 C 
ATOM      4  O   UNL A   1      36.720  23.311  22.751  1.00  0.00    -0.274 OA
ATOM      5  H   UNL A   1      37.716  21.344  23.352  1.00  0.00     0.163 HD
BRANCH   3   6
ATOM      6  C   UNL A   1      35.132  23.188  24.607  1.00  0.00     0.098 C 
ATOM      7  C   UNL A   1      34.542  24.452  23.933  1.00  0.00     0.028 C 
ATOM      8  C   UNL A   1      34.108  22.032  24.736  1.00  0.00     0.279 C 
ATOM      9  C   UNL A   1      33.084  24.729  24.276  1.00  0.00     0.063 C 
ATOM     10  N   UNL A   1      32.734  22.428  25.068  1.00  0.00    -0.330 N 
ATOM     11  C   UNL A   1      32.215  23.477  24.193  1.00  0.00     0.262 C 
ATOM     12  H   UNL A   1      32.777  22.852  25.994  1.00  0.00     0.348 HD
BRANCH   6  13
ATOM     13  C   UNL A   1      35.716  23.554  26.018  1.00  0.00     0.019 C 
ATOM     14  C   UNL A   1      37.151  24.059  26.094  1.00  0.00     0.005 C 
ENDBRANCH   6  13
BRANCH  10  15
ATOM     15  C   UNL A   1      31.826  21.271  25.205  1.00  0.00     0.302 C 
BRANCH  15  16
ATOM     16  C   UNL A   1      32.235  19.969  24.546  1.00  0.00     0.046 A 
ATOM     17  C   UNL A   1      32.728  18.899  25.311  1.00  0.00     0.059 A 
ATOM     18  C   UNL A   1      32.187  19.804  23.157  1.00  0.00     0.132 A 
ATOM     19  C   UNL A   1      33.155  17.712  24.701  1.00  0.00     0.119 A 
ATOM     20  C   UNL A   1      32.527  18.599  22.550  1.00  0.00     0.043 A 
ATOM     21  F   UNL A   1      31.808  20.819  22.367  1.00  0.00    -0.206 F 
ATOM     22  C   UNL A   1      33.007  17.546  23.324  1.00  0.00     0.049 A 
BRANCH  19  23
ATOM     23  O   UNL A   1      33.699  16.775  25.539  1.00  0.00    -0.497 OA
ATOM     24  C   UNL A   1      34.822  16.074  25.007  1.00  0.00     0.278 C 
ENDBRANCH  19  23
ENDBRANCH  15  16
ENDBRANCH  10  15
ENDBRANCH   3   6
ENDBRANCH   1   2
BRANCH   1  25
ATOM     25  C   UNL A   1      37.986  19.500  25.001  1.00  0.00     0.042 C 
BRANCH  25  26
ATOM     26  C   UNL A   1      39.206  20.015  25.749  1.00  0.00     0.118 C 
BRANCH  26  27
ATOM     27  N   UNL A   1      40.254  19.009  25.884  1.00  0.00    -0.352 N 
ATOM     28  C   UNL A   1      41.601  19.154  26.098  1.00  0.00     0.251 C 
ATOM     29  H   UNL A   1      39.944  18.078  25.810  1.00  0.00     0.163 HD
ATOM     30  O   UNL A   1      42.337  18.169  25.998  1.00  0.00    -0.269 OA
BRANCH  28  31
ATOM     31  C   UNL A   1      42.187  20.474  26.415  1.00  0.00     0.039 A 
ATOM     32  C   UNL A   1      42.686  21.260  25.373  1.00  0.00     0.014 A 
ATOM     33  C   UNL A   1      42.273  20.936  27.732  1.00  0.00     0.014 A 
ATOM     34  C   UNL A   1      43.200  22.531  25.641  1.00  0.00     0.010 A 
ATOM     35  C   UNL A   1      42.698  22.237  27.988  1.00  0.00     0.010 A 
ATOM     36  C   UNL A   1      43.175  23.046  26.947  1.00  0.00    -0.014 A 
BRANCH  36  37
ATOM     37  C   UNL A   1      43.644  24.423  27.243  1.00  0.00     0.031 A 
ATOM     38  C   UNL A   1      42.668  25.486  27.666  1.00  0.00     0.074 A 
ATOM     39  C   UNL A   1      44.943  24.737  27.068  1.00  0.00     0.049 A 
ATOM     40  N   UNL A   1      42.887  26.752  27.929  1.00  0.00    -0.248 NA
ATOM     41  C   UNL A   1      41.257  25.086  27.783  1.00  0.00     0.031 C 
ATOM     42  C   UNL A   1      45.987  23.815  26.617  1.00  0.00     0.029 A 
ATOM     43  N   UNL A   1      45.606  25.924  27.252  1.00  0.00    -0.354 N 
ATOM     44  C   UNL A   1      41.641  27.299  28.210  1.00  0.00     0.074 A 
ATOM     45  C   UNL A   1      40.667  26.243  28.043  1.00  0.00     0.031 C 
ATOM     46  C   UNL A   1      47.166  24.459  26.602  1.00  0.00     0.029 A 
ATOM     47  C   UNL A   1      46.954  25.845  27.003  1.00  0.00     0.049 A 
ATOM     48  H   UNL A   1      45.157  26.754  27.534  1.00  0.00     0.167 HD
ATOM     49  C   UNL A   1      41.334  28.563  28.590  1.00  0.00     0.031 A 
ATOM     50  C   UNL A   1      47.916  26.783  27.094  1.00  0.00     0.031 A 
ATOM     51  C   UNL A   1      42.301  29.609  28.785  1.00  0.00     0.049 A 
ATOM     52  C   UNL A   1      47.552  28.174  27.525  1.00  0.00     0.074 A 
ATOM     53  C   UNL A   1      42.098  30.897  29.250  1.00  0.00     0.029 A 
ATOM     54  N   UNL A   1      43.656  29.488  28.520  1.00  0.00    -0.354 N 
ATOM     55  N   UNL A   1      46.380  28.655  27.861  1.00  0.00    -0.248 NA
ATOM     56  C   UNL A   1      48.650  29.149  27.596  1.00  0.00     0.031 C 
ATOM     57  C   UNL A   1      43.325  31.568  29.225  1.00  0.00     0.029 A 
ATOM     58  C   UNL A   1      44.299  30.685  28.788  1.00  0.00     0.049 A 
ATOM     59  H   UNL A   1      44.097  28.671  28.192  1.00  0.00     0.167 HD
ATOM     60  C   UNL A   1      46.602  29.982  28.207  1.00  0.00     0.074 A 
ATOM     61  C   UNL A   1      48.022  30.224  28.053  1.00  0.00     0.031 C 
ATOM     62  C   UNL A   1      45.710  30.914  28.621  1.00  0.00     0.031 A 
BRANCH  49  63
ATOM     63  C   UNL A   1      39.881  28.879  28.809  1.00  0.00    -0.014 A 
ATOM     64  C   UNL A   1      39.067  29.340  27.762  1.00  0.00     0.009 A 
ATOM     65  C   UNL A   1      39.316  28.703  30.082  1.00  0.00     0.009 A 
ATOM     66  C   UNL A   1      37.729  29.663  27.997  1.00  0.00     0.001 A 
ATOM     67  C   UNL A   1      37.970  29.000  30.307  1.00  0.00     0.001 A 
ATOM     68  C   UNL A   1      37.181  29.491  29.267  1.00  0.00     0.000 A 
ENDBRANCH  49  63
BRANCH  50  69
ATOM     69  C   UNL A   1      49.328  26.424  26.812  1.00  0.00    -0.014 A 
ATOM     70  C   UNL A   1      50.156  25.962  27.847  1.00  0.00     0.009 A 
ATOM     71  C   UNL A   1      49.855  26.531  25.515  1.00  0.00     0.009 A 
ATOM     72  C   UNL A   1      51.489  25.633  27.593  1.00  0.00     0.001 A 
ATOM     73  C   UNL A   1      51.182  26.180  25.261  1.00  0.00     0.001 A 
ATOM     74  C   UNL A   1      52.000  25.737  26.300  1.00  0.00     0.000 A 
ENDBRANCH  50  69
BRANCH  62  75
ATOM     75  C   UNL A   1      46.252  32.272  28.961  1.00  0.00    -0.014 A 
ATOM     76  C   UNL A   1      46.304  33.294  28.000  1.00  0.00     0.009 A 
ATOM     77  C   UNL A   1      46.694  32.539  30.265  1.00  0.00     0.009 A 
ATOM     78  C   UNL A   1      46.822  34.548  28.332  1.00  0.00     0.001 A 
ATOM     79  C   UNL A   1      47.186  33.800  30.601  1.00  0.00     0.001 A 
ATOM     80  C   UNL A   1      47.259  34.800  29.633  1.00  0.00     0.000 A 
ENDBRANCH  62  75
ENDBRANCH  36  37
ENDBRANCH  28  31
ENDBRANCH  26  27
ENDBRANCH  25  26
ENDBRANCH   1  25
TORSDOF 14
ENDMDL
