MODEL 1
REMARK VINA RESULT:     -11.3      0.000      0.000
REMARK SMILES C#CCNC(=O)[C@H](C)S(=O)(=O)c1ccc(C(=O)NCCCNC(=O)c2ccc(-c3c4nc(c(-c5ccccc5)c5ccc([nH]5)c(-c5ccccc5)c5nc(c(-c6ccccc6)c6ccc3[nH]6)C=C5)C=C4)cc2)cc1F
REMARK SMILES IDX 16 1 17 2 18 3 15 5 12 6 13 7 74 8 14 9 73 10 75 11 9 12
REMARK SMILES IDX 10 13 11 14 7 15 8 16 5 17 4 18 6 20 3 21 2 22 1 23 19 24
REMARK SMILES IDX 20 25 21 26 22 27 23 28 24 30 25 31 26 32 72 33 27 34 71 35
REMARK SMILES IDX 28 36 29 37 30 38 65 39 31 40 70 41 64 42 66 43 32 44 69 45
REMARK SMILES IDX 63 46 62 47 33 49 55 50 40 51 54 52 41 53 44 54 53 55 67 56
REMARK SMILES IDX 42 57 43 58 52 60 68 61 45 62 34 63 35 64 39 65 36 66 38 67
REMARK SMILES IDX 37 68 56 69 57 70 61 71 58 72 60 73 59 74 46 75 47 76 51 77
REMARK SMILES IDX 48 78 50 79 49 80
REMARK H PARENT 18 4 4 19 22 29 66 48 44 59
REMARK Flexibility Score: inf
ROOT
ATOM      1  C   UNL A   1      30.843  28.356  23.174  1.00  0.00     0.251 C 
ATOM      2  O   UNL A   1      30.254  28.610  22.124  1.00  0.00    -0.269 OA
ATOM      3  N   UNL A   1      31.503  29.386  23.799  1.00  0.00    -0.352 N 
ATOM      4  H   UNL A   1      31.480  30.227  23.288  1.00  0.00     0.163 HD
ENDROOT
BRANCH   1   5
ATOM      5  C   UNL A   1      30.708  26.993  23.758  1.00  0.00     0.042 A 
ATOM      6  C   UNL A   1      30.995  24.589  25.182  1.00  0.00     0.103 A 
ATOM      7  C   UNL A   1      30.507  25.730  25.830  1.00  0.00     0.024 A 
ATOM      8  C   UNL A   1      31.094  24.603  23.797  1.00  0.00     0.142 A 
ATOM      9  C   UNL A   1      30.340  26.920  25.110  1.00  0.00     0.015 A 
ATOM     10  C   UNL A   1      30.985  25.805  23.082  1.00  0.00     0.054 A 
ATOM     11  F   UNL A   1      31.455  23.509  23.120  1.00  0.00    -0.206 F 
BRANCH   6  12
ATOM     12  S   UNL A   1      31.566  23.221  26.163  1.00  0.00     0.192 S 
ATOM     13  O   UNL A   1      30.756  22.094  25.733  1.00  0.00    -0.223 OA
ATOM     14  O   UNL A   1      31.467  23.670  27.541  1.00  0.00    -0.223 OA
BRANCH  12  15
ATOM     15  C   UNL A   1      33.260  22.790  25.907  1.00  0.00     0.199 C 
ATOM     16  C   UNL A   1      34.304  23.888  25.906  1.00  0.00     0.036 C 
BRANCH  15  17
ATOM     17  C   UNL A   1      33.733  21.538  26.604  1.00  0.00     0.239 C 
ATOM     18  N   UNL A   1      33.610  20.297  26.079  1.00  0.00    -0.344 N 
ATOM     19  H   UNL A   1      33.802  19.567  26.711  1.00  0.00     0.164 HD
ATOM     20  O   UNL A   1      34.128  21.589  27.775  1.00  0.00    -0.274 OA
BRANCH  18  21
ATOM     21  C   UNL A   1      33.248  19.863  24.763  1.00  0.00     0.206 C 
BRANCH  21  22
ATOM     22  C   UNL A   1      34.009  18.580  24.475  1.00  0.00    -0.085 C 
ATOM     23  C   UNL A   1      34.662  17.479  24.229  1.00  0.00     0.006 C 
ENDBRANCH  21  22
ENDBRANCH  18  21
ENDBRANCH  15  17
ENDBRANCH  12  15
ENDBRANCH   6  12
ENDBRANCH   1   5
BRANCH   3  24
ATOM     24  C   UNL A   1      32.232  29.499  25.053  1.00  0.00     0.118 C 
BRANCH  24  25
ATOM     25  C   UNL A   1      31.602  30.535  25.981  1.00  0.00     0.042 C 
BRANCH  25  26
ATOM     26  C   UNL A   1      32.584  31.189  26.951  1.00  0.00     0.118 C 
BRANCH  26  27
ATOM     27  N   UNL A   1      32.264  32.580  27.241  1.00  0.00    -0.352 N 
ATOM     28  C   UNL A   1      32.956  33.510  27.985  1.00  0.00     0.251 C 
ATOM     29  H   UNL A   1      31.424  32.906  26.844  1.00  0.00     0.163 HD
ATOM     30  O   UNL A   1      32.436  34.593  28.234  1.00  0.00    -0.269 OA
BRANCH  28  31
ATOM     31  C   UNL A   1      34.307  33.207  28.516  1.00  0.00     0.039 A 
ATOM     32  C   UNL A   1      34.417  32.476  29.704  1.00  0.00     0.014 A 
ATOM     33  C   UNL A   1      35.461  33.646  27.866  1.00  0.00     0.014 A 
ATOM     34  C   UNL A   1      35.679  32.113  30.187  1.00  0.00     0.010 A 
ATOM     35  C   UNL A   1      36.714  33.218  28.304  1.00  0.00     0.010 A 
ATOM     36  C   UNL A   1      36.837  32.441  29.466  1.00  0.00    -0.014 A 
BRANCH  36  37
ATOM     37  C   UNL A   1      38.183  31.971  29.892  1.00  0.00     0.031 A 
ATOM     38  C   UNL A   1      38.724  30.658  29.393  1.00  0.00     0.074 A 
ATOM     39  C   UNL A   1      38.881  32.681  30.803  1.00  0.00     0.049 A 
ATOM     40  N   UNL A   1      39.821  30.032  29.739  1.00  0.00    -0.248 NA
ATOM     41  C   UNL A   1      37.917  29.944  28.391  1.00  0.00     0.031 C 
ATOM     42  C   UNL A   1      38.457  33.950  31.399  1.00  0.00     0.029 A 
ATOM     43  N   UNL A   1      40.088  32.422  31.406  1.00  0.00    -0.354 N 
ATOM     44  C   UNL A   1      39.818  28.841  29.022  1.00  0.00     0.074 A 
ATOM     45  C   UNL A   1      38.596  28.816  28.249  1.00  0.00     0.031 C 
ATOM     46  C   UNL A   1      39.392  34.363  32.269  1.00  0.00     0.029 A 
ATOM     47  C   UNL A   1      40.457  33.369  32.333  1.00  0.00     0.049 A 
ATOM     48  H   UNL A   1      40.639  31.634  31.194  1.00  0.00     0.167 HD
ATOM     49  C   UNL A   1      40.754  27.862  29.002  1.00  0.00     0.031 A 
ATOM     50  C   UNL A   1      41.519  33.421  33.161  1.00  0.00     0.031 A 
ATOM     51  C   UNL A   1      41.978  27.894  29.757  1.00  0.00     0.049 A 
ATOM     52  C   UNL A   1      42.535  32.313  33.126  1.00  0.00     0.074 A 
ATOM     53  C   UNL A   1      43.021  26.983  29.742  1.00  0.00     0.029 A 
ATOM     54  N   UNL A   1      42.322  28.881  30.665  1.00  0.00    -0.354 N 
ATOM     55  N   UNL A   1      42.556  31.234  32.381  1.00  0.00    -0.248 NA
ATOM     56  C   UNL A   1      43.680  32.433  34.041  1.00  0.00     0.031 C 
ATOM     57  C   UNL A   1      43.966  27.386  30.689  1.00  0.00     0.029 A 
ATOM     58  C   UNL A   1      43.544  28.584  31.243  1.00  0.00     0.049 A 
ATOM     59  H   UNL A   1      41.778  29.676  30.870  1.00  0.00     0.167 HD
ATOM     60  C   UNL A   1      43.728  30.566  32.716  1.00  0.00     0.074 A 
ATOM     61  C   UNL A   1      44.399  31.368  33.717  1.00  0.00     0.031 C 
ATOM     62  C   UNL A   1      44.205  29.393  32.234  1.00  0.00     0.031 A 
BRANCH  49  63
ATOM     63  C   UNL A   1      40.486  26.654  28.146  1.00  0.00    -0.014 A 
ATOM     64  C   UNL A   1      39.694  25.590  28.604  1.00  0.00     0.009 A 
ATOM     65  C   UNL A   1      40.983  26.613  26.832  1.00  0.00     0.009 A 
ATOM     66  C   UNL A   1      39.433  24.495  27.777  1.00  0.00     0.001 A 
ATOM     67  C   UNL A   1      40.694  25.531  25.997  1.00  0.00     0.001 A 
ATOM     68  C   UNL A   1      39.926  24.471  26.473  1.00  0.00     0.000 A 
ENDBRANCH  49  63
BRANCH  50  69
ATOM     69  C   UNL A   1      41.675  34.558  34.109  1.00  0.00    -0.014 A 
ATOM     70  C   UNL A   1      41.143  34.489  35.406  1.00  0.00     0.009 A 
ATOM     71  C   UNL A   1      42.332  35.734  33.709  1.00  0.00     0.009 A 
ATOM     72  C   UNL A   1      41.237  35.583  36.269  1.00  0.00     0.001 A 
ATOM     73  C   UNL A   1      42.454  36.813  34.586  1.00  0.00     0.001 A 
ATOM     74  C   UNL A   1      41.895  36.742  35.861  1.00  0.00     0.000 A 
ENDBRANCH  50  69
BRANCH  62  75
ATOM     75  C   UNL A   1      45.538  28.923  32.746  1.00  0.00    -0.014 A 
ATOM     76  C   UNL A   1      46.739  29.341  32.154  1.00  0.00     0.009 A 
ATOM     77  C   UNL A   1      45.591  28.093  33.878  1.00  0.00     0.009 A 
ATOM     78  C   UNL A   1      47.966  28.913  32.668  1.00  0.00     0.001 A 
ATOM     79  C   UNL A   1      46.818  27.693  34.409  1.00  0.00     0.001 A 
ATOM     80  C   UNL A   1      48.004  28.096  33.798  1.00  0.00     0.000 A 
ENDBRANCH  62  75
ENDBRANCH  36  37
ENDBRANCH  28  31
ENDBRANCH  26  27
ENDBRANCH  25  26
ENDBRANCH  24  25
ENDBRANCH   3  24
TORSDOF 15
ENDMDL
MODEL 2
REMARK VINA RESULT:     -11.2      3.044      8.674
REMARK SMILES C#CCNC(=O)[C@H](C)S(=O)(=O)c1ccc(C(=O)NCCCNC(=O)c2ccc(-c3c4nc(c(-c5ccccc5)c5ccc([nH]5)c(-c5ccccc5)c5nc(c(-c6ccccc6)c6ccc3[nH]6)C=C5)C=C4)cc2)cc1F
REMARK SMILES IDX 16 1 17 2 18 3 15 5 12 6 13 7 74 8 14 9 73 10 75 11 9 12
REMARK SMILES IDX 10 13 11 14 7 15 8 16 5 17 4 18 6 20 3 21 2 22 1 23 19 24
REMARK SMILES IDX 20 25 21 26 22 27 23 28 24 30 25 31 26 32 72 33 27 34 71 35
REMARK SMILES IDX 28 36 29 37 30 38 65 39 31 40 70 41 64 42 66 43 32 44 69 45
REMARK SMILES IDX 63 46 62 47 33 49 55 50 40 51 54 52 41 53 44 54 53 55 67 56
REMARK SMILES IDX 42 57 43 58 52 60 68 61 45 62 34 63 35 64 39 65 36 66 38 67
REMARK SMILES IDX 37 68 56 69 57 70 61 71 58 72 60 73 59 74 46 75 47 76 51 77
REMARK SMILES IDX 48 78 50 79 49 80
REMARK H PARENT 18 4 4 19 22 29 66 48 44 59
REMARK Flexibility Score: inf
ROOT
ATOM      1  C   UNL A   1      33.844  19.449  25.006  1.00  0.00     0.251 C 
ATOM      2  O   UNL A   1      33.285  18.357  24.921  1.00  0.00    -0.269 OA
ATOM      3  N   UNL A   1      35.218  19.462  25.021  1.00  0.00    -0.352 N 
ATOM      4  H   UNL A   1      35.613  18.561  25.023  1.00  0.00     0.163 HD
ENDROOT
BRANCH   1   5
ATOM      5  C   UNL A   1      33.012  20.683  24.966  1.00  0.00     0.042 A 
ATOM      6  C   UNL A   1      31.919  23.229  24.504  1.00  0.00     0.103 A 
ATOM      7  C   UNL A   1      31.843  22.247  23.510  1.00  0.00     0.024 A 
ATOM      8  C   UNL A   1      32.311  22.852  25.782  1.00  0.00     0.142 A 
ATOM      9  C   UNL A   1      32.366  20.970  23.753  1.00  0.00     0.015 A 
ATOM     10  C   UNL A   1      32.889  21.595  26.014  1.00  0.00     0.054 A 
ATOM     11  F   UNL A   1      32.302  23.727  26.793  1.00  0.00    -0.206 F 
BRANCH   6  12
ATOM     12  S   UNL A   1      31.618  24.925  24.062  1.00  0.00     0.192 S 
ATOM     13  O   UNL A   1      30.864  25.469  25.180  1.00  0.00    -0.223 OA
ATOM     14  O   UNL A   1      30.992  24.873  22.753  1.00  0.00    -0.223 OA
BRANCH  12  15
ATOM     15  C   UNL A   1      33.076  25.905  23.873  1.00  0.00     0.199 C 
ATOM     16  C   UNL A   1      34.404  25.338  24.331  1.00  0.00     0.036 C 
BRANCH  15  17
ATOM     17  C   UNL A   1      33.187  26.676  22.582  1.00  0.00     0.239 C 
ATOM     18  N   UNL A   1      32.541  27.842  22.349  1.00  0.00    -0.344 N 
ATOM     19  H   UNL A   1      32.568  28.143  21.412  1.00  0.00     0.164 HD
ATOM     20  O   UNL A   1      33.770  26.183  21.609  1.00  0.00    -0.274 OA
BRANCH  18  21
ATOM     21  C   UNL A   1      31.826  28.715  23.232  1.00  0.00     0.206 C 
BRANCH  21  22
ATOM     22  C   UNL A   1      30.351  28.369  23.127  1.00  0.00    -0.085 C 
ATOM     23  C   UNL A   1      29.084  28.072  23.036  1.00  0.00     0.006 C 
ENDBRANCH  21  22
ENDBRANCH  18  21
ENDBRANCH  15  17
ENDBRANCH  12  15
ENDBRANCH   6  12
ENDBRANCH   1   5
BRANCH   3  24
ATOM     24  C   UNL A   1      36.214  20.523  25.037  1.00  0.00     0.118 C 
BRANCH  24  25
ATOM     25  C   UNL A   1      37.602  20.000  24.676  1.00  0.00     0.042 C 
BRANCH  25  26
ATOM     26  C   UNL A   1      38.698  20.395  25.664  1.00  0.00     0.118 C 
BRANCH  26  27
ATOM     27  N   UNL A   1      39.777  19.419  25.743  1.00  0.00    -0.352 N 
ATOM     28  C   UNL A   1      41.099  19.589  26.090  1.00  0.00     0.251 C 
ATOM     29  H   UNL A   1      39.522  18.496  25.515  1.00  0.00     0.163 HD
ATOM     30  O   UNL A   1      41.887  18.659  25.947  1.00  0.00    -0.269 OA
BRANCH  28  31
ATOM     31  C   UNL A   1      41.590  20.892  26.601  1.00  0.00     0.039 A 
ATOM     32  C   UNL A   1      42.160  21.799  25.702  1.00  0.00     0.014 A 
ATOM     33  C   UNL A   1      41.508  21.220  27.955  1.00  0.00     0.014 A 
ATOM     34  C   UNL A   1      42.564  23.063  26.145  1.00  0.00     0.010 A 
ATOM     35  C   UNL A   1      41.836  22.507  28.382  1.00  0.00     0.010 A 
ATOM     36  C   UNL A   1      42.361  23.446  27.480  1.00  0.00    -0.014 A 
BRANCH  36  37
ATOM     37  C   UNL A   1      42.673  24.821  27.955  1.00  0.00     0.031 A 
ATOM     38  C   UNL A   1      44.068  25.176  28.396  1.00  0.00     0.074 A 
ATOM     39  C   UNL A   1      41.681  25.727  28.079  1.00  0.00     0.049 A 
ATOM     40  N   UNL A   1      44.505  26.282  28.944  1.00  0.00    -0.248 NA
ATOM     41  C   UNL A   1      45.103  24.144  28.221  1.00  0.00     0.031 C 
ATOM     42  C   UNL A   1      40.278  25.504  27.724  1.00  0.00     0.029 A 
ATOM     43  N   UNL A   1      41.698  27.014  28.559  1.00  0.00    -0.354 N 
ATOM     44  C   UNL A   1      45.853  26.067  29.205  1.00  0.00     0.074 A 
ATOM     45  C   UNL A   1      46.154  24.716  28.789  1.00  0.00     0.031 C 
ATOM     46  C   UNL A   1      39.574  26.617  27.987  1.00  0.00     0.029 A 
ATOM     47  C   UNL A   1      40.461  27.614  28.574  1.00  0.00     0.049 A 
ATOM     48  H   UNL A   1      42.519  27.465  28.864  1.00  0.00     0.167 HD
ATOM     49  C   UNL A   1      46.760  26.923  29.735  1.00  0.00     0.031 A 
ATOM     50  C   UNL A   1      40.076  28.823  29.031  1.00  0.00     0.031 A 
ATOM     51  C   UNL A   1      46.466  28.273  30.133  1.00  0.00     0.049 A 
ATOM     52  C   UNL A   1      41.103  29.746  29.627  1.00  0.00     0.074 A 
ATOM     53  C   UNL A   1      47.338  29.239  30.609  1.00  0.00     0.029 A 
ATOM     54  N   UNL A   1      45.206  28.848  30.110  1.00  0.00    -0.354 N 
ATOM     55  N   UNL A   1      42.389  29.556  29.790  1.00  0.00    -0.248 NA
ATOM     56  C   UNL A   1      40.625  31.056  30.094  1.00  0.00     0.031 C 
ATOM     57  C   UNL A   1      46.594  30.375  30.935  1.00  0.00     0.029 A 
ATOM     58  C   UNL A   1      45.270  30.142  30.596  1.00  0.00     0.049 A 
ATOM     59  H   UNL A   1      44.386  28.402  29.795  1.00  0.00     0.167 HD
ATOM     60  C   UNL A   1      42.878  30.731  30.348  1.00  0.00     0.074 A 
ATOM     61  C   UNL A   1      41.754  31.633  30.480  1.00  0.00     0.031 C 
ATOM     62  C   UNL A   1      44.146  31.034  30.717  1.00  0.00     0.031 A 
BRANCH  49  63
ATOM     63  C   UNL A   1      48.165  26.421  29.934  1.00  0.00    -0.014 A 
ATOM     64  C   UNL A   1      49.142  26.561  28.937  1.00  0.00     0.009 A 
ATOM     65  C   UNL A   1      48.530  25.856  31.168  1.00  0.00     0.009 A 
ATOM     66  C   UNL A   1      50.448  26.117  29.159  1.00  0.00     0.001 A 
ATOM     67  C   UNL A   1      49.844  25.442  31.397  1.00  0.00     0.001 A 
ATOM     68  C   UNL A   1      50.799  25.565  30.390  1.00  0.00     0.000 A 
ENDBRANCH  49  63
BRANCH  50  69
ATOM     69  C   UNL A   1      38.646  29.230  28.959  1.00  0.00    -0.014 A 
ATOM     70  C   UNL A   1      38.111  29.766  27.778  1.00  0.00     0.009 A 
ATOM     71  C   UNL A   1      37.814  29.110  30.085  1.00  0.00     0.009 A 
ATOM     72  C   UNL A   1      36.785  30.205  27.736  1.00  0.00     0.001 A 
ATOM     73  C   UNL A   1      36.480  29.519  30.030  1.00  0.00     0.001 A 
ATOM     74  C   UNL A   1      35.970  30.078  28.859  1.00  0.00     0.000 A 
ENDBRANCH  50  69
BRANCH  62  75
ATOM     75  C   UNL A   1      44.401  32.413  31.257  1.00  0.00    -0.014 A 
ATOM     76  C   UNL A   1      44.767  33.474  30.415  1.00  0.00     0.009 A 
ATOM     77  C   UNL A   1      44.213  32.666  32.626  1.00  0.00     0.009 A 
ATOM     78  C   UNL A   1      44.969  34.754  30.938  1.00  0.00     0.001 A 
ATOM     79  C   UNL A   1      44.385  33.952  33.141  1.00  0.00     0.001 A 
ATOM     80  C   UNL A   1      44.771  34.992  32.298  1.00  0.00     0.000 A 
ENDBRANCH  62  75
ENDBRANCH  36  37
ENDBRANCH  28  31
ENDBRANCH  26  27
ENDBRANCH  25  26
ENDBRANCH  24  25
ENDBRANCH   3  24
TORSDOF 15
ENDMDL
MODEL 3
REMARK VINA RESULT:     -11.2      1.822      2.327
REMARK SMILES C#CCNC(=O)[C@H](C)S(=O)(=O)c1ccc(C(=O)NCCCNC(=O)c2ccc(-c3c4nc(c(-c5ccccc5)c5ccc([nH]5)c(-c5ccccc5)c5nc(c(-c6ccccc6)c6ccc3[nH]6)C=C5)C=C4)cc2)cc1F
REMARK SMILES IDX 16 1 17 2 18 3 15 5 12 6 13 7 74 8 14 9 73 10 75 11 9 12
REMARK SMILES IDX 10 13 11 14 7 15 8 16 5 17 4 18 6 20 3 21 2 22 1 23 19 24
REMARK SMILES IDX 20 25 21 26 22 27 23 28 24 30 25 31 26 32 72 33 27 34 71 35
REMARK SMILES IDX 28 36 29 37 30 38 65 39 31 40 70 41 64 42 66 43 32 44 69 45
REMARK SMILES IDX 63 46 62 47 33 49 55 50 40 51 54 52 41 53 44 54 53 55 67 56
REMARK SMILES IDX 42 57 43 58 52 60 68 61 45 62 34 63 35 64 39 65 36 66 38 67
REMARK SMILES IDX 37 68 56 69 57 70 61 71 58 72 60 73 59 74 46 75 47 76 51 77
REMARK SMILES IDX 48 78 50 79 49 80
REMARK H PARENT 18 4 4 19 22 29 66 48 44 59
REMARK Flexibility Score: inf
ROOT
ATOM      1  C   UNL A   1      33.741  28.929  26.761  1.00  0.00     0.251 C 
ATOM      2  O   UNL A   1      34.890  28.918  27.201  1.00  0.00    -0.269 OA
ATOM      3  N   UNL A   1      33.054  30.117  26.806  1.00  0.00    -0.352 N 
ATOM      4  H   UNL A   1      33.553  30.837  27.255  1.00  0.00     0.163 HD
ENDROOT
BRANCH   1   5
ATOM      5  C   UNL A   1      33.215  27.699  26.107  1.00  0.00     0.042 A 
ATOM      6  C   UNL A   1      32.534  25.079  25.359  1.00  0.00     0.103 A 
ATOM      7  C   UNL A   1      31.880  25.689  26.435  1.00  0.00     0.024 A 
ATOM      8  C   UNL A   1      33.327  25.864  24.532  1.00  0.00     0.142 A 
ATOM      9  C   UNL A   1      32.203  27.005  26.789  1.00  0.00     0.015 A 
ATOM     10  C   UNL A   1      33.699  27.162  24.915  1.00  0.00     0.054 A 
ATOM     11  F   UNL A   1      33.892  25.356  23.432  1.00  0.00    -0.206 F 
BRANCH   6  12
ATOM     12  S   UNL A   1      32.409  23.316  25.164  1.00  0.00     0.192 S 
ATOM     13  O   UNL A   1      32.099  23.121  23.757  1.00  0.00    -0.223 OA
ATOM     14  O   UNL A   1      31.442  22.889  26.160  1.00  0.00    -0.223 OA
BRANCH  12  15
ATOM     15  C   UNL A   1      33.898  22.431  25.510  1.00  0.00     0.199 C 
ATOM     16  C   UNL A   1      35.191  23.205  25.667  1.00  0.00     0.036 C 
BRANCH  15  17
ATOM     17  C   UNL A   1      33.775  21.298  26.499  1.00  0.00     0.239 C 
ATOM     18  N   UNL A   1      33.180  20.117  26.213  1.00  0.00    -0.344 N 
ATOM     19  H   UNL A   1      33.020  19.542  26.996  1.00  0.00     0.164 HD
ATOM     20  O   UNL A   1      34.092  21.467  27.683  1.00  0.00    -0.274 OA
BRANCH  18  21
ATOM     21  C   UNL A   1      32.743  19.560  24.968  1.00  0.00     0.206 C 
BRANCH  21  22
ATOM     22  C   UNL A   1      33.741  18.486  24.569  1.00  0.00    -0.085 C 
ATOM     23  C   UNL A   1      34.596  17.563  24.226  1.00  0.00     0.006 C 
ENDBRANCH  21  22
ENDBRANCH  18  21
ENDBRANCH  15  17
ENDBRANCH  12  15
ENDBRANCH   6  12
ENDBRANCH   1   5
BRANCH   3  24
ATOM     24  C   UNL A   1      31.744  30.540  26.333  1.00  0.00     0.118 C 
BRANCH  24  25
ATOM     25  C   UNL A   1      31.476  32.009  26.649  1.00  0.00     0.042 C 
BRANCH  25  26
ATOM     26  C   UNL A   1      32.683  32.762  27.208  1.00  0.00     0.118 C 
BRANCH  26  27
ATOM     27  N   UNL A   1      32.366  34.118  27.633  1.00  0.00    -0.352 N 
ATOM     28  C   UNL A   1      32.966  34.908  28.588  1.00  0.00     0.251 C 
ATOM     29  H   UNL A   1      31.605  34.534  27.167  1.00  0.00     0.163 HD
ATOM     30  O   UNL A   1      32.449  35.975  28.905  1.00  0.00    -0.269 OA
BRANCH  28  31
ATOM     31  C   UNL A   1      34.213  34.471  29.263  1.00  0.00     0.039 A 
ATOM     32  C   UNL A   1      34.125  33.882  30.529  1.00  0.00     0.014 A 
ATOM     33  C   UNL A   1      35.463  34.648  28.669  1.00  0.00     0.014 A 
ATOM     34  C   UNL A   1      35.276  33.395  31.156  1.00  0.00     0.010 A 
ATOM     35  C   UNL A   1      36.599  34.092  29.257  1.00  0.00     0.010 A 
ATOM     36  C   UNL A   1      36.518  33.453  30.504  1.00  0.00    -0.014 A 
BRANCH  36  37
ATOM     37  C   UNL A   1      37.739  32.840  31.093  1.00  0.00     0.031 A 
ATOM     38  C   UNL A   1      38.353  31.616  30.469  1.00  0.00     0.074 A 
ATOM     39  C   UNL A   1      38.245  33.330  32.244  1.00  0.00     0.049 A 
ATOM     40  N   UNL A   1      39.345  30.877  30.901  1.00  0.00    -0.248 NA
ATOM     41  C   UNL A   1      37.760  31.144  29.208  1.00  0.00     0.031 C 
ATOM     42  C   UNL A   1      37.725  34.489  32.975  1.00  0.00     0.029 A 
ATOM     43  N   UNL A   1      39.298  32.900  33.015  1.00  0.00    -0.354 N 
ATOM     44  C   UNL A   1      39.473  29.842  29.983  1.00  0.00     0.074 A 
ATOM     45  C   UNL A   1      38.437  30.026  28.991  1.00  0.00     0.031 C 
ATOM     46  C   UNL A   1      38.467  34.683  34.077  1.00  0.00     0.029 A 
ATOM     47  C   UNL A   1      39.480  33.638  34.161  1.00  0.00     0.049 A 
ATOM     48  H   UNL A   1      39.868  32.136  32.770  1.00  0.00     0.167 HD
ATOM     49  C   UNL A   1      40.378  28.834  29.963  1.00  0.00     0.031 A 
ATOM     50  C   UNL A   1      40.349  33.479  35.179  1.00  0.00     0.031 A 
ATOM     51  C   UNL A   1      41.420  28.660  30.939  1.00  0.00     0.049 A 
ATOM     52  C   UNL A   1      41.334  32.343  35.136  1.00  0.00     0.074 A 
ATOM     53  C   UNL A   1      42.430  27.713  30.958  1.00  0.00     0.029 A 
ATOM     54  N   UNL A   1      41.583  29.442  32.070  1.00  0.00    -0.354 N 
ATOM     55  N   UNL A   1      41.493  31.421  34.218  1.00  0.00    -0.248 NA
ATOM     56  C   UNL A   1      42.266  32.231  36.267  1.00  0.00     0.031 C 
ATOM     57  C   UNL A   1      43.164  27.882  32.135  1.00  0.00     0.029 A 
ATOM     58  C   UNL A   1      42.655  28.978  32.813  1.00  0.00     0.049 A 
ATOM     59  H   UNL A   1      41.020  30.214  32.310  1.00  0.00     0.167 HD
ATOM     60  C   UNL A   1      42.560  30.641  34.645  1.00  0.00     0.074 A 
ATOM     61  C   UNL A   1      43.021  31.206  35.895  1.00  0.00     0.031 C 
ATOM     62  C   UNL A   1      43.109  29.553  34.052  1.00  0.00     0.031 A 
BRANCH  49  63
ATOM     63  C   UNL A   1      40.276  27.822  28.854  1.00  0.00    -0.014 A 
ATOM     64  C   UNL A   1      40.926  28.011  27.625  1.00  0.00     0.009 A 
ATOM     65  C   UNL A   1      39.568  26.627  29.070  1.00  0.00     0.009 A 
ATOM     66  C   UNL A   1      40.844  27.040  26.624  1.00  0.00     0.001 A 
ATOM     67  C   UNL A   1      39.514  25.646  28.079  1.00  0.00     0.001 A 
ATOM     68  C   UNL A   1      40.144  25.856  26.855  1.00  0.00     0.000 A 
ENDBRANCH  49  63
BRANCH  50  69
ATOM     69  C   UNL A   1      40.322  34.411  36.339  1.00  0.00    -0.014 A 
ATOM     70  C   UNL A   1      39.556  34.118  37.478  1.00  0.00     0.009 A 
ATOM     71  C   UNL A   1      41.043  35.617  36.301  1.00  0.00     0.009 A 
ATOM     72  C   UNL A   1      39.484  35.025  38.537  1.00  0.00     0.001 A 
ATOM     73  C   UNL A   1      40.996  36.506  37.376  1.00  0.00     0.001 A 
ATOM     74  C   UNL A   1      40.206  36.216  38.488  1.00  0.00     0.000 A 
ENDBRANCH  50  69
BRANCH  62  75
ATOM     75  C   UNL A   1      44.300  28.925  34.721  1.00  0.00    -0.014 A 
ATOM     76  C   UNL A   1      44.165  27.813  35.566  1.00  0.00     0.009 A 
ATOM     77  C   UNL A   1      45.586  29.422  34.453  1.00  0.00     0.009 A 
ATOM     78  C   UNL A   1      45.292  27.230  36.152  1.00  0.00     0.001 A 
ATOM     79  C   UNL A   1      46.712  28.819  35.014  1.00  0.00     0.001 A 
ATOM     80  C   UNL A   1      46.563  27.729  35.869  1.00  0.00     0.000 A 
ENDBRANCH  62  75
ENDBRANCH  36  37
ENDBRANCH  28  31
ENDBRANCH  26  27
ENDBRANCH  25  26
ENDBRANCH  24  25
ENDBRANCH   3  24
TORSDOF 15
ENDMDL
