MODEL 1
REMARK VINA RESULT:     -11.0      0.000      0.000
REMARK SMILES Cc1noc(C)c1[C@H](C)NC(=O)NC[C@@](C)(O)C(=O)NCCCNC(=O)c1ccc(-c2c3nc(c(-c4ccccc4)c4ccc([nH]4)c(-c4ccccc4)c4nc(c(-c5ccccc5)c5ccc2[nH]5)C=C4)C=C3)cc1
REMARK SMILES IDX 21 1 20 2 18 3 19 4 15 6 16 7 14 8 13 9 10 10 11 11 12 13
REMARK SMILES IDX 8 15 9 16 7 17 1 18 2 19 3 20 4 21 5 22 6 23 17 24 22 26
REMARK SMILES IDX 23 27 24 28 25 29 26 31 27 32 28 33 74 34 29 35 73 36 30 37
REMARK SMILES IDX 31 38 32 39 67 40 33 41 72 42 66 43 68 44 34 45 71 46 65 47
REMARK SMILES IDX 64 48 35 50 57 51 42 52 56 53 43 54 46 55 55 56 69 57 44 58
REMARK SMILES IDX 45 59 54 61 70 62 47 63 36 64 37 65 41 66 38 67 40 68 39 69
REMARK SMILES IDX 58 70 59 71 63 72 60 73 62 74 61 75 48 76 49 77 53 78 50 79
REMARK SMILES IDX 52 80 51 81
REMARK H PARENT 20 5 10 12 13 14 17 25 24 30 68 49 46 60
REMARK Flexibility Score: inf
ROOT
ATOM      1  C   UNL A   1      36.202  20.682  25.015  1.00  0.00     0.117 C 
ENDROOT
BRANCH   1   2
ATOM      2  N   UNL A   1      34.935  20.035  25.304  1.00  0.00    -0.353 N 
ATOM      3  C   UNL A   1      33.647  20.495  25.252  1.00  0.00     0.253 C 
ATOM      4  O   UNL A   1      32.783  19.637  25.430  1.00  0.00    -0.272 OA
ATOM      5  H   UNL A   1      35.017  19.097  25.589  1.00  0.00     0.163 HD
BRANCH   3   6
ATOM      6  C   UNL A   1      33.323  21.974  24.886  1.00  0.00     0.157 C 
ATOM      7  C   UNL A   1      33.996  22.262  23.534  1.00  0.00     0.055 C 
BRANCH   6   8
ATOM      8  C   UNL A   1      31.806  22.346  24.786  1.00  0.00     0.162 C 
BRANCH   8   9
ATOM      9  N   UNL A   1      31.003  22.372  25.992  1.00  0.00    -0.335 N 
ATOM     10  N   UNL A   1      30.367  24.625  26.376  1.00  0.00    -0.331 N 
ATOM     11  C   UNL A   1      30.404  23.330  26.713  1.00  0.00     0.315 C 
ATOM     12  H   UNL A   1      30.019  25.201  27.094  1.00  0.00     0.165 HD
ATOM     13  O   UNL A   1      29.833  22.990  27.752  1.00  0.00    -0.249 OA
ATOM     14  H   UNL A   1      30.864  21.475  26.371  1.00  0.00     0.165 HD
BRANCH  10  15
ATOM     15  C   UNL A   1      30.727  25.362  25.179  1.00  0.00     0.116 C 
ATOM     16  C   UNL A   1      29.492  26.100  24.665  1.00  0.00     0.036 C 
BRANCH  15  17
ATOM     17  C   UNL A   1      31.915  26.233  25.480  1.00  0.00     0.040 A 
ATOM     18  C   UNL A   1      33.430  25.611  23.432  1.00  0.00     0.071 C 
ATOM     19  C   UNL A   1      33.099  26.332  24.682  1.00  0.00     0.086 A 
ATOM     20  N   UNL A   1      33.958  27.230  25.172  1.00  0.00    -0.085 NA
ATOM     21  O   UNL A   1      33.359  27.743  26.297  1.00  0.00    -0.361 OA
ATOM     22  C   UNL A   1      32.142  27.165  26.478  1.00  0.00     0.139 A 
ATOM     23  C   UNL A   1      31.389  27.679  27.640  1.00  0.00     0.091 C 
ENDBRANCH  15  17
ENDBRANCH  10  15
ENDBRANCH   8   9
ENDBRANCH   6   8
BRANCH   6  24
ATOM     24  O   UNL A   1      33.886  22.856  25.877  1.00  0.00    -0.378 OA
ATOM     25  H   UNL A   1      34.586  23.393  25.473  1.00  0.00     0.212 HD
ENDBRANCH   6  24
ENDBRANCH   3   6
ENDBRANCH   1   2
BRANCH   1  26
ATOM     26  C   UNL A   1      37.382  19.716  24.999  1.00  0.00     0.042 C 
BRANCH  26  27
ATOM     27  C   UNL A   1      38.687  20.275  25.563  1.00  0.00     0.118 C 
BRANCH  27  28
ATOM     28  N   UNL A   1      39.727  19.266  25.726  1.00  0.00    -0.352 N 
ATOM     29  C   UNL A   1      41.056  19.368  26.045  1.00  0.00     0.251 C 
ATOM     30  H   UNL A   1      39.418  18.343  25.581  1.00  0.00     0.163 HD
ATOM     31  O   UNL A   1      41.767  18.362  25.962  1.00  0.00    -0.269 OA
BRANCH  29  32
ATOM     32  C   UNL A   1      41.669  20.651  26.456  1.00  0.00     0.039 A 
ATOM     33  C   UNL A   1      42.068  21.550  25.460  1.00  0.00     0.014 A 
ATOM     34  C   UNL A   1      41.905  20.960  27.796  1.00  0.00     0.014 A 
ATOM     35  C   UNL A   1      42.626  22.783  25.809  1.00  0.00     0.010 A 
ATOM     36  C   UNL A   1      42.386  22.222  28.148  1.00  0.00     0.010 A 
ATOM     37  C   UNL A   1      42.749  23.149  27.159  1.00  0.00    -0.014 A 
BRANCH  37  38
ATOM     38  C   UNL A   1      43.238  24.498  27.551  1.00  0.00     0.031 A 
ATOM     39  C   UNL A   1      42.272  25.567  27.985  1.00  0.00     0.074 A 
ATOM     40  C   UNL A   1      44.552  24.784  27.453  1.00  0.00     0.049 A 
ATOM     41  N   UNL A   1      42.509  26.817  28.297  1.00  0.00    -0.248 NA
ATOM     42  C   UNL A   1      40.851  25.191  28.056  1.00  0.00     0.031 C 
ATOM     43  C   UNL A   1      45.592  23.852  27.015  1.00  0.00     0.029 A 
ATOM     44  N   UNL A   1      45.236  25.947  27.710  1.00  0.00    -0.354 N 
ATOM     45  C   UNL A   1      41.270  27.378  28.582  1.00  0.00     0.074 A 
ATOM     46  C   UNL A   1      40.280  26.347  28.361  1.00  0.00     0.031 C 
ATOM     47  C   UNL A   1      46.784  24.470  27.058  1.00  0.00     0.029 A 
ATOM     48  C   UNL A   1      46.587  25.853  27.480  1.00  0.00     0.049 A 
ATOM     49  H   UNL A   1      44.800  26.770  28.028  1.00  0.00     0.167 HD
ATOM     50  C   UNL A   1      40.982  28.633  29.005  1.00  0.00     0.031 A 
ATOM     51  C   UNL A   1      47.561  26.777  27.584  1.00  0.00     0.031 A 
ATOM     52  C   UNL A   1      41.964  29.660  29.231  1.00  0.00     0.049 A 
ATOM     53  C   UNL A   1      47.211  28.170  28.030  1.00  0.00     0.074 A 
ATOM     54  C   UNL A   1      41.773  30.945  29.711  1.00  0.00     0.029 A 
ATOM     55  N   UNL A   1      43.321  29.523  28.985  1.00  0.00    -0.354 N 
ATOM     56  N   UNL A   1      46.043  28.662  28.360  1.00  0.00    -0.248 NA
ATOM     57  C   UNL A   1      48.320  29.130  28.128  1.00  0.00     0.031 C 
ATOM     58  C   UNL A   1      43.008  31.602  29.703  1.00  0.00     0.029 A 
ATOM     59  C   UNL A   1      43.976  30.708  29.278  1.00  0.00     0.049 A 
ATOM     60  H   UNL A   1      43.756  28.704  28.653  1.00  0.00     0.167 HD
ATOM     61  C   UNL A   1      46.279  29.980  28.731  1.00  0.00     0.074 A 
ATOM     62  C   UNL A   1      47.704  30.203  28.602  1.00  0.00     0.031 C 
ATOM     63  C   UNL A   1      45.394  30.920  29.143  1.00  0.00     0.031 A 
BRANCH  50  64
ATOM     64  C   UNL A   1      39.534  28.969  29.242  1.00  0.00    -0.014 A 
ATOM     65  C   UNL A   1      38.736  29.513  28.222  1.00  0.00     0.009 A 
ATOM     66  C   UNL A   1      38.949  28.700  30.489  1.00  0.00     0.009 A 
ATOM     67  C   UNL A   1      37.394  29.818  28.459  1.00  0.00     0.001 A 
ATOM     68  C   UNL A   1      37.599  28.976  30.713  1.00  0.00     0.001 A 
ATOM     69  C   UNL A   1      36.825  29.545  29.703  1.00  0.00     0.000 A 
ENDBRANCH  50  64
BRANCH  51  70
ATOM     70  C   UNL A   1      48.969  26.415  27.268  1.00  0.00    -0.014 A 
ATOM     71  C   UNL A   1      49.457  26.531  25.957  1.00  0.00     0.009 A 
ATOM     72  C   UNL A   1      49.828  25.941  28.272  1.00  0.00     0.009 A 
ATOM     73  C   UNL A   1      50.766  26.154  25.653  1.00  0.00     0.001 A 
ATOM     74  C   UNL A   1      51.147  25.594  27.970  1.00  0.00     0.001 A 
ATOM     75  C   UNL A   1      51.611  25.691  26.660  1.00  0.00     0.000 A 
ENDBRANCH  51  70
BRANCH  63  76
ATOM     76  C   UNL A   1      45.946  32.266  29.522  1.00  0.00    -0.014 A 
ATOM     77  C   UNL A   1      46.396  32.532  30.825  1.00  0.00     0.009 A 
ATOM     78  C   UNL A   1      46.052  33.271  28.548  1.00  0.00     0.009 A 
ATOM     79  C   UNL A   1      46.909  33.790  31.151  1.00  0.00     0.001 A 
ATOM     80  C   UNL A   1      46.595  34.517  28.869  1.00  0.00     0.001 A 
ATOM     81  C   UNL A   1      47.013  34.778  30.172  1.00  0.00     0.000 A 
ENDBRANCH  63  76
ENDBRANCH  37  38
ENDBRANCH  29  32
ENDBRANCH  27  28
ENDBRANCH  26  27
ENDBRANCH   1  26
TORSDOF 15
ENDMDL
MODEL 2
REMARK VINA RESULT:     -11.0      1.371      6.063
REMARK SMILES Cc1noc(C)c1[C@H](C)NC(=O)NC[C@@](C)(O)C(=O)NCCCNC(=O)c1ccc(-c2c3nc(c(-c4ccccc4)c4ccc([nH]4)c(-c4ccccc4)c4nc(c(-c5ccccc5)c5ccc2[nH]5)C=C4)C=C3)cc1
REMARK SMILES IDX 21 1 20 2 18 3 19 4 15 6 16 7 14 8 13 9 10 10 11 11 12 13
REMARK SMILES IDX 8 15 9 16 7 17 1 18 2 19 3 20 4 21 5 22 6 23 17 24 22 26
REMARK SMILES IDX 23 27 24 28 25 29 26 31 27 32 28 33 74 34 29 35 73 36 30 37
REMARK SMILES IDX 31 38 32 39 67 40 33 41 72 42 66 43 68 44 34 45 71 46 65 47
REMARK SMILES IDX 64 48 35 50 57 51 42 52 56 53 43 54 46 55 55 56 69 57 44 58
REMARK SMILES IDX 45 59 54 61 70 62 47 63 36 64 37 65 41 66 38 67 40 68 39 69
REMARK SMILES IDX 58 70 59 71 63 72 60 73 62 74 61 75 48 76 49 77 53 78 50 79
REMARK SMILES IDX 52 80 51 81
REMARK H PARENT 20 5 10 12 13 14 17 25 24 30 68 49 46 60
REMARK Flexibility Score: inf
ROOT
ATOM      1  C   UNL A   1      36.299  20.458  24.672  1.00  0.00     0.117 C 
ENDROOT
BRANCH   1   2
ATOM      2  N   UNL A   1      35.447  20.726  25.816  1.00  0.00    -0.353 N 
ATOM      3  C   UNL A   1      34.168  21.206  25.904  1.00  0.00     0.253 C 
ATOM      4  O   UNL A   1      33.683  21.183  27.036  1.00  0.00    -0.272 OA
ATOM      5  H   UNL A   1      35.862  20.525  26.685  1.00  0.00     0.163 HD
BRANCH   3   6
ATOM      6  C   UNL A   1      33.371  21.643  24.639  1.00  0.00     0.157 C 
ATOM      7  C   UNL A   1      32.716  20.378  24.061  1.00  0.00     0.055 C 
BRANCH   6   8
ATOM      8  C   UNL A   1      32.266  22.730  24.858  1.00  0.00     0.162 C 
BRANCH   8   9
ATOM      9  N   UNL A   1      31.391  22.628  26.008  1.00  0.00    -0.335 N 
ATOM     10  N   UNL A   1      30.451  24.773  26.383  1.00  0.00    -0.331 N 
ATOM     11  C   UNL A   1      30.630  23.486  26.702  1.00  0.00     0.315 C 
ATOM     12  H   UNL A   1      29.988  25.284  27.086  1.00  0.00     0.165 HD
ATOM     13  O   UNL A   1      30.043  23.052  27.696  1.00  0.00    -0.249 OA
ATOM     14  H   UNL A   1      31.344  21.712  26.364  1.00  0.00     0.165 HD
BRANCH  10  15
ATOM     15  C   UNL A   1      30.790  25.577  25.224  1.00  0.00     0.116 C 
ATOM     16  C   UNL A   1      29.537  26.311  24.750  1.00  0.00     0.036 C 
BRANCH  15  17
ATOM     17  C   UNL A   1      31.959  26.460  25.566  1.00  0.00     0.040 A 
ATOM     18  C   UNL A   1      33.569  25.817  23.599  1.00  0.00     0.071 C 
ATOM     19  C   UNL A   1      33.178  26.554  24.822  1.00  0.00     0.086 A 
ATOM     20  N   UNL A   1      34.009  27.465  25.337  1.00  0.00    -0.085 NA
ATOM     21  O   UNL A   1      33.356  27.990  26.425  1.00  0.00    -0.361 OA
ATOM     22  C   UNL A   1      32.135  27.408  26.559  1.00  0.00     0.139 A 
ATOM     23  C   UNL A   1      31.327  27.933  27.678  1.00  0.00     0.091 C 
ENDBRANCH  15  17
ENDBRANCH  10  15
ENDBRANCH   8   9
ENDBRANCH   6   8
BRANCH   6  24
ATOM     24  O   UNL A   1      34.275  22.184  23.656  1.00  0.00    -0.378 OA
ATOM     25  H   UNL A   1      33.787  22.765  23.052  1.00  0.00     0.212 HD
ENDBRANCH   6  24
ENDBRANCH   3   6
ENDBRANCH   1   2
BRANCH   1  26
ATOM     26  C   UNL A   1      37.467  19.532  24.993  1.00  0.00     0.042 C 
BRANCH  26  27
ATOM     27  C   UNL A   1      38.686  20.214  25.613  1.00  0.00     0.118 C 
BRANCH  27  28
ATOM     28  N   UNL A   1      39.848  19.340  25.716  1.00  0.00    -0.352 N 
ATOM     29  C   UNL A   1      41.146  19.586  26.081  1.00  0.00     0.251 C 
ATOM     30  H   UNL A   1      39.668  18.401  25.482  1.00  0.00     0.163 HD
ATOM     31  O   UNL A   1      41.986  18.694  25.931  1.00  0.00    -0.269 OA
BRANCH  29  32
ATOM     32  C   UNL A   1      41.574  20.895  26.621  1.00  0.00     0.039 A 
ATOM     33  C   UNL A   1      42.097  21.844  25.735  1.00  0.00     0.014 A 
ATOM     34  C   UNL A   1      41.521  21.185  27.985  1.00  0.00     0.014 A 
ATOM     35  C   UNL A   1      42.489  23.102  26.203  1.00  0.00     0.010 A 
ATOM     36  C   UNL A   1      41.834  22.466  28.440  1.00  0.00     0.010 A 
ATOM     37  C   UNL A   1      42.319  23.441  27.554  1.00  0.00    -0.014 A 
BRANCH  37  38
ATOM     38  C   UNL A   1      42.625  24.808  28.052  1.00  0.00     0.031 A 
ATOM     39  C   UNL A   1      44.024  25.178  28.466  1.00  0.00     0.074 A 
ATOM     40  C   UNL A   1      41.627  25.703  28.195  1.00  0.00     0.049 A 
ATOM     41  N   UNL A   1      44.463  26.298  28.986  1.00  0.00    -0.248 NA
ATOM     42  C   UNL A   1      45.062  24.149  28.296  1.00  0.00     0.031 C 
ATOM     43  C   UNL A   1      40.221  25.465  27.865  1.00  0.00     0.029 A 
ATOM     44  N   UNL A   1      41.643  26.993  28.666  1.00  0.00    -0.354 N 
ATOM     45  C   UNL A   1      45.818  26.101  29.220  1.00  0.00     0.074 A 
ATOM     46  C   UNL A   1      46.119  24.741  28.831  1.00  0.00     0.031 C 
ATOM     47  C   UNL A   1      39.514  26.579  28.117  1.00  0.00     0.029 A 
ATOM     48  C   UNL A   1      40.406  27.593  28.671  1.00  0.00     0.049 A 
ATOM     49  H   UNL A   1      42.462  27.446  28.971  1.00  0.00     0.167 HD
ATOM     50  C   UNL A   1      46.734  26.977  29.701  1.00  0.00     0.031 A 
ATOM     51  C   UNL A   1      40.026  28.817  29.085  1.00  0.00     0.031 A 
ATOM     52  C   UNL A   1      46.438  28.332  30.085  1.00  0.00     0.049 A 
ATOM     53  C   UNL A   1      41.057  29.760  29.640  1.00  0.00     0.074 A 
ATOM     54  C   UNL A   1      47.310  29.311  30.533  1.00  0.00     0.029 A 
ATOM     55  N   UNL A   1      45.173  28.898  30.075  1.00  0.00    -0.354 N 
ATOM     56  N   UNL A   1      42.345  29.579  29.791  1.00  0.00    -0.248 NA
ATOM     57  C   UNL A   1      40.578  31.082  30.070  1.00  0.00     0.031 C 
ATOM     58  C   UNL A   1      46.563  30.451  30.845  1.00  0.00     0.029 A 
ATOM     59  C   UNL A   1      45.236  30.204  30.533  1.00  0.00     0.049 A 
ATOM     60  H   UNL A   1      44.351  28.440  29.784  1.00  0.00     0.167 HD
ATOM     61  C   UNL A   1      42.837  30.771  30.307  1.00  0.00     0.074 A 
ATOM     62  C   UNL A   1      41.710  31.673  30.426  1.00  0.00     0.031 C 
ATOM     63  C   UNL A   1      44.109  31.091  30.650  1.00  0.00     0.031 A 
BRANCH  50  64
ATOM     64  C   UNL A   1      48.149  26.488  29.850  1.00  0.00    -0.014 A 
ATOM     65  C   UNL A   1      48.575  25.837  31.019  1.00  0.00     0.009 A 
ATOM     66  C   UNL A   1      49.058  26.643  28.792  1.00  0.00     0.009 A 
ATOM     67  C   UNL A   1      49.892  25.388  31.140  1.00  0.00     0.001 A 
ATOM     68  C   UNL A   1      50.365  26.166  28.904  1.00  0.00     0.001 A 
ATOM     69  C   UNL A   1      50.785  25.548  30.081  1.00  0.00     0.000 A 
ENDBRANCH  50  64
BRANCH  51  70
ATOM     70  C   UNL A   1      38.600  29.228  28.984  1.00  0.00    -0.014 A 
ATOM     71  C   UNL A   1      38.087  29.728  27.777  1.00  0.00     0.009 A 
ATOM     72  C   UNL A   1      37.748  29.133  30.095  1.00  0.00     0.009 A 
ATOM     73  C   UNL A   1      36.759  30.152  27.694  1.00  0.00     0.001 A 
ATOM     74  C   UNL A   1      36.412  29.527  30.000  1.00  0.00     0.001 A 
ATOM     75  C   UNL A   1      35.922  30.046  28.803  1.00  0.00     0.000 A 
ENDBRANCH  51  70
BRANCH  63  76
ATOM     76  C   UNL A   1      44.357  32.487  31.151  1.00  0.00    -0.014 A 
ATOM     77  C   UNL A   1      44.645  33.541  30.269  1.00  0.00     0.009 A 
ATOM     78  C   UNL A   1      44.262  32.757  32.525  1.00  0.00     0.009 A 
ATOM     79  C   UNL A   1      44.866  34.830  30.759  1.00  0.00     0.001 A 
ATOM     80  C   UNL A   1      44.453  34.053  33.009  1.00  0.00     0.001 A 
ATOM     81  C   UNL A   1      44.765  35.085  32.127  1.00  0.00     0.000 A 
ENDBRANCH  63  76
ENDBRANCH  37  38
ENDBRANCH  29  32
ENDBRANCH  27  28
ENDBRANCH  26  27
ENDBRANCH   1  26
TORSDOF 15
ENDMDL
MODEL 3
REMARK VINA RESULT:     -10.9      2.410      7.474
REMARK SMILES Cc1noc(C)c1[C@H](C)NC(=O)NC[C@@](C)(O)C(=O)NCCCNC(=O)c1ccc(-c2c3nc(c(-c4ccccc4)c4ccc([nH]4)c(-c4ccccc4)c4nc(c(-c5ccccc5)c5ccc2[nH]5)C=C4)C=C3)cc1
REMARK SMILES IDX 21 1 20 2 18 3 19 4 15 6 16 7 14 8 13 9 10 10 11 11 12 13
REMARK SMILES IDX 8 15 9 16 7 17 1 18 2 19 3 20 4 21 5 22 6 23 17 24 22 26
REMARK SMILES IDX 23 27 24 28 25 29 26 31 27 32 28 33 74 34 29 35 73 36 30 37
REMARK SMILES IDX 31 38 32 39 67 40 33 41 72 42 66 43 68 44 34 45 71 46 65 47
REMARK SMILES IDX 64 48 35 50 57 51 42 52 56 53 43 54 46 55 55 56 69 57 44 58
REMARK SMILES IDX 45 59 54 61 70 62 47 63 36 64 37 65 41 66 38 67 40 68 39 69
REMARK SMILES IDX 58 70 59 71 63 72 60 73 62 74 61 75 48 76 49 77 53 78 50 79
REMARK SMILES IDX 52 80 51 81
REMARK H PARENT 20 5 10 12 13 14 17 25 24 30 68 49 46 60
REMARK Flexibility Score: inf
ROOT
ATOM      1  C   UNL A   1      32.307  27.874  25.091  1.00  0.00     0.117 C 
ENDROOT
BRANCH   1   2
ATOM      2  N   UNL A   1      31.386  28.053  23.984  1.00  0.00    -0.353 N 
ATOM      3  C   UNL A   1      31.383  27.546  22.712  1.00  0.00     0.253 C 
ATOM      4  O   UNL A   1      30.368  27.789  22.059  1.00  0.00    -0.272 OA
ATOM      5  H   UNL A   1      30.626  28.647  24.182  1.00  0.00     0.163 HD
BRANCH   3   6
ATOM      6  C   UNL A   1      32.539  26.641  22.192  1.00  0.00     0.157 C 
ATOM      7  C   UNL A   1      33.790  27.529  22.080  1.00  0.00     0.055 C 
BRANCH   6   8
ATOM      8  C   UNL A   1      32.885  25.388  23.064  1.00  0.00     0.162 C 
BRANCH   8   9
ATOM      9  N   UNL A   1      34.173  24.746  22.901  1.00  0.00    -0.335 N 
ATOM     10  N   UNL A   1      34.033  22.600  23.902  1.00  0.00    -0.331 N 
ATOM     11  C   UNL A   1      34.704  23.574  23.276  1.00  0.00     0.315 C 
ATOM     12  H   UNL A   1      34.617  21.880  24.233  1.00  0.00     0.165 HD
ATOM     13  O   UNL A   1      35.892  23.374  23.009  1.00  0.00    -0.249 OA
ATOM     14  H   UNL A   1      34.809  25.302  22.397  1.00  0.00     0.165 HD
BRANCH  10  15
ATOM     15  C   UNL A   1      32.630  22.376  24.197  1.00  0.00     0.116 C 
ATOM     16  C   UNL A   1      32.277  20.933  23.844  1.00  0.00     0.036 C 
BRANCH  15  17
ATOM     17  C   UNL A   1      32.362  22.772  25.623  1.00  0.00     0.040 A 
ATOM     18  C   UNL A   1      30.421  24.491  25.230  1.00  0.00     0.071 C 
ATOM     19  C   UNL A   1      31.367  23.707  26.055  1.00  0.00     0.086 A 
ATOM     20  N   UNL A   1      31.325  23.812  27.386  1.00  0.00    -0.085 NA
ATOM     21  O   UNL A   1      32.283  22.949  27.858  1.00  0.00    -0.361 OA
ATOM     22  C   UNL A   1      32.893  22.320  26.818  1.00  0.00     0.139 A 
ATOM     23  C   UNL A   1      33.916  21.332  27.217  1.00  0.00     0.091 C 
ENDBRANCH  15  17
ENDBRANCH  10  15
ENDBRANCH   8   9
ENDBRANCH   6   8
BRANCH   6  24
ATOM     24  O   UNL A   1      32.213  26.138  20.881  1.00  0.00    -0.378 OA
ATOM     25  H   UNL A   1      32.804  26.539  20.225  1.00  0.00     0.212 HD
ENDBRANCH   6  24
ENDBRANCH   3   6
ENDBRANCH   1   2
BRANCH   1  26
ATOM     26  C   UNL A   1      32.940  29.178  25.566  1.00  0.00     0.042 C 
BRANCH  26  27
ATOM     27  C   UNL A   1      33.595  29.119  26.944  1.00  0.00     0.118 C 
BRANCH  27  28
ATOM     28  N   UNL A   1      33.647  30.410  27.618  1.00  0.00    -0.352 N 
ATOM     29  C   UNL A   1      34.601  30.988  28.414  1.00  0.00     0.251 C 
ATOM     30  H   UNL A   1      32.851  30.972  27.474  1.00  0.00     0.163 HD
ATOM     31  O   UNL A   1      34.331  32.040  29.000  1.00  0.00    -0.269 OA
BRANCH  29  32
ATOM     32  C   UNL A   1      35.932  30.373  28.615  1.00  0.00     0.039 A 
ATOM     33  C   UNL A   1      36.847  30.401  27.556  1.00  0.00     0.014 A 
ATOM     34  C   UNL A   1      36.274  29.725  29.803  1.00  0.00     0.014 A 
ATOM     35  C   UNL A   1      38.124  29.853  27.716  1.00  0.00     0.010 A 
ATOM     36  C   UNL A   1      37.573  29.252  29.991  1.00  0.00     0.010 A 
ATOM     37  C   UNL A   1      38.514  29.313  28.952  1.00  0.00    -0.014 A 
BRANCH  37  38
ATOM     38  C   UNL A   1      39.901  28.826  29.177  1.00  0.00     0.031 A 
ATOM     39  C   UNL A   1      40.945  29.733  29.771  1.00  0.00     0.074 A 
ATOM     40  C   UNL A   1      40.241  27.582  28.785  1.00  0.00     0.049 A 
ATOM     41  N   UNL A   1      42.218  29.502  29.977  1.00  0.00    -0.248 NA
ATOM     42  C   UNL A   1      40.509  31.081  30.165  1.00  0.00     0.031 C 
ATOM     43  C   UNL A   1      39.337  26.611  28.165  1.00  0.00     0.029 A 
ATOM     44  N   UNL A   1      41.445  26.923  28.842  1.00  0.00    -0.354 N 
ATOM     45  C   UNL A   1      42.736  30.679  30.505  1.00  0.00     0.074 A 
ATOM     46  C   UNL A   1      41.651  31.635  30.543  1.00  0.00     0.031 C 
ATOM     47  C   UNL A   1      40.009  25.474  27.924  1.00  0.00     0.029 A 
ATOM     48  C   UNL A   1      41.401  25.650  28.327  1.00  0.00     0.049 A 
ATOM     49  H   UNL A   1      42.262  27.324  29.217  1.00  0.00     0.167 HD
ATOM     50  C   UNL A   1      43.995  30.937  30.933  1.00  0.00     0.031 A 
ATOM     51  C   UNL A   1      42.372  24.728  28.182  1.00  0.00     0.031 A 
ATOM     52  C   UNL A   1      45.075  29.986  30.900  1.00  0.00     0.049 A 
ATOM     53  C   UNL A   1      43.767  25.049  28.641  1.00  0.00     0.074 A 
ATOM     54  C   UNL A   1      46.372  30.139  31.362  1.00  0.00     0.029 A 
ATOM     55  N   UNL A   1      44.988  28.709  30.370  1.00  0.00    -0.354 N 
ATOM     56  N   UNL A   1      44.222  26.143  29.199  1.00  0.00    -0.248 NA
ATOM     57  C   UNL A   1      44.780  23.999  28.459  1.00  0.00     0.031 C 
ATOM     58  C   UNL A   1      47.083  28.973  31.061  1.00  0.00     0.029 A 
ATOM     59  C   UNL A   1      46.214  28.072  30.468  1.00  0.00     0.049 A 
ATOM     60  H   UNL A   1      44.174  28.312  29.982  1.00  0.00     0.167 HD
ATOM     61  C   UNL A   1      45.565  25.906  29.460  1.00  0.00     0.074 A 
ATOM     62  C   UNL A   1      45.846  24.556  29.016  1.00  0.00     0.031 C 
ATOM     63  C   UNL A   1      46.483  26.731  30.021  1.00  0.00     0.031 A 
BRANCH  50  64
ATOM     64  C   UNL A   1      44.276  32.316  31.467  1.00  0.00    -0.014 A 
ATOM     65  C   UNL A   1      44.697  33.353  30.619  1.00  0.00     0.009 A 
ATOM     66  C   UNL A   1      44.079  32.592  32.829  1.00  0.00     0.009 A 
ATOM     67  C   UNL A   1      44.952  34.627  31.132  1.00  0.00     0.001 A 
ATOM     68  C   UNL A   1      44.305  33.874  33.333  1.00  0.00     0.001 A 
ATOM     69  C   UNL A   1      44.752  34.888  32.487  1.00  0.00     0.000 A 
ENDBRANCH  50  64
BRANCH  51  70
ATOM     70  C   UNL A   1      42.059  23.404  27.581  1.00  0.00    -0.014 A 
ATOM     71  C   UNL A   1      41.493  22.384  28.361  1.00  0.00     0.009 A 
ATOM     72  C   UNL A   1      42.335  23.150  26.228  1.00  0.00     0.009 A 
ATOM     73  C   UNL A   1      41.236  21.128  27.806  1.00  0.00     0.001 A 
ATOM     74  C   UNL A   1      42.047  21.903  25.668  1.00  0.00     0.001 A 
ATOM     75  C   UNL A   1      41.508  20.891  26.460  1.00  0.00     0.000 A 
ENDBRANCH  51  70
BRANCH  63  76
ATOM     76  C   UNL A   1      47.870  26.184  30.220  1.00  0.00    -0.014 A 
ATOM     77  C   UNL A   1      48.800  26.149  29.169  1.00  0.00     0.009 A 
ATOM     78  C   UNL A   1      48.261  25.733  31.490  1.00  0.00     0.009 A 
ATOM     79  C   UNL A   1      50.084  25.641  29.380  1.00  0.00     0.001 A 
ATOM     80  C   UNL A   1      49.555  25.255  31.706  1.00  0.00     0.001 A 
ATOM     81  C   UNL A   1      50.461  25.199  30.649  1.00  0.00     0.000 A 
ENDBRANCH  63  76
ENDBRANCH  37  38
ENDBRANCH  29  32
ENDBRANCH  27  28
ENDBRANCH  26  27
ENDBRANCH   1  26
TORSDOF 15
ENDMDL
