MODEL 1
REMARK VINA RESULT:     -11.9      0.000      0.000
REMARK SMILES Cc1cc(-c2ccc(/C=C/C(=O)NCCCNC(=O)c3ccc(-c4c5nc(c(-c6ccccc6)c6ccc([nH]6)c(-c6ccccc6)c6nc(c(-c7ccccc7)c7ccc4[nH]7)C=C6)C=C5)cc3)o2)c(C)cc1Br
REMARK SMILES IDX 15 1 14 2 13 3 11 4 12 5 10 7 9 8 8 9 5 10 6 11 68 12 7 13
REMARK SMILES IDX 4 14 1 15 2 16 3 17 72 18 71 19 73 20 69 21 70 22 16 23
REMARK SMILES IDX 17 24 18 25 19 27 20 28 21 29 67 30 22 31 66 32 23 33 24 34
REMARK SMILES IDX 25 35 60 36 26 37 65 38 59 39 61 40 27 41 64 42 58 43 57 44
REMARK SMILES IDX 28 46 50 47 35 48 49 49 36 50 39 51 48 52 62 53 37 54 38 55
REMARK SMILES IDX 47 57 63 58 40 59 29 60 30 61 34 62 31 63 33 64 32 65 51 66
REMARK SMILES IDX 52 67 56 68 53 69 55 70 54 71 41 72 42 73 46 74 43 75 45 76
REMARK SMILES IDX 44 77
REMARK H PARENT 13 6 17 26 61 45 39 56
REMARK Flexibility Score: inf
ROOT
ATOM      1  C   UNL A   1      31.391  32.172  26.486  1.00  0.00     0.042 C 
ENDROOT
BRANCH   1   2
ATOM      2  C   UNL A   1      31.531  30.690  26.149  1.00  0.00     0.118 C 
BRANCH   2   3
ATOM      3  N   UNL A   1      31.033  30.404  24.814  1.00  0.00    -0.352 N 
ATOM      4  C   UNL A   1      30.856  29.231  24.150  1.00  0.00     0.244 C 
ATOM      5  O   UNL A   1      30.324  29.248  23.043  1.00  0.00    -0.270 OA
ATOM      6  H   UNL A   1      30.775  31.203  24.300  1.00  0.00     0.163 HD
BRANCH   4   7
ATOM      7  C   UNL A   1      31.209  27.929  24.762  1.00  0.00     0.075 C 
ATOM      8  C   UNL A   1      30.631  26.760  24.463  1.00  0.00     0.053 C 
BRANCH   8   9
ATOM      9  C   UNL A   1      31.063  25.551  25.066  1.00  0.00     0.127 A 
ATOM     10  C   UNL A   1      32.341  23.804  25.554  1.00  0.00     0.135 A 
ATOM     11  C   UNL A   1      31.223  23.687  26.344  1.00  0.00     0.051 A 
ATOM     12  O   UNL A   1      32.236  24.903  24.757  1.00  0.00    -0.457 OA
ATOM     13  C   UNL A   1      30.421  24.813  26.052  1.00  0.00     0.051 A 
BRANCH  10  14
ATOM     14  C   UNL A   1      33.556  23.016  25.413  1.00  0.00     0.020 A 
ATOM     15  C   UNL A   1      37.274  23.640  25.957  1.00  0.00     0.045 C 
ATOM     16  C   UNL A   1      36.008  22.935  25.558  1.00  0.00    -0.036 A 
ATOM     17  C   UNL A   1      34.789  23.621  25.710  1.00  0.00     0.016 A 
ATOM     18  C   UNL A   1      35.968  21.608  25.112  1.00  0.00     0.021 A 
ATOM     19  C   UNL A   1      34.746  20.996  24.808  1.00  0.00     0.020 A 
ATOM     20  Br  UNL A   1      37.537  20.559  24.898  1.00  0.00    -0.051 Br
ATOM     21  C   UNL A   1      33.532  21.688  24.950  1.00  0.00    -0.039 A 
ATOM     22  C   UNL A   1      32.245  20.984  24.614  1.00  0.00     0.045 C 
ENDBRANCH  10  14
ENDBRANCH   8   9
ENDBRANCH   4   7
ENDBRANCH   2   3
ENDBRANCH   1   2
BRANCH   1  23
ATOM     23  C   UNL A   1      32.602  32.740  27.216  1.00  0.00     0.118 C 
BRANCH  23  24
ATOM     24  N   UNL A   1      32.395  34.120  27.640  1.00  0.00    -0.352 N 
ATOM     25  C   UNL A   1      33.023  34.866  28.608  1.00  0.00     0.251 C 
ATOM     26  H   UNL A   1      31.688  34.597  27.151  1.00  0.00     0.163 HD
ATOM     27  O   UNL A   1      32.542  35.943  28.944  1.00  0.00    -0.269 OA
BRANCH  25  28
ATOM     28  C   UNL A   1      34.256  34.375  29.263  1.00  0.00     0.039 A 
ATOM     29  C   UNL A   1      35.514  34.626  28.718  1.00  0.00     0.014 A 
ATOM     30  C   UNL A   1      34.149  33.675  30.470  1.00  0.00     0.014 A 
ATOM     31  C   UNL A   1      36.641  34.028  29.272  1.00  0.00     0.010 A 
ATOM     32  C   UNL A   1      35.296  33.162  31.084  1.00  0.00     0.010 A 
ATOM     33  C   UNL A   1      36.547  33.290  30.462  1.00  0.00    -0.014 A 
BRANCH  33  34
ATOM     34  C   UNL A   1      37.768  32.663  31.034  1.00  0.00     0.031 A 
ATOM     35  C   UNL A   1      38.345  33.149  32.335  1.00  0.00     0.074 A 
ATOM     36  C   UNL A   1      38.322  31.607  30.405  1.00  0.00     0.049 A 
ATOM     37  N   UNL A   1      39.370  32.684  33.005  1.00  0.00    -0.248 NA
ATOM     38  C   UNL A   1      37.693  34.307  32.968  1.00  0.00     0.031 C 
ATOM     39  C   UNL A   1      37.839  31.030  29.149  1.00  0.00     0.029 A 
ATOM     40  N   UNL A   1      39.383  30.809  30.751  1.00  0.00    -0.354 N 
ATOM     41  C   UNL A   1      39.489  33.493  34.128  1.00  0.00     0.074 A 
ATOM     42  C   UNL A   1      38.465  34.509  34.027  1.00  0.00     0.031 C 
ATOM     43  C   UNL A   1      38.554  29.931  28.868  1.00  0.00     0.029 A 
ATOM     44  C   UNL A   1      39.594  29.768  29.879  1.00  0.00     0.049 A 
ATOM     45  H   UNL A   1      39.941  30.968  31.547  1.00  0.00     0.167 HD
ATOM     46  C   UNL A   1      40.360  33.387  35.159  1.00  0.00     0.031 A 
ATOM     47  C   UNL A   1      40.520  28.790  29.882  1.00  0.00     0.031 A 
ATOM     48  C   UNL A   1      41.379  32.374  35.253  1.00  0.00     0.049 A 
ATOM     49  C   UNL A   1      41.523  28.737  30.999  1.00  0.00     0.074 A 
ATOM     50  C   UNL A   1      42.303  32.180  36.265  1.00  0.00     0.029 A 
ATOM     51  N   UNL A   1      41.609  31.389  34.304  1.00  0.00    -0.354 N 
ATOM     52  N   UNL A   1      41.611  29.500  32.061  1.00  0.00    -0.248 NA
ATOM     53  C   UNL A   1      42.550  27.689  30.921  1.00  0.00     0.031 C 
ATOM     54  C   UNL A   1      43.140  31.126  35.893  1.00  0.00     0.029 A 
ATOM     55  C   UNL A   1      42.684  30.605  34.693  1.00  0.00     0.049 A 
ATOM     56  H   UNL A   1      41.088  31.265  33.479  1.00  0.00     0.167 HD
ATOM     57  C   UNL A   1      42.691  29.017  32.788  1.00  0.00     0.074 A 
ATOM     58  C   UNL A   1      43.213  27.881  32.056  1.00  0.00     0.031 C 
ATOM     59  C   UNL A   1      43.200  29.478  33.956  1.00  0.00     0.031 A 
BRANCH  46  60
ATOM     60  C   UNL A   1      40.262  34.395  36.275  1.00  0.00    -0.014 A 
ATOM     61  C   UNL A   1      39.383  34.171  37.347  1.00  0.00     0.009 A 
ATOM     62  C   UNL A   1      40.972  35.606  36.228  1.00  0.00     0.009 A 
ATOM     63  C   UNL A   1      39.206  35.140  38.338  1.00  0.00     0.001 A 
ATOM     64  C   UNL A   1      40.822  36.557  37.240  1.00  0.00     0.001 A 
ATOM     65  C   UNL A   1      39.931  36.329  38.288  1.00  0.00     0.000 A 
ENDBRANCH  46  60
BRANCH  47  66
ATOM     66  C   UNL A   1      40.503  27.775  28.794  1.00  0.00    -0.014 A 
ATOM     67  C   UNL A   1      41.165  28.016  27.578  1.00  0.00     0.009 A 
ATOM     68  C   UNL A   1      39.753  26.598  28.933  1.00  0.00     0.009 A 
ATOM     69  C   UNL A   1      41.039  27.126  26.511  1.00  0.00     0.001 A 
ATOM     70  C   UNL A   1      39.658  25.690  27.874  1.00  0.00     0.001 A 
ATOM     71  C   UNL A   1      40.288  25.962  26.660  1.00  0.00     0.000 A 
ENDBRANCH  47  66
BRANCH  59  72
ATOM     72  C   UNL A   1      44.385  28.760  34.545  1.00  0.00    -0.014 A 
ATOM     73  C   UNL A   1      44.182  27.695  35.439  1.00  0.00     0.009 A 
ATOM     74  C   UNL A   1      45.694  29.213  34.317  1.00  0.00     0.009 A 
ATOM     75  C   UNL A   1      45.257  27.117  36.112  1.00  0.00     0.001 A 
ATOM     76  C   UNL A   1      46.773  28.608  34.966  1.00  0.00     0.001 A 
ATOM     77  C   UNL A   1      46.553  27.572  35.874  1.00  0.00     0.000 A 
ENDBRANCH  59  72
ENDBRANCH  33  34
ENDBRANCH  25  28
ENDBRANCH  23  24
ENDBRANCH   1  23
TORSDOF 12
ENDMDL
MODEL 2
REMARK VINA RESULT:     -11.9      5.146     10.029
REMARK SMILES Cc1cc(-c2ccc(/C=C/C(=O)NCCCNC(=O)c3ccc(-c4c5nc(c(-c6ccccc6)c6ccc([nH]6)c(-c6ccccc6)c6nc(c(-c7ccccc7)c7ccc4[nH]7)C=C6)C=C5)cc3)o2)c(C)cc1Br
REMARK SMILES IDX 15 1 14 2 13 3 11 4 12 5 10 7 9 8 8 9 5 10 6 11 68 12 7 13
REMARK SMILES IDX 4 14 1 15 2 16 3 17 72 18 71 19 73 20 69 21 70 22 16 23
REMARK SMILES IDX 17 24 18 25 19 27 20 28 21 29 67 30 22 31 66 32 23 33 24 34
REMARK SMILES IDX 25 35 60 36 26 37 65 38 59 39 61 40 27 41 64 42 58 43 57 44
REMARK SMILES IDX 28 46 50 47 35 48 49 49 36 50 39 51 48 52 62 53 37 54 38 55
REMARK SMILES IDX 47 57 63 58 40 59 29 60 30 61 34 62 31 63 33 64 32 65 51 66
REMARK SMILES IDX 52 67 56 68 53 69 55 70 54 71 41 72 42 73 46 74 43 75 45 76
REMARK SMILES IDX 44 77
REMARK H PARENT 13 6 17 26 61 45 39 56
REMARK Flexibility Score: inf
ROOT
ATOM      1  C   UNL A   1      37.701  19.658  24.789  1.00  0.00     0.042 C 
ENDROOT
BRANCH   1   2
ATOM      2  C   UNL A   1      36.384  20.393  25.023  1.00  0.00     0.118 C 
BRANCH   2   3
ATOM      3  N   UNL A   1      35.257  19.477  24.987  1.00  0.00    -0.352 N 
ATOM      4  C   UNL A   1      33.923  19.695  24.837  1.00  0.00     0.244 C 
ATOM      5  O   UNL A   1      33.169  18.729  24.748  1.00  0.00    -0.270 OA
ATOM      6  H   UNL A   1      35.503  18.530  25.089  1.00  0.00     0.163 HD
BRANCH   4   7
ATOM      7  C   UNL A   1      33.369  21.060  24.691  1.00  0.00     0.075 C 
ATOM      8  C   UNL A   1      32.351  21.393  23.889  1.00  0.00     0.053 C 
BRANCH   8   9
ATOM      9  C   UNL A   1      31.853  22.720  23.845  1.00  0.00     0.127 A 
ATOM     10  C   UNL A   1      31.696  24.902  24.215  1.00  0.00     0.135 A 
ATOM     11  C   UNL A   1      30.640  24.580  23.395  1.00  0.00     0.051 A 
ATOM     12  O   UNL A   1      32.408  23.783  24.518  1.00  0.00    -0.457 OA
ATOM     13  C   UNL A   1      30.755  23.196  23.139  1.00  0.00     0.051 A 
BRANCH  10  14
ATOM     14  C   UNL A   1      32.173  26.149  24.792  1.00  0.00     0.020 A 
ATOM     15  C   UNL A   1      31.405  28.155  27.937  1.00  0.00     0.045 C 
ATOM     16  C   UNL A   1      32.003  27.799  26.606  1.00  0.00    -0.036 A 
ATOM     17  C   UNL A   1      31.621  26.584  26.009  1.00  0.00     0.016 A 
ATOM     18  C   UNL A   1      32.975  28.575  25.961  1.00  0.00     0.021 A 
ATOM     19  C   UNL A   1      33.529  28.155  24.745  1.00  0.00     0.020 A 
ATOM     20  Br  UNL A   1      33.605  30.217  26.676  1.00  0.00    -0.051 Br
ATOM     21  C   UNL A   1      33.136  26.946  24.147  1.00  0.00    -0.039 A 
ATOM     22  C   UNL A   1      33.765  26.538  22.842  1.00  0.00     0.045 C 
ENDBRANCH  10  14
ENDBRANCH   8   9
ENDBRANCH   4   7
ENDBRANCH   2   3
ENDBRANCH   1   2
BRANCH   1  23
ATOM     23  C   UNL A   1      38.836  20.159  25.677  1.00  0.00     0.118 C 
BRANCH  23  24
ATOM     24  N   UNL A   1      39.919  19.191  25.789  1.00  0.00    -0.352 N 
ATOM     25  C   UNL A   1      41.253  19.363  26.069  1.00  0.00     0.251 C 
ATOM     26  H   UNL A   1      39.651  18.256  25.639  1.00  0.00     0.163 HD
ATOM     27  O   UNL A   1      42.029  18.429  25.901  1.00  0.00    -0.269 OA
BRANCH  25  28
ATOM     28  C   UNL A   1      41.765  20.666  26.549  1.00  0.00     0.039 A 
ATOM     29  C   UNL A   1      41.812  20.969  27.909  1.00  0.00     0.014 A 
ATOM     30  C   UNL A   1      42.237  21.594  25.614  1.00  0.00     0.014 A 
ATOM     31  C   UNL A   1      42.157  22.251  28.321  1.00  0.00     0.010 A 
ATOM     32  C   UNL A   1      42.683  22.850  26.040  1.00  0.00     0.010 A 
ATOM     33  C   UNL A   1      42.596  23.208  27.394  1.00  0.00    -0.014 A 
BRANCH  33  34
ATOM     34  C   UNL A   1      42.960  24.571  27.862  1.00  0.00     0.031 A 
ATOM     35  C   UNL A   1      44.398  25.010  27.910  1.00  0.00     0.074 A 
ATOM     36  C   UNL A   1      41.981  25.439  28.186  1.00  0.00     0.049 A 
ATOM     37  N   UNL A   1      44.891  26.178  28.239  1.00  0.00    -0.248 NA
ATOM     38  C   UNL A   1      45.417  24.013  27.545  1.00  0.00     0.031 C 
ATOM     39  C   UNL A   1      40.548  25.137  28.157  1.00  0.00     0.029 A 
ATOM     40  N   UNL A   1      42.035  26.757  28.565  1.00  0.00    -0.354 N 
ATOM     41  C   UNL A   1      46.270  26.054  28.129  1.00  0.00     0.074 A 
ATOM     42  C   UNL A   1      46.542  24.686  27.751  1.00  0.00     0.031 C 
ATOM     43  C   UNL A   1      39.860  26.253  28.433  1.00  0.00     0.029 A 
ATOM     44  C   UNL A   1      40.798  27.329  28.733  1.00  0.00     0.049 A 
ATOM     45  H   UNL A   1      42.880  27.243  28.704  1.00  0.00     0.167 HD
ATOM     46  C   UNL A   1      47.222  27.000  28.308  1.00  0.00     0.031 A 
ATOM     47  C   UNL A   1      40.448  28.580  29.093  1.00  0.00     0.031 A 
ATOM     48  C   UNL A   1      46.945  28.362  28.687  1.00  0.00     0.049 A 
ATOM     49  C   UNL A   1      41.525  29.593  29.358  1.00  0.00     0.074 A 
ATOM     50  C   UNL A   1      47.844  29.396  28.882  1.00  0.00     0.029 A 
ATOM     51  N   UNL A   1      45.680  28.877  28.928  1.00  0.00    -0.354 N 
ATOM     52  N   UNL A   1      42.823  29.463  29.234  1.00  0.00    -0.248 NA
ATOM     53  C   UNL A   1      41.091  30.922  29.809  1.00  0.00     0.031 C 
ATOM     54  C   UNL A   1      47.130  30.515  29.315  1.00  0.00     0.029 A 
ATOM     55  C   UNL A   1      45.780  30.207  29.303  1.00  0.00     0.049 A 
ATOM     56  H   UNL A   1      44.839  28.374  28.844  1.00  0.00     0.167 HD
ATOM     57  C   UNL A   1      43.363  30.696  29.574  1.00  0.00     0.074 A 
ATOM     58  C   UNL A   1      42.250  31.568  29.889  1.00  0.00     0.031 C 
ATOM     59  C   UNL A   1      44.666  31.067  29.620  1.00  0.00     0.031 A 
BRANCH  46  60
ATOM     60  C   UNL A   1      48.662  26.603  28.104  1.00  0.00    -0.014 A 
ATOM     61  C   UNL A   1      49.227  26.649  26.820  1.00  0.00     0.009 A 
ATOM     62  C   UNL A   1      49.436  26.102  29.164  1.00  0.00     0.009 A 
ATOM     63  C   UNL A   1      50.527  26.191  26.596  1.00  0.00     0.001 A 
ATOM     64  C   UNL A   1      50.749  25.680  28.945  1.00  0.00     0.001 A 
ATOM     65  C   UNL A   1      51.290  25.714  27.661  1.00  0.00     0.000 A 
ENDBRANCH  46  60
BRANCH  47  66
ATOM     66  C   UNL A   1      39.004  28.927  29.189  1.00  0.00    -0.014 A 
ATOM     67  C   UNL A   1      38.327  29.490  28.094  1.00  0.00     0.009 A 
ATOM     68  C   UNL A   1      38.317  28.779  30.403  1.00  0.00     0.009 A 
ATOM     69  C   UNL A   1      37.012  29.937  28.223  1.00  0.00     0.001 A 
ATOM     70  C   UNL A   1      36.988  29.196  30.520  1.00  0.00     0.001 A 
ATOM     71  C   UNL A   1      36.342  29.788  29.436  1.00  0.00     0.000 A 
ENDBRANCH  47  66
BRANCH  59  72
ATOM     72  C   UNL A   1      44.985  32.483  30.017  1.00  0.00    -0.014 A 
ATOM     73  C   UNL A   1      45.119  33.471  29.027  1.00  0.00     0.009 A 
ATOM     74  C   UNL A   1      45.277  32.815  31.349  1.00  0.00     0.009 A 
ATOM     75  C   UNL A   1      45.564  34.752  29.356  1.00  0.00     0.001 A 
ATOM     76  C   UNL A   1      45.688  34.108  31.681  1.00  0.00     0.001 A 
ATOM     77  C   UNL A   1      45.845  35.071  30.683  1.00  0.00     0.000 A 
ENDBRANCH  59  72
ENDBRANCH  33  34
ENDBRANCH  25  28
ENDBRANCH  23  24
ENDBRANCH   1  23
TORSDOF 12
ENDMDL
MODEL 3
REMARK VINA RESULT:     -11.9      5.377     10.396
REMARK SMILES Cc1cc(-c2ccc(/C=C/C(=O)NCCCNC(=O)c3ccc(-c4c5nc(c(-c6ccccc6)c6ccc([nH]6)c(-c6ccccc6)c6nc(c(-c7ccccc7)c7ccc4[nH]7)C=C6)C=C5)cc3)o2)c(C)cc1Br
REMARK SMILES IDX 15 1 14 2 13 3 11 4 12 5 10 7 9 8 8 9 5 10 6 11 68 12 7 13
REMARK SMILES IDX 4 14 1 15 2 16 3 17 72 18 71 19 73 20 69 21 70 22 16 23
REMARK SMILES IDX 17 24 18 25 19 27 20 28 21 29 67 30 22 31 66 32 23 33 24 34
REMARK SMILES IDX 25 35 60 36 26 37 65 38 59 39 61 40 27 41 64 42 58 43 57 44
REMARK SMILES IDX 28 46 50 47 35 48 49 49 36 50 39 51 48 52 62 53 37 54 38 55
REMARK SMILES IDX 47 57 63 58 40 59 29 60 30 61 34 62 31 63 33 64 32 65 51 66
REMARK SMILES IDX 52 67 56 68 53 69 55 70 54 71 41 72 42 73 46 74 43 75 45 76
REMARK SMILES IDX 44 77
REMARK H PARENT 13 6 17 26 61 45 39 56
REMARK Flexibility Score: inf
ROOT
ATOM      1  C   UNL A   1      38.164  19.787  24.956  1.00  0.00     0.042 C 
ENDROOT
BRANCH   1   2
ATOM      2  C   UNL A   1      37.410  21.061  24.582  1.00  0.00     0.118 C 
BRANCH   2   3
ATOM      3  N   UNL A   1      38.070  22.239  25.117  1.00  0.00    -0.352 N 
ATOM      4  C   UNL A   1      37.581  23.441  25.520  1.00  0.00     0.244 C 
ATOM      5  O   UNL A   1      38.348  24.256  26.029  1.00  0.00    -0.270 OA
ATOM      6  H   UNL A   1      39.047  22.150  25.203  1.00  0.00     0.163 HD
BRANCH   4   7
ATOM      7  C   UNL A   1      36.137  23.760  25.443  1.00  0.00     0.075 C 
ATOM      8  C   UNL A   1      35.276  23.670  26.464  1.00  0.00     0.053 C 
BRANCH   8   9
ATOM      9  C   UNL A   1      33.916  24.040  26.312  1.00  0.00     0.127 A 
ATOM     10  C   UNL A   1      32.122  25.178  25.670  1.00  0.00     0.135 A 
ATOM     11  C   UNL A   1      31.652  24.105  26.389  1.00  0.00     0.051 A 
ATOM     12  O   UNL A   1      33.483  25.164  25.649  1.00  0.00    -0.457 OA
ATOM     13  C   UNL A   1      32.793  23.367  26.777  1.00  0.00     0.051 A 
BRANCH  10  14
ATOM     14  C   UNL A   1      31.475  26.271  24.961  1.00  0.00     0.020 A 
ATOM     15  C   UNL A   1      31.413  30.064  25.295  1.00  0.00     0.045 C 
ATOM     16  C   UNL A   1      31.072  28.689  24.793  1.00  0.00    -0.036 A 
ATOM     17  C   UNL A   1      31.696  27.586  25.404  1.00  0.00     0.016 A 
ATOM     18  C   UNL A   1      30.223  28.450  23.706  1.00  0.00     0.021 A 
ATOM     19  C   UNL A   1      29.991  27.143  23.258  1.00  0.00     0.020 A 
ATOM     20  Br  UNL A   1      29.347  29.852  22.771  1.00  0.00    -0.051 Br
ATOM     21  C   UNL A   1      30.607  26.044  23.877  1.00  0.00    -0.039 A 
ATOM     22  C   UNL A   1      30.329  24.660  23.355  1.00  0.00     0.045 C 
ENDBRANCH  10  14
ENDBRANCH   8   9
ENDBRANCH   4   7
ENDBRANCH   2   3
ENDBRANCH   1   2
BRANCH   1  23
ATOM     23  C   UNL A   1      39.189  19.999  26.065  1.00  0.00     0.118 C 
BRANCH  23  24
ATOM     24  N   UNL A   1      40.302  19.062  25.975  1.00  0.00    -0.352 N 
ATOM     25  C   UNL A   1      41.659  19.271  26.036  1.00  0.00     0.251 C 
ATOM     26  H   UNL A   1      40.038  18.122  25.850  1.00  0.00     0.163 HD
ATOM     27  O   UNL A   1      42.422  18.363  25.721  1.00  0.00    -0.269 OA
BRANCH  25  28
ATOM     28  C   UNL A   1      42.207  20.580  26.454  1.00  0.00     0.039 A 
ATOM     29  C   UNL A   1      42.280  20.938  27.800  1.00  0.00     0.014 A 
ATOM     30  C   UNL A   1      42.689  21.456  25.476  1.00  0.00     0.014 A 
ATOM     31  C   UNL A   1      42.659  22.228  28.154  1.00  0.00     0.010 A 
ATOM     32  C   UNL A   1      43.170  22.717  25.843  1.00  0.00     0.010 A 
ATOM     33  C   UNL A   1      43.109  23.134  27.181  1.00  0.00    -0.014 A 
BRANCH  33  34
ATOM     34  C   UNL A   1      43.511  24.506  27.587  1.00  0.00     0.031 A 
ATOM     35  C   UNL A   1      44.949  24.940  27.515  1.00  0.00     0.074 A 
ATOM     36  C   UNL A   1      42.561  25.386  27.964  1.00  0.00     0.049 A 
ATOM     37  N   UNL A   1      45.469  26.114  27.777  1.00  0.00    -0.248 NA
ATOM     38  C   UNL A   1      45.935  23.931  27.097  1.00  0.00     0.031 C 
ATOM     39  C   UNL A   1      41.130  25.089  28.053  1.00  0.00     0.029 A 
ATOM     40  N   UNL A   1      42.647  26.712  28.307  1.00  0.00    -0.354 N 
ATOM     41  C   UNL A   1      46.835  25.982  27.564  1.00  0.00     0.074 A 
ATOM     42  C   UNL A   1      47.074  24.603  27.200  1.00  0.00     0.031 C 
ATOM     43  C   UNL A   1      40.467  26.214  28.353  1.00  0.00     0.029 A 
ATOM     44  C   UNL A   1      41.428  27.294  28.555  1.00  0.00     0.049 A 
ATOM     45  H   UNL A   1      43.501  27.198  28.369  1.00  0.00     0.167 HD
ATOM     46  C   UNL A   1      47.800  26.928  27.646  1.00  0.00     0.031 A 
ATOM     47  C   UNL A   1      41.109  28.554  28.911  1.00  0.00     0.031 A 
ATOM     48  C   UNL A   1      47.556  28.299  28.013  1.00  0.00     0.049 A 
ATOM     49  C   UNL A   1      42.206  29.568  29.068  1.00  0.00     0.074 A 
ATOM     50  C   UNL A   1      48.469  29.334  28.114  1.00  0.00     0.029 A 
ATOM     51  N   UNL A   1      46.315  28.825  28.337  1.00  0.00    -0.354 N 
ATOM     52  N   UNL A   1      43.491  29.430  28.847  1.00  0.00    -0.248 NA
ATOM     53  C   UNL A   1      41.811  30.910  29.518  1.00  0.00     0.031 C 
ATOM     54  C   UNL A   1      47.794  30.466  28.573  1.00  0.00     0.029 A 
ATOM     55  C   UNL A   1      46.445  30.164  28.672  1.00  0.00     0.049 A 
ATOM     56  H   UNL A   1      45.468  28.324  28.331  1.00  0.00     0.167 HD
ATOM     57  C   UNL A   1      44.058  30.669  29.115  1.00  0.00     0.074 A 
ATOM     58  C   UNL A   1      42.974  31.552  29.494  1.00  0.00     0.031 C 
ATOM     59  C   UNL A   1      45.361  31.035  29.052  1.00  0.00     0.031 A 
BRANCH  46  60
ATOM     60  C   UNL A   1      49.219  26.520  27.343  1.00  0.00    -0.014 A 
ATOM     61  C   UNL A   1      49.671  26.492  26.014  1.00  0.00     0.009 A 
ATOM     62  C   UNL A   1      50.084  26.081  28.359  1.00  0.00     0.009 A 
ATOM     63  C   UNL A   1      50.950  26.022  25.706  1.00  0.00     0.001 A 
ATOM     64  C   UNL A   1      51.376  25.647  28.053  1.00  0.00     0.001 A 
ATOM     65  C   UNL A   1      51.804  25.607  26.727  1.00  0.00     0.000 A 
ENDBRANCH  46  60
BRANCH  47  66
ATOM     66  C   UNL A   1      39.678  28.909  29.109  1.00  0.00    -0.014 A 
ATOM     67  C   UNL A   1      39.057  28.716  30.354  1.00  0.00     0.009 A 
ATOM     68  C   UNL A   1      38.903  29.361  28.031  1.00  0.00     0.009 A 
ATOM     69  C   UNL A   1      37.685  28.923  30.506  1.00  0.00     0.001 A 
ATOM     70  C   UNL A   1      37.535  29.602  28.194  1.00  0.00     0.001 A 
ATOM     71  C   UNL A   1      36.925  29.368  29.426  1.00  0.00     0.000 A 
ENDBRANCH  47  66
BRANCH  59  72
ATOM     72  C   UNL A   1      45.713  32.459  29.390  1.00  0.00    -0.014 A 
ATOM     73  C   UNL A   1      45.780  33.422  28.367  1.00  0.00     0.009 A 
ATOM     74  C   UNL A   1      46.101  32.823  30.688  1.00  0.00     0.009 A 
ATOM     75  C   UNL A   1      46.252  34.707  28.632  1.00  0.00     0.001 A 
ATOM     76  C   UNL A   1      46.539  34.122  30.957  1.00  0.00     0.001 A 
ATOM     77  C   UNL A   1      46.628  35.058  29.927  1.00  0.00     0.000 A 
ENDBRANCH  59  72
ENDBRANCH  33  34
ENDBRANCH  25  28
ENDBRANCH  23  24
ENDBRANCH   1  23
TORSDOF 12
ENDMDL
