MODEL 1
REMARK VINA RESULT:     -11.9      0.000      0.000
REMARK SMILES COc1ccccc1-n1cc(CN2C[C@H](C(=O)NCCCNC(=O)c3ccc(-c4c5nc(c(-c6ccccc6)c6ccc([nH]6)c(-c6ccccc6)c6nc(c(-c7ccccc7)c7ccc4[nH]7)C=C6)C=C5)cc3)CC2=O)cn1
REMARK SMILES IDX 19 1 18 2 16 3 17 4 15 6 13 7 14 8 74 9 73 10 75 11 12 12
REMARK SMILES IDX 11 13 9 14 10 15 77 16 76 17 8 18 3 19 4 20 5 21 7 22 6 23
REMARK SMILES IDX 2 24 1 25 20 26 21 27 22 28 23 29 24 31 25 32 26 33 72 34
REMARK SMILES IDX 27 35 71 36 28 37 29 38 30 39 65 40 31 41 70 42 64 43 66 44
REMARK SMILES IDX 32 45 69 46 63 47 62 48 33 50 55 51 40 52 54 53 41 54 44 55
REMARK SMILES IDX 53 56 67 57 42 58 43 59 52 61 68 62 45 63 34 64 35 65 39 66
REMARK SMILES IDX 36 67 38 68 37 69 56 70 57 71 61 72 58 73 60 74 59 75 46 76
REMARK SMILES IDX 47 77 51 78 48 79 50 80 49 81
REMARK H PARENT 18 5 22 30 66 49 44 60
REMARK Flexibility Score: inf
ROOT
ATOM      1  C   UNL A   1      36.449  19.954  25.050  1.00  0.00     0.117 C 
ENDROOT
BRANCH   1   2
ATOM      2  N   UNL A   1      36.163  21.360  25.295  1.00  0.00    -0.356 N 
ATOM      3  C   UNL A   1      35.023  21.988  25.703  1.00  0.00     0.225 C 
ATOM      4  O   UNL A   1      35.095  23.209  25.869  1.00  0.00    -0.275 OA
ATOM      5  H   UNL A   1      36.926  21.964  25.140  1.00  0.00     0.163 HD
BRANCH   3   6
ATOM      6  C   UNL A   1      33.740  21.213  26.034  1.00  0.00     0.107 C 
ATOM      7  N   UNL A   1      32.059  22.399  24.929  1.00  0.00    -0.337 N 
ATOM      8  C   UNL A   1      32.564  22.181  26.272  1.00  0.00     0.133 C 
ATOM      9  C   UNL A   1      32.603  21.489  24.040  1.00  0.00     0.223 C 
ATOM     10  C   UNL A   1      33.169  20.398  24.888  1.00  0.00     0.115 C 
ATOM     11  O   UNL A   1      32.557  21.500  22.815  1.00  0.00    -0.275 OA
BRANCH   7  12
ATOM     12  C   UNL A   1      30.934  23.246  24.601  1.00  0.00     0.158 C 
BRANCH  12  13
ATOM     13  C   UNL A   1      31.419  24.658  24.573  1.00  0.00     0.010 A 
ATOM     14  N   UNL A   1      31.722  26.835  24.857  1.00  0.00    -0.237 N 
ATOM     15  C   UNL A   1      30.876  25.786  25.149  1.00  0.00     0.120 A 
ATOM     16  N   UNL A   1      32.679  26.478  23.974  1.00  0.00    -0.176 NA
ATOM     17  C   UNL A   1      32.578  25.153  23.923  1.00  0.00     0.141 A 
BRANCH  14  18
ATOM     18  C   UNL A   1      31.769  28.109  25.442  1.00  0.00     0.106 A 
ATOM     19  C   UNL A   1      31.339  29.244  24.747  1.00  0.00     0.144 A 
ATOM     20  C   UNL A   1      31.412  30.487  25.376  1.00  0.00     0.049 A 
ATOM     21  C   UNL A   1      31.896  30.594  26.685  1.00  0.00     0.004 A 
ATOM     22  C   UNL A   1      32.214  28.206  26.769  1.00  0.00     0.032 A 
ATOM     23  C   UNL A   1      32.300  29.455  27.380  1.00  0.00     0.003 A 
BRANCH  19  24
ATOM     24  O   UNL A   1      30.839  29.232  23.471  1.00  0.00    -0.494 OA
ATOM     25  C   UNL A   1      29.529  29.805  23.379  1.00  0.00     0.278 C 
ENDBRANCH  19  24
ENDBRANCH  14  18
ENDBRANCH  12  13
ENDBRANCH   7  12
ENDBRANCH   3   6
ENDBRANCH   1   2
BRANCH   1  26
ATOM     26  C   UNL A   1      37.909  19.712  24.623  1.00  0.00     0.042 C 
BRANCH  26  27
ATOM     27  C   UNL A   1      38.917  20.140  25.664  1.00  0.00     0.118 C 
BRANCH  27  28
ATOM     28  N   UNL A   1      40.025  19.184  25.805  1.00  0.00    -0.352 N 
ATOM     29  C   UNL A   1      41.382  19.423  25.967  1.00  0.00     0.251 C 
ATOM     30  H   UNL A   1      39.766  18.235  25.780  1.00  0.00     0.163 HD
ATOM     31  O   UNL A   1      42.207  18.557  25.706  1.00  0.00    -0.269 OA
BRANCH  29  32
ATOM     32  C   UNL A   1      41.817  20.734  26.477  1.00  0.00     0.039 A 
ATOM     33  C   UNL A   1      42.413  21.727  25.693  1.00  0.00     0.014 A 
ATOM     34  C   UNL A   1      41.537  20.986  27.802  1.00  0.00     0.014 A 
ATOM     35  C   UNL A   1      42.719  22.945  26.302  1.00  0.00     0.010 A 
ATOM     36  C   UNL A   1      41.345  22.279  28.148  1.00  0.00     0.010 A 
ATOM     37  C   UNL A   1      42.196  23.187  27.575  1.00  0.00    -0.014 A 
BRANCH  37  38
ATOM     38  C   UNL A   1      42.381  24.401  28.344  1.00  0.00     0.031 A 
ATOM     39  C   UNL A   1      41.320  25.393  28.102  1.00  0.00     0.074 A 
ATOM     40  C   UNL A   1      43.247  24.486  29.382  1.00  0.00     0.049 A 
ATOM     41  N   UNL A   1      41.395  26.431  27.343  1.00  0.00    -0.248 NA
ATOM     42  C   UNL A   1      39.958  25.079  28.566  1.00  0.00     0.031 C 
ATOM     43  C   UNL A   1      44.092  23.441  29.982  1.00  0.00     0.029 A 
ATOM     44  N   UNL A   1      43.480  25.542  30.202  1.00  0.00    -0.354 N 
ATOM     45  C   UNL A   1      40.156  27.044  27.440  1.00  0.00     0.074 A 
ATOM     46  C   UNL A   1      39.261  26.046  27.967  1.00  0.00     0.031 C 
ATOM     47  C   UNL A   1      44.557  23.861  31.185  1.00  0.00     0.029 A 
ATOM     48  C   UNL A   1      44.183  25.251  31.366  1.00  0.00     0.049 A 
ATOM     49  H   UNL A   1      43.173  26.454  29.987  1.00  0.00     0.167 HD
ATOM     50  C   UNL A   1      40.046  28.400  27.392  1.00  0.00     0.031 A 
ATOM     51  C   UNL A   1      44.400  26.095  32.409  1.00  0.00     0.031 A 
ATOM     52  C   UNL A   1      41.294  29.005  26.986  1.00  0.00     0.049 A 
ATOM     53  C   UNL A   1      44.171  27.473  31.904  1.00  0.00     0.074 A 
ATOM     54  C   UNL A   1      42.105  28.910  25.873  1.00  0.00     0.029 A 
ATOM     55  N   UNL A   1      42.087  29.504  27.996  1.00  0.00    -0.354 N 
ATOM     56  N   UNL A   1      44.928  28.038  31.007  1.00  0.00    -0.248 NA
ATOM     57  C   UNL A   1      42.825  28.018  32.015  1.00  0.00     0.031 C 
ATOM     58  C   UNL A   1      43.435  28.903  26.390  1.00  0.00     0.029 A 
ATOM     59  C   UNL A   1      43.374  29.088  27.774  1.00  0.00     0.049 A 
ATOM     60  H   UNL A   1      41.782  30.061  28.748  1.00  0.00     0.167 HD
ATOM     61  C   UNL A   1      44.044  28.675  30.147  1.00  0.00     0.074 A 
ATOM     62  C   UNL A   1      42.771  28.707  30.870  1.00  0.00     0.031 C 
ATOM     63  C   UNL A   1      44.340  28.838  28.823  1.00  0.00     0.031 A 
BRANCH  50  64
ATOM     64  C   UNL A   1      39.004  29.186  28.147  1.00  0.00    -0.014 A 
ATOM     65  C   UNL A   1      39.005  29.102  29.550  1.00  0.00     0.009 A 
ATOM     66  C   UNL A   1      37.870  29.771  27.552  1.00  0.00     0.009 A 
ATOM     67  C   UNL A   1      37.893  29.491  30.305  1.00  0.00     0.001 A 
ATOM     68  C   UNL A   1      36.774  30.197  28.304  1.00  0.00     0.001 A 
ATOM     69  C   UNL A   1      36.773  30.027  29.679  1.00  0.00     0.000 A 
ENDBRANCH  50  64
BRANCH  51  70
ATOM     70  C   UNL A   1      44.480  25.788  33.857  1.00  0.00    -0.014 A 
ATOM     71  C   UNL A   1      43.342  25.404  34.586  1.00  0.00     0.009 A 
ATOM     72  C   UNL A   1      45.734  25.599  34.467  1.00  0.00     0.009 A 
ATOM     73  C   UNL A   1      43.459  24.821  35.858  1.00  0.00     0.001 A 
ATOM     74  C   UNL A   1      45.851  25.017  35.735  1.00  0.00     0.001 A 
ATOM     75  C   UNL A   1      44.714  24.614  36.425  1.00  0.00     0.000 A 
ENDBRANCH  51  70
BRANCH  63  76
ATOM     76  C   UNL A   1      45.744  28.513  28.365  1.00  0.00    -0.014 A 
ATOM     77  C   UNL A   1      46.178  27.211  28.054  1.00  0.00     0.009 A 
ATOM     78  C   UNL A   1      46.598  29.584  28.067  1.00  0.00     0.009 A 
ATOM     79  C   UNL A   1      47.437  26.993  27.479  1.00  0.00     0.001 A 
ATOM     80  C   UNL A   1      47.844  29.369  27.475  1.00  0.00     0.001 A 
ATOM     81  C   UNL A   1      48.265  28.073  27.184  1.00  0.00     0.000 A 
ENDBRANCH  63  76
ENDBRANCH  37  38
ENDBRANCH  29  32
ENDBRANCH  27  28
ENDBRANCH  26  27
ENDBRANCH   1  26
TORSDOF 14
ENDMDL
MODEL 2
REMARK VINA RESULT:     -11.5      3.578      9.283
REMARK SMILES COc1ccccc1-n1cc(CN2C[C@H](C(=O)NCCCNC(=O)c3ccc(-c4c5nc(c(-c6ccccc6)c6ccc([nH]6)c(-c6ccccc6)c6nc(c(-c7ccccc7)c7ccc4[nH]7)C=C6)C=C5)cc3)CC2=O)cn1
REMARK SMILES IDX 19 1 18 2 16 3 17 4 15 6 13 7 14 8 74 9 73 10 75 11 12 12
REMARK SMILES IDX 11 13 9 14 10 15 77 16 76 17 8 18 3 19 4 20 5 21 7 22 6 23
REMARK SMILES IDX 2 24 1 25 20 26 21 27 22 28 23 29 24 31 25 32 26 33 72 34
REMARK SMILES IDX 27 35 71 36 28 37 29 38 30 39 65 40 31 41 70 42 64 43 66 44
REMARK SMILES IDX 32 45 69 46 63 47 62 48 33 50 55 51 40 52 54 53 41 54 44 55
REMARK SMILES IDX 53 56 67 57 42 58 43 59 52 61 68 62 45 63 34 64 35 65 39 66
REMARK SMILES IDX 36 67 38 68 37 69 56 70 57 71 61 72 58 73 60 74 59 75 46 76
REMARK SMILES IDX 47 77 51 78 48 79 50 80 49 81
REMARK H PARENT 18 5 22 30 66 49 44 60
REMARK Flexibility Score: inf
ROOT
ATOM      1  C   UNL A   1      31.135  30.967  26.544  1.00  0.00     0.117 C 
ENDROOT
BRANCH   1   2
ATOM      2  N   UNL A   1      32.335  30.155  26.410  1.00  0.00    -0.356 N 
ATOM      3  C   UNL A   1      32.828  29.448  25.353  1.00  0.00     0.225 C 
ATOM      4  O   UNL A   1      33.911  28.881  25.526  1.00  0.00    -0.275 OA
ATOM      5  H   UNL A   1      32.888  30.108  27.223  1.00  0.00     0.163 HD
BRANCH   3   6
ATOM      6  C   UNL A   1      32.129  29.432  23.987  1.00  0.00     0.107 C 
ATOM      7  N   UNL A   1      32.320  27.215  23.277  1.00  0.00    -0.337 N 
ATOM      8  C   UNL A   1      32.885  28.523  22.998  1.00  0.00     0.133 C 
ATOM      9  C   UNL A   1      31.188  27.320  24.064  1.00  0.00     0.223 C 
ATOM     10  C   UNL A   1      30.772  28.752  23.968  1.00  0.00     0.115 C 
ATOM     11  O   UNL A   1      30.580  26.430  24.647  1.00  0.00    -0.275 OA
BRANCH   7  12
ATOM     12  C   UNL A   1      32.700  25.994  22.601  1.00  0.00     0.158 C 
BRANCH  12  13
ATOM     13  C   UNL A   1      33.554  25.202  23.534  1.00  0.00     0.010 A 
ATOM     14  N   UNL A   1      34.799  23.661  24.528  1.00  0.00    -0.237 N 
ATOM     15  C   UNL A   1      34.026  23.912  23.414  1.00  0.00     0.120 A 
ATOM     16  N   UNL A   1      34.701  24.650  25.442  1.00  0.00    -0.176 NA
ATOM     17  C   UNL A   1      34.077  25.623  24.784  1.00  0.00     0.141 A 
BRANCH  14  18
ATOM     18  C   UNL A   1      35.716  22.621  24.739  1.00  0.00     0.106 A 
ATOM     19  C   UNL A   1      35.304  21.284  24.766  1.00  0.00     0.144 A 
ATOM     20  C   UNL A   1      36.259  20.289  24.984  1.00  0.00     0.049 A 
ATOM     21  C   UNL A   1      37.606  20.624  25.161  1.00  0.00     0.004 A 
ATOM     22  C   UNL A   1      37.072  22.957  24.874  1.00  0.00     0.032 A 
ATOM     23  C   UNL A   1      38.013  21.957  25.109  1.00  0.00     0.003 A 
BRANCH  19  24
ATOM     24  O   UNL A   1      34.012  20.865  24.589  1.00  0.00    -0.494 OA
ATOM     25  C   UNL A   1      33.355  20.540  25.821  1.00  0.00     0.278 C 
ENDBRANCH  19  24
ENDBRANCH  14  18
ENDBRANCH  12  13
ENDBRANCH   7  12
ENDBRANCH   3   6
ENDBRANCH   1   2
BRANCH   1  26
ATOM     26  C   UNL A   1      31.430  32.478  26.472  1.00  0.00     0.042 C 
BRANCH  26  27
ATOM     27  C   UNL A   1      32.654  32.887  27.258  1.00  0.00     0.118 C 
BRANCH  27  28
ATOM     28  N   UNL A   1      32.506  34.209  27.885  1.00  0.00    -0.352 N 
ATOM     29  C   UNL A   1      33.144  34.733  28.999  1.00  0.00     0.251 C 
ATOM     30  H   UNL A   1      31.859  34.810  27.450  1.00  0.00     0.163 HD
ATOM     31  O   UNL A   1      32.665  35.682  29.608  1.00  0.00    -0.269 OA
BRANCH  29  32
ATOM     32  C   UNL A   1      34.420  34.142  29.432  1.00  0.00     0.039 A 
ATOM     33  C   UNL A   1      34.599  33.442  30.630  1.00  0.00     0.014 A 
ATOM     34  C   UNL A   1      35.464  34.246  28.540  1.00  0.00     0.014 A 
ATOM     35  C   UNL A   1      35.855  32.884  30.879  1.00  0.00     0.010 A 
ATOM     36  C   UNL A   1      36.398  33.270  28.578  1.00  0.00     0.010 A 
ATOM     37  C   UNL A   1      36.772  32.845  29.827  1.00  0.00    -0.014 A 
BRANCH  37  38
ATOM     38  C   UNL A   1      38.104  32.280  29.891  1.00  0.00     0.031 A 
ATOM     39  C   UNL A   1      38.144  30.873  29.458  1.00  0.00     0.074 A 
ATOM     40  C   UNL A   1      39.217  33.038  30.037  1.00  0.00     0.049 A 
ATOM     41  N   UNL A   1      38.184  29.834  30.218  1.00  0.00    -0.248 NA
ATOM     42  C   UNL A   1      37.880  30.576  28.040  1.00  0.00     0.031 C 
ATOM     43  C   UNL A   1      39.348  34.504  30.089  1.00  0.00     0.029 A 
ATOM     44  N   UNL A   1      40.513  32.638  30.068  1.00  0.00    -0.354 N 
ATOM     45  C   UNL A   1      38.208  28.751  29.354  1.00  0.00     0.074 A 
ATOM     46  C   UNL A   1      37.752  29.248  28.082  1.00  0.00     0.031 C 
ATOM     47  C   UNL A   1      40.647  34.854  29.919  1.00  0.00     0.029 A 
ATOM     48  C   UNL A   1      41.455  33.649  29.910  1.00  0.00     0.049 A 
ATOM     49  H   UNL A   1      40.770  31.695  30.194  1.00  0.00     0.167 HD
ATOM     50  C   UNL A   1      38.908  27.626  29.669  1.00  0.00     0.031 A 
ATOM     51  C   UNL A   1      42.795  33.485  29.749  1.00  0.00     0.031 A 
ATOM     52  C   UNL A   1      39.345  27.659  31.046  1.00  0.00     0.049 A 
ATOM     53  C   UNL A   1      43.122  32.116  30.224  1.00  0.00     0.074 A 
ATOM     54  C   UNL A   1      38.709  27.751  32.268  1.00  0.00     0.029 A 
ATOM     55  N   UNL A   1      40.648  28.050  31.263  1.00  0.00    -0.354 N 
ATOM     56  N   UNL A   1      43.008  31.748  31.469  1.00  0.00    -0.248 NA
ATOM     57  C   UNL A   1      43.084  31.035  29.250  1.00  0.00     0.031 C 
ATOM     58  C   UNL A   1      39.523  28.635  33.037  1.00  0.00     0.029 A 
ATOM     59  C   UNL A   1      40.657  28.960  32.288  1.00  0.00     0.049 A 
ATOM     60  H   UNL A   1      41.437  27.731  30.767  1.00  0.00     0.167 HD
ATOM     61  C   UNL A   1      42.434  30.485  31.412  1.00  0.00     0.074 A 
ATOM     62  C   UNL A   1      42.591  30.060  30.020  1.00  0.00     0.031 C 
ATOM     63  C   UNL A   1      41.619  30.034  32.413  1.00  0.00     0.031 A 
BRANCH  50  64
ATOM     64  C   UNL A   1      39.592  26.749  28.651  1.00  0.00    -0.014 A 
ATOM     65  C   UNL A   1      40.496  27.355  27.761  1.00  0.00     0.009 A 
ATOM     66  C   UNL A   1      39.193  25.434  28.345  1.00  0.00     0.009 A 
ATOM     67  C   UNL A   1      40.898  26.717  26.583  1.00  0.00     0.001 A 
ATOM     68  C   UNL A   1      39.623  24.778  27.190  1.00  0.00     0.001 A 
ATOM     69  C   UNL A   1      40.450  25.433  26.292  1.00  0.00     0.000 A 
ENDBRANCH  50  64
BRANCH  51  70
ATOM     70  C   UNL A   1      43.742  34.287  28.939  1.00  0.00    -0.014 A 
ATOM     71  C   UNL A   1      45.047  34.552  29.389  1.00  0.00     0.009 A 
ATOM     72  C   UNL A   1      43.455  34.559  27.588  1.00  0.00     0.009 A 
ATOM     73  C   UNL A   1      46.032  35.034  28.512  1.00  0.00     0.001 A 
ATOM     74  C   UNL A   1      44.438  35.038  26.713  1.00  0.00     0.001 A 
ATOM     75  C   UNL A   1      45.731  35.263  27.172  1.00  0.00     0.000 A 
ENDBRANCH  51  70
BRANCH  63  76
ATOM     76  C   UNL A   1      41.538  30.850  33.683  1.00  0.00    -0.014 A 
ATOM     77  C   UNL A   1      42.382  30.650  34.791  1.00  0.00     0.009 A 
ATOM     78  C   UNL A   1      40.700  31.974  33.684  1.00  0.00     0.009 A 
ATOM     79  C   UNL A   1      42.370  31.541  35.872  1.00  0.00     0.001 A 
ATOM     80  C   UNL A   1      40.703  32.873  34.752  1.00  0.00     0.001 A 
ATOM     81  C   UNL A   1      41.535  32.655  35.848  1.00  0.00     0.000 A 
ENDBRANCH  63  76
ENDBRANCH  37  38
ENDBRANCH  29  32
ENDBRANCH  27  28
ENDBRANCH  26  27
ENDBRANCH   1  26
TORSDOF 14
ENDMDL
MODEL 3
REMARK VINA RESULT:     -11.5      2.345      7.959
REMARK SMILES COc1ccccc1-n1cc(CN2C[C@H](C(=O)NCCCNC(=O)c3ccc(-c4c5nc(c(-c6ccccc6)c6ccc([nH]6)c(-c6ccccc6)c6nc(c(-c7ccccc7)c7ccc4[nH]7)C=C6)C=C5)cc3)CC2=O)cn1
REMARK SMILES IDX 19 1 18 2 16 3 17 4 15 6 13 7 14 8 74 9 73 10 75 11 12 12
REMARK SMILES IDX 11 13 9 14 10 15 77 16 76 17 8 18 3 19 4 20 5 21 7 22 6 23
REMARK SMILES IDX 2 24 1 25 20 26 21 27 22 28 23 29 24 31 25 32 26 33 72 34
REMARK SMILES IDX 27 35 71 36 28 37 29 38 30 39 65 40 31 41 70 42 64 43 66 44
REMARK SMILES IDX 32 45 69 46 63 47 62 48 33 50 55 51 40 52 54 53 41 54 44 55
REMARK SMILES IDX 53 56 67 57 42 58 43 59 52 61 68 62 45 63 34 64 35 65 39 66
REMARK SMILES IDX 36 67 38 68 37 69 56 70 57 71 61 72 58 73 60 74 59 75 46 76
REMARK SMILES IDX 47 77 51 78 48 79 50 80 49 81
REMARK H PARENT 18 5 22 30 66 49 44 60
REMARK Flexibility Score: inf
ROOT
ATOM      1  C   UNL A   1      32.122  29.902  26.070  1.00  0.00     0.117 C 
ENDROOT
BRANCH   1   2
ATOM      2  N   UNL A   1      32.736  29.510  24.810  1.00  0.00    -0.356 N 
ATOM      3  C   UNL A   1      33.244  28.315  24.392  1.00  0.00     0.225 C 
ATOM      4  O   UNL A   1      33.668  28.271  23.233  1.00  0.00    -0.275 OA
ATOM      5  H   UNL A   1      32.795  30.232  24.143  1.00  0.00     0.163 HD
BRANCH   3   6
ATOM      6  C   UNL A   1      33.206  27.059  25.274  1.00  0.00     0.107 C 
ATOM      7  N   UNL A   1      32.163  25.455  23.936  1.00  0.00    -0.337 N 
ATOM      8  C   UNL A   1      31.880  26.298  25.083  1.00  0.00     0.133 C 
ATOM      9  C   UNL A   1      33.516  25.442  23.651  1.00  0.00     0.223 C 
ATOM     10  C   UNL A   1      34.184  25.967  24.880  1.00  0.00     0.115 C 
ATOM     11  O   UNL A   1      34.081  25.007  22.654  1.00  0.00    -0.275 OA
BRANCH   7  12
ATOM     12  C   UNL A   1      31.224  24.528  23.345  1.00  0.00     0.158 C 
BRANCH  12  13
ATOM     13  C   UNL A   1      31.520  23.169  23.891  1.00  0.00     0.010 A 
ATOM     14  N   UNL A   1      32.190  21.084  24.224  1.00  0.00    -0.237 N 
ATOM     15  C   UNL A   1      32.121  22.089  23.282  1.00  0.00     0.120 A 
ATOM     16  N   UNL A   1      31.505  21.395  25.344  1.00  0.00    -0.176 NA
ATOM     17  C   UNL A   1      31.233  22.688  25.194  1.00  0.00     0.141 A 
BRANCH  14  18
ATOM     18  C   UNL A   1      32.956  19.909  24.192  1.00  0.00     0.106 A 
ATOM     19  C   UNL A   1      34.265  19.881  24.685  1.00  0.00     0.144 A 
ATOM     20  C   UNL A   1      34.983  18.686  24.625  1.00  0.00     0.049 A 
ATOM     21  C   UNL A   1      34.397  17.531  24.092  1.00  0.00     0.004 A 
ATOM     22  C   UNL A   1      32.352  18.743  23.696  1.00  0.00     0.032 A 
ATOM     23  C   UNL A   1      33.084  17.560  23.625  1.00  0.00     0.003 A 
BRANCH  19  24
ATOM     24  O   UNL A   1      34.911  20.957  25.236  1.00  0.00    -0.494 OA
ATOM     25  C   UNL A   1      36.339  20.844  25.171  1.00  0.00     0.278 C 
ENDBRANCH  19  24
ENDBRANCH  14  18
ENDBRANCH  12  13
ENDBRANCH   7  12
ENDBRANCH   3   6
ENDBRANCH   1   2
BRANCH   1  26
ATOM     26  C   UNL A   1      33.090  29.790  27.262  1.00  0.00     0.042 C 
BRANCH  26  27
ATOM     27  C   UNL A   1      34.157  30.860  27.270  1.00  0.00     0.118 C 
BRANCH  27  28
ATOM     28  N   UNL A   1      34.015  31.790  28.400  1.00  0.00    -0.352 N 
ATOM     29  C   UNL A   1      34.817  31.947  29.521  1.00  0.00     0.251 C 
ATOM     30  H   UNL A   1      33.236  32.391  28.354  1.00  0.00     0.163 HD
ATOM     31  O   UNL A   1      34.386  32.488  30.531  1.00  0.00    -0.269 OA
BRANCH  29  32
ATOM     32  C   UNL A   1      36.207  31.465  29.473  1.00  0.00     0.039 A 
ATOM     33  C   UNL A   1      37.332  32.295  29.517  1.00  0.00     0.014 A 
ATOM     34  C   UNL A   1      36.369  30.097  29.455  1.00  0.00     0.014 A 
ATOM     35  C   UNL A   1      38.591  31.691  29.524  1.00  0.00     0.010 A 
ATOM     36  C   UNL A   1      37.504  29.610  30.004  1.00  0.00     0.010 A 
ATOM     37  C   UNL A   1      38.651  30.311  29.733  1.00  0.00    -0.014 A 
BRANCH  37  38
ATOM     38  C   UNL A   1      39.864  29.522  29.802  1.00  0.00     0.031 A 
ATOM     39  C   UNL A   1      40.274  29.234  31.187  1.00  0.00     0.074 A 
ATOM     40  C   UNL A   1      40.379  28.874  28.730  1.00  0.00     0.049 A 
ATOM     41  N   UNL A   1      41.195  29.834  31.857  1.00  0.00    -0.248 NA
ATOM     42  C   UNL A   1      39.422  28.343  31.992  1.00  0.00     0.031 C 
ATOM     43  C   UNL A   1      39.846  28.759  27.363  1.00  0.00     0.029 A 
ATOM     44  N   UNL A   1      41.475  28.075  28.674  1.00  0.00    -0.354 N 
ATOM     45  C   UNL A   1      41.206  29.214  33.097  1.00  0.00     0.074 A 
ATOM     46  C   UNL A   1      39.949  28.521  33.204  1.00  0.00     0.031 C 
ATOM     47  C   UNL A   1      40.495  27.770  26.699  1.00  0.00     0.029 A 
ATOM     48  C   UNL A   1      41.587  27.296  27.527  1.00  0.00     0.049 A 
ATOM     49  H   UNL A   1      42.145  28.049  29.396  1.00  0.00     0.167 HD
ATOM     50  C   UNL A   1      42.372  29.052  33.782  1.00  0.00     0.031 A 
ATOM     51  C   UNL A   1      42.499  26.312  27.308  1.00  0.00     0.031 A 
ATOM     52  C   UNL A   1      43.440  29.812  33.172  1.00  0.00     0.049 A 
ATOM     53  C   UNL A   1      43.605  26.524  28.276  1.00  0.00     0.074 A 
ATOM     54  C   UNL A   1      43.648  31.148  32.893  1.00  0.00     0.029 A 
ATOM     55  N   UNL A   1      44.292  29.112  32.346  1.00  0.00    -0.354 N 
ATOM     56  N   UNL A   1      44.394  27.561  28.239  1.00  0.00    -0.248 NA
ATOM     57  C   UNL A   1      43.510  25.861  29.568  1.00  0.00     0.031 C 
ATOM     58  C   UNL A   1      44.253  31.162  31.602  1.00  0.00     0.029 A 
ATOM     59  C   UNL A   1      44.471  29.842  31.200  1.00  0.00     0.049 A 
ATOM     60  H   UNL A   1      44.700  28.239  32.545  1.00  0.00     0.167 HD
ATOM     61  C   UNL A   1      44.528  27.951  29.565  1.00  0.00     0.074 A 
ATOM     62  C   UNL A   1      44.039  26.812  30.345  1.00  0.00     0.031 C 
ATOM     63  C   UNL A   1      44.730  29.261  29.899  1.00  0.00     0.031 A 
BRANCH  50  64
ATOM     64  C   UNL A   1      42.662  27.877  34.681  1.00  0.00    -0.014 A 
ATOM     65  C   UNL A   1      43.093  26.681  34.082  1.00  0.00     0.009 A 
ATOM     66  C   UNL A   1      42.274  27.801  36.032  1.00  0.00     0.009 A 
ATOM     67  C   UNL A   1      43.044  25.462  34.768  1.00  0.00     0.001 A 
ATOM     68  C   UNL A   1      42.261  26.593  36.733  1.00  0.00     0.001 A 
ATOM     69  C   UNL A   1      42.616  25.418  36.090  1.00  0.00     0.000 A 
ENDBRANCH  50  64
BRANCH  51  70
ATOM     70  C   UNL A   1      42.340  25.044  26.557  1.00  0.00    -0.014 A 
ATOM     71  C   UNL A   1      43.315  24.609  25.643  1.00  0.00     0.009 A 
ATOM     72  C   UNL A   1      41.358  24.114  26.948  1.00  0.00     0.009 A 
ATOM     73  C   UNL A   1      43.325  23.287  25.169  1.00  0.00     0.001 A 
ATOM     74  C   UNL A   1      41.369  22.796  26.477  1.00  0.00     0.001 A 
ATOM     75  C   UNL A   1      42.362  22.378  25.597  1.00  0.00     0.000 A 
ENDBRANCH  51  70
BRANCH  63  76
ATOM     76  C   UNL A   1      45.028  30.239  28.786  1.00  0.00    -0.014 A 
ATOM     77  C   UNL A   1      46.331  30.573  28.372  1.00  0.00     0.009 A 
ATOM     78  C   UNL A   1      43.951  30.696  28.014  1.00  0.00     0.009 A 
ATOM     79  C   UNL A   1      46.542  31.356  27.230  1.00  0.00     0.001 A 
ATOM     80  C   UNL A   1      44.161  31.460  26.864  1.00  0.00     0.001 A 
ATOM     81  C   UNL A   1      45.457  31.793  26.474  1.00  0.00     0.000 A 
ENDBRANCH  63  76
ENDBRANCH  37  38
ENDBRANCH  29  32
ENDBRANCH  27  28
ENDBRANCH  26  27
ENDBRANCH   1  26
TORSDOF 14
ENDMDL
