MODEL 1
REMARK VINA RESULT:     -12.7      0.000      0.000
REMARK SMILES O=C(Nc1cccc(C(=O)NCCCNC(=O)c2ccc(-c3c4nc(c(-c5ccccc5)c5ccc([nH]5)c(-c5ccccc5)c5nc(c(-c6ccccc6)c6ccc3[nH]6)C=C5)C=C4)cc2)c1)Nc1cc(Cl)c(Cl)cc1Cl
REMARK SMILES IDX 13 1 12 2 11 3 9 4 10 5 8 7 4 8 5 9 66 10 6 11 7 12 3 13
REMARK SMILES IDX 1 14 2 15 67 16 68 19 69 20 75 21 70 22 74 23 76 24 71 25
REMARK SMILES IDX 72 26 73 27 14 28 15 29 16 30 17 32 18 33 19 34 65 35 20 36
REMARK SMILES IDX 64 37 21 38 22 39 23 40 58 41 24 42 63 43 57 44 59 45 25 46
REMARK SMILES IDX 62 47 56 48 55 49 26 51 48 52 33 53 47 54 34 55 37 56 46 57
REMARK SMILES IDX 60 58 35 59 36 60 45 62 61 63 38 64 27 65 28 66 32 67 29 68
REMARK SMILES IDX 31 69 30 70 49 71 50 72 54 73 51 74 53 75 52 76 39 77 40 78
REMARK SMILES IDX 44 79 41 80 43 81 42 82
REMARK H PARENT 11 6 3 17 67 18 15 31 59 50 37 61
REMARK Flexibility Score: inf
ROOT
ATOM      1  C   UNL A   1      31.400  32.293  26.558  1.00  0.00     0.042 C 
ENDROOT
BRANCH   1   2
ATOM      2  C   UNL A   1      31.417  30.768  26.452  1.00  0.00     0.118 C 
BRANCH   2   3
ATOM      3  N   UNL A   1      32.264  30.323  25.362  1.00  0.00    -0.352 N 
ATOM      4  C   UNL A   1      32.259  29.219  24.548  1.00  0.00     0.251 C 
ATOM      5  O   UNL A   1      33.134  29.171  23.683  1.00  0.00    -0.269 OA
ATOM      6  H   UNL A   1      33.000  30.946  25.164  1.00  0.00     0.163 HD
BRANCH   4   7
ATOM      7  C   UNL A   1      31.258  28.111  24.619  1.00  0.00     0.041 A 
ATOM      8  C   UNL A   1      30.259  26.102  25.570  1.00  0.00     0.043 A 
ATOM      9  C   UNL A   1      29.301  26.084  24.559  1.00  0.00     0.026 A 
ATOM     10  C   UNL A   1      31.268  27.076  25.555  1.00  0.00     0.040 A 
ATOM     11  C   UNL A   1      29.291  27.091  23.596  1.00  0.00     0.003 A 
ATOM     12  C   UNL A   1      30.252  28.104  23.637  1.00  0.00     0.014 A 
BRANCH   8  13
ATOM     13  N   UNL A   1      30.195  25.110  26.564  1.00  0.00    -0.308 N 
ATOM     14  O   UNL A   1      30.380  23.050  27.444  1.00  0.00    -0.248 OA
ATOM     15  C   UNL A   1      30.735  23.846  26.580  1.00  0.00     0.323 C 
ATOM     16  N   UNL A   1      31.786  23.649  25.714  1.00  0.00    -0.306 N 
ATOM     17  H   UNL A   1      29.687  25.358  27.370  1.00  0.00     0.171 HD
ATOM     18  H   UNL A   1      32.096  24.428  25.199  1.00  0.00     0.171 HD
BRANCH  16  19
ATOM     19  C   UNL A   1      32.462  22.427  25.499  1.00  0.00     0.063 A 
ATOM     20  C   UNL A   1      32.031  21.678  24.392  1.00  0.00     0.049 A 
ATOM     21  C   UNL A   1      33.485  21.908  26.311  1.00  0.00     0.066 A 
ATOM     22  C   UNL A   1      32.666  20.479  24.046  1.00  0.00     0.061 A 
ATOM     23  C   UNL A   1      34.117  20.707  25.963  1.00  0.00     0.044 A 
ATOM     24  Cl  UNL A   1      33.903  22.576  27.851  1.00  0.00    -0.082 Cl
ATOM     25  Cl  UNL A   1      32.098  19.650  22.641  1.00  0.00    -0.083 Cl
ATOM     26  C   UNL A   1      33.721  20.000  24.826  1.00  0.00     0.061 A 
ATOM     27  Cl  UNL A   1      34.555  18.535  24.453  1.00  0.00    -0.083 Cl
ENDBRANCH  16  19
ENDBRANCH   8  13
ENDBRANCH   4   7
ENDBRANCH   2   3
ENDBRANCH   1   2
BRANCH   1  28
ATOM     28  C   UNL A   1      32.696  32.870  27.129  1.00  0.00     0.118 C 
BRANCH  28  29
ATOM     29  N   UNL A   1      32.516  34.242  27.586  1.00  0.00    -0.352 N 
ATOM     30  C   UNL A   1      33.080  34.908  28.643  1.00  0.00     0.251 C 
ATOM     31  H   UNL A   1      31.888  34.777  27.048  1.00  0.00     0.163 HD
ATOM     32  O   UNL A   1      32.595  35.976  29.006  1.00  0.00    -0.269 OA
BRANCH  30  33
ATOM     33  C   UNL A   1      34.259  34.360  29.349  1.00  0.00     0.039 A 
ATOM     34  C   UNL A   1      34.059  33.653  30.541  1.00  0.00     0.014 A 
ATOM     35  C   UNL A   1      35.558  34.595  28.891  1.00  0.00     0.014 A 
ATOM     36  C   UNL A   1      35.152  33.138  31.240  1.00  0.00     0.010 A 
ATOM     37  C   UNL A   1      36.645  34.030  29.556  1.00  0.00     0.010 A 
ATOM     38  C   UNL A   1      36.454  33.298  30.736  1.00  0.00    -0.014 A 
BRANCH  38  39
ATOM     39  C   UNL A   1      37.620  32.688  31.422  1.00  0.00     0.031 A 
ATOM     40  C   UNL A   1      38.306  31.483  30.840  1.00  0.00     0.074 A 
ATOM     41  C   UNL A   1      38.019  33.182  32.610  1.00  0.00     0.049 A 
ATOM     42  N   UNL A   1      39.292  30.777  31.333  1.00  0.00    -0.248 NA
ATOM     43  C   UNL A   1      37.805  30.994  29.546  1.00  0.00     0.031 C 
ATOM     44  C   UNL A   1      37.414  34.323  33.299  1.00  0.00     0.029 A 
ATOM     45  N   UNL A   1      39.024  32.779  33.453  1.00  0.00    -0.354 N 
ATOM     46  C   UNL A   1      39.516  29.751  30.422  1.00  0.00     0.074 A 
ATOM     47  C   UNL A   1      38.540  29.906  29.365  1.00  0.00     0.031 C 
ATOM     48  C   UNL A   1      38.072  34.542  34.448  1.00  0.00     0.029 A 
ATOM     49  C   UNL A   1      39.117  33.535  34.596  1.00  0.00     0.049 A 
ATOM     50  H   UNL A   1      39.620  32.020  33.258  1.00  0.00     0.167 HD
ATOM     51  C   UNL A   1      40.457  28.779  30.456  1.00  0.00     0.031 A 
ATOM     52  C   UNL A   1      39.946  33.425  35.651  1.00  0.00     0.031 A 
ATOM     53  C   UNL A   1      41.437  28.632  31.500  1.00  0.00     0.049 A 
ATOM     54  C   UNL A   1      40.976  32.333  35.666  1.00  0.00     0.074 A 
ATOM     55  C   UNL A   1      42.469  27.714  31.593  1.00  0.00     0.029 A 
ATOM     56  N   UNL A   1      41.504  29.424  32.636  1.00  0.00    -0.354 N 
ATOM     57  N   UNL A   1      41.214  31.410  34.766  1.00  0.00    -0.248 NA
ATOM     58  C   UNL A   1      41.858  32.275  36.841  1.00  0.00     0.031 C 
ATOM     59  C   UNL A   1      43.134  27.923  32.806  1.00  0.00     0.029 A 
ATOM     60  C   UNL A   1      42.545  29.003  33.444  1.00  0.00     0.049 A 
ATOM     61  H   UNL A   1      40.901  30.176  32.836  1.00  0.00     0.167 HD
ATOM     62  C   UNL A   1      42.286  30.675  35.255  1.00  0.00     0.074 A 
ATOM     63  C   UNL A   1      42.663  31.270  36.520  1.00  0.00     0.031 C 
ATOM     64  C   UNL A   1      42.903  29.603  34.703  1.00  0.00     0.031 A 
BRANCH  51  65
ATOM     65  C   UNL A   1      40.468  27.785  29.328  1.00  0.00    -0.014 A 
ATOM     66  C   UNL A   1      39.650  26.645  29.356  1.00  0.00     0.009 A 
ATOM     67  C   UNL A   1      41.276  28.013  28.203  1.00  0.00     0.009 A 
ATOM     68  C   UNL A   1      39.667  25.735  28.297  1.00  0.00     0.001 A 
ATOM     69  C   UNL A   1      41.272  27.114  27.133  1.00  0.00     0.001 A 
ATOM     70  C   UNL A   1      40.475  25.972  27.185  1.00  0.00     0.000 A 
ENDBRANCH  51  65
BRANCH  52  71
ATOM     71  C   UNL A   1      39.841  34.387  36.778  1.00  0.00    -0.014 A 
ATOM     72  C   UNL A   1      39.066  34.076  37.906  1.00  0.00     0.009 A 
ATOM     73  C   UNL A   1      40.515  35.616  36.734  1.00  0.00     0.009 A 
ATOM     74  C   UNL A   1      38.949  34.988  38.957  1.00  0.00     0.001 A 
ATOM     75  C   UNL A   1      40.418  36.515  37.799  1.00  0.00     0.001 A 
ATOM     76  C   UNL A   1      39.629  36.203  38.905  1.00  0.00     0.000 A 
ENDBRANCH  52  71
BRANCH  64  77
ATOM     77  C   UNL A   1      44.065  29.022  35.456  1.00  0.00    -0.014 A 
ATOM     78  C   UNL A   1      45.372  29.487  35.247  1.00  0.00     0.009 A 
ATOM     79  C   UNL A   1      43.843  28.016  36.410  1.00  0.00     0.009 A 
ATOM     80  C   UNL A   1      46.440  28.934  35.958  1.00  0.00     0.001 A 
ATOM     81  C   UNL A   1      44.908  27.484  37.137  1.00  0.00     0.001 A 
ATOM     82  C   UNL A   1      46.206  27.936  36.905  1.00  0.00     0.000 A 
ENDBRANCH  64  77
ENDBRANCH  38  39
ENDBRANCH  30  33
ENDBRANCH  28  29
ENDBRANCH   1  28
TORSDOF 12
ENDMDL
MODEL 2
REMARK VINA RESULT:     -12.7      1.338      6.028
REMARK SMILES O=C(Nc1cccc(C(=O)NCCCNC(=O)c2ccc(-c3c4nc(c(-c5ccccc5)c5ccc([nH]5)c(-c5ccccc5)c5nc(c(-c6ccccc6)c6ccc3[nH]6)C=C5)C=C4)cc2)c1)Nc1cc(Cl)c(Cl)cc1Cl
REMARK SMILES IDX 13 1 12 2 11 3 9 4 10 5 8 7 4 8 5 9 66 10 6 11 7 12 3 13
REMARK SMILES IDX 1 14 2 15 67 16 68 19 69 20 75 21 70 22 74 23 76 24 71 25
REMARK SMILES IDX 72 26 73 27 14 28 15 29 16 30 17 32 18 33 19 34 65 35 20 36
REMARK SMILES IDX 64 37 21 38 22 39 23 40 58 41 24 42 63 43 57 44 59 45 25 46
REMARK SMILES IDX 62 47 56 48 55 49 26 51 48 52 33 53 47 54 34 55 37 56 46 57
REMARK SMILES IDX 60 58 35 59 36 60 45 62 61 63 38 64 27 65 28 66 32 67 29 68
REMARK SMILES IDX 31 69 30 70 49 71 50 72 54 73 51 74 53 75 52 76 39 77 40 78
REMARK SMILES IDX 44 79 41 80 43 81 42 82
REMARK H PARENT 11 6 3 17 67 18 15 31 59 50 37 61
REMARK Flexibility Score: inf
ROOT
ATOM      1  C   UNL A   1      31.385  32.321  26.641  1.00  0.00     0.042 C 
ENDROOT
BRANCH   1   2
ATOM      2  C   UNL A   1      31.411  30.797  26.522  1.00  0.00     0.118 C 
BRANCH   2   3
ATOM      3  N   UNL A   1      32.302  30.364  25.462  1.00  0.00    -0.352 N 
ATOM      4  C   UNL A   1      32.329  29.270  24.635  1.00  0.00     0.251 C 
ATOM      5  O   UNL A   1      33.239  29.233  23.806  1.00  0.00    -0.269 OA
ATOM      6  H   UNL A   1      33.046  30.989  25.302  1.00  0.00     0.163 HD
BRANCH   4   7
ATOM      7  C   UNL A   1      31.325  28.163  24.651  1.00  0.00     0.041 A 
ATOM      8  C   UNL A   1      30.285  26.145  25.537  1.00  0.00     0.043 A 
ATOM      9  C   UNL A   1      29.371  26.140  24.486  1.00  0.00     0.026 A 
ATOM     10  C   UNL A   1      31.294  27.118  25.576  1.00  0.00     0.040 A 
ATOM     11  C   UNL A   1      29.404  27.156  23.534  1.00  0.00     0.003 A 
ATOM     12  C   UNL A   1      30.363  28.168  23.627  1.00  0.00     0.014 A 
BRANCH   8  13
ATOM     13  N   UNL A   1      30.177  25.143  26.517  1.00  0.00    -0.308 N 
ATOM     14  O   UNL A   1      30.306  23.071  27.378  1.00  0.00    -0.248 OA
ATOM     15  C   UNL A   1      30.698  23.871  26.534  1.00  0.00     0.323 C 
ATOM     16  N   UNL A   1      31.771  23.668  25.697  1.00  0.00    -0.306 N 
ATOM     17  H   UNL A   1      29.650  25.390  27.311  1.00  0.00     0.171 HD
ATOM     18  H   UNL A   1      32.106  24.448  25.200  1.00  0.00     0.171 HD
BRANCH  16  19
ATOM     19  C   UNL A   1      32.434  22.438  25.486  1.00  0.00     0.063 A 
ATOM     20  C   UNL A   1      32.019  21.705  24.363  1.00  0.00     0.049 A 
ATOM     21  C   UNL A   1      33.430  21.898  26.318  1.00  0.00     0.066 A 
ATOM     22  C   UNL A   1      32.645  20.500  24.022  1.00  0.00     0.061 A 
ATOM     23  C   UNL A   1      34.053  20.691  25.975  1.00  0.00     0.044 A 
ATOM     24  Cl  UNL A   1      33.820  22.546  27.874  1.00  0.00    -0.082 Cl
ATOM     25  Cl  UNL A   1      32.099  19.692  22.596  1.00  0.00    -0.083 Cl
ATOM     26  C   UNL A   1      33.674  20.000  24.822  1.00  0.00     0.061 A 
ATOM     27  Cl  UNL A   1      34.496  18.526  24.456  1.00  0.00    -0.083 Cl
ENDBRANCH  16  19
ENDBRANCH   8  13
ENDBRANCH   4   7
ENDBRANCH   2   3
ENDBRANCH   1   2
BRANCH   1  28
ATOM     28  C   UNL A   1      32.740  32.918  27.020  1.00  0.00     0.118 C 
BRANCH  28  29
ATOM     29  N   UNL A   1      32.589  34.186  27.721  1.00  0.00    -0.352 N 
ATOM     30  C   UNL A   1      33.250  34.681  28.817  1.00  0.00     0.251 C 
ATOM     31  H   UNL A   1      31.903  34.786  27.348  1.00  0.00     0.163 HD
ATOM     32  O   UNL A   1      32.790  35.657  29.403  1.00  0.00    -0.269 OA
BRANCH  30  33
ATOM     33  C   UNL A   1      34.502  34.058  29.299  1.00  0.00     0.039 A 
ATOM     34  C   UNL A   1      34.447  33.226  30.423  1.00  0.00     0.014 A 
ATOM     35  C   UNL A   1      35.733  34.340  28.702  1.00  0.00     0.014 A 
ATOM     36  C   UNL A   1      35.615  32.637  30.913  1.00  0.00     0.010 A 
ATOM     37  C   UNL A   1      36.889  33.704  29.154  1.00  0.00     0.010 A 
ATOM     38  C   UNL A   1      36.842  32.848  30.263  1.00  0.00    -0.014 A 
BRANCH  38  39
ATOM     39  C   UNL A   1      38.078  32.166  30.720  1.00  0.00     0.031 A 
ATOM     40  C   UNL A   1      38.934  32.773  31.797  1.00  0.00     0.074 A 
ATOM     41  C   UNL A   1      38.466  31.028  30.113  1.00  0.00     0.049 A 
ATOM     42  N   UNL A   1      40.080  32.357  32.273  1.00  0.00    -0.248 NA
ATOM     43  C   UNL A   1      38.450  34.023  32.404  1.00  0.00     0.031 C 
ATOM     44  C   UNL A   1      37.744  30.357  29.030  1.00  0.00     0.029 A 
ATOM     45  N   UNL A   1      39.571  30.240  30.314  1.00  0.00    -0.354 N 
ATOM     46  C   UNL A   1      40.464  33.301  33.218  1.00  0.00     0.074 A 
ATOM     47  C   UNL A   1      39.447  34.330  33.222  1.00  0.00     0.031 C 
ATOM     48  C   UNL A   1      38.414  29.248  28.677  1.00  0.00     0.029 A 
ATOM     49  C   UNL A   1      39.628  29.151  29.479  1.00  0.00     0.049 A 
ATOM     50  H   UNL A   1      40.258  30.436  30.992  1.00  0.00     0.167 HD
ATOM     51  C   UNL A   1      41.556  33.303  34.018  1.00  0.00     0.031 A 
ATOM     52  C   UNL A   1      40.560  28.187  29.363  1.00  0.00     0.031 A 
ATOM     53  C   UNL A   1      42.562  32.274  34.023  1.00  0.00     0.049 A 
ATOM     54  C   UNL A   1      41.765  28.217  30.258  1.00  0.00     0.074 A 
ATOM     55  C   UNL A   1      43.674  32.158  34.839  1.00  0.00     0.029 A 
ATOM     56  N   UNL A   1      42.578  31.183  33.168  1.00  0.00    -0.354 N 
ATOM     57  N   UNL A   1      42.080  29.084  31.189  1.00  0.00    -0.248 NA
ATOM     58  C   UNL A   1      42.738  27.128  30.091  1.00  0.00     0.031 C 
ATOM     59  C   UNL A   1      44.387  31.019  34.449  1.00  0.00     0.029 A 
ATOM     60  C   UNL A   1      43.691  30.401  33.422  1.00  0.00     0.049 A 
ATOM     61  H   UNL A   1      41.897  30.992  32.483  1.00  0.00     0.167 HD
ATOM     62  C   UNL A   1      43.276  28.635  31.734  1.00  0.00     0.074 A 
ATOM     63  C   UNL A   1      43.620  27.410  31.042  1.00  0.00     0.031 C 
ATOM     64  C   UNL A   1      44.022  29.188  32.720  1.00  0.00     0.031 A 
BRANCH  51  65
ATOM     65  C   UNL A   1      41.726  34.467  34.955  1.00  0.00    -0.014 A 
ATOM     66  C   UNL A   1      42.391  35.635  34.550  1.00  0.00     0.009 A 
ATOM     67  C   UNL A   1      41.178  34.411  36.246  1.00  0.00     0.009 A 
ATOM     68  C   UNL A   1      42.535  36.709  35.430  1.00  0.00     0.001 A 
ATOM     69  C   UNL A   1      41.301  35.497  37.116  1.00  0.00     0.001 A 
ATOM     70  C   UNL A   1      41.987  36.641  36.711  1.00  0.00     0.000 A 
ENDBRANCH  51  65
BRANCH  52  71
ATOM     71  C   UNL A   1      40.382  27.101  28.365  1.00  0.00    -0.014 A 
ATOM     72  C   UNL A   1      39.670  25.939  28.700  1.00  0.00     0.009 A 
ATOM     73  C   UNL A   1      40.920  27.221  27.075  1.00  0.00     0.009 A 
ATOM     74  C   UNL A   1      39.521  24.909  27.769  1.00  0.00     0.001 A 
ATOM     75  C   UNL A   1      40.746  26.200  26.138  1.00  0.00     0.001 A 
ATOM     76  C   UNL A   1      40.054  25.042  26.489  1.00  0.00     0.000 A 
ENDBRANCH  52  71
BRANCH  64  77
ATOM     77  C   UNL A   1      45.270  28.458  33.123  1.00  0.00    -0.014 A 
ATOM     78  C   UNL A   1      45.240  27.455  34.104  1.00  0.00     0.009 A 
ATOM     79  C   UNL A   1      46.486  28.757  32.489  1.00  0.00     0.009 A 
ATOM     80  C   UNL A   1      46.413  26.787  34.465  1.00  0.00     0.001 A 
ATOM     81  C   UNL A   1      47.650  28.070  32.833  1.00  0.00     0.001 A 
ATOM     82  C   UNL A   1      47.615  27.092  33.826  1.00  0.00     0.000 A 
ENDBRANCH  64  77
ENDBRANCH  38  39
ENDBRANCH  30  33
ENDBRANCH  28  29
ENDBRANCH   1  28
TORSDOF 12
ENDMDL
MODEL 3
REMARK VINA RESULT:     -12.6      1.431      2.071
REMARK SMILES O=C(Nc1cccc(C(=O)NCCCNC(=O)c2ccc(-c3c4nc(c(-c5ccccc5)c5ccc([nH]5)c(-c5ccccc5)c5nc(c(-c6ccccc6)c6ccc3[nH]6)C=C5)C=C4)cc2)c1)Nc1cc(Cl)c(Cl)cc1Cl
REMARK SMILES IDX 13 1 12 2 11 3 9 4 10 5 8 7 4 8 5 9 66 10 6 11 7 12 3 13
REMARK SMILES IDX 1 14 2 15 67 16 68 19 69 20 75 21 70 22 74 23 76 24 71 25
REMARK SMILES IDX 72 26 73 27 14 28 15 29 16 30 17 32 18 33 19 34 65 35 20 36
REMARK SMILES IDX 64 37 21 38 22 39 23 40 58 41 24 42 63 43 57 44 59 45 25 46
REMARK SMILES IDX 62 47 56 48 55 49 26 51 48 52 33 53 47 54 34 55 37 56 46 57
REMARK SMILES IDX 60 58 35 59 36 60 45 62 61 63 38 64 27 65 28 66 32 67 29 68
REMARK SMILES IDX 31 69 30 70 49 71 50 72 54 73 51 74 53 75 52 76 39 77 40 78
REMARK SMILES IDX 44 79 41 80 43 81 42 82
REMARK H PARENT 11 6 3 17 67 18 15 31 59 50 37 61
REMARK Flexibility Score: inf
ROOT
ATOM      1  C   UNL A   1      31.396  31.999  26.494  1.00  0.00     0.042 C 
ENDROOT
BRANCH   1   2
ATOM      2  C   UNL A   1      31.420  30.485  26.281  1.00  0.00     0.118 C 
BRANCH   2   3
ATOM      3  N   UNL A   1      32.021  30.139  25.008  1.00  0.00    -0.352 N 
ATOM      4  C   UNL A   1      32.018  29.006  24.235  1.00  0.00     0.251 C 
ATOM      5  O   UNL A   1      32.628  29.069  23.166  1.00  0.00    -0.269 OA
ATOM      6  H   UNL A   1      32.545  30.874  24.613  1.00  0.00     0.163 HD
BRANCH   4   7
ATOM      7  C   UNL A   1      31.305  27.739  24.582  1.00  0.00     0.041 A 
ATOM      8  C   UNL A   1      30.961  25.676  25.832  1.00  0.00     0.043 A 
ATOM      9  C   UNL A   1      29.842  25.378  25.059  1.00  0.00     0.026 A 
ATOM     10  C   UNL A   1      31.720  26.819  25.546  1.00  0.00     0.040 A 
ATOM     11  C   UNL A   1      29.427  26.267  24.070  1.00  0.00     0.003 A 
ATOM     12  C   UNL A   1      30.144  27.445  23.846  1.00  0.00     0.014 A 
BRANCH   8  13
ATOM     13  N   UNL A   1      31.309  24.790  26.868  1.00  0.00    -0.308 N 
ATOM     14  O   UNL A   1      32.154  22.926  27.796  1.00  0.00    -0.248 OA
ATOM     15  C   UNL A   1      32.154  23.707  26.850  1.00  0.00     0.323 C 
ATOM     16  N   UNL A   1      33.076  23.702  25.828  1.00  0.00    -0.306 N 
ATOM     17  H   UNL A   1      30.882  24.974  27.736  1.00  0.00     0.171 HD
ATOM     18  H   UNL A   1      33.091  24.486  25.233  1.00  0.00     0.171 HD
BRANCH  16  19
ATOM     19  C   UNL A   1      34.005  22.672  25.557  1.00  0.00     0.063 A 
ATOM     20  C   UNL A   1      35.358  23.016  25.703  1.00  0.00     0.049 A 
ATOM     21  C   UNL A   1      33.678  21.372  25.134  1.00  0.00     0.066 A 
ATOM     22  C   UNL A   1      36.365  22.061  25.518  1.00  0.00     0.061 A 
ATOM     23  C   UNL A   1      34.688  20.420  24.947  1.00  0.00     0.044 A 
ATOM     24  Cl  UNL A   1      32.087  20.910  24.635  1.00  0.00    -0.082 Cl
ATOM     25  Cl  UNL A   1      37.999  22.565  25.764  1.00  0.00    -0.083 Cl
ATOM     26  C   UNL A   1      36.028  20.756  25.153  1.00  0.00     0.061 A 
ATOM     27  Cl  UNL A   1      37.216  19.526  24.917  1.00  0.00    -0.083 Cl
ENDBRANCH  16  19
ENDBRANCH   8  13
ENDBRANCH   4   7
ENDBRANCH   2   3
ENDBRANCH   1   2
BRANCH   1  28
ATOM     28  C   UNL A   1      32.700  32.546  27.073  1.00  0.00     0.118 C 
BRANCH  28  29
ATOM     29  N   UNL A   1      32.525  33.885  27.618  1.00  0.00    -0.352 N 
ATOM     30  C   UNL A   1      33.191  34.528  28.630  1.00  0.00     0.251 C 
ATOM     31  H   UNL A   1      31.813  34.415  27.190  1.00  0.00     0.163 HD
ATOM     32  O   UNL A   1      32.714  35.555  29.103  1.00  0.00    -0.269 OA
BRANCH  30  33
ATOM     33  C   UNL A   1      34.471  34.004  29.155  1.00  0.00     0.039 A 
ATOM     34  C   UNL A   1      34.446  33.195  30.297  1.00  0.00     0.014 A 
ATOM     35  C   UNL A   1      35.694  34.356  28.580  1.00  0.00     0.014 A 
ATOM     36  C   UNL A   1      35.639  32.699  30.827  1.00  0.00     0.010 A 
ATOM     37  C   UNL A   1      36.880  33.812  29.073  1.00  0.00     0.010 A 
ATOM     38  C   UNL A   1      36.864  32.980  30.201  1.00  0.00    -0.014 A 
BRANCH  38  39
ATOM     39  C   UNL A   1      38.132  32.395  30.702  1.00  0.00     0.031 A 
ATOM     40  C   UNL A   1      38.695  31.144  30.085  1.00  0.00     0.074 A 
ATOM     41  C   UNL A   1      38.743  32.956  31.764  1.00  0.00     0.049 A 
ATOM     42  N   UNL A   1      39.750  30.453  30.437  1.00  0.00    -0.248 NA
ATOM     43  C   UNL A   1      37.964  30.583  28.938  1.00  0.00     0.031 C 
ATOM     44  C   UNL A   1      38.279  34.148  32.475  1.00  0.00     0.029 A 
ATOM     45  N   UNL A   1      39.882  32.589  32.436  1.00  0.00    -0.354 N 
ATOM     46  C   UNL A   1      39.799  29.369  29.569  1.00  0.00     0.074 A 
ATOM     47  C   UNL A   1      38.648  29.473  28.699  1.00  0.00     0.031 C 
ATOM     48  C   UNL A   1      39.136  34.427  33.470  1.00  0.00     0.029 A 
ATOM     49  C   UNL A   1      40.186  33.414  33.491  1.00  0.00     0.049 A 
ATOM     50  H   UNL A   1      40.429  31.810  32.186  1.00  0.00     0.167 HD
ATOM     51  C   UNL A   1      40.726  28.385  29.495  1.00  0.00     0.031 A 
ATOM     52  C   UNL A   1      41.192  33.357  34.384  1.00  0.00     0.031 A 
ATOM     53  C   UNL A   1      41.878  28.287  30.352  1.00  0.00     0.049 A 
ATOM     54  C   UNL A   1      42.201  32.251  34.283  1.00  0.00     0.074 A 
ATOM     55  C   UNL A   1      42.905  27.360  30.316  1.00  0.00     0.029 A 
ATOM     56  N   UNL A   1      42.155  29.148  31.402  1.00  0.00    -0.354 N 
ATOM     57  N   UNL A   1      42.267  31.269  33.417  1.00  0.00    -0.248 NA
ATOM     58  C   UNL A   1      43.282  32.251  35.280  1.00  0.00     0.031 C 
ATOM     59  C   UNL A   1      43.780  27.633  31.372  1.00  0.00     0.029 A 
ATOM     60  C   UNL A   1      43.323  28.761  32.035  1.00  0.00     0.049 A 
ATOM     61  H   UNL A   1      41.602  29.921  31.659  1.00  0.00     0.167 HD
ATOM     62  C   UNL A   1      43.406  30.547  33.750  1.00  0.00     0.074 A 
ATOM     63  C   UNL A   1      44.010  31.215  34.885  1.00  0.00     0.031 C 
ATOM     64  C   UNL A   1      43.907  29.432  33.167  1.00  0.00     0.031 A 
BRANCH  51  65
ATOM     65  C   UNL A   1      40.526  27.322  28.450  1.00  0.00    -0.014 A 
ATOM     66  C   UNL A   1      41.112  27.433  27.179  1.00  0.00     0.009 A 
ATOM     67  C   UNL A   1      39.776  26.175  28.753  1.00  0.00     0.009 A 
ATOM     68  C   UNL A   1      40.922  26.434  26.222  1.00  0.00     0.001 A 
ATOM     69  C   UNL A   1      39.608  25.166  27.803  1.00  0.00     0.001 A 
ATOM     70  C   UNL A   1      40.174  25.300  26.536  1.00  0.00     0.000 A 
ENDBRANCH  51  65
BRANCH  52  71
ATOM     71  C   UNL A   1      41.299  34.389  35.447  1.00  0.00    -0.014 A 
ATOM     72  C   UNL A   1      42.048  35.556  35.230  1.00  0.00     0.009 A 
ATOM     73  C   UNL A   1      40.653  34.215  36.680  1.00  0.00     0.009 A 
ATOM     74  C   UNL A   1      42.166  36.517  36.236  1.00  0.00     0.001 A 
ATOM     75  C   UNL A   1      40.752  35.190  37.674  1.00  0.00     0.001 A 
ATOM     76  C   UNL A   1      41.515  36.336  37.454  1.00  0.00     0.000 A 
ENDBRANCH  52  71
BRANCH  64  77
ATOM     77  C   UNL A   1      45.183  28.880  33.733  1.00  0.00    -0.014 A 
ATOM     78  C   UNL A   1      45.169  27.903  34.738  1.00  0.00     0.009 A 
ATOM     79  C   UNL A   1      46.416  29.323  33.228  1.00  0.00     0.009 A 
ATOM     80  C   UNL A   1      46.367  27.401  35.252  1.00  0.00     0.001 A 
ATOM     81  C   UNL A   1      47.611  28.802  33.725  1.00  0.00     0.001 A 
ATOM     82  C   UNL A   1      47.587  27.849  34.742  1.00  0.00     0.000 A 
ENDBRANCH  64  77
ENDBRANCH  38  39
ENDBRANCH  30  33
ENDBRANCH  28  29
ENDBRANCH   1  28
TORSDOF 12
ENDMDL
