MODEL 1
REMARK VINA RESULT:     -11.4      0.000      0.000
REMARK SMILES O=C(NCCCNC(=O)c1cc(S(=O)(=O)Nc2cccc(Cl)c2)ccc1O)c1ccc(-c2c3nc(c(-c4ccccc4)c4ccc([nH]4)c(-c4ccccc4)c4nc(c(-c5ccccc5)c5ccc2[nH]5)C=C4)C=C3)cc1
REMARK SMILES IDX 5 1 4 2 3 3 1 4 2 5 28 7 29 8 75 9 30 10 74 11 31 12 32 13
REMARK SMILES IDX 33 14 68 15 34 16 73 17 67 18 69 19 35 20 72 21 66 22 65 23
REMARK SMILES IDX 36 25 58 26 43 27 57 28 44 29 47 30 56 31 70 32 45 33 46 34
REMARK SMILES IDX 55 36 71 37 48 38 37 39 38 40 42 41 39 42 41 43 40 44 59 45
REMARK SMILES IDX 60 46 64 47 61 48 63 49 62 50 49 51 50 52 54 53 51 54 53 55
REMARK SMILES IDX 52 56 6 57 7 58 8 59 9 61 10 62 11 63 26 64 12 65 25 66
REMARK SMILES IDX 24 67 27 68 13 70 14 71 15 72 16 73 17 75 18 76 23 77 19 78
REMARK SMILES IDX 21 79 20 80 22 81
REMARK H PARENT 3 6 69 24 47 35 7 60 27 69 16 74
REMARK Flexibility Score: inf
ROOT
ATOM      1  C   UNL A   1      34.064  28.683  25.742  1.00  0.00     0.042 C 
ENDROOT
BRANCH   1   2
ATOM      2  C   UNL A   1      33.926  28.644  27.250  1.00  0.00     0.118 C 
BRANCH   2   3
ATOM      3  N   UNL A   1      33.849  29.976  27.845  1.00  0.00    -0.352 N 
ATOM      4  O   UNL A   1      34.444  31.733  29.127  1.00  0.00    -0.269 OA
ATOM      5  C   UNL A   1      34.778  30.695  28.562  1.00  0.00     0.251 C 
ATOM      6  H   UNL A   1      32.990  30.437  27.708  1.00  0.00     0.163 HD
BRANCH   5   7
ATOM      7  C   UNL A   1      36.169  30.207  28.679  1.00  0.00     0.039 A 
ATOM      8  C   UNL A   1      37.055  30.354  27.617  1.00  0.00     0.014 A 
ATOM      9  C   UNL A   1      36.598  29.595  29.861  1.00  0.00     0.014 A 
ATOM     10  C   UNL A   1      38.274  29.698  27.642  1.00  0.00     0.010 A 
ATOM     11  C   UNL A   1      37.892  29.067  29.943  1.00  0.00     0.010 A 
ATOM     12  C   UNL A   1      38.728  29.077  28.817  1.00  0.00    -0.014 A 
BRANCH  12  13
ATOM     13  C   UNL A   1      40.111  28.537  28.826  1.00  0.00     0.031 A 
ATOM     14  C   UNL A   1      40.411  27.115  28.442  1.00  0.00     0.074 A 
ATOM     15  C   UNL A   1      41.118  29.391  29.104  1.00  0.00     0.049 A 
ATOM     16  N   UNL A   1      41.579  26.537  28.301  1.00  0.00    -0.248 NA
ATOM     17  C   UNL A   1      39.267  26.225  28.192  1.00  0.00     0.031 C 
ATOM     18  C   UNL A   1      40.946  30.793  29.506  1.00  0.00     0.029 A 
ATOM     19  N   UNL A   1      42.477  29.233  29.037  1.00  0.00    -0.354 N 
ATOM     20  C   UNL A   1      41.312  25.217  27.960  1.00  0.00     0.074 A 
ATOM     21  C   UNL A   1      39.872  25.069  27.944  1.00  0.00     0.031 C 
ATOM     22  C   UNL A   1      42.145  31.386  29.561  1.00  0.00     0.029 A 
ATOM     23  C   UNL A   1      43.173  30.391  29.285  1.00  0.00     0.049 A 
ATOM     24  H   UNL A   1      42.912  28.374  28.834  1.00  0.00     0.167 HD
ATOM     25  C   UNL A   1      42.188  24.222  27.679  1.00  0.00     0.031 A 
ATOM     26  C   UNL A   1      44.496  30.633  29.303  1.00  0.00     0.031 A 
ATOM     27  C   UNL A   1      43.620  24.372  27.700  1.00  0.00     0.049 A 
ATOM     28  C   UNL A   1      45.438  29.508  29.002  1.00  0.00     0.074 A 
ATOM     29  C   UNL A   1      44.592  23.422  27.429  1.00  0.00     0.029 A 
ATOM     30  N   UNL A   1      44.289  25.548  28.006  1.00  0.00    -0.354 N 
ATOM     31  N   UNL A   1      45.163  28.271  28.669  1.00  0.00    -0.248 NA
ATOM     32  C   UNL A   1      46.871  29.813  29.081  1.00  0.00     0.031 C 
ATOM     33  C   UNL A   1      45.847  24.012  27.617  1.00  0.00     0.029 A 
ATOM     34  C   UNL A   1      45.658  25.343  27.948  1.00  0.00     0.049 A 
ATOM     35  H   UNL A   1      43.854  26.402  28.231  1.00  0.00     0.167 HD
ATOM     36  C   UNL A   1      46.390  27.648  28.496  1.00  0.00     0.074 A 
ATOM     37  C   UNL A   1      47.407  28.656  28.720  1.00  0.00     0.031 C 
ATOM     38  C   UNL A   1      46.653  26.355  28.191  1.00  0.00     0.031 A 
BRANCH  25  39
ATOM     39  C   UNL A   1      41.623  22.869  27.340  1.00  0.00    -0.014 A 
ATOM     40  C   UNL A   1      41.099  22.596  26.066  1.00  0.00     0.009 A 
ATOM     41  C   UNL A   1      41.670  21.835  28.289  1.00  0.00     0.009 A 
ATOM     42  C   UNL A   1      40.613  21.323  25.758  1.00  0.00     0.001 A 
ATOM     43  C   UNL A   1      41.206  20.557  27.970  1.00  0.00     0.001 A 
ATOM     44  C   UNL A   1      40.673  20.304  26.707  1.00  0.00     0.000 A 
ENDBRANCH  25  39
BRANCH  26  45
ATOM     45  C   UNL A   1      44.997  31.987  29.654  1.00  0.00    -0.014 A 
ATOM     46  C   UNL A   1      45.207  32.959  28.665  1.00  0.00     0.009 A 
ATOM     47  C   UNL A   1      45.262  32.313  30.994  1.00  0.00     0.009 A 
ATOM     48  C   UNL A   1      45.698  34.221  29.010  1.00  0.00     0.001 A 
ATOM     49  C   UNL A   1      45.717  33.586  31.340  1.00  0.00     0.001 A 
ATOM     50  C   UNL A   1      45.946  34.534  30.345  1.00  0.00     0.000 A 
ENDBRANCH  26  45
BRANCH  38  51
ATOM     51  C   UNL A   1      48.102  25.975  28.073  1.00  0.00    -0.014 A 
ATOM     52  C   UNL A   1      48.758  25.989  26.832  1.00  0.00     0.009 A 
ATOM     53  C   UNL A   1      48.818  25.596  29.219  1.00  0.00     0.009 A 
ATOM     54  C   UNL A   1      50.089  25.583  26.732  1.00  0.00     0.001 A 
ATOM     55  C   UNL A   1      50.158  25.221  29.121  1.00  0.00     0.001 A 
ATOM     56  C   UNL A   1      50.788  25.201  27.877  1.00  0.00     0.000 A 
ENDBRANCH  38  51
ENDBRANCH  12  13
ENDBRANCH   5   7
ENDBRANCH   2   3
ENDBRANCH   1   2
BRANCH   1  57
ATOM     57  C   UNL A   1      33.639  27.391  25.078  1.00  0.00     0.118 C 
BRANCH  57  58
ATOM     58  N   UNL A   1      32.379  27.503  24.350  1.00  0.00    -0.352 N 
ATOM     59  C   UNL A   1      31.705  26.551  23.617  1.00  0.00     0.255 C 
ATOM     60  H   UNL A   1      31.948  28.388  24.389  1.00  0.00     0.163 HD
ATOM     61  O   UNL A   1      30.679  26.846  23.010  1.00  0.00    -0.269 OA
BRANCH  59  62
ATOM     62  C   UNL A   1      32.296  25.205  23.466  1.00  0.00     0.082 A 
ATOM     63  C   UNL A   1      31.925  24.220  24.386  1.00  0.00     0.040 A 
ATOM     64  C   UNL A   1      33.098  24.867  22.375  1.00  0.00     0.128 A 
ATOM     65  C   UNL A   1      32.184  22.874  24.099  1.00  0.00     0.088 A 
ATOM     66  C   UNL A   1      33.250  23.532  22.029  1.00  0.00     0.048 A 
ATOM     67  C   UNL A   1      32.708  22.544  22.852  1.00  0.00     0.026 A 
BRANCH  64  68
ATOM     68  O   UNL A   1      33.653  25.841  21.593  1.00  0.00    -0.507 OA
ATOM     69  H   UNL A   1      34.029  25.619  20.764  1.00  0.00     0.293 HD
ENDBRANCH  64  68
BRANCH  65  70
ATOM     70  S   UNL A   1      31.829  21.695  25.381  1.00  0.00     0.261 S 
ATOM     71  O   UNL A   1      30.680  22.206  26.100  1.00  0.00    -0.201 OA
ATOM     72  O   UNL A   1      31.778  20.402  24.729  1.00  0.00    -0.201 OA
BRANCH  70  73
ATOM     73  N   UNL A   1      33.058  21.542  26.540  1.00  0.00    -0.280 N 
ATOM     74  H   UNL A   1      32.813  21.216  27.435  1.00  0.00     0.180 HD
BRANCH  73  75
ATOM     75  C   UNL A   1      34.421  21.860  26.291  1.00  0.00     0.050 A 
ATOM     76  C   UNL A   1      34.924  23.143  26.514  1.00  0.00     0.027 A 
ATOM     77  C   UNL A   1      35.242  20.868  25.744  1.00  0.00     0.047 A 
ATOM     78  C   UNL A   1      36.226  23.457  26.110  1.00  0.00     0.004 A 
ATOM     79  C   UNL A   1      36.543  21.185  25.356  1.00  0.00     0.043 A 
ATOM     80  C   UNL A   1      37.032  22.480  25.519  1.00  0.00     0.020 A 
ATOM     81  Cl  UNL A   1      37.530  19.982  24.624  1.00  0.00    -0.084 Cl
ENDBRANCH  73  75
ENDBRANCH  70  73
ENDBRANCH  65  70
ENDBRANCH  59  62
ENDBRANCH  57  58
ENDBRANCH   1  57
TORSDOF 14
ENDMDL
MODEL 2
REMARK VINA RESULT:     -11.2      2.379      7.749
REMARK SMILES O=C(NCCCNC(=O)c1cc(S(=O)(=O)Nc2cccc(Cl)c2)ccc1O)c1ccc(-c2c3nc(c(-c4ccccc4)c4ccc([nH]4)c(-c4ccccc4)c4nc(c(-c5ccccc5)c5ccc2[nH]5)C=C4)C=C3)cc1
REMARK SMILES IDX 5 1 4 2 3 3 1 4 2 5 28 7 29 8 75 9 30 10 74 11 31 12 32 13
REMARK SMILES IDX 33 14 68 15 34 16 73 17 67 18 69 19 35 20 72 21 66 22 65 23
REMARK SMILES IDX 36 25 58 26 43 27 57 28 44 29 47 30 56 31 70 32 45 33 46 34
REMARK SMILES IDX 55 36 71 37 48 38 37 39 38 40 42 41 39 42 41 43 40 44 59 45
REMARK SMILES IDX 60 46 64 47 61 48 63 49 62 50 49 51 50 52 54 53 51 54 53 55
REMARK SMILES IDX 52 56 6 57 7 58 8 59 9 61 10 62 11 63 26 64 12 65 25 66
REMARK SMILES IDX 24 67 27 68 13 70 14 71 15 72 16 73 17 75 18 76 23 77 19 78
REMARK SMILES IDX 21 79 20 80 22 81
REMARK H PARENT 3 6 69 24 47 35 7 60 27 69 16 74
REMARK Flexibility Score: inf
ROOT
ATOM      1  C   UNL A   1      37.639  19.914  24.870  1.00  0.00     0.042 C 
ENDROOT
BRANCH   1   2
ATOM      2  C   UNL A   1      38.777  20.381  25.754  1.00  0.00     0.118 C 
BRANCH   2   3
ATOM      3  N   UNL A   1      39.917  19.467  25.739  1.00  0.00    -0.352 N 
ATOM      4  O   UNL A   1      42.073  18.810  25.764  1.00  0.00    -0.269 OA
ATOM      5  C   UNL A   1      41.247  19.684  26.011  1.00  0.00     0.251 C 
ATOM      6  H   UNL A   1      39.694  18.540  25.493  1.00  0.00     0.163 HD
BRANCH   5   7
ATOM      7  C   UNL A   1      41.689  20.978  26.575  1.00  0.00     0.039 A 
ATOM      8  C   UNL A   1      41.688  21.182  27.951  1.00  0.00     0.014 A 
ATOM      9  C   UNL A   1      42.114  22.003  25.723  1.00  0.00     0.014 A 
ATOM     10  C   UNL A   1      41.880  22.454  28.458  1.00  0.00     0.010 A 
ATOM     11  C   UNL A   1      42.461  23.251  26.253  1.00  0.00     0.010 A 
ATOM     12  C   UNL A   1      42.306  23.501  27.624  1.00  0.00    -0.014 A 
BRANCH  12  13
ATOM     13  C   UNL A   1      42.653  24.797  28.259  1.00  0.00     0.031 A 
ATOM     14  C   UNL A   1      44.073  25.169  28.580  1.00  0.00     0.074 A 
ATOM     15  C   UNL A   1      41.658  25.685  28.459  1.00  0.00     0.049 A 
ATOM     16  N   UNL A   1      44.537  26.308  29.035  1.00  0.00    -0.248 NA
ATOM     17  C   UNL A   1      45.106  24.141  28.376  1.00  0.00     0.031 C 
ATOM     18  C   UNL A   1      40.236  25.430  28.200  1.00  0.00     0.029 A 
ATOM     19  N   UNL A   1      41.686  26.992  28.869  1.00  0.00    -0.354 N 
ATOM     20  C   UNL A   1      45.905  26.131  29.185  1.00  0.00     0.074 A 
ATOM     21  C   UNL A   1      46.198  24.765  28.802  1.00  0.00     0.031 C 
ATOM     22  C   UNL A   1      39.545  26.565  28.368  1.00  0.00     0.029 A 
ATOM     23  C   UNL A   1      40.456  27.603  28.831  1.00  0.00     0.049 A 
ATOM     24  H   UNL A   1      42.507  27.449  29.164  1.00  0.00     0.167 HD
ATOM     25  C   UNL A   1      46.835  27.026  29.598  1.00  0.00     0.031 A 
ATOM     26  C   UNL A   1      40.089  28.858  29.144  1.00  0.00     0.031 A 
ATOM     27  C   UNL A   1      46.539  28.383  29.983  1.00  0.00     0.049 A 
ATOM     28  C   UNL A   1      41.138  29.820  29.611  1.00  0.00     0.074 A 
ATOM     29  C   UNL A   1      47.413  29.367  30.416  1.00  0.00     0.029 A 
ATOM     30  N   UNL A   1      45.273  28.949  29.980  1.00  0.00    -0.354 N 
ATOM     31  N   UNL A   1      42.430  29.635  29.732  1.00  0.00    -0.248 NA
ATOM     32  C   UNL A   1      40.678  31.162  29.985  1.00  0.00     0.031 C 
ATOM     33  C   UNL A   1      46.669  30.513  30.717  1.00  0.00     0.029 A 
ATOM     34  C   UNL A   1      45.340  30.261  30.419  1.00  0.00     0.049 A 
ATOM     35  H   UNL A   1      44.449  28.486  29.706  1.00  0.00     0.167 HD
ATOM     36  C   UNL A   1      42.939  30.839  30.195  1.00  0.00     0.074 A 
ATOM     37  C   UNL A   1      41.822  31.757  30.291  1.00  0.00     0.031 C 
ATOM     38  C   UNL A   1      44.215  31.153  30.524  1.00  0.00     0.031 A 
BRANCH  25  39
ATOM     39  C   UNL A   1      48.265  26.565  29.674  1.00  0.00    -0.014 A 
ATOM     40  C   UNL A   1      48.757  25.900  30.809  1.00  0.00     0.009 A 
ATOM     41  C   UNL A   1      49.116  26.745  28.572  1.00  0.00     0.009 A 
ATOM     42  C   UNL A   1      50.078  25.445  30.846  1.00  0.00     0.001 A 
ATOM     43  C   UNL A   1      50.429  26.267  28.603  1.00  0.00     0.001 A 
ATOM     44  C   UNL A   1      50.910  25.624  29.741  1.00  0.00     0.000 A 
ENDBRANCH  25  39
BRANCH  26  45
ATOM     45  C   UNL A   1      38.660  29.255  29.059  1.00  0.00    -0.014 A 
ATOM     46  C   UNL A   1      37.811  29.147  30.170  1.00  0.00     0.009 A 
ATOM     47  C   UNL A   1      38.139  29.753  27.853  1.00  0.00     0.009 A 
ATOM     48  C   UNL A   1      36.465  29.505  30.066  1.00  0.00     0.001 A 
ATOM     49  C   UNL A   1      36.803  30.146  27.763  1.00  0.00     0.001 A 
ATOM     50  C   UNL A   1      35.965  30.009  28.867  1.00  0.00     0.000 A 
ENDBRANCH  26  45
BRANCH  38  51
ATOM     51  C   UNL A   1      44.457  32.556  31.004  1.00  0.00    -0.014 A 
ATOM     52  C   UNL A   1      44.736  33.594  30.101  1.00  0.00     0.009 A 
ATOM     53  C   UNL A   1      44.408  32.841  32.377  1.00  0.00     0.009 A 
ATOM     54  C   UNL A   1      45.011  34.880  30.568  1.00  0.00     0.001 A 
ATOM     55  C   UNL A   1      44.651  34.134  32.838  1.00  0.00     0.001 A 
ATOM     56  C   UNL A   1      44.966  35.150  31.935  1.00  0.00     0.000 A 
ENDBRANCH  38  51
ENDBRANCH  12  13
ENDBRANCH   5   7
ENDBRANCH   2   3
ENDBRANCH   1   2
BRANCH   1  57
ATOM     57  C   UNL A   1      36.488  20.896  24.821  1.00  0.00     0.118 C 
BRANCH  57  58
ATOM     58  N   UNL A   1      35.833  21.083  26.112  1.00  0.00    -0.352 N 
ATOM     59  C   UNL A   1      34.504  21.316  26.392  1.00  0.00     0.255 C 
ATOM     60  H   UNL A   1      36.427  21.036  26.896  1.00  0.00     0.163 HD
ATOM     61  O   UNL A   1      34.140  21.517  27.547  1.00  0.00    -0.269 OA
BRANCH  59  62
ATOM     62  C   UNL A   1      33.544  21.446  25.277  1.00  0.00     0.082 A 
ATOM     63  C   UNL A   1      33.598  22.607  24.499  1.00  0.00     0.040 A 
ATOM     64  C   UNL A   1      32.690  20.405  24.909  1.00  0.00     0.128 A 
ATOM     65  C   UNL A   1      32.957  22.635  23.255  1.00  0.00     0.088 A 
ATOM     66  C   UNL A   1      32.155  20.384  23.630  1.00  0.00     0.048 A 
ATOM     67  C   UNL A   1      32.373  21.466  22.776  1.00  0.00     0.026 A 
BRANCH  64  68
ATOM     68  O   UNL A   1      32.455  19.365  25.764  1.00  0.00    -0.507 OA
ATOM     69  H   UNL A   1      31.983  19.510  26.560  1.00  0.00     0.293 HD
ENDBRANCH  64  68
BRANCH  65  70
ATOM     70  S   UNL A   1      32.935  24.192  22.397  1.00  0.00     0.261 S 
ATOM     71  O   UNL A   1      33.373  23.920  21.044  1.00  0.00    -0.201 OA
ATOM     72  O   UNL A   1      31.628  24.765  22.649  1.00  0.00    -0.201 OA
BRANCH  70  73
ATOM     73  N   UNL A   1      34.028  25.334  23.008  1.00  0.00    -0.280 N 
ATOM     74  H   UNL A   1      34.982  25.093  23.040  1.00  0.00     0.180 HD
BRANCH  73  75
ATOM     75  C   UNL A   1      33.646  26.620  23.479  1.00  0.00     0.050 A 
ATOM     76  C   UNL A   1      33.429  27.683  22.602  1.00  0.00     0.027 A 
ATOM     77  C   UNL A   1      33.562  26.820  24.862  1.00  0.00     0.047 A 
ATOM     78  C   UNL A   1      33.208  28.968  23.111  1.00  0.00     0.004 A 
ATOM     79  C   UNL A   1      33.330  28.100  25.361  1.00  0.00     0.043 A 
ATOM     80  C   UNL A   1      33.172  29.178  24.492  1.00  0.00     0.020 A 
ATOM     81  Cl  UNL A   1      33.291  28.356  27.062  1.00  0.00    -0.084 Cl
ENDBRANCH  73  75
ENDBRANCH  70  73
ENDBRANCH  65  70
ENDBRANCH  59  62
ENDBRANCH  57  58
ENDBRANCH   1  57
TORSDOF 14
ENDMDL
MODEL 3
REMARK VINA RESULT:     -11.2      4.526      8.240
REMARK SMILES O=C(NCCCNC(=O)c1cc(S(=O)(=O)Nc2cccc(Cl)c2)ccc1O)c1ccc(-c2c3nc(c(-c4ccccc4)c4ccc([nH]4)c(-c4ccccc4)c4nc(c(-c5ccccc5)c5ccc2[nH]5)C=C4)C=C3)cc1
REMARK SMILES IDX 5 1 4 2 3 3 1 4 2 5 28 7 29 8 75 9 30 10 74 11 31 12 32 13
REMARK SMILES IDX 33 14 68 15 34 16 73 17 67 18 69 19 35 20 72 21 66 22 65 23
REMARK SMILES IDX 36 25 58 26 43 27 57 28 44 29 47 30 56 31 70 32 45 33 46 34
REMARK SMILES IDX 55 36 71 37 48 38 37 39 38 40 42 41 39 42 41 43 40 44 59 45
REMARK SMILES IDX 60 46 64 47 61 48 63 49 62 50 49 51 50 52 54 53 51 54 53 55
REMARK SMILES IDX 52 56 6 57 7 58 8 59 9 61 10 62 11 63 26 64 12 65 25 66
REMARK SMILES IDX 24 67 27 68 13 70 14 71 15 72 16 73 17 75 18 76 23 77 19 78
REMARK SMILES IDX 21 79 20 80 22 81
REMARK H PARENT 3 6 69 24 47 35 7 60 27 69 16 74
REMARK Flexibility Score: inf
ROOT
ATOM      1  C   UNL A   1      30.979  31.790  26.697  1.00  0.00     0.042 C 
ENDROOT
BRANCH   1   2
ATOM      2  C   UNL A   1      32.315  32.480  26.879  1.00  0.00     0.118 C 
BRANCH   2   3
ATOM      3  N   UNL A   1      32.185  33.826  27.433  1.00  0.00    -0.352 N 
ATOM      4  O   UNL A   1      32.559  35.563  28.820  1.00  0.00    -0.269 OA
ATOM      5  C   UNL A   1      32.951  34.494  28.360  1.00  0.00     0.251 C 
ATOM      6  H   UNL A   1      31.424  34.341  27.082  1.00  0.00     0.163 HD
BRANCH   5   7
ATOM      7  C   UNL A   1      34.229  33.915  28.827  1.00  0.00     0.039 A 
ATOM      8  C   UNL A   1      34.233  32.886  29.763  1.00  0.00     0.014 A 
ATOM      9  C   UNL A   1      35.441  34.400  28.325  1.00  0.00     0.014 A 
ATOM     10  C   UNL A   1      35.420  32.507  30.364  1.00  0.00     0.010 A 
ATOM     11  C   UNL A   1      36.651  33.903  28.824  1.00  0.00     0.010 A 
ATOM     12  C   UNL A   1      36.651  32.981  29.879  1.00  0.00    -0.014 A 
BRANCH  12  13
ATOM     13  C   UNL A   1      37.892  32.408  30.460  1.00  0.00     0.031 A 
ATOM     14  C   UNL A   1      38.462  32.902  31.759  1.00  0.00     0.074 A 
ATOM     15  C   UNL A   1      38.454  31.357  29.829  1.00  0.00     0.049 A 
ATOM     16  N   UNL A   1      39.476  32.426  32.440  1.00  0.00    -0.248 NA
ATOM     17  C   UNL A   1      37.827  34.078  32.375  1.00  0.00     0.031 C 
ATOM     18  C   UNL A   1      37.997  30.799  28.550  1.00  0.00     0.029 A 
ATOM     19  N   UNL A   1      39.486  30.534  30.195  1.00  0.00    -0.354 N 
ATOM     20  C   UNL A   1      39.610  33.248  33.551  1.00  0.00     0.074 A 
ATOM     21  C   UNL A   1      38.593  34.273  33.441  1.00  0.00     0.031 C 
ATOM     22  C   UNL A   1      38.682  29.679  28.286  1.00  0.00     0.029 A 
ATOM     23  C   UNL A   1      39.683  29.487  29.327  1.00  0.00     0.049 A 
ATOM     24  H   UNL A   1      40.034  30.679  31.000  1.00  0.00     0.167 HD
ATOM     25  C   UNL A   1      40.496  33.153  34.572  1.00  0.00     0.031 A 
ATOM     26  C   UNL A   1      40.578  28.484  29.352  1.00  0.00     0.031 A 
ATOM     27  C   UNL A   1      41.509  32.135  34.675  1.00  0.00     0.049 A 
ATOM     28  C   UNL A   1      41.552  28.415  30.487  1.00  0.00     0.074 A 
ATOM     29  C   UNL A   1      42.454  31.954  35.673  1.00  0.00     0.029 A 
ATOM     30  N   UNL A   1      41.710  31.121  33.750  1.00  0.00    -0.354 N 
ATOM     31  N   UNL A   1      41.652  29.196  31.535  1.00  0.00    -0.248 NA
ATOM     32  C   UNL A   1      42.537  27.328  30.442  1.00  0.00     0.031 C 
ATOM     33  C   UNL A   1      43.254  30.860  35.327  1.00  0.00     0.029 A 
ATOM     34  C   UNL A   1      42.773  30.324  34.144  1.00  0.00     0.049 A 
ATOM     35  H   UNL A   1      41.177  30.989  32.933  1.00  0.00     0.167 HD
ATOM     36  C   UNL A   1      42.711  28.693  32.277  1.00  0.00     0.074 A 
ATOM     37  C   UNL A   1      43.191  27.517  31.579  1.00  0.00     0.031 C 
ATOM     38  C   UNL A   1      43.247  29.169  33.427  1.00  0.00     0.031 A 
BRANCH  25  39
ATOM     39  C   UNL A   1      40.423  34.191  35.659  1.00  0.00    -0.014 A 
ATOM     40  C   UNL A   1      41.113  35.410  35.551  1.00  0.00     0.009 A 
ATOM     41  C   UNL A   1      39.605  33.973  36.779  1.00  0.00     0.009 A 
ATOM     42  C   UNL A   1      41.004  36.377  36.553  1.00  0.00     0.001 A 
ATOM     43  C   UNL A   1      39.478  34.952  37.768  1.00  0.00     0.001 A 
ATOM     44  C   UNL A   1      40.182  36.149  37.657  1.00  0.00     0.000 A 
ENDBRANCH  25  39
BRANCH  26  45
ATOM     45  C   UNL A   1      40.609  27.492  28.246  1.00  0.00    -0.014 A 
ATOM     46  C   UNL A   1      39.899  26.286  28.335  1.00  0.00     0.009 A 
ATOM     47  C   UNL A   1      41.354  27.757  27.084  1.00  0.00     0.009 A 
ATOM     48  C   UNL A   1      39.957  25.356  27.294  1.00  0.00     0.001 A 
ATOM     49  C   UNL A   1      41.378  26.843  26.031  1.00  0.00     0.001 A 
ATOM     50  C   UNL A   1      40.690  25.637  26.143  1.00  0.00     0.000 A 
ENDBRANCH  26  45
BRANCH  38  51
ATOM     51  C   UNL A   1      44.404  28.399  33.996  1.00  0.00    -0.014 A 
ATOM     52  C   UNL A   1      44.199  27.337  34.891  1.00  0.00     0.009 A 
ATOM     53  C   UNL A   1      45.715  28.744  33.634  1.00  0.00     0.009 A 
ATOM     54  C   UNL A   1      45.288  26.666  35.451  1.00  0.00     0.001 A 
ATOM     55  C   UNL A   1      46.800  28.051  34.172  1.00  0.00     0.001 A 
ATOM     56  C   UNL A   1      46.587  27.023  35.089  1.00  0.00     0.000 A 
ENDBRANCH  38  51
ENDBRANCH  12  13
ENDBRANCH   5   7
ENDBRANCH   2   3
ENDBRANCH   1   2
BRANCH   1  57
ATOM     57  C   UNL A   1      30.843  31.114  25.350  1.00  0.00     0.118 C 
BRANCH  57  58
ATOM     58  N   UNL A   1      29.940  31.815  24.441  1.00  0.00    -0.352 N 
ATOM     59  C   UNL A   1      29.153  31.311  23.429  1.00  0.00     0.255 C 
ATOM     60  H   UNL A   1      29.887  32.790  24.570  1.00  0.00     0.163 HD
ATOM     61  O   UNL A   1      28.501  32.067  22.715  1.00  0.00    -0.269 OA
BRANCH  59  62
ATOM     62  C   UNL A   1      29.200  29.864  23.132  1.00  0.00     0.082 A 
ATOM     63  C   UNL A   1      30.457  29.265  22.997  1.00  0.00     0.040 A 
ATOM     64  C   UNL A   1      28.050  29.075  23.111  1.00  0.00     0.128 A 
ATOM     65  C   UNL A   1      30.564  27.869  23.050  1.00  0.00     0.088 A 
ATOM     66  C   UNL A   1      28.163  27.703  23.284  1.00  0.00     0.048 A 
ATOM     67  C   UNL A   1      29.429  27.120  23.345  1.00  0.00     0.026 A 
BRANCH  64  68
ATOM     68  O   UNL A   1      26.814  29.650  23.017  1.00  0.00    -0.507 OA
ATOM     69  H   UNL A   1      26.355  29.645  22.201  1.00  0.00     0.293 HD
ENDBRANCH  64  68
BRANCH  65  70
ATOM     70  S   UNL A   1      32.166  27.174  22.713  1.00  0.00     0.261 S 
ATOM     71  O   UNL A   1      31.939  25.996  21.903  1.00  0.00    -0.201 OA
ATOM     72  O   UNL A   1      32.977  28.268  22.217  1.00  0.00    -0.201 OA
BRANCH  70  73
ATOM     73  N   UNL A   1      32.985  26.626  24.093  1.00  0.00    -0.280 N 
ATOM     74  H   UNL A   1      33.576  25.843  24.002  1.00  0.00     0.180 HD
BRANCH  73  75
ATOM     75  C   UNL A   1      32.868  27.231  25.374  1.00  0.00     0.050 A 
ATOM     76  C   UNL A   1      31.762  26.996  26.193  1.00  0.00     0.027 A 
ATOM     77  C   UNL A   1      33.859  28.135  25.772  1.00  0.00     0.047 A 
ATOM     78  C   UNL A   1      31.607  27.729  27.375  1.00  0.00     0.004 A 
ATOM     79  C   UNL A   1      33.703  28.852  26.957  1.00  0.00     0.043 A 
ATOM     80  C   UNL A   1      32.572  28.668  27.750  1.00  0.00     0.020 A 
ATOM     81  Cl  UNL A   1      34.891  30.010  27.412  1.00  0.00    -0.084 Cl
ENDBRANCH  73  75
ENDBRANCH  70  73
ENDBRANCH  65  70
ENDBRANCH  59  62
ENDBRANCH  57  58
ENDBRANCH   1  57
TORSDOF 14
ENDMDL
