MODEL 1
REMARK VINA RESULT:     -12.1      0.000      0.000
REMARK SMILES CC(=O)NS(=O)(=O)c1ccc(-c2ccn(C(F)F)c(=O)c2)cc1C(=O)NCCCNC(=O)c1ccc(-c2c3nc(c(-c4ccccc4)c4ccc([nH]4)c(-c4ccccc4)c4nc(c(-c5ccccc5)c5ccc2[nH]5)C=C4)C=C3)cc1
REMARK SMILES IDX 28 1 27 2 26 3 24 4 25 5 23 7 8 8 9 9 10 10 22 11 11 12 5 13
REMARK SMILES IDX 6 14 7 15 4 16 1 17 2 18 3 19 12 21 13 22 21 23 14 24 19 25
REMARK SMILES IDX 15 26 20 27 16 28 17 29 18 30 29 31 30 32 31 33 32 35 33 36
REMARK SMILES IDX 34 37 80 38 35 39 79 40 36 41 37 42 38 43 73 44 39 45 78 46
REMARK SMILES IDX 72 47 74 48 40 49 77 50 71 51 70 52 41 54 63 55 48 56 62 57
REMARK SMILES IDX 49 58 52 59 61 60 75 61 50 62 51 63 60 65 76 66 53 67 42 68
REMARK SMILES IDX 43 69 47 70 44 71 46 72 45 73 64 74 65 75 69 76 66 77 68 78
REMARK SMILES IDX 67 79 54 80 55 81 59 82 56 83 58 84 57 85
REMARK H PARENT 26 6 4 20 30 34 74 53 52 64
REMARK Flexibility Score: inf
ROOT
ATOM      1  C   UNL A   1      37.917  23.012  25.960  1.00  0.00     0.042 C 
ENDROOT
BRANCH   1   2
ATOM      2  C   UNL A   1      36.547  23.703  26.016  1.00  0.00     0.118 C 
BRANCH   2   3
ATOM      3  N   UNL A   1      35.564  22.740  26.483  1.00  0.00    -0.352 N 
ATOM      4  C   UNL A   1      34.214  22.798  26.696  1.00  0.00     0.252 C 
ATOM      5  O   UNL A   1      33.727  21.914  27.406  1.00  0.00    -0.269 OA
ATOM      6  H   UNL A   1      35.952  21.858  26.690  1.00  0.00     0.163 HD
BRANCH   4   7
ATOM      7  C   UNL A   1      33.264  23.687  25.969  1.00  0.00     0.060 A 
ATOM      8  C   UNL A   1      32.461  23.429  24.851  1.00  0.00     0.100 A 
ATOM      9  C   UNL A   1      31.648  24.446  24.323  1.00  0.00     0.024 A 
ATOM     10  C   UNL A   1      31.757  25.757  24.781  1.00  0.00     0.010 A 
ATOM     11  C   UNL A   1      33.328  25.025  26.438  1.00  0.00     0.024 A 
ATOM     12  C   UNL A   1      32.628  26.075  25.825  1.00  0.00    -0.017 A 
BRANCH   8  13
ATOM     13  S   UNL A   1      32.631  21.969  23.877  1.00  0.00     0.264 S 
ATOM     14  O   UNL A   1      34.042  21.659  23.836  1.00  0.00    -0.201 OA
ATOM     15  O   UNL A   1      31.815  22.106  22.698  1.00  0.00    -0.201 OA
BRANCH  13  16
ATOM     16  N   UNL A   1      32.027  20.703  24.782  1.00  0.00    -0.249 N 
ATOM     17  C   UNL A   1      32.407  18.640  23.467  1.00  0.00     0.115 C 
ATOM     18  C   UNL A   1      32.478  19.377  24.771  1.00  0.00     0.230 C 
ATOM     19  O   UNL A   1      32.674  18.808  25.836  1.00  0.00    -0.274 OA
ATOM     20  H   UNL A   1      31.278  20.910  25.386  1.00  0.00     0.183 HD
ENDBRANCH  13  16
ENDBRANCH   8  13
BRANCH  12  21
ATOM     21  C   UNL A   1      32.866  27.486  26.217  1.00  0.00    -0.011 A 
ATOM     22  C   UNL A   1      31.789  28.444  26.430  1.00  0.00     0.027 A 
ATOM     23  C   UNL A   1      34.129  27.894  26.431  1.00  0.00     0.080 A 
ATOM     24  C   UNL A   1      32.053  29.696  26.826  1.00  0.00     0.095 A 
ATOM     25  C   UNL A   1      34.437  29.274  26.896  1.00  0.00     0.255 A 
ATOM     26  N   UNL A   1      33.349  30.114  27.054  1.00  0.00    -0.258 N 
ATOM     27  O   UNL A   1      35.608  29.566  27.112  1.00  0.00    -0.269 OA
BRANCH  26  28
ATOM     28  C   UNL A   1      33.625  31.458  27.490  1.00  0.00     0.451 C 
ATOM     29  F   UNL A   1      32.514  32.231  27.414  1.00  0.00    -0.185 F 
ATOM     30  F   UNL A   1      34.059  31.473  28.774  1.00  0.00    -0.185 F 
ENDBRANCH  26  28
ENDBRANCH  12  21
ENDBRANCH   4   7
ENDBRANCH   2   3
ENDBRANCH   1   2
BRANCH   1  31
ATOM     31  C   UNL A   1      38.984  23.666  26.827  1.00  0.00     0.118 C 
BRANCH  31  32
ATOM     32  N   UNL A   1      40.068  24.201  26.012  1.00  0.00    -0.352 N 
ATOM     33  C   UNL A   1      40.689  25.429  26.048  1.00  0.00     0.251 C 
ATOM     34  H   UNL A   1      40.411  23.585  25.326  1.00  0.00     0.163 HD
ATOM     35  O   UNL A   1      41.385  25.772  25.095  1.00  0.00    -0.269 OA
BRANCH  33  36
ATOM     36  C   UNL A   1      40.537  26.346  27.206  1.00  0.00     0.039 A 
ATOM     37  C   UNL A   1      41.216  27.572  27.193  1.00  0.00     0.014 A 
ATOM     38  C   UNL A   1      39.799  25.991  28.336  1.00  0.00     0.014 A 
ATOM     39  C   UNL A   1      41.118  28.445  28.281  1.00  0.00     0.010 A 
ATOM     40  C   UNL A   1      39.621  26.900  29.376  1.00  0.00     0.010 A 
ATOM     41  C   UNL A   1      40.298  28.128  29.375  1.00  0.00    -0.014 A 
BRANCH  41  42
ATOM     42  C   UNL A   1      40.164  29.038  30.544  1.00  0.00     0.031 A 
ATOM     43  C   UNL A   1      39.100  30.104  30.556  1.00  0.00     0.074 A 
ATOM     44  C   UNL A   1      41.046  28.965  31.559  1.00  0.00     0.049 A 
ATOM     45  N   UNL A   1      38.880  31.046  31.440  1.00  0.00    -0.248 NA
ATOM     46  C   UNL A   1      38.186  30.141  29.403  1.00  0.00     0.031 C 
ATOM     47  C   UNL A   1      42.162  28.021  31.648  1.00  0.00     0.029 A 
ATOM     48  N   UNL A   1      41.147  29.711  32.706  1.00  0.00    -0.354 N 
ATOM     49  C   UNL A   1      37.837  31.807  30.928  1.00  0.00     0.074 A 
ATOM     50  C   UNL A   1      37.495  31.245  29.640  1.00  0.00     0.031 C 
ATOM     51  C   UNL A   1      42.822  28.232  32.798  1.00  0.00     0.029 A 
ATOM     52  C   UNL A   1      42.198  29.342  33.510  1.00  0.00     0.049 A 
ATOM     53  H   UNL A   1      40.527  30.442  32.932  1.00  0.00     0.167 HD
ATOM     54  C   UNL A   1      37.204  32.869  31.484  1.00  0.00     0.031 A 
ATOM     55  C   UNL A   1      42.617  29.843  34.688  1.00  0.00     0.031 A 
ATOM     56  C   UNL A   1      37.511  33.403  32.783  1.00  0.00     0.049 A 
ATOM     57  C   UNL A   1      41.871  30.985  35.313  1.00  0.00     0.074 A 
ATOM     58  C   UNL A   1      36.866  34.414  33.476  1.00  0.00     0.029 A 
ATOM     59  N   UNL A   1      38.554  32.969  33.586  1.00  0.00    -0.354 N 
ATOM     60  N   UNL A   1      40.835  31.643  34.854  1.00  0.00    -0.248 NA
ATOM     61  C   UNL A   1      42.345  31.446  36.626  1.00  0.00     0.031 C 
ATOM     62  C   UNL A   1      37.545  34.617  34.683  1.00  0.00     0.029 A 
ATOM     63  C   UNL A   1      38.584  33.705  34.759  1.00  0.00     0.049 A 
ATOM     64  H   UNL A   1      39.180  32.245  33.357  1.00  0.00     0.167 HD
ATOM     65  C   UNL A   1      40.521  32.584  35.826  1.00  0.00     0.074 A 
ATOM     66  C   UNL A   1      41.467  32.399  36.908  1.00  0.00     0.031 C 
ATOM     67  C   UNL A   1      39.537  33.517  35.822  1.00  0.00     0.031 A 
BRANCH  54  68
ATOM     68  C   UNL A   1      36.120  33.524  30.674  1.00  0.00    -0.014 A 
ATOM     69  C   UNL A   1      36.351  33.963  29.361  1.00  0.00     0.009 A 
ATOM     70  C   UNL A   1      34.844  33.701  31.234  1.00  0.00     0.009 A 
ATOM     71  C   UNL A   1      35.343  34.612  28.644  1.00  0.00     0.001 A 
ATOM     72  C   UNL A   1      33.831  34.323  30.504  1.00  0.00     0.001 A 
ATOM     73  C   UNL A   1      34.084  34.790  29.214  1.00  0.00     0.000 A 
ENDBRANCH  54  68
BRANCH  55  74
ATOM     74  C   UNL A   1      43.794  29.238  35.363  1.00  0.00    -0.014 A 
ATOM     75  C   UNL A   1      43.626  28.178  36.265  1.00  0.00     0.009 A 
ATOM     76  C   UNL A   1      45.091  29.693  35.081  1.00  0.00     0.009 A 
ATOM     77  C   UNL A   1      44.733  27.592  36.883  1.00  0.00     0.001 A 
ATOM     78  C   UNL A   1      46.198  29.092  35.683  1.00  0.00     0.001 A 
ATOM     79  C   UNL A   1      46.019  28.045  36.587  1.00  0.00     0.000 A 
ENDBRANCH  55  74
BRANCH  67  80
ATOM     80  C   UNL A   1      39.426  34.399  37.030  1.00  0.00    -0.014 A 
ATOM     81  C   UNL A   1      39.930  35.709  37.020  1.00  0.00     0.009 A 
ATOM     82  C   UNL A   1      38.771  33.929  38.179  1.00  0.00     0.009 A 
ATOM     83  C   UNL A   1      39.805  36.521  38.148  1.00  0.00     0.001 A 
ATOM     84  C   UNL A   1      38.626  34.752  39.297  1.00  0.00     0.001 A 
ATOM     85  C   UNL A   1      39.150  36.044  39.284  1.00  0.00     0.000 A 
ENDBRANCH  67  80
ENDBRANCH  41  42
ENDBRANCH  33  36
ENDBRANCH  31  32
ENDBRANCH   1  31
TORSDOF 14
ENDMDL
MODEL 2
REMARK VINA RESULT:     -11.9      4.787      9.267
REMARK SMILES CC(=O)NS(=O)(=O)c1ccc(-c2ccn(C(F)F)c(=O)c2)cc1C(=O)NCCCNC(=O)c1ccc(-c2c3nc(c(-c4ccccc4)c4ccc([nH]4)c(-c4ccccc4)c4nc(c(-c5ccccc5)c5ccc2[nH]5)C=C4)C=C3)cc1
REMARK SMILES IDX 28 1 27 2 26 3 24 4 25 5 23 7 8 8 9 9 10 10 22 11 11 12 5 13
REMARK SMILES IDX 6 14 7 15 4 16 1 17 2 18 3 19 12 21 13 22 21 23 14 24 19 25
REMARK SMILES IDX 15 26 20 27 16 28 17 29 18 30 29 31 30 32 31 33 32 35 33 36
REMARK SMILES IDX 34 37 80 38 35 39 79 40 36 41 37 42 38 43 73 44 39 45 78 46
REMARK SMILES IDX 72 47 74 48 40 49 77 50 71 51 70 52 41 54 63 55 48 56 62 57
REMARK SMILES IDX 49 58 52 59 61 60 75 61 50 62 51 63 60 65 76 66 53 67 42 68
REMARK SMILES IDX 43 69 47 70 44 71 46 72 45 73 64 74 65 75 69 76 66 77 68 78
REMARK SMILES IDX 67 79 54 80 55 81 59 82 56 83 58 84 57 85
REMARK H PARENT 26 6 4 20 30 34 74 53 52 64
REMARK Flexibility Score: inf
ROOT
ATOM      1  C   UNL A   1      33.666  28.126  25.828  1.00  0.00     0.042 C 
ENDROOT
BRANCH   1   2
ATOM      2  C   UNL A   1      34.092  26.689  25.497  1.00  0.00     0.118 C 
BRANCH   2   3
ATOM      3  N   UNL A   1      33.443  25.788  26.435  1.00  0.00    -0.352 N 
ATOM      4  C   UNL A   1      32.360  24.956  26.347  1.00  0.00     0.252 C 
ATOM      5  O   UNL A   1      31.867  24.575  27.412  1.00  0.00    -0.269 OA
ATOM      6  H   UNL A   1      33.874  25.773  27.320  1.00  0.00     0.163 HD
BRANCH   4   7
ATOM      7  C   UNL A   1      31.878  24.297  25.100  1.00  0.00     0.060 A 
ATOM      8  C   UNL A   1      30.857  24.671  24.217  1.00  0.00     0.100 A 
ATOM      9  C   UNL A   1      30.567  23.868  23.101  1.00  0.00     0.024 A 
ATOM     10  C   UNL A   1      31.156  22.614  22.952  1.00  0.00     0.010 A 
ATOM     11  C   UNL A   1      32.487  23.030  24.902  1.00  0.00     0.024 A 
ATOM     12  C   UNL A   1      32.101  22.159  23.872  1.00  0.00    -0.017 A 
BRANCH   8  13
ATOM     13  S   UNL A   1      29.705  25.955  24.587  1.00  0.00     0.264 S 
ATOM     14  O   UNL A   1      29.291  25.759  25.958  1.00  0.00    -0.201 OA
ATOM     15  O   UNL A   1      28.781  26.072  23.488  1.00  0.00    -0.201 OA
BRANCH  13  16
ATOM     16  N   UNL A   1      30.573  27.376  24.690  1.00  0.00    -0.249 N 
ATOM     17  C   UNL A   1      31.572  27.766  22.457  1.00  0.00     0.115 C 
ATOM     18  C   UNL A   1      30.822  28.281  23.649  1.00  0.00     0.230 C 
ATOM     19  O   UNL A   1      30.646  29.475  23.847  1.00  0.00    -0.274 OA
ATOM     20  H   UNL A   1      30.948  27.603  25.571  1.00  0.00     0.183 HD
ENDBRANCH  13  16
ENDBRANCH   8  13
BRANCH  12  21
ATOM     21  C   UNL A   1      32.618  20.770  23.810  1.00  0.00    -0.011 A 
ATOM     22  C   UNL A   1      33.577  20.235  24.767  1.00  0.00     0.027 A 
ATOM     23  C   UNL A   1      32.151  19.947  22.855  1.00  0.00     0.080 A 
ATOM     24  C   UNL A   1      33.982  18.960  24.696  1.00  0.00     0.095 A 
ATOM     25  C   UNL A   1      32.570  18.521  22.776  1.00  0.00     0.255 A 
ATOM     26  N   UNL A   1      33.496  18.113  23.720  1.00  0.00    -0.258 N 
ATOM     27  O   UNL A   1      32.071  17.817  21.905  1.00  0.00    -0.269 OA
BRANCH  26  28
ATOM     28  C   UNL A   1      33.926  16.740  23.654  1.00  0.00     0.451 C 
ATOM     29  F   UNL A   1      34.657  16.513  22.534  1.00  0.00    -0.185 F 
ATOM     30  F   UNL A   1      34.691  16.418  24.725  1.00  0.00    -0.185 F 
ENDBRANCH  26  28
ENDBRANCH  12  21
ENDBRANCH   4   7
ENDBRANCH   2   3
ENDBRANCH   1   2
BRANCH   1  31
ATOM     31  C   UNL A   1      33.586  28.428  27.318  1.00  0.00     0.118 C 
BRANCH  31  32
ATOM     32  N   UNL A   1      33.583  29.865  27.563  1.00  0.00    -0.352 N 
ATOM     33  C   UNL A   1      34.516  30.665  28.183  1.00  0.00     0.251 C 
ATOM     34  H   UNL A   1      32.788  30.339  27.231  1.00  0.00     0.163 HD
ATOM     35  O   UNL A   1      34.191  31.799  28.530  1.00  0.00    -0.269 OA
BRANCH  33  36
ATOM     36  C   UNL A   1      35.899  30.193  28.446  1.00  0.00     0.039 A 
ATOM     37  C   UNL A   1      36.843  30.254  27.412  1.00  0.00     0.014 A 
ATOM     38  C   UNL A   1      36.264  29.625  29.667  1.00  0.00     0.014 A 
ATOM     39  C   UNL A   1      38.146  29.789  27.618  1.00  0.00     0.010 A 
ATOM     40  C   UNL A   1      37.586  29.254  29.904  1.00  0.00     0.010 A 
ATOM     41  C   UNL A   1      38.538  29.307  28.876  1.00  0.00    -0.014 A 
BRANCH  41  42
ATOM     42  C   UNL A   1      39.918  28.814  29.131  1.00  0.00     0.031 A 
ATOM     43  C   UNL A   1      40.947  29.729  29.742  1.00  0.00     0.074 A 
ATOM     44  C   UNL A   1      40.273  27.575  28.743  1.00  0.00     0.049 A 
ATOM     45  N   UNL A   1      42.221  29.513  29.961  1.00  0.00    -0.248 NA
ATOM     46  C   UNL A   1      40.495  31.077  30.121  1.00  0.00     0.031 C 
ATOM     47  C   UNL A   1      39.394  26.606  28.085  1.00  0.00     0.029 A 
ATOM     48  N   UNL A   1      41.478  26.924  28.834  1.00  0.00    -0.354 N 
ATOM     49  C   UNL A   1      42.726  30.708  30.459  1.00  0.00     0.074 A 
ATOM     50  C   UNL A   1      41.634  31.656  30.471  1.00  0.00     0.031 C 
ATOM     51  C   UNL A   1      40.084  25.478  27.852  1.00  0.00     0.029 A 
ATOM     52  C   UNL A   1      41.457  25.654  28.312  1.00  0.00     0.049 A 
ATOM     53  H   UNL A   1      42.282  27.328  29.234  1.00  0.00     0.167 HD
ATOM     54  C   UNL A   1      43.980  30.991  30.886  1.00  0.00     0.031 A 
ATOM     55  C   UNL A   1      42.434  24.732  28.211  1.00  0.00     0.031 A 
ATOM     56  C   UNL A   1      45.058  30.040  30.916  1.00  0.00     0.049 A 
ATOM     57  C   UNL A   1      43.804  25.046  28.738  1.00  0.00     0.074 A 
ATOM     58  C   UNL A   1      46.338  30.201  31.419  1.00  0.00     0.029 A 
ATOM     59  N   UNL A   1      44.980  28.748  30.422  1.00  0.00    -0.354 N 
ATOM     60  N   UNL A   1      44.245  26.155  29.281  1.00  0.00    -0.248 NA
ATOM     61  C   UNL A   1      44.808  23.977  28.650  1.00  0.00     0.031 C 
ATOM     62  C   UNL A   1      47.047  29.016  31.193  1.00  0.00     0.029 A 
ATOM     63  C   UNL A   1      46.196  28.105  30.588  1.00  0.00     0.049 A 
ATOM     64  H   UNL A   1      44.180  28.346  30.013  1.00  0.00     0.167 HD
ATOM     65  C   UNL A   1      45.570  25.913  29.614  1.00  0.00     0.074 A 
ATOM     66  C   UNL A   1      45.857  24.547  29.228  1.00  0.00     0.031 C 
ATOM     67  C   UNL A   1      46.470  26.749  30.189  1.00  0.00     0.031 A 
BRANCH  54  68
ATOM     68  C   UNL A   1      44.248  32.397  31.346  1.00  0.00    -0.014 A 
ATOM     69  C   UNL A   1      44.115  32.765  32.695  1.00  0.00     0.009 A 
ATOM     70  C   UNL A   1      44.645  33.370  30.415  1.00  0.00     0.009 A 
ATOM     71  C   UNL A   1      44.323  34.088  33.092  1.00  0.00     0.001 A 
ATOM     72  C   UNL A   1      44.881  34.685  30.820  1.00  0.00     0.001 A 
ATOM     73  C   UNL A   1      44.707  35.046  32.156  1.00  0.00     0.000 A 
ENDBRANCH  54  68
BRANCH  55  74
ATOM     74  C   UNL A   1      42.132  23.410  27.605  1.00  0.00    -0.014 A 
ATOM     75  C   UNL A   1      41.529  22.402  28.370  1.00  0.00     0.009 A 
ATOM     76  C   UNL A   1      42.413  23.163  26.253  1.00  0.00     0.009 A 
ATOM     77  C   UNL A   1      41.224  21.165  27.796  1.00  0.00     0.001 A 
ATOM     78  C   UNL A   1      42.087  21.934  25.676  1.00  0.00     0.001 A 
ATOM     79  C   UNL A   1      41.497  20.935  26.448  1.00  0.00     0.000 A 
ENDBRANCH  55  74
BRANCH  67  80
ATOM     80  C   UNL A   1      47.843  26.204  30.448  1.00  0.00    -0.014 A 
ATOM     81  C   UNL A   1      48.816  26.181  29.436  1.00  0.00     0.009 A 
ATOM     82  C   UNL A   1      48.182  25.745  31.731  1.00  0.00     0.009 A 
ATOM     83  C   UNL A   1      50.093  25.683  29.698  1.00  0.00     0.001 A 
ATOM     84  C   UNL A   1      49.467  25.271  31.995  1.00  0.00     0.001 A 
ATOM     85  C   UNL A   1      50.420  25.233  30.978  1.00  0.00     0.000 A 
ENDBRANCH  67  80
ENDBRANCH  41  42
ENDBRANCH  33  36
ENDBRANCH  31  32
ENDBRANCH   1  31
TORSDOF 14
ENDMDL
MODEL 3
REMARK VINA RESULT:     -11.9      4.662      9.362
REMARK SMILES CC(=O)NS(=O)(=O)c1ccc(-c2ccn(C(F)F)c(=O)c2)cc1C(=O)NCCCNC(=O)c1ccc(-c2c3nc(c(-c4ccccc4)c4ccc([nH]4)c(-c4ccccc4)c4nc(c(-c5ccccc5)c5ccc2[nH]5)C=C4)C=C3)cc1
REMARK SMILES IDX 28 1 27 2 26 3 24 4 25 5 23 7 8 8 9 9 10 10 22 11 11 12 5 13
REMARK SMILES IDX 6 14 7 15 4 16 1 17 2 18 3 19 12 21 13 22 21 23 14 24 19 25
REMARK SMILES IDX 15 26 20 27 16 28 17 29 18 30 29 31 30 32 31 33 32 35 33 36
REMARK SMILES IDX 34 37 80 38 35 39 79 40 36 41 37 42 38 43 73 44 39 45 78 46
REMARK SMILES IDX 72 47 74 48 40 49 77 50 71 51 70 52 41 54 63 55 48 56 62 57
REMARK SMILES IDX 49 58 52 59 61 60 75 61 50 62 51 63 60 65 76 66 53 67 42 68
REMARK SMILES IDX 43 69 47 70 44 71 46 72 45 73 64 74 65 75 69 76 66 77 68 78
REMARK SMILES IDX 67 79 54 80 55 81 59 82 56 83 58 84 57 85
REMARK H PARENT 26 6 4 20 30 34 74 53 52 64
REMARK Flexibility Score: inf
ROOT
ATOM      1  C   UNL A   1      33.752  28.859  25.756  1.00  0.00     0.042 C 
ENDROOT
BRANCH   1   2
ATOM      2  C   UNL A   1      34.150  27.480  25.209  1.00  0.00     0.118 C 
BRANCH   2   3
ATOM      3  N   UNL A   1      34.160  27.546  23.757  1.00  0.00    -0.352 N 
ATOM      4  C   UNL A   1      33.610  26.769  22.775  1.00  0.00     0.252 C 
ATOM      5  O   UNL A   1      34.073  26.902  21.638  1.00  0.00    -0.269 OA
ATOM      6  H   UNL A   1      34.669  28.313  23.406  1.00  0.00     0.163 HD
BRANCH   4   7
ATOM      7  C   UNL A   1      32.366  25.959  22.911  1.00  0.00     0.060 A 
ATOM      8  C   UNL A   1      31.043  26.363  23.133  1.00  0.00     0.100 A 
ATOM      9  C   UNL A   1      30.026  25.401  23.246  1.00  0.00     0.024 A 
ATOM     10  C   UNL A   1      30.332  24.044  23.319  1.00  0.00     0.010 A 
ATOM     11  C   UNL A   1      32.643  24.567  22.953  1.00  0.00     0.024 A 
ATOM     12  C   UNL A   1      31.654  23.606  23.209  1.00  0.00    -0.017 A 
BRANCH   8  13
ATOM     13  S   UNL A   1      30.619  28.017  23.575  1.00  0.00     0.264 S 
ATOM     14  O   UNL A   1      31.494  28.886  22.821  1.00  0.00    -0.201 OA
ATOM     15  O   UNL A   1      30.473  28.086  25.006  1.00  0.00    -0.201 OA
BRANCH  13  16
ATOM     16  N   UNL A   1      29.134  28.342  22.885  1.00  0.00    -0.249 N 
ATOM     17  C   UNL A   1      28.557  30.671  23.497  1.00  0.00     0.115 C 
ATOM     18  C   UNL A   1      28.664  29.592  22.462  1.00  0.00     0.230 C 
ATOM     19  O   UNL A   1      28.142  29.687  21.359  1.00  0.00    -0.274 OA
ATOM     20  H   UNL A   1      28.526  27.577  22.764  1.00  0.00     0.183 HD
ENDBRANCH  13  16
ENDBRANCH   8  13
BRANCH  12  21
ATOM     21  C   UNL A   1      32.008  22.184  23.438  1.00  0.00    -0.011 A 
ATOM     22  C   UNL A   1      31.879  21.158  22.411  1.00  0.00     0.027 A 
ATOM     23  C   UNL A   1      32.514  21.827  24.631  1.00  0.00     0.080 A 
ATOM     24  C   UNL A   1      32.254  19.895  22.652  1.00  0.00     0.095 A 
ATOM     25  C   UNL A   1      32.958  20.433  24.907  1.00  0.00     0.255 A 
ATOM     26  N   UNL A   1      32.781  19.529  23.875  1.00  0.00    -0.258 N 
ATOM     27  O   UNL A   1      33.449  20.187  26.003  1.00  0.00    -0.269 OA
BRANCH  26  28
ATOM     28  C   UNL A   1      33.191  18.171  24.125  1.00  0.00     0.451 C 
ATOM     29  F   UNL A   1      32.848  17.362  23.093  1.00  0.00    -0.185 F 
ATOM     30  F   UNL A   1      34.534  18.092  24.291  1.00  0.00    -0.185 F 
ENDBRANCH  26  28
ENDBRANCH  12  21
ENDBRANCH   4   7
ENDBRANCH   2   3
ENDBRANCH   1   2
BRANCH   1  31
ATOM     31  C   UNL A   1      33.649  28.925  27.273  1.00  0.00     0.118 C 
BRANCH  31  32
ATOM     32  N   UNL A   1      33.675  30.305  27.741  1.00  0.00    -0.352 N 
ATOM     33  C   UNL A   1      34.622  30.979  28.478  1.00  0.00     0.251 C 
ATOM     34  H   UNL A   1      32.889  30.842  27.490  1.00  0.00     0.163 HD
ATOM     35  O   UNL A   1      34.320  32.050  28.999  1.00  0.00    -0.269 OA
BRANCH  33  36
ATOM     36  C   UNL A   1      35.996  30.444  28.659  1.00  0.00     0.039 A 
ATOM     37  C   UNL A   1      36.346  29.881  29.893  1.00  0.00     0.014 A 
ATOM     38  C   UNL A   1      36.966  30.553  27.662  1.00  0.00     0.014 A 
ATOM     39  C   UNL A   1      37.641  29.395  30.106  1.00  0.00     0.010 A 
ATOM     40  C   UNL A   1      38.224  29.981  27.837  1.00  0.00     0.010 A 
ATOM     41  C   UNL A   1      38.587  29.418  29.069  1.00  0.00    -0.014 A 
BRANCH  41  42
ATOM     42  C   UNL A   1      39.969  28.902  29.258  1.00  0.00     0.031 A 
ATOM     43  C   UNL A   1      41.040  29.797  29.824  1.00  0.00     0.074 A 
ATOM     44  C   UNL A   1      40.286  27.659  28.849  1.00  0.00     0.049 A 
ATOM     45  N   UNL A   1      42.319  29.561  29.983  1.00  0.00    -0.248 NA
ATOM     46  C   UNL A   1      40.627  31.150  30.229  1.00  0.00     0.031 C 
ATOM     47  C   UNL A   1      39.362  26.707  28.229  1.00  0.00     0.029 A 
ATOM     48  N   UNL A   1      41.484  26.988  28.882  1.00  0.00    -0.354 N 
ATOM     49  C   UNL A   1      42.865  30.745  30.462  1.00  0.00     0.074 A 
ATOM     50  C   UNL A   1      41.790  31.710  30.528  1.00  0.00     0.031 C 
ATOM     51  C   UNL A   1      40.022  25.569  27.960  1.00  0.00     0.029 A 
ATOM     52  C   UNL A   1      41.418  25.721  28.357  1.00  0.00     0.049 A 
ATOM     53  H   UNL A   1      42.311  27.378  29.246  1.00  0.00     0.167 HD
ATOM     54  C   UNL A   1      44.142  31.006  30.831  1.00  0.00     0.031 A 
ATOM     55  C   UNL A   1      42.374  24.785  28.207  1.00  0.00     0.031 A 
ATOM     56  C   UNL A   1      45.205  30.038  30.809  1.00  0.00     0.049 A 
ATOM     57  C   UNL A   1      43.772  25.075  28.672  1.00  0.00     0.074 A 
ATOM     58  C   UNL A   1      46.509  30.176  31.253  1.00  0.00     0.029 A 
ATOM     59  N   UNL A   1      45.084  28.749  30.314  1.00  0.00    -0.354 N 
ATOM     60  N   UNL A   1      44.255  26.173  29.198  1.00  0.00    -0.248 NA
ATOM     61  C   UNL A   1      44.754  23.990  28.533  1.00  0.00     0.031 C 
ATOM     62  C   UNL A   1      47.188  28.981  30.989  1.00  0.00     0.029 A 
ATOM     63  C   UNL A   1      46.296  28.087  30.421  1.00  0.00     0.049 A 
ATOM     64  H   UNL A   1      44.259  28.362  29.940  1.00  0.00     0.167 HD
ATOM     65  C   UNL A   1      45.591  25.910  29.469  1.00  0.00     0.074 A 
ATOM     66  C   UNL A   1      45.837  24.540  29.065  1.00  0.00     0.031 C 
ATOM     67  C   UNL A   1      46.529  26.728  30.005  1.00  0.00     0.031 A 
BRANCH  54  68
ATOM     68  C   UNL A   1      44.454  32.406  31.284  1.00  0.00    -0.014 A 
ATOM     69  C   UNL A   1      44.342  32.781  32.633  1.00  0.00     0.009 A 
ATOM     70  C   UNL A   1      44.869  33.364  30.346  1.00  0.00     0.009 A 
ATOM     71  C   UNL A   1      44.591  34.099  33.024  1.00  0.00     0.001 A 
ATOM     72  C   UNL A   1      45.146  34.673  30.744  1.00  0.00     0.001 A 
ATOM     73  C   UNL A   1      44.993  35.043  32.081  1.00  0.00     0.000 A 
ENDBRANCH  54  68
BRANCH  55  74
ATOM     74  C   UNL A   1      42.024  23.470  27.611  1.00  0.00    -0.014 A 
ATOM     75  C   UNL A   1      42.307  23.205  26.264  1.00  0.00     0.009 A 
ATOM     76  C   UNL A   1      41.440  22.464  28.395  1.00  0.00     0.009 A 
ATOM     77  C   UNL A   1      41.999  21.962  25.707  1.00  0.00     0.001 A 
ATOM     78  C   UNL A   1      41.154  21.214  27.842  1.00  0.00     0.001 A 
ATOM     79  C   UNL A   1      41.429  20.965  26.499  1.00  0.00     0.000 A 
ENDBRANCH  55  74
BRANCH  67  80
ATOM     80  C   UNL A   1      47.904  26.160  30.198  1.00  0.00    -0.014 A 
ATOM     81  C   UNL A   1      48.829  26.128  29.142  1.00  0.00     0.009 A 
ATOM     82  C   UNL A   1      48.294  25.690  31.462  1.00  0.00     0.009 A 
ATOM     83  C   UNL A   1      50.109  25.609  29.343  1.00  0.00     0.001 A 
ATOM     84  C   UNL A   1      49.582  25.195  31.664  1.00  0.00     0.001 A 
ATOM     85  C   UNL A   1      50.486  25.147  30.604  1.00  0.00     0.000 A 
ENDBRANCH  67  80
ENDBRANCH  41  42
ENDBRANCH  33  36
ENDBRANCH  31  32
ENDBRANCH   1  31
TORSDOF 14
ENDMDL
