MODEL 1
REMARK VINA RESULT:      -8.6      0.000      0.000
REMARK SMILES C#CC[N@H+](CC(=O)NCCCNC(=O)c1ccc(-c2c3nc(c(-c4ccccc4)c4ccc([nH]4)c(-c4ccccc4)c4nc(c(-c5ccccc5)c5ccc2[nH]5)C=C4)C=C3)cc1)[C@H](C)c1ccccc1[N+](=O)[O-]
REMARK SMILES IDX 9 1 8 2 6 3 7 4 5 6 4 7 3 9 2 10 1 11 63 12 64 13 65 14
REMARK SMILES IDX 66 15 70 16 67 17 69 18 68 19 71 20 72 21 73 22 10 23 11 24
REMARK SMILES IDX 12 25 13 26 14 28 15 29 16 30 62 31 17 32 61 33 18 34 19 35
REMARK SMILES IDX 20 36 55 37 21 38 60 39 54 40 56 41 22 42 59 43 53 44 52 45
REMARK SMILES IDX 23 47 45 48 30 49 44 50 31 51 34 52 43 53 57 54 32 55 33 56
REMARK SMILES IDX 42 58 58 59 35 60 24 61 25 62 29 63 26 64 28 65 27 66 46 67
REMARK SMILES IDX 47 68 51 69 48 70 50 71 49 72 36 73 37 74 41 75 38 76 40 77
REMARK SMILES IDX 39 78
REMARK H PARENT 8 5 4 8 12 27 56 46 34 57
REMARK Flexibility Score: inf
ROOT
ATOM      1  C   UNL A   1      34.781  33.877  31.607  1.00  0.00     0.118 C 
ENDROOT
BRANCH   1   2
ATOM      2  N   UNL A   1      34.812  33.709  33.059  1.00  0.00    -0.351 N 
ATOM      3  C   UNL A   1      35.837  33.834  33.968  1.00  0.00     0.275 C 
ATOM      4  O   UNL A   1      35.585  33.601  35.151  1.00  0.00    -0.269 OA
ATOM      5  H   UNL A   1      33.945  33.461  33.457  1.00  0.00     0.163 HD
BRANCH   3   6
ATOM      6  C   UNL A   1      37.241  34.266  33.506  1.00  0.00     0.364 C 
BRANCH   6   7
ATOM      7  N   UNL A   1      38.117  33.174  32.958  1.00  0.00    -0.311 N 
ATOM      8  H   UNL A   1      37.558  32.456  32.496  1.00  0.00     0.349 HD
BRANCH   7   9
ATOM      9  C   UNL A   1      38.968  33.695  31.896  1.00  0.00     0.354 C 
BRANCH   9  10
ATOM     10  C   UNL A   1      38.451  33.865  30.531  1.00  0.00    -0.047 C 
ATOM     11  C   UNL A   1      38.195  33.855  29.361  1.00  0.00     0.010 C 
ENDBRANCH   9  10
ENDBRANCH   7   9
BRANCH   7  12
ATOM     12  C   UNL A   1      38.794  32.421  34.062  1.00  0.00     0.220 C 
ATOM     13  C   UNL A   1      39.461  33.212  35.210  1.00  0.00     0.081 C 
BRANCH  12  14
ATOM     14  C   UNL A   1      39.572  31.164  33.649  1.00  0.00     0.087 A 
ATOM     15  C   UNL A   1      40.969  31.209  33.871  1.00  0.00     0.017 A 
ATOM     16  C   UNL A   1      39.050  29.933  33.179  1.00  0.00     0.278 A 
ATOM     17  C   UNL A   1      41.795  30.102  33.653  1.00  0.00     0.001 A 
ATOM     18  C   UNL A   1      39.889  28.822  32.945  1.00  0.00     0.086 A 
ATOM     19  C   UNL A   1      41.255  28.909  33.189  1.00  0.00     0.007 A 
BRANCH  16  20
ATOM     20  N   UNL A   1      37.617  29.653  33.060  1.00  0.00     0.063 N 
ATOM     21  O   UNL A   1      37.254  28.476  33.214  1.00  0.00    -0.258 OA
ATOM     22  O   UNL A   1      36.856  30.582  32.782  1.00  0.00    -0.258 OA
ENDBRANCH  16  20
ENDBRANCH  12  14
ENDBRANCH   7  12
ENDBRANCH   6   7
ENDBRANCH   3   6
ENDBRANCH   1   2
BRANCH   1  23
ATOM     23  C   UNL A   1      34.779  32.549  30.839  1.00  0.00     0.042 C 
BRANCH  23  24
ATOM     24  C   UNL A   1      34.806  32.683  29.329  1.00  0.00     0.118 C 
BRANCH  24  25
ATOM     25  N   UNL A   1      34.088  31.602  28.689  1.00  0.00    -0.352 N 
ATOM     26  C   UNL A   1      34.582  30.482  28.067  1.00  0.00     0.251 C 
ATOM     27  H   UNL A   1      33.106  31.681  28.702  1.00  0.00     0.163 HD
ATOM     28  O   UNL A   1      33.845  29.834  27.327  1.00  0.00    -0.269 OA
BRANCH  26  29
ATOM     29  C   UNL A   1      35.987  30.050  28.267  1.00  0.00     0.039 A 
ATOM     30  C   UNL A   1      36.342  29.465  29.486  1.00  0.00     0.014 A 
ATOM     31  C   UNL A   1      36.968  30.263  27.294  1.00  0.00     0.014 A 
ATOM     32  C   UNL A   1      37.662  29.069  29.713  1.00  0.00     0.010 A 
ATOM     33  C   UNL A   1      38.262  29.776  27.483  1.00  0.00     0.010 A 
ATOM     34  C   UNL A   1      38.631  29.195  28.703  1.00  0.00    -0.014 A 
BRANCH  34  35
ATOM     35  C   UNL A   1      40.032  28.748  28.921  1.00  0.00     0.031 A 
ATOM     36  C   UNL A   1      41.050  29.692  29.507  1.00  0.00     0.074 A 
ATOM     37  C   UNL A   1      40.401  27.503  28.562  1.00  0.00     0.049 A 
ATOM     38  N   UNL A   1      42.322  29.491  29.746  1.00  0.00    -0.248 NA
ATOM     39  C   UNL A   1      40.586  31.047  29.851  1.00  0.00     0.031 C 
ATOM     40  C   UNL A   1      39.522  26.498  27.960  1.00  0.00     0.029 A 
ATOM     41  N   UNL A   1      41.614  26.866  28.656  1.00  0.00    -0.354 N 
ATOM     42  C   UNL A   1      42.807  30.691  30.254  1.00  0.00     0.074 A 
ATOM     43  C   UNL A   1      41.711  31.632  30.234  1.00  0.00     0.031 C 
ATOM     44  C   UNL A   1      40.213  25.364  27.773  1.00  0.00     0.029 A 
ATOM     45  C   UNL A   1      41.595  25.573  28.191  1.00  0.00     0.049 A 
ATOM     46  H   UNL A   1      42.421  27.295  29.022  1.00  0.00     0.167 HD
ATOM     47  C   UNL A   1      44.048  30.979  30.717  1.00  0.00     0.031 A 
ATOM     48  C   UNL A   1      42.581  24.660  28.099  1.00  0.00     0.031 A 
ATOM     49  C   UNL A   1      45.141  30.043  30.735  1.00  0.00     0.049 A 
ATOM     50  C   UNL A   1      43.962  25.023  28.576  1.00  0.00     0.074 A 
ATOM     51  C   UNL A   1      46.424  30.227  31.223  1.00  0.00     0.029 A 
ATOM     52  N   UNL A   1      45.083  28.751  30.236  1.00  0.00    -0.354 N 
ATOM     53  N   UNL A   1      44.385  26.140  29.116  1.00  0.00    -0.248 NA
ATOM     54  C   UNL A   1      44.999  23.990  28.440  1.00  0.00     0.031 C 
ATOM     55  C   UNL A   1      47.162  29.071  30.954  1.00  0.00     0.029 A 
ATOM     56  C   UNL A   1      46.318  28.139  30.373  1.00  0.00     0.049 A 
ATOM     57  H   UNL A   1      44.285  28.332  29.842  1.00  0.00     0.167 HD
ATOM     58  C   UNL A   1      45.726  25.933  29.414  1.00  0.00     0.074 A 
ATOM     59  C   UNL A   1      46.038  24.576  29.014  1.00  0.00     0.031 C 
ATOM     60  C   UNL A   1      46.618  26.788  29.971  1.00  0.00     0.031 A 
BRANCH  47  61
ATOM     61  C   UNL A   1      44.295  32.373  31.229  1.00  0.00    -0.014 A 
ATOM     62  C   UNL A   1      44.757  33.394  30.383  1.00  0.00     0.009 A 
ATOM     63  C   UNL A   1      44.013  32.684  32.570  1.00  0.00     0.009 A 
ATOM     64  C   UNL A   1      44.970  34.684  30.876  1.00  0.00     0.001 A 
ATOM     65  C   UNL A   1      44.193  33.981  33.052  1.00  0.00     0.001 A 
ATOM     66  C   UNL A   1      44.681  34.978  32.208  1.00  0.00     0.000 A 
ENDBRANCH  47  61
BRANCH  48  67
ATOM     67  C   UNL A   1      42.306  23.312  27.531  1.00  0.00    -0.014 A 
ATOM     68  C   UNL A   1      42.598  23.027  26.187  1.00  0.00     0.009 A 
ATOM     69  C   UNL A   1      41.726  22.309  28.323  1.00  0.00     0.009 A 
ATOM     70  C   UNL A   1      42.280  21.780  25.642  1.00  0.00     0.001 A 
ATOM     71  C   UNL A   1      41.443  21.052  27.785  1.00  0.00     0.001 A 
ATOM     72  C   UNL A   1      41.708  20.794  26.442  1.00  0.00     0.000 A 
ENDBRANCH  48  67
BRANCH  60  73
ATOM     73  C   UNL A   1      48.007  26.270  30.226  1.00  0.00    -0.014 A 
ATOM     74  C   UNL A   1      48.383  25.755  31.477  1.00  0.00     0.009 A 
ATOM     75  C   UNL A   1      48.943  26.258  29.179  1.00  0.00     0.009 A 
ATOM     76  C   UNL A   1      49.680  25.280  31.685  1.00  0.00     0.001 A 
ATOM     77  C   UNL A   1      50.226  25.746  29.379  1.00  0.00     0.001 A 
ATOM     78  C   UNL A   1      50.597  25.269  30.634  1.00  0.00     0.000 A 
ENDBRANCH  60  73
ENDBRANCH  34  35
ENDBRANCH  26  29
ENDBRANCH  24  25
ENDBRANCH  23  24
ENDBRANCH   1  23
TORSDOF 16
ENDMDL
MODEL 2
REMARK VINA RESULT:      -8.5      3.706      7.144
REMARK SMILES C#CC[N@H+](CC(=O)NCCCNC(=O)c1ccc(-c2c3nc(c(-c4ccccc4)c4ccc([nH]4)c(-c4ccccc4)c4nc(c(-c5ccccc5)c5ccc2[nH]5)C=C4)C=C3)cc1)[C@H](C)c1ccccc1[N+](=O)[O-]
REMARK SMILES IDX 9 1 8 2 6 3 7 4 5 6 4 7 3 9 2 10 1 11 63 12 64 13 65 14
REMARK SMILES IDX 66 15 70 16 67 17 69 18 68 19 71 20 72 21 73 22 10 23 11 24
REMARK SMILES IDX 12 25 13 26 14 28 15 29 16 30 62 31 17 32 61 33 18 34 19 35
REMARK SMILES IDX 20 36 55 37 21 38 60 39 54 40 56 41 22 42 59 43 53 44 52 45
REMARK SMILES IDX 23 47 45 48 30 49 44 50 31 51 34 52 43 53 57 54 32 55 33 56
REMARK SMILES IDX 42 58 58 59 35 60 24 61 25 62 29 63 26 64 28 65 27 66 46 67
REMARK SMILES IDX 47 68 51 69 48 70 50 71 49 72 36 73 37 74 41 75 38 76 40 77
REMARK SMILES IDX 39 78
REMARK H PARENT 8 5 4 8 12 27 56 46 34 57
REMARK Flexibility Score: inf
ROOT
ATOM      1  C   UNL A   1      31.244  30.887  26.300  1.00  0.00     0.118 C 
ENDROOT
BRANCH   1   2
ATOM      2  N   UNL A   1      31.001  30.524  24.906  1.00  0.00    -0.351 N 
ATOM      3  C   UNL A   1      31.051  29.309  24.260  1.00  0.00     0.275 C 
ATOM      4  O   UNL A   1      30.826  29.295  23.049  1.00  0.00    -0.269 OA
ATOM      5  H   UNL A   1      30.760  31.282  24.325  1.00  0.00     0.163 HD
BRANCH   3   6
ATOM      6  C   UNL A   1      31.365  28.021  25.044  1.00  0.00     0.364 C 
BRANCH   6   7
ATOM      7  N   UNL A   1      32.551  27.233  24.564  1.00  0.00    -0.311 N 
ATOM      8  H   UNL A   1      32.544  27.147  23.547  1.00  0.00     0.349 HD
BRANCH   7   9
ATOM      9  C   UNL A   1      33.785  27.954  24.847  1.00  0.00     0.354 C 
BRANCH   9  10
ATOM     10  C   UNL A   1      34.051  28.497  26.186  1.00  0.00    -0.047 C 
ATOM     11  C   UNL A   1      34.456  29.026  27.181  1.00  0.00     0.010 C 
ENDBRANCH   9  10
ENDBRANCH   7   9
BRANCH   7  12
ATOM     12  C   UNL A   1      32.475  25.810  25.027  1.00  0.00     0.220 C 
ATOM     13  C   UNL A   1      31.765  25.492  26.361  1.00  0.00     0.081 C 
BRANCH  12  14
ATOM     14  C   UNL A   1      33.718  24.946  24.770  1.00  0.00     0.087 A 
ATOM     15  C   UNL A   1      34.297  24.354  25.919  1.00  0.00     0.017 A 
ATOM     16  C   UNL A   1      34.284  24.583  23.523  1.00  0.00     0.278 A 
ATOM     17  C   UNL A   1      35.362  23.451  25.835  1.00  0.00     0.001 A 
ATOM     18  C   UNL A   1      35.368  23.683  23.443  1.00  0.00     0.086 A 
ATOM     19  C   UNL A   1      35.898  23.116  24.598  1.00  0.00     0.007 A 
BRANCH  16  20
ATOM     20  N   UNL A   1      33.706  24.959  22.231  1.00  0.00     0.063 N 
ATOM     21  O   UNL A   1      33.923  26.112  21.826  1.00  0.00    -0.258 OA
ATOM     22  O   UNL A   1      33.011  24.135  21.634  1.00  0.00    -0.258 OA
ENDBRANCH  16  20
ENDBRANCH  12  14
ENDBRANCH   7  12
ENDBRANCH   6   7
ENDBRANCH   3   6
ENDBRANCH   1   2
BRANCH   1  23
ATOM     23  C   UNL A   1      31.307  32.402  26.534  1.00  0.00     0.042 C 
BRANCH  23  24
ATOM     24  C   UNL A   1      32.659  32.926  26.973  1.00  0.00     0.118 C 
BRANCH  24  25
ATOM     25  N   UNL A   1      32.531  34.161  27.718  1.00  0.00    -0.352 N 
ATOM     26  C   UNL A   1      33.218  34.576  28.832  1.00  0.00     0.251 C 
ATOM     27  H   UNL A   1      31.856  34.792  27.378  1.00  0.00     0.163 HD
ATOM     28  O   UNL A   1      32.773  35.508  29.497  1.00  0.00    -0.269 OA
BRANCH  26  29
ATOM     29  C   UNL A   1      34.479  33.913  29.247  1.00  0.00     0.039 A 
ATOM     30  C   UNL A   1      35.664  34.252  28.589  1.00  0.00     0.014 A 
ATOM     31  C   UNL A   1      34.500  32.924  30.236  1.00  0.00     0.014 A 
ATOM     32  C   UNL A   1      36.863  33.628  28.941  1.00  0.00     0.010 A 
ATOM     33  C   UNL A   1      35.712  32.376  30.656  1.00  0.00     0.010 A 
ATOM     34  C   UNL A   1      36.905  32.703  29.998  1.00  0.00    -0.014 A 
BRANCH  34  35
ATOM     35  C   UNL A   1      38.180  32.056  30.404  1.00  0.00     0.031 A 
ATOM     36  C   UNL A   1      39.080  32.715  31.419  1.00  0.00     0.074 A 
ATOM     37  C   UNL A   1      38.549  30.890  29.839  1.00  0.00     0.049 A 
ATOM     38  N   UNL A   1      40.240  32.316  31.877  1.00  0.00    -0.248 NA
ATOM     39  C   UNL A   1      38.628  34.002  31.977  1.00  0.00     0.031 C 
ATOM     40  C   UNL A   1      37.785  30.160  28.825  1.00  0.00     0.029 A 
ATOM     41  N   UNL A   1      39.662  30.110  30.039  1.00  0.00    -0.354 N 
ATOM     42  C   UNL A   1      40.658  33.303  32.763  1.00  0.00     0.074 A 
ATOM     43  C   UNL A   1      39.658  34.347  32.734  1.00  0.00     0.031 C 
ATOM     44  C   UNL A   1      38.431  29.024  28.520  1.00  0.00     0.029 A 
ATOM     45  C   UNL A   1      39.679  28.969  29.274  1.00  0.00     0.049 A 
ATOM     46  H   UNL A   1      40.379  30.347  30.671  1.00  0.00     0.167 HD
ATOM     47  C   UNL A   1      41.762  33.330  33.547  1.00  0.00     0.031 A 
ATOM     48  C   UNL A   1      40.601  27.990  29.181  1.00  0.00     0.031 A 
ATOM     49  C   UNL A   1      42.758  32.293  33.575  1.00  0.00     0.049 A 
ATOM     50  C   UNL A   1      41.841  28.070  30.028  1.00  0.00     0.074 A 
ATOM     51  C   UNL A   1      43.892  32.208  34.366  1.00  0.00     0.029 A 
ATOM     52  N   UNL A   1      42.746  31.164  32.770  1.00  0.00    -0.354 N 
ATOM     53  N   UNL A   1      42.187  28.977  30.909  1.00  0.00    -0.248 NA
ATOM     54  C   UNL A   1      42.816  26.979  29.874  1.00  0.00     0.031 C 
ATOM     55  C   UNL A   1      44.602  31.064  33.990  1.00  0.00     0.029 A 
ATOM     56  C   UNL A   1      43.871  30.395  33.023  1.00  0.00     0.049 A 
ATOM     57  H   UNL A   1      42.045  30.943  32.117  1.00  0.00     0.167 HD
ATOM     58  C   UNL A   1      43.399  28.550  31.437  1.00  0.00     0.074 A 
ATOM     59  C   UNL A   1      43.717  27.293  30.792  1.00  0.00     0.031 C 
ATOM     60  C   UNL A   1      44.178  29.145  32.374  1.00  0.00     0.031 A 
BRANCH  47  61
ATOM     61  C   UNL A   1      41.960  34.532  34.432  1.00  0.00    -0.014 A 
ATOM     62  C   UNL A   1      41.510  34.545  35.762  1.00  0.00     0.009 A 
ATOM     63  C   UNL A   1      42.651  35.653  33.943  1.00  0.00     0.009 A 
ATOM     64  C   UNL A   1      41.713  35.667  36.571  1.00  0.00     0.001 A 
ATOM     65  C   UNL A   1      42.883  36.759  34.763  1.00  0.00     0.001 A 
ATOM     66  C   UNL A   1      42.405  36.769  36.072  1.00  0.00     0.000 A 
ENDBRANCH  47  61
BRANCH  48  67
ATOM     67  C   UNL A   1      40.391  26.850  28.248  1.00  0.00    -0.014 A 
ATOM     68  C   UNL A   1      40.918  26.881  26.946  1.00  0.00     0.009 A 
ATOM     69  C   UNL A   1      39.642  25.731  28.646  1.00  0.00     0.009 A 
ATOM     70  C   UNL A   1      40.666  25.835  26.054  1.00  0.00     0.001 A 
ATOM     71  C   UNL A   1      39.424  24.671  27.765  1.00  0.00     0.001 A 
ATOM     72  C   UNL A   1      39.924  24.730  26.465  1.00  0.00     0.000 A 
ENDBRANCH  48  67
BRANCH  60  73
ATOM     73  C   UNL A   1      45.428  28.422  32.794  1.00  0.00    -0.014 A 
ATOM     74  C   UNL A   1      46.663  28.661  32.170  1.00  0.00     0.009 A 
ATOM     75  C   UNL A   1      45.374  27.514  33.864  1.00  0.00     0.009 A 
ATOM     76  C   UNL A   1      47.807  27.975  32.581  1.00  0.00     0.001 A 
ATOM     77  C   UNL A   1      46.527  26.860  34.299  1.00  0.00     0.001 A 
ATOM     78  C   UNL A   1      47.740  27.081  33.649  1.00  0.00     0.000 A 
ENDBRANCH  60  73
ENDBRANCH  34  35
ENDBRANCH  26  29
ENDBRANCH  24  25
ENDBRANCH  23  24
ENDBRANCH   1  23
TORSDOF 16
ENDMDL
MODEL 3
REMARK VINA RESULT:      -8.5      4.101      9.888
REMARK SMILES C#CC[N@H+](CC(=O)NCCCNC(=O)c1ccc(-c2c3nc(c(-c4ccccc4)c4ccc([nH]4)c(-c4ccccc4)c4nc(c(-c5ccccc5)c5ccc2[nH]5)C=C4)C=C3)cc1)[C@H](C)c1ccccc1[N+](=O)[O-]
REMARK SMILES IDX 9 1 8 2 6 3 7 4 5 6 4 7 3 9 2 10 1 11 63 12 64 13 65 14
REMARK SMILES IDX 66 15 70 16 67 17 69 18 68 19 71 20 72 21 73 22 10 23 11 24
REMARK SMILES IDX 12 25 13 26 14 28 15 29 16 30 62 31 17 32 61 33 18 34 19 35
REMARK SMILES IDX 20 36 55 37 21 38 60 39 54 40 56 41 22 42 59 43 53 44 52 45
REMARK SMILES IDX 23 47 45 48 30 49 44 50 31 51 34 52 43 53 57 54 32 55 33 56
REMARK SMILES IDX 42 58 58 59 35 60 24 61 25 62 29 63 26 64 28 65 27 66 46 67
REMARK SMILES IDX 47 68 51 69 48 70 50 71 49 72 36 73 37 74 41 75 38 76 40 77
REMARK SMILES IDX 39 78
REMARK H PARENT 8 5 4 8 12 27 56 46 34 57
REMARK Flexibility Score: inf
ROOT
ATOM      1  C   UNL A   1      36.599  20.131  24.615  1.00  0.00     0.118 C 
ENDROOT
BRANCH   1   2
ATOM      2  N   UNL A   1      35.304  19.678  25.119  1.00  0.00    -0.351 N 
ATOM      3  C   UNL A   1      34.065  20.275  25.109  1.00  0.00     0.275 C 
ATOM      4  O   UNL A   1      33.133  19.669  25.641  1.00  0.00    -0.269 OA
ATOM      5  H   UNL A   1      35.323  18.788  25.542  1.00  0.00     0.163 HD
BRANCH   3   6
ATOM      6  C   UNL A   1      33.864  21.646  24.438  1.00  0.00     0.364 C 
BRANCH   6   7
ATOM      7  N   UNL A   1      33.456  22.770  25.349  1.00  0.00    -0.311 N 
ATOM      8  H   UNL A   1      32.581  22.551  25.827  1.00  0.00     0.349 HD
BRANCH   7   9
ATOM      9  C   UNL A   1      34.420  22.920  26.430  1.00  0.00     0.354 C 
BRANCH   9  10
ATOM     10  C   UNL A   1      35.800  23.343  26.155  1.00  0.00    -0.047 C 
ATOM     11  C   UNL A   1      36.835  23.785  25.744  1.00  0.00     0.010 C 
ENDBRANCH   9  10
ENDBRANCH   7   9
BRANCH   7  12
ATOM     12  C   UNL A   1      33.117  24.002  24.566  1.00  0.00     0.220 C 
ATOM     13  C   UNL A   1      33.731  24.191  23.162  1.00  0.00     0.081 C 
BRANCH  12  14
ATOM     14  C   UNL A   1      33.003  25.305  25.368  1.00  0.00     0.087 A 
ATOM     15  C   UNL A   1      33.943  26.311  25.036  1.00  0.00     0.017 A 
ATOM     16  C   UNL A   1      32.011  25.661  26.315  1.00  0.00     0.278 A 
ATOM     17  C   UNL A   1      33.895  27.591  25.596  1.00  0.00     0.001 A 
ATOM     18  C   UNL A   1      31.975  26.950  26.891  1.00  0.00     0.086 A 
ATOM     19  C   UNL A   1      32.912  27.910  26.524  1.00  0.00     0.007 A 
BRANCH  16  20
ATOM     20  N   UNL A   1      30.864  24.812  26.645  1.00  0.00     0.063 N 
ATOM     21  O   UNL A   1      31.096  23.762  27.264  1.00  0.00    -0.258 OA
ATOM     22  O   UNL A   1      29.744  25.160  26.265  1.00  0.00    -0.258 OA
ENDBRANCH  16  20
ENDBRANCH  12  14
ENDBRANCH   7  12
ENDBRANCH   6   7
ENDBRANCH   3   6
ENDBRANCH   1   2
BRANCH   1  23
ATOM     23  C   UNL A   1      37.778  19.285  25.112  1.00  0.00     0.042 C 
BRANCH  23  24
ATOM     24  C   UNL A   1      38.931  20.075  25.697  1.00  0.00     0.118 C 
BRANCH  24  25
ATOM     25  N   UNL A   1      40.119  19.259  25.828  1.00  0.00    -0.352 N 
ATOM     26  C   UNL A   1      41.414  19.646  26.073  1.00  0.00     0.251 C 
ATOM     27  H   UNL A   1      39.979  18.290  25.725  1.00  0.00     0.163 HD
ATOM     28  O   UNL A   1      42.327  18.854  25.854  1.00  0.00    -0.269 OA
BRANCH  26  29
ATOM     29  C   UNL A   1      41.725  21.002  26.588  1.00  0.00     0.039 A 
ATOM     30  C   UNL A   1      41.595  21.245  27.958  1.00  0.00     0.014 A 
ATOM     31  C   UNL A   1      42.088  22.048  25.735  1.00  0.00     0.014 A 
ATOM     32  C   UNL A   1      41.858  22.518  28.471  1.00  0.00     0.010 A 
ATOM     33  C   UNL A   1      42.447  23.290  26.259  1.00  0.00     0.010 A 
ATOM     34  C   UNL A   1      42.315  23.547  27.630  1.00  0.00    -0.014 A 
BRANCH  34  35
ATOM     35  C   UNL A   1      42.629  24.897  28.167  1.00  0.00     0.031 A 
ATOM     36  C   UNL A   1      44.041  25.251  28.559  1.00  0.00     0.074 A 
ATOM     37  C   UNL A   1      41.641  25.798  28.335  1.00  0.00     0.049 A 
ATOM     38  N   UNL A   1      44.502  26.366  29.069  1.00  0.00    -0.248 NA
ATOM     39  C   UNL A   1      45.067  24.210  28.375  1.00  0.00     0.031 C 
ATOM     40  C   UNL A   1      40.228  25.575  28.021  1.00  0.00     0.029 A 
ATOM     41  N   UNL A   1      41.675  27.087  28.808  1.00  0.00    -0.354 N 
ATOM     42  C   UNL A   1      45.861  26.156  29.275  1.00  0.00     0.074 A 
ATOM     43  C   UNL A   1      46.140  24.790  28.892  1.00  0.00     0.031 C 
ATOM     44  C   UNL A   1      39.538  26.697  28.275  1.00  0.00     0.029 A 
ATOM     45  C   UNL A   1      40.446  27.702  28.818  1.00  0.00     0.049 A 
ATOM     46  H   UNL A   1      42.501  27.528  29.111  1.00  0.00     0.167 HD
ATOM     47  C   UNL A   1      46.798  27.026  29.722  1.00  0.00     0.031 A 
ATOM     48  C   UNL A   1      40.086  28.934  29.229  1.00  0.00     0.031 A 
ATOM     49  C   UNL A   1      46.521  28.385  30.105  1.00  0.00     0.049 A 
ATOM     50  C   UNL A   1      41.140  29.864  29.766  1.00  0.00     0.074 A 
ATOM     51  C   UNL A   1      47.410  29.358  30.530  1.00  0.00     0.029 A 
ATOM     52  N   UNL A   1      45.260  28.961  30.118  1.00  0.00    -0.354 N 
ATOM     53  N   UNL A   1      42.430  29.670  29.890  1.00  0.00    -0.248 NA
ATOM     54  C   UNL A   1      40.685  31.190  30.210  1.00  0.00     0.031 C 
ATOM     55  C   UNL A   1      46.678  30.500  30.868  1.00  0.00     0.029 A 
ATOM     56  C   UNL A   1      45.344  30.266  30.577  1.00  0.00     0.049 A 
ATOM     57  H   UNL A   1      44.430  28.510  29.844  1.00  0.00     0.167 HD
ATOM     58  C   UNL A   1      42.946  30.859  30.393  1.00  0.00     0.074 A 
ATOM     59  C   UNL A   1      41.830  31.772  30.531  1.00  0.00     0.031 C 
ATOM     60  C   UNL A   1      44.227  31.166  30.711  1.00  0.00     0.031 A 
BRANCH  47  61
ATOM     61  C   UNL A   1      48.215  26.528  29.835  1.00  0.00    -0.014 A 
ATOM     62  C   UNL A   1      48.678  25.897  31.001  1.00  0.00     0.009 A 
ATOM     63  C   UNL A   1      49.086  26.649  28.740  1.00  0.00     0.009 A 
ATOM     64  C   UNL A   1      49.994  25.433  31.082  1.00  0.00     0.001 A 
ATOM     65  C   UNL A   1      50.389  26.153  28.811  1.00  0.00     0.001 A 
ATOM     66  C   UNL A   1      50.846  25.555  29.985  1.00  0.00     0.000 A 
ENDBRANCH  47  61
BRANCH  48  67
ATOM     67  C   UNL A   1      38.663  29.363  29.154  1.00  0.00    -0.014 A 
ATOM     68  C   UNL A   1      38.146  29.932  27.979  1.00  0.00     0.009 A 
ATOM     69  C   UNL A   1      37.819  29.230  30.267  1.00  0.00     0.009 A 
ATOM     70  C   UNL A   1      36.827  30.391  27.934  1.00  0.00     0.001 A 
ATOM     71  C   UNL A   1      36.490  29.655  30.208  1.00  0.00     0.001 A 
ATOM     72  C   UNL A   1      36.000  30.248  29.046  1.00  0.00     0.000 A 
ENDBRANCH  48  67
BRANCH  60  73
ATOM     73  C   UNL A   1      44.503  32.564  31.194  1.00  0.00    -0.014 A 
ATOM     74  C   UNL A   1      44.788  33.609  30.301  1.00  0.00     0.009 A 
ATOM     75  C   UNL A   1      44.435  32.846  32.568  1.00  0.00     0.009 A 
ATOM     76  C   UNL A   1      45.040  34.897  30.778  1.00  0.00     0.001 A 
ATOM     77  C   UNL A   1      44.648  34.142  33.039  1.00  0.00     0.001 A 
ATOM     78  C   UNL A   1      44.963  35.163  32.145  1.00  0.00     0.000 A 
ENDBRANCH  60  73
ENDBRANCH  34  35
ENDBRANCH  26  29
ENDBRANCH  24  25
ENDBRANCH  23  24
ENDBRANCH   1  23
TORSDOF 16
ENDMDL
