MODEL 1
REMARK VINA RESULT:     -11.6      0.000      0.000
REMARK SMILES O=C(NCCCNC(=O)[C@H](CO)NC(=O)[C@H](CS)NC(=O)[C@H](Cc1c[nH]c2ccccc12)NC(=O)c1ccc(F)cc1)c1ccc(-c2c3nc(c(-c4ccccc4)c4ccc([nH]4)c(-c4ccccc4)c4nc(c(-c5ccccc5)c5ccc2[nH]5)C=C4)C=C3)cc1
REMARK SMILES IDX 7 1 8 2 9 3 6 5 5 6 4 7 3 8 1 9 2 10 43 12 44 13 90 14 45 15
REMARK SMILES IDX 89 16 46 17 47 18 48 19 83 20 49 21 88 22 82 23 84 24 50 25
REMARK SMILES IDX 87 26 81 27 80 28 51 30 73 31 58 32 72 33 59 34 62 35 71 36
REMARK SMILES IDX 85 37 60 38 61 39 70 41 86 42 63 43 52 44 53 45 57 46 54 47
REMARK SMILES IDX 56 48 55 49 74 50 75 51 79 52 76 53 78 54 77 55 64 56 65 57
REMARK SMILES IDX 69 58 66 59 68 60 67 61 10 62 13 63 14 64 15 66 16 67 19 68
REMARK SMILES IDX 20 69 21 71 22 72 33 73 34 74 35 76 36 77 37 78 42 79 38 80
REMARK SMILES IDX 41 81 39 82 40 83 23 84 24 85 25 86 32 87 26 88 27 89 31 90
REMARK SMILES IDX 28 92 30 93 29 94 17 95 18 96 11 98 12 99
REMARK H PARENT 7 4 3 11 84 29 62 40 13 65 19 70 33 75 26 91 18 97 12 100
REMARK Flexibility Score: inf
ROOT
ATOM      1  N   UNL A   1      35.931  18.748  24.576  1.00  0.00    -0.354 N 
ATOM      2  C   UNL A   1      34.731  18.119  24.545  1.00  0.00     0.244 C 
ATOM      3  O   UNL A   1      34.701  17.010  23.996  1.00  0.00    -0.273 OA
ATOM      4  H   UNL A   1      36.640  18.284  24.074  1.00  0.00     0.163 HD
ENDROOT
BRANCH   1   5
ATOM      5  C   UNL A   1      36.363  19.976  25.212  1.00  0.00     0.117 C 
BRANCH   5   6
ATOM      6  C   UNL A   1      37.701  20.423  24.639  1.00  0.00     0.042 C 
BRANCH   6   7
ATOM      7  C   UNL A   1      38.726  20.671  25.735  1.00  0.00     0.118 C 
BRANCH   7   8
ATOM      8  N   UNL A   1      39.625  19.533  25.877  1.00  0.00    -0.352 N 
ATOM      9  O   UNL A   1      41.631  18.518  25.755  1.00  0.00    -0.269 OA
ATOM     10  C   UNL A   1      40.988  19.534  25.991  1.00  0.00     0.251 C 
ATOM     11  H   UNL A   1      39.195  18.648  25.895  1.00  0.00     0.163 HD
BRANCH  10  12
ATOM     12  C   UNL A   1      41.666  20.764  26.436  1.00  0.00     0.039 A 
ATOM     13  C   UNL A   1      42.081  21.705  25.488  1.00  0.00     0.014 A 
ATOM     14  C   UNL A   1      41.819  21.013  27.802  1.00  0.00     0.014 A 
ATOM     15  C   UNL A   1      42.729  22.857  25.897  1.00  0.00     0.010 A 
ATOM     16  C   UNL A   1      42.381  22.219  28.216  1.00  0.00     0.010 A 
ATOM     17  C   UNL A   1      42.826  23.149  27.264  1.00  0.00    -0.014 A 
BRANCH  17  18
ATOM     18  C   UNL A   1      43.229  24.513  27.662  1.00  0.00     0.031 A 
ATOM     19  C   UNL A   1      42.215  25.553  28.018  1.00  0.00     0.074 A 
ATOM     20  C   UNL A   1      44.549  24.786  27.684  1.00  0.00     0.049 A 
ATOM     21  N   UNL A   1      42.414  26.798  28.362  1.00  0.00    -0.248 NA
ATOM     22  C   UNL A   1      40.799  25.155  27.978  1.00  0.00     0.031 C 
ATOM     23  C   UNL A   1      45.615  23.835  27.340  1.00  0.00     0.029 A 
ATOM     24  N   UNL A   1      45.226  25.928  28.016  1.00  0.00    -0.354 N 
ATOM     25  C   UNL A   1      41.152  27.342  28.555  1.00  0.00     0.074 A 
ATOM     26  C   UNL A   1      40.192  26.295  28.283  1.00  0.00     0.031 C 
ATOM     27  C   UNL A   1      46.805  24.423  27.512  1.00  0.00     0.029 A 
ATOM     28  C   UNL A   1      46.590  25.808  27.899  1.00  0.00     0.049 A 
ATOM     29  H   UNL A   1      44.779  26.756  28.310  1.00  0.00     0.167 HD
ATOM     30  C   UNL A   1      40.838  28.607  28.918  1.00  0.00     0.031 A 
ATOM     31  C   UNL A   1      47.561  26.726  28.046  1.00  0.00     0.031 A 
ATOM     32  C   UNL A   1      41.812  29.633  29.186  1.00  0.00     0.049 A 
ATOM     33  C   UNL A   1      47.169  28.126  28.406  1.00  0.00     0.074 A 
ATOM     34  C   UNL A   1      41.597  30.928  29.625  1.00  0.00     0.029 A 
ATOM     35  N   UNL A   1      43.181  29.484  29.025  1.00  0.00    -0.354 N 
ATOM     36  N   UNL A   1      45.975  28.608  28.654  1.00  0.00    -0.248 NA
ATOM     37  C   UNL A   1      48.253  29.112  28.493  1.00  0.00     0.031 C 
ATOM     38  C   UNL A   1      42.831  31.583  29.665  1.00  0.00     0.029 A 
ATOM     39  C   UNL A   1      43.819  30.680  29.307  1.00  0.00     0.049 A 
ATOM     40  H   UNL A   1      43.631  28.653  28.751  1.00  0.00     0.167 HD
ATOM     41  C   UNL A   1      46.163  29.952  28.932  1.00  0.00     0.074 A 
ATOM     42  C   UNL A   1      47.589  30.201  28.856  1.00  0.00     0.031 C 
ATOM     43  C   UNL A   1      45.239  30.901  29.213  1.00  0.00     0.031 A 
BRANCH  30  44
ATOM     44  C   UNL A   1      39.385  28.976  29.016  1.00  0.00    -0.014 A 
ATOM     45  C   UNL A   1      38.672  29.447  27.904  1.00  0.00     0.009 A 
ATOM     46  C   UNL A   1      38.700  28.760  30.223  1.00  0.00     0.009 A 
ATOM     47  C   UNL A   1      37.303  29.706  28.003  1.00  0.00     0.001 A 
ATOM     48  C   UNL A   1      37.328  28.999  30.313  1.00  0.00     0.001 A 
ATOM     49  C   UNL A   1      36.631  29.474  29.203  1.00  0.00     0.000 A 
ENDBRANCH  30  44
BRANCH  31  50
ATOM     50  C   UNL A   1      48.978  26.362  27.784  1.00  0.00    -0.014 A 
ATOM     51  C   UNL A   1      49.837  26.009  28.833  1.00  0.00     0.009 A 
ATOM     52  C   UNL A   1      49.480  26.376  26.472  1.00  0.00     0.009 A 
ATOM     53  C   UNL A   1      51.177  25.707  28.577  1.00  0.00     0.001 A 
ATOM     54  C   UNL A   1      50.809  26.040  26.215  1.00  0.00     0.001 A 
ATOM     55  C   UNL A   1      51.660  25.717  27.269  1.00  0.00     0.000 A 
ENDBRANCH  31  50
BRANCH  43  56
ATOM     56  C   UNL A   1      45.751  32.289  29.461  1.00  0.00    -0.014 A 
ATOM     57  C   UNL A   1      45.848  33.219  28.414  1.00  0.00     0.009 A 
ATOM     58  C   UNL A   1      46.108  32.680  30.760  1.00  0.00     0.009 A 
ATOM     59  C   UNL A   1      46.322  34.507  28.659  1.00  0.00     0.001 A 
ATOM     60  C   UNL A   1      46.552  33.979  31.007  1.00  0.00     0.001 A 
ATOM     61  C   UNL A   1      46.667  34.888  29.956  1.00  0.00     0.000 A 
ENDBRANCH  43  56
ENDBRANCH  17  18
ENDBRANCH  10  12
ENDBRANCH   7   8
ENDBRANCH   6   7
ENDBRANCH   5   6
ENDBRANCH   1   5
BRANCH   2  62
ATOM     62  C   UNL A   1      33.407  18.788  24.952  1.00  0.00     0.197 C 
BRANCH  62  63
ATOM     63  N   UNL A   1      32.659  19.408  23.856  1.00  0.00    -0.340 N 
ATOM     64  C   UNL A   1      32.487  20.711  23.506  1.00  0.00     0.244 C 
ATOM     65  H   UNL A   1      32.198  18.767  23.268  1.00  0.00     0.164 HD
ATOM     66  O   UNL A   1      32.150  20.909  22.335  1.00  0.00    -0.273 OA
BRANCH  64  67
ATOM     67  C   UNL A   1      32.460  21.836  24.559  1.00  0.00     0.181 C 
BRANCH  67  68
ATOM     68  N   UNL A   1      31.301  21.836  25.456  1.00  0.00    -0.342 N 
ATOM     69  C   UNL A   1      30.637  22.911  25.991  1.00  0.00     0.243 C 
ATOM     70  H   UNL A   1      30.955  20.949  25.707  1.00  0.00     0.164 HD
ATOM     71  O   UNL A   1      29.792  22.676  26.855  1.00  0.00    -0.273 OA
BRANCH  69  72
ATOM     72  C   UNL A   1      30.971  24.351  25.519  1.00  0.00     0.176 C 
BRANCH  72  73
ATOM     73  N   UNL A   1      29.771  24.918  24.882  1.00  0.00    -0.340 N 
ATOM     74  C   UNL A   1      29.476  26.047  24.171  1.00  0.00     0.251 C 
ATOM     75  H   UNL A   1      28.984  24.339  24.997  1.00  0.00     0.164 HD
ATOM     76  O   UNL A   1      28.281  26.218  23.917  1.00  0.00    -0.269 OA
BRANCH  74  77
ATOM     77  C   UNL A   1      30.450  27.049  23.645  1.00  0.00     0.040 A 
ATOM     78  C   UNL A   1      30.420  28.425  23.887  1.00  0.00     0.017 A 
ATOM     79  C   UNL A   1      31.556  26.531  22.944  1.00  0.00     0.017 A 
ATOM     80  C   UNL A   1      31.469  29.256  23.475  1.00  0.00     0.040 A 
ATOM     81  C   UNL A   1      32.600  27.358  22.519  1.00  0.00     0.040 A 
ATOM     82  C   UNL A   1      32.550  28.715  22.799  1.00  0.00     0.123 A 
ATOM     83  F   UNL A   1      33.559  29.510  22.420  1.00  0.00    -0.207 F 
ENDBRANCH  74  77
ENDBRANCH  72  73
BRANCH  72  84
ATOM     84  C   UNL A   1      31.394  25.217  26.723  1.00  0.00     0.072 C 
BRANCH  84  85
ATOM     85  C   UNL A   1      32.530  26.147  26.411  1.00  0.00    -0.020 A 
ATOM     86  C   UNL A   1      33.747  25.804  25.854  1.00  0.00     0.087 A 
ATOM     87  C   UNL A   1      32.571  27.562  26.644  1.00  0.00     0.003 A 
ATOM     88  N   UNL A   1      34.470  26.947  25.653  1.00  0.00    -0.361 N 
ATOM     89  C   UNL A   1      33.792  28.029  26.157  1.00  0.00     0.046 A 
ATOM     90  C   UNL A   1      31.684  28.493  27.227  1.00  0.00     0.010 A 
ATOM     91  H   UNL A   1      35.348  26.988  25.211  1.00  0.00     0.166 HD
ATOM     92  C   UNL A   1      34.170  29.375  26.217  1.00  0.00     0.026 A 
ATOM     93  C   UNL A   1      32.056  29.840  27.313  1.00  0.00     0.001 A 
ATOM     94  C   UNL A   1      33.282  30.272  26.813  1.00  0.00     0.002 A 
ENDBRANCH  84  85
ENDBRANCH  72  84
ENDBRANCH  69  72
ENDBRANCH  67  68
BRANCH  67  95
ATOM     95  C   UNL A   1      33.753  21.923  25.396  1.00  0.00     0.101 C 
BRANCH  95  96
ATOM     96  S   UNL A   1      33.540  21.750  27.200  1.00  0.00    -0.177 SA
ATOM     97  H   UNL A   1      34.273  22.703  27.836  1.00  0.00     0.102 HD
ENDBRANCH  95  96
ENDBRANCH  67  95
ENDBRANCH  64  67
ENDBRANCH  62  63
BRANCH  62  98
ATOM     98  C   UNL A   1      32.541  17.761  25.718  1.00  0.00     0.191 C 
BRANCH  98  99
ATOM     99  O   UNL A   1      33.257  16.699  26.342  1.00  0.00    -0.394 OA
ATOM    100  H   UNL A   1      34.202  16.785  26.146  1.00  0.00     0.210 HD
ENDBRANCH  98  99
ENDBRANCH  62  98
ENDBRANCH   2  62
TORSDOF 22
ENDMDL
MODEL 2
REMARK VINA RESULT:     -11.6      1.061      5.537
REMARK SMILES O=C(NCCCNC(=O)[C@H](CO)NC(=O)[C@H](CS)NC(=O)[C@H](Cc1c[nH]c2ccccc12)NC(=O)c1ccc(F)cc1)c1ccc(-c2c3nc(c(-c4ccccc4)c4ccc([nH]4)c(-c4ccccc4)c4nc(c(-c5ccccc5)c5ccc2[nH]5)C=C4)C=C3)cc1
REMARK SMILES IDX 7 1 8 2 9 3 6 5 5 6 4 7 3 8 1 9 2 10 43 12 44 13 90 14 45 15
REMARK SMILES IDX 89 16 46 17 47 18 48 19 83 20 49 21 88 22 82 23 84 24 50 25
REMARK SMILES IDX 87 26 81 27 80 28 51 30 73 31 58 32 72 33 59 34 62 35 71 36
REMARK SMILES IDX 85 37 60 38 61 39 70 41 86 42 63 43 52 44 53 45 57 46 54 47
REMARK SMILES IDX 56 48 55 49 74 50 75 51 79 52 76 53 78 54 77 55 64 56 65 57
REMARK SMILES IDX 69 58 66 59 68 60 67 61 10 62 13 63 14 64 15 66 16 67 19 68
REMARK SMILES IDX 20 69 21 71 22 72 33 73 34 74 35 76 36 77 37 78 42 79 38 80
REMARK SMILES IDX 41 81 39 82 40 83 23 84 24 85 25 86 32 87 26 88 27 89 31 90
REMARK SMILES IDX 28 92 30 93 29 94 17 95 18 96 11 98 12 99
REMARK H PARENT 7 4 3 11 84 29 62 40 13 65 19 70 33 75 26 91 18 97 12 100
REMARK Flexibility Score: inf
ROOT
ATOM      1  N   UNL A   1      35.897  18.979  24.617  1.00  0.00    -0.354 N 
ATOM      2  C   UNL A   1      34.792  18.194  24.634  1.00  0.00     0.244 C 
ATOM      3  O   UNL A   1      34.911  17.060  24.153  1.00  0.00    -0.273 OA
ATOM      4  H   UNL A   1      36.662  18.584  24.139  1.00  0.00     0.163 HD
ENDROOT
BRANCH   1   5
ATOM      5  C   UNL A   1      36.160  20.290  25.174  1.00  0.00     0.117 C 
BRANCH   5   6
ATOM      6  C   UNL A   1      37.450  20.858  24.596  1.00  0.00     0.042 C 
BRANCH   6   7
ATOM      7  C   UNL A   1      38.488  21.106  25.680  1.00  0.00     0.118 C 
BRANCH   7   8
ATOM      8  N   UNL A   1      39.400  19.976  25.799  1.00  0.00    -0.352 N 
ATOM      9  O   UNL A   1      41.431  19.005  25.739  1.00  0.00    -0.269 OA
ATOM     10  C   UNL A   1      40.752  19.990  26.005  1.00  0.00     0.251 C 
ATOM     11  H   UNL A   1      38.988  19.085  25.723  1.00  0.00     0.163 HD
BRANCH  10  12
ATOM     12  C   UNL A   1      41.372  21.194  26.584  1.00  0.00     0.039 A 
ATOM     13  C   UNL A   1      41.920  22.163  25.737  1.00  0.00     0.014 A 
ATOM     14  C   UNL A   1      41.340  21.391  27.965  1.00  0.00     0.014 A 
ATOM     15  C   UNL A   1      42.516  23.291  26.272  1.00  0.00     0.010 A 
ATOM     16  C   UNL A   1      41.850  22.575  28.498  1.00  0.00     0.010 A 
ATOM     17  C   UNL A   1      42.428  23.532  27.650  1.00  0.00    -0.014 A 
BRANCH  17  18
ATOM     18  C   UNL A   1      42.784  24.876  28.150  1.00  0.00     0.031 A 
ATOM     19  C   UNL A   1      44.193  25.223  28.514  1.00  0.00     0.074 A 
ATOM     20  C   UNL A   1      41.787  25.774  28.274  1.00  0.00     0.049 A 
ATOM     21  N   UNL A   1      44.655  26.350  28.988  1.00  0.00    -0.248 NA
ATOM     22  C   UNL A   1      45.214  24.180  28.330  1.00  0.00     0.031 C 
ATOM     23  C   UNL A   1      40.376  25.520  27.955  1.00  0.00     0.029 A 
ATOM     24  N   UNL A   1      41.798  27.079  28.688  1.00  0.00    -0.354 N 
ATOM     25  C   UNL A   1      46.013  26.147  29.186  1.00  0.00     0.074 A 
ATOM     26  C   UNL A   1      46.302  24.786  28.787  1.00  0.00     0.031 C 
ATOM     27  C   UNL A   1      39.669  26.640  28.151  1.00  0.00     0.029 A 
ATOM     28  C   UNL A   1      40.555  27.663  28.684  1.00  0.00     0.049 A 
ATOM     29  H   UNL A   1      42.618  27.553  28.962  1.00  0.00     0.167 HD
ATOM     30  C   UNL A   1      46.925  27.023  29.666  1.00  0.00     0.031 A 
ATOM     31  C   UNL A   1      40.162  28.878  29.104  1.00  0.00     0.031 A 
ATOM     32  C   UNL A   1      46.615  28.375  30.055  1.00  0.00     0.049 A 
ATOM     33  C   UNL A   1      41.194  29.804  29.671  1.00  0.00     0.074 A 
ATOM     34  C   UNL A   1      47.480  29.363  30.492  1.00  0.00     0.029 A 
ATOM     35  N   UNL A   1      45.341  28.920  30.069  1.00  0.00    -0.354 N 
ATOM     36  N   UNL A   1      42.488  29.622  29.785  1.00  0.00    -0.248 NA
ATOM     37  C   UNL A   1      40.714  31.095  30.177  1.00  0.00     0.031 C 
ATOM     38  C   UNL A   1      46.720  30.485  30.834  1.00  0.00     0.029 A 
ATOM     39  C   UNL A   1      45.390  30.216  30.555  1.00  0.00     0.049 A 
ATOM     40  H   UNL A   1      44.523  28.455  29.777  1.00  0.00     0.167 HD
ATOM     41  C   UNL A   1      42.979  30.777  30.373  1.00  0.00     0.074 A 
ATOM     42  C   UNL A   1      41.848  31.666  30.558  1.00  0.00     0.031 C 
ATOM     43  C   UNL A   1      44.248  31.073  30.739  1.00  0.00     0.031 A 
BRANCH  30  44
ATOM     44  C   UNL A   1      48.341  26.552  29.837  1.00  0.00    -0.014 A 
ATOM     45  C   UNL A   1      48.762  25.907  31.009  1.00  0.00     0.009 A 
ATOM     46  C   UNL A   1      49.242  26.675  28.767  1.00  0.00     0.009 A 
ATOM     47  C   UNL A   1      50.062  25.406  31.111  1.00  0.00     0.001 A 
ATOM     48  C   UNL A   1      50.533  26.155  28.862  1.00  0.00     0.001 A 
ATOM     49  C   UNL A   1      50.943  25.523  30.035  1.00  0.00     0.000 A 
ENDBRANCH  30  44
BRANCH  31  50
ATOM     50  C   UNL A   1      38.724  29.252  29.067  1.00  0.00    -0.014 A 
ATOM     51  C   UNL A   1      38.155  29.820  27.919  1.00  0.00     0.009 A 
ATOM     52  C   UNL A   1      37.912  29.047  30.196  1.00  0.00     0.009 A 
ATOM     53  C   UNL A   1      36.812  30.202  27.911  1.00  0.00     0.001 A 
ATOM     54  C   UNL A   1      36.562  29.397  30.173  1.00  0.00     0.001 A 
ATOM     55  C   UNL A   1      36.015  29.986  29.035  1.00  0.00     0.000 A 
ENDBRANCH  31  50
BRANCH  43  56
ATOM     56  C   UNL A   1      44.472  32.415  31.370  1.00  0.00    -0.014 A 
ATOM     57  C   UNL A   1      44.421  32.572  32.764  1.00  0.00     0.009 A 
ATOM     58  C   UNL A   1      44.771  33.525  30.566  1.00  0.00     0.009 A 
ATOM     59  C   UNL A   1      44.635  33.825  33.339  1.00  0.00     0.001 A 
ATOM     60  C   UNL A   1      45.016  34.769  31.146  1.00  0.00     0.001 A 
ATOM     61  C   UNL A   1      44.939  34.920  32.530  1.00  0.00     0.000 A 
ENDBRANCH  43  56
ENDBRANCH  17  18
ENDBRANCH  10  12
ENDBRANCH   7   8
ENDBRANCH   6   7
ENDBRANCH   5   6
ENDBRANCH   1   5
BRANCH   2  62
ATOM     62  C   UNL A   1      33.390  18.704  25.010  1.00  0.00     0.197 C 
BRANCH  62  63
ATOM     63  N   UNL A   1      32.795  19.649  24.064  1.00  0.00    -0.340 N 
ATOM     64  C   UNL A   1      32.678  21.003  24.095  1.00  0.00     0.244 C 
ATOM     65  H   UNL A   1      32.409  19.228  23.261  1.00  0.00     0.164 HD
ATOM     66  O   UNL A   1      32.497  21.549  23.002  1.00  0.00    -0.273 OA
BRANCH  64  67
ATOM     67  C   UNL A   1      32.523  21.773  25.421  1.00  0.00     0.181 C 
BRANCH  67  68
ATOM     68  N   UNL A   1      31.166  21.816  25.972  1.00  0.00    -0.342 N 
ATOM     69  C   UNL A   1      30.367  22.910  26.189  1.00  0.00     0.243 C 
ATOM     70  H   UNL A   1      30.778  20.946  26.221  1.00  0.00     0.164 HD
ATOM     71  O   UNL A   1      29.325  22.730  26.818  1.00  0.00    -0.273 OA
BRANCH  69  72
ATOM     72  C   UNL A   1      30.796  24.307  25.663  1.00  0.00     0.176 C 
BRANCH  72  73
ATOM     73  N   UNL A   1      29.618  24.956  25.064  1.00  0.00    -0.340 N 
ATOM     74  C   UNL A   1      29.391  26.058  24.290  1.00  0.00     0.251 C 
ATOM     75  H   UNL A   1      28.785  24.475  25.273  1.00  0.00     0.164 HD
ATOM     76  O   UNL A   1      28.204  26.340  24.102  1.00  0.00    -0.269 OA
BRANCH  74  77
ATOM     77  C   UNL A   1      30.422  26.911  23.628  1.00  0.00     0.040 A 
ATOM     78  C   UNL A   1      30.543  28.298  23.754  1.00  0.00     0.017 A 
ATOM     79  C   UNL A   1      31.426  26.228  22.913  1.00  0.00     0.017 A 
ATOM     80  C   UNL A   1      31.639  28.981  23.215  1.00  0.00     0.040 A 
ATOM     81  C   UNL A   1      32.516  26.908  22.362  1.00  0.00     0.040 A 
ATOM     82  C   UNL A   1      32.617  28.281  22.528  1.00  0.00     0.123 A 
ATOM     83  F   UNL A   1      33.672  28.935  22.029  1.00  0.00    -0.207 F 
ENDBRANCH  74  77
ENDBRANCH  72  73
BRANCH  72  84
ATOM     84  C   UNL A   1      31.342  25.163  26.824  1.00  0.00     0.072 C 
BRANCH  84  85
ATOM     85  C   UNL A   1      32.460  26.074  26.409  1.00  0.00    -0.020 A 
ATOM     86  C   UNL A   1      33.641  25.704  25.794  1.00  0.00     0.087 A 
ATOM     87  C   UNL A   1      32.520  27.497  26.586  1.00  0.00     0.003 A 
ATOM     88  N   UNL A   1      34.354  26.834  25.507  1.00  0.00    -0.361 N 
ATOM     89  C   UNL A   1      33.712  27.938  26.010  1.00  0.00     0.046 A 
ATOM     90  C   UNL A   1      31.673  28.453  27.185  1.00  0.00     0.010 A 
ATOM     91  H   UNL A   1      35.204  26.853  25.012  1.00  0.00     0.166 HD
ATOM     92  C   UNL A   1      34.097  29.283  25.996  1.00  0.00     0.026 A 
ATOM     93  C   UNL A   1      32.054  29.801  27.198  1.00  0.00     0.001 A 
ATOM     94  C   UNL A   1      33.249  30.207  26.610  1.00  0.00     0.002 A 
ENDBRANCH  84  85
ENDBRANCH  72  84
ENDBRANCH  69  72
ENDBRANCH  67  68
BRANCH  67  95
ATOM     95  C   UNL A   1      33.505  21.310  26.517  1.00  0.00     0.101 C 
BRANCH  95  96
ATOM     96  S   UNL A   1      33.831  22.515  27.847  1.00  0.00    -0.177 SA
ATOM     97  H   UNL A   1      32.896  23.502  27.803  1.00  0.00     0.102 HD
ENDBRANCH  95  96
ENDBRANCH  67  95
ENDBRANCH  64  67
ENDBRANCH  62  63
BRANCH  62  98
ATOM     98  C   UNL A   1      32.464  17.489  25.255  1.00  0.00     0.191 C 
BRANCH  98  99
ATOM     99  O   UNL A   1      32.951  16.522  26.181  1.00  0.00    -0.394 OA
ATOM    100  H   UNL A   1      33.730  16.080  25.810  1.00  0.00     0.210 HD
ENDBRANCH  98  99
ENDBRANCH  62  98
ENDBRANCH   2  62
TORSDOF 22
ENDMDL
MODEL 3
REMARK VINA RESULT:     -11.3      1.564      5.870
REMARK SMILES O=C(NCCCNC(=O)[C@H](CO)NC(=O)[C@H](CS)NC(=O)[C@H](Cc1c[nH]c2ccccc12)NC(=O)c1ccc(F)cc1)c1ccc(-c2c3nc(c(-c4ccccc4)c4ccc([nH]4)c(-c4ccccc4)c4nc(c(-c5ccccc5)c5ccc2[nH]5)C=C4)C=C3)cc1
REMARK SMILES IDX 7 1 8 2 9 3 6 5 5 6 4 7 3 8 1 9 2 10 43 12 44 13 90 14 45 15
REMARK SMILES IDX 89 16 46 17 47 18 48 19 83 20 49 21 88 22 82 23 84 24 50 25
REMARK SMILES IDX 87 26 81 27 80 28 51 30 73 31 58 32 72 33 59 34 62 35 71 36
REMARK SMILES IDX 85 37 60 38 61 39 70 41 86 42 63 43 52 44 53 45 57 46 54 47
REMARK SMILES IDX 56 48 55 49 74 50 75 51 79 52 76 53 78 54 77 55 64 56 65 57
REMARK SMILES IDX 69 58 66 59 68 60 67 61 10 62 13 63 14 64 15 66 16 67 19 68
REMARK SMILES IDX 20 69 21 71 22 72 33 73 34 74 35 76 36 77 37 78 42 79 38 80
REMARK SMILES IDX 41 81 39 82 40 83 23 84 24 85 25 86 32 87 26 88 27 89 31 90
REMARK SMILES IDX 28 92 30 93 29 94 17 95 18 96 11 98 12 99
REMARK H PARENT 7 4 3 11 84 29 62 40 13 65 19 70 33 75 26 91 18 97 12 100
REMARK Flexibility Score: inf
ROOT
ATOM      1  N   UNL A   1      35.802  19.006  24.541  1.00  0.00    -0.354 N 
ATOM      2  C   UNL A   1      34.683  18.250  24.647  1.00  0.00     0.244 C 
ATOM      3  O   UNL A   1      34.693  17.160  24.060  1.00  0.00    -0.273 OA
ATOM      4  H   UNL A   1      36.479  18.637  23.927  1.00  0.00     0.163 HD
ENDROOT
BRANCH   1   5
ATOM      5  C   UNL A   1      36.187  20.256  25.163  1.00  0.00     0.117 C 
BRANCH   5   6
ATOM      6  C   UNL A   1      37.518  20.737  24.599  1.00  0.00     0.042 C 
BRANCH   6   7
ATOM      7  C   UNL A   1      38.536  20.988  25.701  1.00  0.00     0.118 C 
BRANCH   7   8
ATOM      8  N   UNL A   1      39.479  19.882  25.804  1.00  0.00    -0.352 N 
ATOM      9  O   UNL A   1      41.534  18.967  25.721  1.00  0.00    -0.269 OA
ATOM     10  C   UNL A   1      40.831  19.931  25.999  1.00  0.00     0.251 C 
ATOM     11  H   UNL A   1      39.090  18.981  25.724  1.00  0.00     0.163 HD
BRANCH  10  12
ATOM     12  C   UNL A   1      41.424  21.147  26.582  1.00  0.00     0.039 A 
ATOM     13  C   UNL A   1      41.974  22.119  25.740  1.00  0.00     0.014 A 
ATOM     14  C   UNL A   1      41.363  21.352  27.962  1.00  0.00     0.014 A 
ATOM     15  C   UNL A   1      42.544  23.258  26.280  1.00  0.00     0.010 A 
ATOM     16  C   UNL A   1      41.846  22.545  28.497  1.00  0.00     0.010 A 
ATOM     17  C   UNL A   1      42.427  23.506  27.655  1.00  0.00    -0.014 A 
BRANCH  17  18
ATOM     18  C   UNL A   1      42.755  24.857  28.153  1.00  0.00     0.031 A 
ATOM     19  C   UNL A   1      44.147  25.220  28.561  1.00  0.00     0.074 A 
ATOM     20  C   UNL A   1      41.747  25.749  28.234  1.00  0.00     0.049 A 
ATOM     21  N   UNL A   1      44.584  26.355  29.040  1.00  0.00    -0.248 NA
ATOM     22  C   UNL A   1      45.182  24.183  28.424  1.00  0.00     0.031 C 
ATOM     23  C   UNL A   1      40.350  25.480  27.868  1.00  0.00     0.029 A 
ATOM     24  N   UNL A   1      41.734  27.057  28.634  1.00  0.00    -0.354 N 
ATOM     25  C   UNL A   1      45.936  26.165  29.287  1.00  0.00     0.074 A 
ATOM     26  C   UNL A   1      46.249  24.803  28.911  1.00  0.00     0.031 C 
ATOM     27  C   UNL A   1      39.627  26.596  28.029  1.00  0.00     0.029 A 
ATOM     28  C   UNL A   1      40.486  27.631  28.582  1.00  0.00     0.049 A 
ATOM     29  H   UNL A   1      42.539  27.541  28.932  1.00  0.00     0.167 HD
ATOM     30  C   UNL A   1      46.823  27.053  29.789  1.00  0.00     0.031 A 
ATOM     31  C   UNL A   1      40.070  28.847  28.976  1.00  0.00     0.031 A 
ATOM     32  C   UNL A   1      46.490  28.406  30.154  1.00  0.00     0.049 A 
ATOM     33  C   UNL A   1      41.074  29.787  29.568  1.00  0.00     0.074 A 
ATOM     34  C   UNL A   1      47.331  29.406  30.611  1.00  0.00     0.029 A 
ATOM     35  N   UNL A   1      45.211  28.941  30.118  1.00  0.00    -0.354 N 
ATOM     36  N   UNL A   1      42.364  29.617  29.729  1.00  0.00    -0.248 NA
ATOM     37  C   UNL A   1      40.567  31.079  30.045  1.00  0.00     0.031 C 
ATOM     38  C   UNL A   1      46.551  30.524  30.915  1.00  0.00     0.029 A 
ATOM     39  C   UNL A   1      45.233  30.242  30.593  1.00  0.00     0.049 A 
ATOM     40  H   UNL A   1      44.408  28.467  29.803  1.00  0.00     0.167 HD
ATOM     41  C   UNL A   1      42.826  30.781  30.322  1.00  0.00     0.074 A 
ATOM     42  C   UNL A   1      41.683  31.663  30.459  1.00  0.00     0.031 C 
ATOM     43  C   UNL A   1      44.079  31.092  30.729  1.00  0.00     0.031 A 
BRANCH  30  44
ATOM     44  C   UNL A   1      48.237  26.595  30.014  1.00  0.00    -0.014 A 
ATOM     45  C   UNL A   1      48.626  25.984  31.214  1.00  0.00     0.009 A 
ATOM     46  C   UNL A   1      49.168  26.697  28.968  1.00  0.00     0.009 A 
ATOM     47  C   UNL A   1      49.926  25.494  31.366  1.00  0.00     0.001 A 
ATOM     48  C   UNL A   1      50.458  26.187  29.114  1.00  0.00     0.001 A 
ATOM     49  C   UNL A   1      50.838  25.588  30.314  1.00  0.00     0.000 A 
ENDBRANCH  30  44
BRANCH  31  50
ATOM     50  C   UNL A   1      38.631  29.208  28.886  1.00  0.00    -0.014 A 
ATOM     51  C   UNL A   1      38.082  29.691  27.690  1.00  0.00     0.009 A 
ATOM     52  C   UNL A   1      37.798  29.078  30.010  1.00  0.00     0.009 A 
ATOM     53  C   UNL A   1      36.737  30.064  27.630  1.00  0.00     0.001 A 
ATOM     54  C   UNL A   1      36.447  29.418  29.937  1.00  0.00     0.001 A 
ATOM     55  C   UNL A   1      35.920  29.922  28.751  1.00  0.00     0.000 A 
ENDBRANCH  31  50
BRANCH  43  56
ATOM     56  C   UNL A   1      44.270  32.442  31.354  1.00  0.00    -0.014 A 
ATOM     57  C   UNL A   1      44.542  33.569  30.563  1.00  0.00     0.009 A 
ATOM     58  C   UNL A   1      44.144  32.593  32.742  1.00  0.00     0.009 A 
ATOM     59  C   UNL A   1      44.714  34.819  31.157  1.00  0.00     0.001 A 
ATOM     60  C   UNL A   1      44.285  33.850  33.330  1.00  0.00     0.001 A 
ATOM     61  C   UNL A   1      44.579  34.959  32.538  1.00  0.00     0.000 A 
ENDBRANCH  43  56
ENDBRANCH  17  18
ENDBRANCH  10  12
ENDBRANCH   7   8
ENDBRANCH   6   7
ENDBRANCH   5   6
ENDBRANCH   1   5
BRANCH   2  62
ATOM     62  C   UNL A   1      33.366  18.758  25.258  1.00  0.00     0.197 C 
BRANCH  62  63
ATOM     63  N   UNL A   1      32.579  19.643  24.398  1.00  0.00    -0.340 N 
ATOM     64  C   UNL A   1      32.452  20.997  24.373  1.00  0.00     0.244 C 
ATOM     65  H   UNL A   1      32.046  19.175  23.715  1.00  0.00     0.164 HD
ATOM     66  O   UNL A   1      32.047  21.476  23.309  1.00  0.00    -0.273 OA
BRANCH  64  67
ATOM     67  C   UNL A   1      32.555  21.844  25.657  1.00  0.00     0.181 C 
BRANCH  67  68
ATOM     68  N   UNL A   1      31.287  22.119  26.337  1.00  0.00    -0.342 N 
ATOM     69  C   UNL A   1      30.601  23.304  26.416  1.00  0.00     0.243 C 
ATOM     70  H   UNL A   1      30.874  21.353  26.798  1.00  0.00     0.164 HD
ATOM     71  O   UNL A   1      29.638  23.347  27.182  1.00  0.00    -0.273 OA
BRANCH  69  72
ATOM     72  C   UNL A   1      31.055  24.528  25.575  1.00  0.00     0.176 C 
BRANCH  72  73
ATOM     73  N   UNL A   1      32.516  24.656  25.699  1.00  0.00    -0.340 N 
ATOM     74  C   UNL A   1      33.412  25.686  25.739  1.00  0.00     0.251 C 
ATOM     75  H   UNL A   1      32.958  23.780  25.771  1.00  0.00     0.164 HD
ATOM     76  O   UNL A   1      34.601  25.357  25.720  1.00  0.00    -0.269 OA
BRANCH  74  77
ATOM     77  C   UNL A   1      33.094  27.141  25.846  1.00  0.00     0.040 A 
ATOM     78  C   UNL A   1      33.527  28.141  24.970  1.00  0.00     0.017 A 
ATOM     79  C   UNL A   1      32.180  27.504  26.854  1.00  0.00     0.017 A 
ATOM     80  C   UNL A   1      33.044  29.451  25.071  1.00  0.00     0.040 A 
ATOM     81  C   UNL A   1      31.705  28.814  26.967  1.00  0.00     0.040 A 
ATOM     82  C   UNL A   1      32.135  29.775  26.065  1.00  0.00     0.123 A 
ATOM     83  F   UNL A   1      31.664  31.025  26.149  1.00  0.00    -0.207 F 
ENDBRANCH  74  77
ENDBRANCH  72  73
BRANCH  72  84
ATOM     84  C   UNL A   1      30.661  24.328  24.097  1.00  0.00     0.072 C 
BRANCH  84  85
ATOM     85  C   UNL A   1      31.094  25.461  23.213  1.00  0.00    -0.020 A 
ATOM     86  C   UNL A   1      32.061  25.415  22.227  1.00  0.00     0.087 A 
ATOM     87  C   UNL A   1      30.597  26.807  23.236  1.00  0.00     0.003 A 
ATOM     88  N   UNL A   1      32.096  26.627  21.597  1.00  0.00    -0.361 N 
ATOM     89  C   UNL A   1      31.240  27.506  22.214  1.00  0.00     0.046 A 
ATOM     90  C   UNL A   1      29.661  27.500  24.033  1.00  0.00     0.010 A 
ATOM     91  H   UNL A   1      32.654  26.840  20.814  1.00  0.00     0.166 HD
ATOM     92  C   UNL A   1      30.993  28.856  21.944  1.00  0.00     0.026 A 
ATOM     93  C   UNL A   1      29.416  28.857  23.788  1.00  0.00     0.001 A 
ATOM     94  C   UNL A   1      30.074  29.522  22.756  1.00  0.00     0.002 A 
ENDBRANCH  84  85
ENDBRANCH  72  84
ENDBRANCH  69  72
ENDBRANCH  67  68
BRANCH  67  95
ATOM     95  C   UNL A   1      33.571  21.289  26.676  1.00  0.00     0.101 C 
BRANCH  95  96
ATOM     96  S   UNL A   1      34.262  22.508  27.846  1.00  0.00    -0.177 SA
ATOM     97  H   UNL A   1      35.243  21.921  28.584  1.00  0.00     0.102 HD
ENDBRANCH  95  96
ENDBRANCH  67  95
ENDBRANCH  64  67
ENDBRANCH  62  63
BRANCH  62  98
ATOM     98  C   UNL A   1      32.533  17.544  25.733  1.00  0.00     0.191 C 
BRANCH  98  99
ATOM     99  O   UNL A   1      31.978  16.737  24.698  1.00  0.00    -0.394 OA
ATOM    100  H   UNL A   1      32.220  17.106  23.834  1.00  0.00     0.210 HD
ENDBRANCH  98  99
ENDBRANCH  62  98
ENDBRANCH   2  62
TORSDOF 22
ENDMDL
