MODEL 1
REMARK VINA RESULT:     -11.0      0.000      0.000
REMARK SMILES O=C(NCCCNC(=O)c1ccc(C2SCCCS2)cc1)c1ccc(-c2c3nc(c(-c4ccccc4)c4ccc([nH]4)c(-c4ccccc4)c4nc(c(-c5ccccc5)c5ccc2[nH]5)C=C4)C=C3)cc1
REMARK SMILES IDX 4 1 3 2 1 3 2 4 22 6 23 7 69 8 24 9 68 10 25 11 26 12 27 13
REMARK SMILES IDX 62 14 28 15 67 16 61 17 63 18 29 19 66 20 60 21 59 22 30 24
REMARK SMILES IDX 52 25 37 26 51 27 38 28 41 29 50 30 64 31 39 32 40 33 49 35
REMARK SMILES IDX 65 36 42 37 31 38 32 39 36 40 33 41 35 42 34 43 53 44 54 45
REMARK SMILES IDX 58 46 55 47 57 48 56 49 43 50 44 51 48 52 45 53 47 54 46 55
REMARK SMILES IDX 5 56 6 57 7 58 8 59 9 61 10 62 11 63 21 64 12 65 20 66 13 67
REMARK SMILES IDX 14 68 15 69 19 70 16 71 18 72 17 73
REMARK H PARENT 3 5 63 23 41 34 7 60
REMARK Flexibility Score: inf
ROOT
ATOM      1  C   UNL A   1      39.072  20.138  25.770  1.00  0.00     0.118 C 
ENDROOT
BRANCH   1   2
ATOM      2  N   UNL A   1      40.189  19.202  25.820  1.00  0.00    -0.352 N 
ATOM      3  O   UNL A   1      42.347  18.550  25.911  1.00  0.00    -0.269 OA
ATOM      4  C   UNL A   1      41.519  19.441  26.073  1.00  0.00     0.251 C 
ATOM      5  H   UNL A   1      39.957  18.261  25.649  1.00  0.00     0.163 HD
BRANCH   4   6
ATOM      6  C   UNL A   1      41.950  20.784  26.512  1.00  0.00     0.039 A 
ATOM      7  C   UNL A   1      41.988  21.104  27.871  1.00  0.00     0.014 A 
ATOM      8  C   UNL A   1      42.307  21.738  25.557  1.00  0.00     0.014 A 
ATOM      9  C   UNL A   1      42.194  22.416  28.264  1.00  0.00     0.010 A 
ATOM     10  C   UNL A   1      42.641  23.031  25.965  1.00  0.00     0.010 A 
ATOM     11  C   UNL A   1      42.554  23.389  27.320  1.00  0.00    -0.014 A 
BRANCH  11  12
ATOM     12  C   UNL A   1      42.926  24.744  27.791  1.00  0.00     0.031 A 
ATOM     13  C   UNL A   1      41.886  25.781  28.099  1.00  0.00     0.074 A 
ATOM     14  C   UNL A   1      44.234  25.027  27.948  1.00  0.00     0.049 A 
ATOM     15  N   UNL A   1      42.053  27.013  28.511  1.00  0.00    -0.248 NA
ATOM     16  C   UNL A   1      40.480  25.395  27.913  1.00  0.00     0.031 C 
ATOM     17  C   UNL A   1      45.336  24.098  27.673  1.00  0.00     0.029 A 
ATOM     18  N   UNL A   1      44.861  26.163  28.386  1.00  0.00    -0.354 N 
ATOM     19  C   UNL A   1      40.778  27.557  28.609  1.00  0.00     0.074 A 
ATOM     20  C   UNL A   1      39.850  26.529  28.189  1.00  0.00     0.031 C 
ATOM     21  C   UNL A   1      46.497  24.688  27.986  1.00  0.00     0.029 A 
ATOM     22  C   UNL A   1      46.229  26.057  28.404  1.00  0.00     0.049 A 
ATOM     23  H   UNL A   1      44.378  26.976  28.660  1.00  0.00     0.167 HD
ATOM     24  C   UNL A   1      40.420  28.801  29.011  1.00  0.00     0.031 A 
ATOM     25  C   UNL A   1      47.176  26.969  28.689  1.00  0.00     0.031 A 
ATOM     26  C   UNL A   1      41.355  29.820  29.416  1.00  0.00     0.049 A 
ATOM     27  C   UNL A   1      46.753  28.350  29.087  1.00  0.00     0.074 A 
ATOM     28  C   UNL A   1      41.090  31.098  29.877  1.00  0.00     0.029 A 
ATOM     29  N   UNL A   1      42.735  29.684  29.390  1.00  0.00    -0.354 N 
ATOM     30  N   UNL A   1      45.542  28.834  29.221  1.00  0.00    -0.248 NA
ATOM     31  C   UNL A   1      47.826  29.308  29.377  1.00  0.00     0.031 C 
ATOM     32  C   UNL A   1      42.310  31.757  30.065  1.00  0.00     0.029 A 
ATOM     33  C   UNL A   1      43.336  30.867  29.791  1.00  0.00     0.049 A 
ATOM     34  H   UNL A   1      43.218  28.867  29.126  1.00  0.00     0.167 HD
ATOM     35  C   UNL A   1      45.706  30.151  29.628  1.00  0.00     0.074 A 
ATOM     36  C   UNL A   1      47.133  30.379  29.739  1.00  0.00     0.031 C 
ATOM     37  C   UNL A   1      44.758  31.084  29.885  1.00  0.00     0.031 A 
BRANCH  24  38
ATOM     38  C   UNL A   1      38.953  29.143  28.989  1.00  0.00    -0.014 A 
ATOM     39  C   UNL A   1      38.149  29.018  30.133  1.00  0.00     0.009 A 
ATOM     40  C   UNL A   1      38.374  29.626  27.805  1.00  0.00     0.009 A 
ATOM     41  C   UNL A   1      36.787  29.328  30.078  1.00  0.00     0.001 A 
ATOM     42  C   UNL A   1      37.019  29.965  27.761  1.00  0.00     0.001 A 
ATOM     43  C   UNL A   1      36.225  29.803  28.894  1.00  0.00     0.000 A 
ENDBRANCH  24  38
BRANCH  25  44
ATOM     44  C   UNL A   1      48.609  26.597  28.565  1.00  0.00    -0.014 A 
ATOM     45  C   UNL A   1      49.297  26.776  27.358  1.00  0.00     0.009 A 
ATOM     46  C   UNL A   1      49.305  26.095  29.677  1.00  0.00     0.009 A 
ATOM     47  C   UNL A   1      50.650  26.442  27.262  1.00  0.00     0.001 A 
ATOM     48  C   UNL A   1      50.665  25.795  29.588  1.00  0.00     0.001 A 
ATOM     49  C   UNL A   1      51.334  25.960  28.378  1.00  0.00     0.000 A 
ENDBRANCH  25  44
BRANCH  37  50
ATOM     50  C   UNL A   1      45.236  32.434  30.342  1.00  0.00    -0.014 A 
ATOM     51  C   UNL A   1      45.488  33.470  29.429  1.00  0.00     0.009 A 
ATOM     52  C   UNL A   1      45.402  32.682  31.715  1.00  0.00     0.009 A 
ATOM     53  C   UNL A   1      45.927  34.716  29.879  1.00  0.00     0.001 A 
ATOM     54  C   UNL A   1      45.810  33.939  32.163  1.00  0.00     0.001 A 
ATOM     55  C   UNL A   1      46.081  34.951  31.245  1.00  0.00     0.000 A 
ENDBRANCH  37  50
ENDBRANCH  11  12
ENDBRANCH   4   6
ENDBRANCH   1   2
BRANCH   1  56
ATOM     56  C   UNL A   1      37.884  19.597  25.001  1.00  0.00     0.042 C 
BRANCH  56  57
ATOM     57  C   UNL A   1      36.805  20.632  24.754  1.00  0.00     0.118 C 
BRANCH  57  58
ATOM     58  N   UNL A   1      35.465  20.116  25.015  1.00  0.00    -0.352 N 
ATOM     59  C   UNL A   1      34.283  20.799  25.168  1.00  0.00     0.251 C 
ATOM     60  H   UNL A   1      35.399  19.137  25.094  1.00  0.00     0.163 HD
ATOM     61  O   UNL A   1      33.284  20.222  25.591  1.00  0.00    -0.269 OA
BRANCH  59  62
ATOM     62  C   UNL A   1      34.224  22.228  24.812  1.00  0.00     0.039 A 
ATOM     63  C   UNL A   1      34.020  22.626  23.491  1.00  0.00     0.014 A 
ATOM     64  C   UNL A   1      34.356  23.185  25.811  1.00  0.00     0.014 A 
ATOM     65  C   UNL A   1      33.862  23.987  23.196  1.00  0.00     0.006 A 
ATOM     66  C   UNL A   1      34.132  24.522  25.520  1.00  0.00     0.006 A 
ATOM     67  C   UNL A   1      33.893  24.963  24.213  1.00  0.00    -0.025 A 
BRANCH  67  68
ATOM     68  C   UNL A   1      33.653  26.427  23.873  1.00  0.00     0.133 C 
ATOM     69  S   UNL A   1      32.638  26.706  22.399  1.00  0.00    -0.143 SA
ATOM     70  S   UNL A   1      33.159  27.493  25.257  1.00  0.00    -0.143 SA
ATOM     71  C   UNL A   1      30.999  26.269  23.021  1.00  0.00     0.072 C 
ATOM     72  C   UNL A   1      31.418  27.044  25.491  1.00  0.00     0.072 C 
ATOM     73  C   UNL A   1      30.534  27.040  24.250  1.00  0.00     0.022 C 
ENDBRANCH  67  68
ENDBRANCH  59  62
ENDBRANCH  57  58
ENDBRANCH  56  57
ENDBRANCH   1  56
TORSDOF 11
ENDMDL
MODEL 2
REMARK VINA RESULT:     -11.0      5.188      9.898
REMARK SMILES O=C(NCCCNC(=O)c1ccc(C2SCCCS2)cc1)c1ccc(-c2c3nc(c(-c4ccccc4)c4ccc([nH]4)c(-c4ccccc4)c4nc(c(-c5ccccc5)c5ccc2[nH]5)C=C4)C=C3)cc1
REMARK SMILES IDX 4 1 3 2 1 3 2 4 22 6 23 7 69 8 24 9 68 10 25 11 26 12 27 13
REMARK SMILES IDX 62 14 28 15 67 16 61 17 63 18 29 19 66 20 60 21 59 22 30 24
REMARK SMILES IDX 52 25 37 26 51 27 38 28 41 29 50 30 64 31 39 32 40 33 49 35
REMARK SMILES IDX 65 36 42 37 31 38 32 39 36 40 33 41 35 42 34 43 53 44 54 45
REMARK SMILES IDX 58 46 55 47 57 48 56 49 43 50 44 51 48 52 45 53 47 54 46 55
REMARK SMILES IDX 5 56 6 57 7 58 8 59 9 61 10 62 11 63 21 64 12 65 20 66 13 67
REMARK SMILES IDX 14 68 15 69 19 70 16 71 18 72 17 73
REMARK H PARENT 3 5 63 23 41 34 7 60
REMARK Flexibility Score: inf
ROOT
ATOM      1  C   UNL A   1      32.617  32.848  27.142  1.00  0.00     0.118 C 
ENDROOT
BRANCH   1   2
ATOM      2  N   UNL A   1      32.385  34.203  27.626  1.00  0.00    -0.352 N 
ATOM      3  O   UNL A   1      32.566  35.969  29.019  1.00  0.00    -0.269 OA
ATOM      4  C   UNL A   1      33.008  34.887  28.642  1.00  0.00     0.251 C 
ATOM      5  H   UNL A   1      31.678  34.701  27.155  1.00  0.00     0.163 HD
BRANCH   4   6
ATOM      6  C   UNL A   1      34.194  34.302  29.298  1.00  0.00     0.039 A 
ATOM      7  C   UNL A   1      35.472  34.540  28.788  1.00  0.00     0.014 A 
ATOM      8  C   UNL A   1      34.028  33.495  30.425  1.00  0.00     0.014 A 
ATOM      9  C   UNL A   1      36.554  33.828  29.281  1.00  0.00     0.010 A 
ATOM     10  C   UNL A   1      35.141  32.877  31.002  1.00  0.00     0.010 A 
ATOM     11  C   UNL A   1      36.408  33.013  30.413  1.00  0.00    -0.014 A 
BRANCH  11  12
ATOM     12  C   UNL A   1      37.614  32.394  31.012  1.00  0.00     0.031 A 
ATOM     13  C   UNL A   1      38.277  31.202  30.387  1.00  0.00     0.074 A 
ATOM     14  C   UNL A   1      38.114  32.936  32.140  1.00  0.00     0.049 A 
ATOM     15  N   UNL A   1      39.332  30.542  30.797  1.00  0.00    -0.248 NA
ATOM     16  C   UNL A   1      37.679  30.673  29.153  1.00  0.00     0.031 C 
ATOM     17  C   UNL A   1      37.549  34.094  32.841  1.00  0.00     0.029 A 
ATOM     18  N   UNL A   1      39.212  32.600  32.887  1.00  0.00    -0.354 N 
ATOM     19  C   UNL A   1      39.510  29.507  29.886  1.00  0.00     0.074 A 
ATOM     20  C   UNL A   1      38.439  29.611  28.918  1.00  0.00     0.031 C 
ATOM     21  C   UNL A   1      38.324  34.394  33.891  1.00  0.00     0.029 A 
ATOM     22  C   UNL A   1      39.390  33.406  33.984  1.00  0.00     0.049 A 
ATOM     23  H   UNL A   1      39.813  31.854  32.661  1.00  0.00     0.167 HD
ATOM     24  C   UNL A   1      40.477  28.558  29.866  1.00  0.00     0.031 A 
ATOM     25  C   UNL A   1      40.289  33.342  34.982  1.00  0.00     0.031 A 
ATOM     26  C   UNL A   1      41.532  28.458  30.842  1.00  0.00     0.049 A 
ATOM     27  C   UNL A   1      41.321  32.256  34.958  1.00  0.00     0.074 A 
ATOM     28  C   UNL A   1      42.582  27.557  30.886  1.00  0.00     0.029 A 
ATOM     29  N   UNL A   1      41.661  29.275  31.956  1.00  0.00    -0.354 N 
ATOM     30  N   UNL A   1      41.504  31.314  34.065  1.00  0.00    -0.248 NA
ATOM     31  C   UNL A   1      42.271  32.226  36.076  1.00  0.00     0.031 C 
ATOM     32  C   UNL A   1      43.305  27.785  32.062  1.00  0.00     0.029 A 
ATOM     33  C   UNL A   1      42.750  28.875  32.714  1.00  0.00     0.049 A 
ATOM     34  H   UNL A   1      41.065  30.028  32.176  1.00  0.00     0.167 HD
ATOM     35  C   UNL A   1      42.602  30.587  34.504  1.00  0.00     0.074 A 
ATOM     36  C   UNL A   1      43.054  31.213  35.731  1.00  0.00     0.031 C 
ATOM     37  C   UNL A   1      43.181  29.500  33.940  1.00  0.00     0.031 A 
BRANCH  24  38
ATOM     38  C   UNL A   1      40.412  27.523  28.773  1.00  0.00    -0.014 A 
ATOM     39  C   UNL A   1      41.082  27.696  27.551  1.00  0.00     0.009 A 
ATOM     40  C   UNL A   1      39.687  26.339  28.985  1.00  0.00     0.009 A 
ATOM     41  C   UNL A   1      40.990  26.726  26.550  1.00  0.00     0.001 A 
ATOM     42  C   UNL A   1      39.623  25.356  27.994  1.00  0.00     0.001 A 
ATOM     43  C   UNL A   1      40.264  25.557  26.773  1.00  0.00     0.000 A 
ENDBRANCH  24  38
BRANCH  25  44
ATOM     44  C   UNL A   1      40.215  34.321  36.097  1.00  0.00    -0.014 A 
ATOM     45  C   UNL A   1      40.917  35.533  36.039  1.00  0.00     0.009 A 
ATOM     46  C   UNL A   1      39.402  34.059  37.212  1.00  0.00     0.009 A 
ATOM     47  C   UNL A   1      40.820  36.453  37.085  1.00  0.00     0.001 A 
ATOM     48  C   UNL A   1      39.280  34.996  38.239  1.00  0.00     0.001 A 
ATOM     49  C   UNL A   1      39.997  36.188  38.179  1.00  0.00     0.000 A 
ENDBRANCH  25  44
BRANCH  37  50
ATOM     50  C   UNL A   1      44.390  28.934  34.632  1.00  0.00    -0.014 A 
ATOM     51  C   UNL A   1      44.276  27.910  35.584  1.00  0.00     0.009 A 
ATOM     52  C   UNL A   1      45.667  29.413  34.296  1.00  0.00     0.009 A 
ATOM     53  C   UNL A   1      45.414  27.399  36.210  1.00  0.00     0.001 A 
ATOM     54  C   UNL A   1      46.805  28.876  34.899  1.00  0.00     0.001 A 
ATOM     55  C   UNL A   1      46.677  27.877  35.862  1.00  0.00     0.000 A 
ENDBRANCH  37  50
ENDBRANCH  11  12
ENDBRANCH   4   6
ENDBRANCH   1   2
BRANCH   1  56
ATOM     56  C   UNL A   1      31.390  32.231  26.501  1.00  0.00     0.042 C 
BRANCH  56  57
ATOM     57  C   UNL A   1      31.566  30.768  26.149  1.00  0.00     0.118 C 
BRANCH  57  58
ATOM     58  N   UNL A   1      30.975  30.430  24.858  1.00  0.00    -0.352 N 
ATOM     59  C   UNL A   1      31.120  29.289  24.106  1.00  0.00     0.251 C 
ATOM     60  H   UNL A   1      30.388  31.118  24.470  1.00  0.00     0.163 HD
ATOM     61  O   UNL A   1      30.717  29.256  22.945  1.00  0.00    -0.269 OA
BRANCH  59  62
ATOM     62  C   UNL A   1      31.756  28.103  24.708  1.00  0.00     0.039 A 
ATOM     63  C   UNL A   1      31.028  27.244  25.529  1.00  0.00     0.014 A 
ATOM     64  C   UNL A   1      33.092  27.835  24.436  1.00  0.00     0.014 A 
ATOM     65  C   UNL A   1      31.627  26.068  26.002  1.00  0.00     0.006 A 
ATOM     66  C   UNL A   1      33.654  26.638  24.853  1.00  0.00     0.006 A 
ATOM     67  C   UNL A   1      32.950  25.730  25.652  1.00  0.00    -0.025 A 
BRANCH  67  68
ATOM     68  C   UNL A   1      33.554  24.416  26.126  1.00  0.00     0.133 C 
ATOM     69  S   UNL A   1      32.349  23.101  26.445  1.00  0.00    -0.143 SA
ATOM     70  S   UNL A   1      34.989  23.818  25.190  1.00  0.00    -0.143 SA
ATOM     71  C   UNL A   1      31.895  22.634  24.759  1.00  0.00     0.072 C 
ATOM     72  C   UNL A   1      34.225  23.167  23.681  1.00  0.00     0.072 C 
ATOM     73  C   UNL A   1      33.050  22.214  23.859  1.00  0.00     0.022 C 
ENDBRANCH  67  68
ENDBRANCH  59  62
ENDBRANCH  57  58
ENDBRANCH  56  57
ENDBRANCH   1  56
TORSDOF 11
ENDMDL
MODEL 3
REMARK VINA RESULT:     -10.9      0.611      6.227
REMARK SMILES O=C(NCCCNC(=O)c1ccc(C2SCCCS2)cc1)c1ccc(-c2c3nc(c(-c4ccccc4)c4ccc([nH]4)c(-c4ccccc4)c4nc(c(-c5ccccc5)c5ccc2[nH]5)C=C4)C=C3)cc1
REMARK SMILES IDX 4 1 3 2 1 3 2 4 22 6 23 7 69 8 24 9 68 10 25 11 26 12 27 13
REMARK SMILES IDX 62 14 28 15 67 16 61 17 63 18 29 19 66 20 60 21 59 22 30 24
REMARK SMILES IDX 52 25 37 26 51 27 38 28 41 29 50 30 64 31 39 32 40 33 49 35
REMARK SMILES IDX 65 36 42 37 31 38 32 39 36 40 33 41 35 42 34 43 53 44 54 45
REMARK SMILES IDX 58 46 55 47 57 48 56 49 43 50 44 51 48 52 45 53 47 54 46 55
REMARK SMILES IDX 5 56 6 57 7 58 8 59 9 61 10 62 11 63 21 64 12 65 20 66 13 67
REMARK SMILES IDX 14 68 15 69 19 70 16 71 18 72 17 73
REMARK H PARENT 3 5 63 23 41 34 7 60
REMARK Flexibility Score: inf
ROOT
ATOM      1  C   UNL A   1      39.056  20.162  25.751  1.00  0.00     0.118 C 
ENDROOT
BRANCH   1   2
ATOM      2  N   UNL A   1      40.192  19.251  25.823  1.00  0.00    -0.352 N 
ATOM      3  O   UNL A   1      42.360  18.644  25.976  1.00  0.00    -0.269 OA
ATOM      4  C   UNL A   1      41.506  19.514  26.126  1.00  0.00     0.251 C 
ATOM      5  H   UNL A   1      39.986  18.309  25.626  1.00  0.00     0.163 HD
BRANCH   4   6
ATOM      6  C   UNL A   1      41.891  20.857  26.605  1.00  0.00     0.039 A 
ATOM      7  C   UNL A   1      41.843  21.161  27.967  1.00  0.00     0.014 A 
ATOM      8  C   UNL A   1      42.293  21.826  25.684  1.00  0.00     0.014 A 
ATOM      9  C   UNL A   1      42.007  22.472  28.386  1.00  0.00     0.010 A 
ATOM     10  C   UNL A   1      42.584  23.119  26.125  1.00  0.00     0.010 A 
ATOM     11  C   UNL A   1      42.410  23.460  27.476  1.00  0.00    -0.014 A 
BRANCH  11  12
ATOM     12  C   UNL A   1      42.735  24.814  27.984  1.00  0.00     0.031 A 
ATOM     13  C   UNL A   1      44.140  25.203  28.341  1.00  0.00     0.074 A 
ATOM     14  C   UNL A   1      41.731  25.704  28.111  1.00  0.00     0.049 A 
ATOM     15  N   UNL A   1      44.581  26.344  28.806  1.00  0.00    -0.248 NA
ATOM     16  C   UNL A   1      45.182  24.181  28.166  1.00  0.00     0.031 C 
ATOM     17  C   UNL A   1      40.323  25.436  27.800  1.00  0.00     0.029 A 
ATOM     18  N   UNL A   1      41.736  27.010  28.521  1.00  0.00    -0.354 N 
ATOM     19  C   UNL A   1      45.946  26.172  29.003  1.00  0.00     0.074 A 
ATOM     20  C   UNL A   1      46.255  24.808  28.631  1.00  0.00     0.031 C 
ATOM     21  C   UNL A   1      39.609  26.552  27.992  1.00  0.00     0.029 A 
ATOM     22  C   UNL A   1      40.490  27.587  28.515  1.00  0.00     0.049 A 
ATOM     23  H   UNL A   1      42.552  27.489  28.794  1.00  0.00     0.167 HD
ATOM     24  C   UNL A   1      46.853  27.071  29.455  1.00  0.00     0.031 A 
ATOM     25  C   UNL A   1      40.085  28.804  28.920  1.00  0.00     0.031 A 
ATOM     26  C   UNL A   1      46.532  28.424  29.834  1.00  0.00     0.049 A 
ATOM     27  C   UNL A   1      41.103  29.763  29.457  1.00  0.00     0.074 A 
ATOM     28  C   UNL A   1      47.386  29.424  30.266  1.00  0.00     0.029 A 
ATOM     29  N   UNL A   1      45.253  28.961  29.843  1.00  0.00    -0.354 N 
ATOM     30  N   UNL A   1      42.397  29.601  29.592  1.00  0.00    -0.248 NA
ATOM     31  C   UNL A   1      40.606  31.073  29.894  1.00  0.00     0.031 C 
ATOM     32  C   UNL A   1      46.616  30.543  30.602  1.00  0.00     0.029 A 
ATOM     33  C   UNL A   1      45.290  30.266  30.309  1.00  0.00     0.049 A 
ATOM     34  H   UNL A   1      44.438  28.486  29.559  1.00  0.00     0.167 HD
ATOM     35  C   UNL A   1      42.873  30.795  30.114  1.00  0.00     0.074 A 
ATOM     36  C   UNL A   1      41.731  31.677  30.250  1.00  0.00     0.031 C 
ATOM     37  C   UNL A   1      44.143  31.128  30.451  1.00  0.00     0.031 A 
BRANCH  24  38
ATOM     38  C   UNL A   1      48.278  26.604  29.607  1.00  0.00    -0.014 A 
ATOM     39  C   UNL A   1      49.225  26.778  28.586  1.00  0.00     0.009 A 
ATOM     40  C   UNL A   1      48.684  26.005  30.810  1.00  0.00     0.009 A 
ATOM     41  C   UNL A   1      50.535  26.320  28.749  1.00  0.00     0.001 A 
ATOM     42  C   UNL A   1      50.002  25.577  30.984  1.00  0.00     0.001 A 
ATOM     43  C   UNL A   1      50.923  25.723  29.948  1.00  0.00     0.000 A 
ENDBRANCH  24  38
BRANCH  25  44
ATOM     44  C   UNL A   1      38.642  29.151  28.860  1.00  0.00    -0.014 A 
ATOM     45  C   UNL A   1      37.813  28.979  29.976  1.00  0.00     0.009 A 
ATOM     46  C   UNL A   1      38.097  29.697  27.686  1.00  0.00     0.009 A 
ATOM     47  C   UNL A   1      36.463  29.329  29.912  1.00  0.00     0.001 A 
ATOM     48  C   UNL A   1      36.756  30.079  27.636  1.00  0.00     0.001 A 
ATOM     49  C   UNL A   1      35.938  29.885  28.746  1.00  0.00     0.000 A 
ENDBRANCH  25  44
BRANCH  37  50
ATOM     50  C   UNL A   1      44.369  32.520  30.972  1.00  0.00    -0.014 A 
ATOM     51  C   UNL A   1      44.332  32.802  32.346  1.00  0.00     0.009 A 
ATOM     52  C   UNL A   1      44.657  33.558  30.072  1.00  0.00     0.009 A 
ATOM     53  C   UNL A   1      44.548  34.102  32.806  1.00  0.00     0.001 A 
ATOM     54  C   UNL A   1      44.906  34.850  30.537  1.00  0.00     0.001 A 
ATOM     55  C   UNL A   1      44.842  35.123  31.902  1.00  0.00     0.000 A 
ENDBRANCH  37  50
ENDBRANCH  11  12
ENDBRANCH   4   6
ENDBRANCH   1   2
BRANCH   1  56
ATOM     56  C   UNL A   1      37.877  19.578  25.001  1.00  0.00     0.042 C 
BRANCH  56  57
ATOM     57  C   UNL A   1      36.791  20.592  24.702  1.00  0.00     0.118 C 
BRANCH  57  58
ATOM     58  N   UNL A   1      35.458  20.092  25.021  1.00  0.00    -0.352 N 
ATOM     59  C   UNL A   1      34.287  20.788  25.202  1.00  0.00     0.251 C 
ATOM     60  H   UNL A   1      35.386  19.116  25.121  1.00  0.00     0.163 HD
ATOM     61  O   UNL A   1      33.299  20.228  25.672  1.00  0.00    -0.269 OA
BRANCH  59  62
ATOM     62  C   UNL A   1      34.226  22.211  24.821  1.00  0.00     0.039 A 
ATOM     63  C   UNL A   1      33.985  22.585  23.500  1.00  0.00     0.014 A 
ATOM     64  C   UNL A   1      34.395  23.186  25.797  1.00  0.00     0.014 A 
ATOM     65  C   UNL A   1      33.827  23.942  23.184  1.00  0.00     0.006 A 
ATOM     66  C   UNL A   1      34.172  24.518  25.487  1.00  0.00     0.006 A 
ATOM     67  C   UNL A   1      33.895  24.937  24.181  1.00  0.00    -0.025 A 
BRANCH  67  68
ATOM     68  C   UNL A   1      33.655  26.396  23.820  1.00  0.00     0.133 C 
ATOM     69  S   UNL A   1      32.583  26.654  22.383  1.00  0.00    -0.143 SA
ATOM     70  S   UNL A   1      33.227  27.495  25.200  1.00  0.00    -0.143 SA
ATOM     71  C   UNL A   1      30.967  26.246  23.080  1.00  0.00     0.072 C 
ATOM     72  C   UNL A   1      31.493  27.067  25.514  1.00  0.00     0.072 C 
ATOM     73  C   UNL A   1      30.559  27.046  24.310  1.00  0.00     0.022 C 
ENDBRANCH  67  68
ENDBRANCH  59  62
ENDBRANCH  57  58
ENDBRANCH  56  57
ENDBRANCH   1  56
TORSDOF 11
ENDMDL
