MODEL 1
REMARK VINA RESULT:     -10.8      0.000      0.000
REMARK SMILES C[C@H]1[C@H](C(=O)NCCCNC(=O)c2ccc(-c3c4nc(c(-c5ccccc5)c5ccc([nH]5)c(-c5ccccc5)c5nc(c(-c6ccccc6)c6ccc3[nH]6)C=C5)C=C4)cc2)CC[N@@H+]1C1CCCC1
REMARK SMILES IDX 8 1 7 2 6 3 4 4 5 5 3 7 1 8 2 9 63 10 61 11 62 12 64 14
REMARK SMILES IDX 65 15 68 16 66 17 67 18 9 19 10 20 11 21 12 23 13 24 14 25
REMARK SMILES IDX 60 26 15 27 59 28 16 29 17 30 18 31 53 32 19 33 58 34 52 35
REMARK SMILES IDX 54 36 20 37 57 38 51 39 50 40 21 42 43 43 28 44 42 45 29 46
REMARK SMILES IDX 32 47 41 48 55 49 30 50 31 51 40 53 56 54 33 55 22 56 23 57
REMARK SMILES IDX 27 58 24 59 26 60 25 61 44 62 45 63 49 64 46 65 48 66 47 67
REMARK SMILES IDX 34 68 35 69 39 70 36 71 38 72 37 73
REMARK H PARENT 6 6 63 13 10 22 54 41 32 52
REMARK Flexibility Score: inf
ROOT
ATOM      1  C   UNL A   1      31.776  28.145  27.243  1.00  0.00     0.042 C 
ENDROOT
BRANCH   1   2
ATOM      2  C   UNL A   1      31.541  27.020  26.240  1.00  0.00     0.117 C 
BRANCH   2   3
ATOM      3  N   UNL A   1      31.306  25.748  26.890  1.00  0.00    -0.356 N 
ATOM      4  C   UNL A   1      31.669  24.471  26.619  1.00  0.00     0.229 C 
ATOM      5  O   UNL A   1      31.241  23.620  27.409  1.00  0.00    -0.275 OA
ATOM      6  H   UNL A   1      30.763  25.827  27.708  1.00  0.00     0.163 HD
BRANCH   4   7
ATOM      7  C   UNL A   1      32.522  24.025  25.438  1.00  0.00     0.142 C 
ATOM      8  C   UNL A   1      34.258  25.739  24.813  1.00  0.00     0.076 C 
ATOM      9  C   UNL A   1      34.005  24.401  25.519  1.00  0.00     0.193 C 
ATOM     10  N   UNL A   1      34.750  23.350  24.796  1.00  0.00    -0.330 N 
ATOM     11  C   UNL A   1      32.513  22.554  25.077  1.00  0.00     0.081 C 
ATOM     12  C   UNL A   1      33.774  22.409  24.237  1.00  0.00     0.263 C 
ATOM     13  H   UNL A   1      35.261  23.825  24.053  1.00  0.00     0.348 HD
BRANCH  10  14
ATOM     14  C   UNL A   1      35.909  22.730  25.449  1.00  0.00     0.184 C 
ATOM     15  C   UNL A   1      36.559  21.553  24.707  1.00  0.00     0.065 C 
ATOM     16  C   UNL A   1      37.085  23.647  25.790  1.00  0.00     0.065 C 
ATOM     17  C   UNL A   1      37.964  21.419  25.290  1.00  0.00     0.006 C 
ATOM     18  C   UNL A   1      38.286  22.735  25.986  1.00  0.00     0.006 C 
ENDBRANCH  10  14
ENDBRANCH   4   7
ENDBRANCH   2   3
ENDBRANCH   1   2
BRANCH   1  19
ATOM     19  C   UNL A   1      33.202  28.674  27.277  1.00  0.00     0.118 C 
BRANCH  19  20
ATOM     20  N   UNL A   1      33.312  30.084  27.617  1.00  0.00    -0.352 N 
ATOM     21  C   UNL A   1      34.371  30.824  28.084  1.00  0.00     0.251 C 
ATOM     22  H   UNL A   1      32.482  30.599  27.488  1.00  0.00     0.163 HD
ATOM     23  O   UNL A   1      34.190  32.021  28.311  1.00  0.00    -0.269 OA
BRANCH  21  24
ATOM     24  C   UNL A   1      35.700  30.225  28.367  1.00  0.00     0.039 A 
ATOM     25  C   UNL A   1      36.647  30.212  27.336  1.00  0.00     0.014 A 
ATOM     26  C   UNL A   1      36.035  29.661  29.598  1.00  0.00     0.014 A 
ATOM     27  C   UNL A   1      37.930  29.703  27.559  1.00  0.00     0.010 A 
ATOM     28  C   UNL A   1      37.345  29.259  29.856  1.00  0.00     0.010 A 
ATOM     29  C   UNL A   1      38.306  29.263  28.837  1.00  0.00    -0.014 A 
BRANCH  29  30
ATOM     30  C   UNL A   1      39.689  28.801  29.120  1.00  0.00     0.031 A 
ATOM     31  C   UNL A   1      40.681  29.719  29.785  1.00  0.00     0.074 A 
ATOM     32  C   UNL A   1      40.073  27.570  28.726  1.00  0.00     0.049 A 
ATOM     33  N   UNL A   1      41.943  29.509  30.065  1.00  0.00    -0.248 NA
ATOM     34  C   UNL A   1      40.202  31.059  30.159  1.00  0.00     0.031 C 
ATOM     35  C   UNL A   1      39.228  26.600  28.027  1.00  0.00     0.029 A 
ATOM     36  N   UNL A   1      41.278  26.925  28.855  1.00  0.00    -0.354 N 
ATOM     37  C   UNL A   1      42.408  30.692  30.627  1.00  0.00     0.074 A 
ATOM     38  C   UNL A   1      41.313  31.635  30.591  1.00  0.00     0.031 C 
ATOM     39  C   UNL A   1      39.926  25.473  27.821  1.00  0.00     0.029 A 
ATOM     40  C   UNL A   1      41.282  25.656  28.329  1.00  0.00     0.049 A 
ATOM     41  H   UNL A   1      42.065  27.333  29.284  1.00  0.00     0.167 HD
ATOM     42  C   UNL A   1      43.627  30.964  31.150  1.00  0.00     0.031 A 
ATOM     43  C   UNL A   1      42.267  24.741  28.255  1.00  0.00     0.031 A 
ATOM     44  C   UNL A   1      44.716  30.024  31.193  1.00  0.00     0.049 A 
ATOM     45  C   UNL A   1      43.614  25.068  28.835  1.00  0.00     0.074 A 
ATOM     46  C   UNL A   1      45.976  30.186  31.745  1.00  0.00     0.029 A 
ATOM     47  N   UNL A   1      44.675  28.746  30.656  1.00  0.00    -0.354 N 
ATOM     48  N   UNL A   1      44.015  26.169  29.423  1.00  0.00    -0.248 NA
ATOM     49  C   UNL A   1      44.639  24.020  28.751  1.00  0.00     0.031 C 
ATOM     50  C   UNL A   1      46.714  29.025  31.494  1.00  0.00     0.029 A 
ATOM     51  C   UNL A   1      45.895  28.116  30.844  1.00  0.00     0.049 A 
ATOM     52  H   UNL A   1      43.895  28.346  30.209  1.00  0.00     0.167 HD
ATOM     53  C   UNL A   1      45.331  25.938  29.800  1.00  0.00     0.074 A 
ATOM     54  C   UNL A   1      45.650  24.583  29.397  1.00  0.00     0.031 C 
ATOM     55  C   UNL A   1      46.199  26.771  30.425  1.00  0.00     0.031 A 
BRANCH  42  56
ATOM     56  C   UNL A   1      43.846  32.343  31.716  1.00  0.00    -0.014 A 
ATOM     57  C   UNL A   1      44.304  33.399  30.909  1.00  0.00     0.009 A 
ATOM     58  C   UNL A   1      43.569  32.598  33.068  1.00  0.00     0.009 A 
ATOM     59  C   UNL A   1      44.521  34.666  31.454  1.00  0.00     0.001 A 
ATOM     60  C   UNL A   1      43.754  33.875  33.602  1.00  0.00     0.001 A 
ATOM     61  C   UNL A   1      44.241  34.904  32.799  1.00  0.00     0.000 A 
ENDBRANCH  42  56
BRANCH  43  62
ATOM     62  C   UNL A   1      42.010  23.421  27.619  1.00  0.00    -0.014 A 
ATOM     63  C   UNL A   1      41.423  22.376  28.349  1.00  0.00     0.009 A 
ATOM     64  C   UNL A   1      42.350  23.200  26.275  1.00  0.00     0.009 A 
ATOM     65  C   UNL A   1      41.208  21.130  27.755  1.00  0.00     0.001 A 
ATOM     66  C   UNL A   1      42.103  21.963  25.674  1.00  0.00     0.001 A 
ATOM     67  C   UNL A   1      41.543  20.927  26.417  1.00  0.00     0.000 A 
ENDBRANCH  43  62
BRANCH  55  68
ATOM     68  C   UNL A   1      47.567  26.227  30.735  1.00  0.00    -0.014 A 
ATOM     69  C   UNL A   1      48.575  26.182  29.758  1.00  0.00     0.009 A 
ATOM     70  C   UNL A   1      47.856  25.772  32.031  1.00  0.00     0.009 A 
ATOM     71  C   UNL A   1      49.830  25.651  30.062  1.00  0.00     0.001 A 
ATOM     72  C   UNL A   1      49.121  25.274  32.341  1.00  0.00     0.001 A 
ATOM     73  C   UNL A   1      50.103  25.202  31.354  1.00  0.00     0.000 A 
ENDBRANCH  55  68
ENDBRANCH  29  30
ENDBRANCH  21  24
ENDBRANCH  19  20
ENDBRANCH   1  19
TORSDOF 11
ENDMDL
MODEL 2
REMARK VINA RESULT:     -10.5      1.017      1.403
REMARK SMILES C[C@H]1[C@H](C(=O)NCCCNC(=O)c2ccc(-c3c4nc(c(-c5ccccc5)c5ccc([nH]5)c(-c5ccccc5)c5nc(c(-c6ccccc6)c6ccc3[nH]6)C=C5)C=C4)cc2)CC[N@@H+]1C1CCCC1
REMARK SMILES IDX 8 1 7 2 6 3 4 4 5 5 3 7 1 8 2 9 63 10 61 11 62 12 64 14
REMARK SMILES IDX 65 15 68 16 66 17 67 18 9 19 10 20 11 21 12 23 13 24 14 25
REMARK SMILES IDX 60 26 15 27 59 28 16 29 17 30 18 31 53 32 19 33 58 34 52 35
REMARK SMILES IDX 54 36 20 37 57 38 51 39 50 40 21 42 43 43 28 44 42 45 29 46
REMARK SMILES IDX 32 47 41 48 55 49 30 50 31 51 40 53 56 54 33 55 22 56 23 57
REMARK SMILES IDX 27 58 24 59 26 60 25 61 44 62 45 63 49 64 46 65 48 66 47 67
REMARK SMILES IDX 34 68 35 69 39 70 36 71 38 72 37 73
REMARK H PARENT 6 6 63 13 10 22 54 41 32 52
REMARK Flexibility Score: inf
ROOT
ATOM      1  C   UNL A   1      31.987  28.144  27.289  1.00  0.00     0.042 C 
ENDROOT
BRANCH   1   2
ATOM      2  C   UNL A   1      31.437  27.749  25.923  1.00  0.00     0.117 C 
BRANCH   2   3
ATOM      3  N   UNL A   1      32.447  27.815  24.887  1.00  0.00    -0.356 N 
ATOM      4  C   UNL A   1      33.266  26.901  24.312  1.00  0.00     0.229 C 
ATOM      5  O   UNL A   1      34.040  27.349  23.456  1.00  0.00    -0.275 OA
ATOM      6  H   UNL A   1      32.565  28.721  24.520  1.00  0.00     0.163 HD
BRANCH   4   7
ATOM      7  C   UNL A   1      33.310  25.416  24.648  1.00  0.00     0.142 C 
ATOM      8  C   UNL A   1      33.487  23.976  22.590  1.00  0.00     0.076 C 
ATOM      9  C   UNL A   1      34.249  24.572  23.779  1.00  0.00     0.193 C 
ATOM     10  N   UNL A   1      34.725  23.460  24.626  1.00  0.00    -0.330 N 
ATOM     11  C   UNL A   1      33.643  25.025  26.073  1.00  0.00     0.081 C 
ATOM     12  C   UNL A   1      34.062  23.569  25.929  1.00  0.00     0.263 C 
ATOM     13  H   UNL A   1      34.448  22.603  24.150  1.00  0.00     0.348 HD
BRANCH  10  14
ATOM     14  C   UNL A   1      36.166  23.182  24.681  1.00  0.00     0.184 C 
ATOM     15  C   UNL A   1      36.925  23.754  25.888  1.00  0.00     0.065 C 
ATOM     16  C   UNL A   1      36.589  21.712  24.641  1.00  0.00     0.065 C 
ATOM     17  C   UNL A   1      38.217  22.949  25.986  1.00  0.00     0.006 C 
ATOM     18  C   UNL A   1      38.009  21.669  25.186  1.00  0.00     0.006 C 
ENDBRANCH  10  14
ENDBRANCH   4   7
ENDBRANCH   2   3
ENDBRANCH   1   2
BRANCH   1  19
ATOM     19  C   UNL A   1      33.391  28.729  27.261  1.00  0.00     0.118 C 
BRANCH  19  20
ATOM     20  N   UNL A   1      33.478  30.105  27.724  1.00  0.00    -0.352 N 
ATOM     21  C   UNL A   1      34.525  30.818  28.256  1.00  0.00     0.251 C 
ATOM     22  H   UNL A   1      32.641  30.616  27.640  1.00  0.00     0.163 HD
ATOM     23  O   UNL A   1      34.326  31.987  28.588  1.00  0.00    -0.269 OA
BRANCH  21  24
ATOM     24  C   UNL A   1      35.864  30.217  28.487  1.00  0.00     0.039 A 
ATOM     25  C   UNL A   1      36.797  30.271  27.444  1.00  0.00     0.014 A 
ATOM     26  C   UNL A   1      36.222  29.589  29.680  1.00  0.00     0.014 A 
ATOM     27  C   UNL A   1      38.087  29.762  27.620  1.00  0.00     0.010 A 
ATOM     28  C   UNL A   1      37.539  29.187  29.897  1.00  0.00     0.010 A 
ATOM     29  C   UNL A   1      38.485  29.257  28.867  1.00  0.00    -0.014 A 
BRANCH  29  30
ATOM     30  C   UNL A   1      39.877  28.793  29.105  1.00  0.00     0.031 A 
ATOM     31  C   UNL A   1      40.894  29.714  29.726  1.00  0.00     0.074 A 
ATOM     32  C   UNL A   1      40.243  27.558  28.708  1.00  0.00     0.049 A 
ATOM     33  N   UNL A   1      42.164  29.504  29.963  1.00  0.00    -0.248 NA
ATOM     34  C   UNL A   1      40.431  31.059  30.105  1.00  0.00     0.031 C 
ATOM     35  C   UNL A   1      39.371  26.584  28.048  1.00  0.00     0.029 A 
ATOM     36  N   UNL A   1      41.451  26.911  28.800  1.00  0.00    -0.354 N 
ATOM     37  C   UNL A   1      42.652  30.690  30.498  1.00  0.00     0.074 A 
ATOM     38  C   UNL A   1      41.558  31.635  30.493  1.00  0.00     0.031 C 
ATOM     39  C   UNL A   1      40.059  25.453  27.827  1.00  0.00     0.029 A 
ATOM     40  C   UNL A   1      41.433  25.637  28.285  1.00  0.00     0.049 A 
ATOM     41  H   UNL A   1      42.253  27.320  29.197  1.00  0.00     0.167 HD
ATOM     42  C   UNL A   1      43.890  30.964  30.975  1.00  0.00     0.031 A 
ATOM     43  C   UNL A   1      42.412  24.719  28.184  1.00  0.00     0.031 A 
ATOM     44  C   UNL A   1      44.977  30.021  30.987  1.00  0.00     0.049 A 
ATOM     45  C   UNL A   1      43.780  25.048  28.713  1.00  0.00     0.074 A 
ATOM     46  C   UNL A   1      46.255  30.184  31.493  1.00  0.00     0.029 A 
ATOM     47  N   UNL A   1      44.914  28.738  30.463  1.00  0.00    -0.354 N 
ATOM     48  N   UNL A   1      44.205  26.153  29.277  1.00  0.00    -0.248 NA
ATOM     49  C   UNL A   1      44.799  23.996  28.602  1.00  0.00     0.031 C 
ATOM     50  C   UNL A   1      46.982  29.019  31.226  1.00  0.00     0.029 A 
ATOM     51  C   UNL A   1      46.138  28.106  30.613  1.00  0.00     0.049 A 
ATOM     52  H   UNL A   1      44.117  28.336  30.048  1.00  0.00     0.167 HD
ATOM     53  C   UNL A   1      45.533  25.921  29.609  1.00  0.00     0.074 A 
ATOM     54  C   UNL A   1      45.834  24.562  29.206  1.00  0.00     0.031 C 
ATOM     55  C   UNL A   1      46.424  26.758  30.196  1.00  0.00     0.031 A 
BRANCH  42  56
ATOM     56  C   UNL A   1      44.131  32.346  31.521  1.00  0.00    -0.014 A 
ATOM     57  C   UNL A   1      43.916  32.643  32.878  1.00  0.00     0.009 A 
ATOM     58  C   UNL A   1      44.601  33.363  30.674  1.00  0.00     0.009 A 
ATOM     59  C   UNL A   1      44.125  33.935  33.363  1.00  0.00     0.001 A 
ATOM     60  C   UNL A   1      44.843  34.645  31.170  1.00  0.00     0.001 A 
ATOM     61  C   UNL A   1      44.592  34.934  32.510  1.00  0.00     0.000 A 
ENDBRANCH  42  56
BRANCH  43  62
ATOM     62  C   UNL A   1      42.130  23.394  27.570  1.00  0.00    -0.014 A 
ATOM     63  C   UNL A   1      41.562  22.359  28.328  1.00  0.00     0.009 A 
ATOM     64  C   UNL A   1      42.426  23.160  26.217  1.00  0.00     0.009 A 
ATOM     65  C   UNL A   1      41.323  21.108  27.752  1.00  0.00     0.001 A 
ATOM     66  C   UNL A   1      42.155  21.919  25.636  1.00  0.00     0.001 A 
ATOM     67  C   UNL A   1      41.614  20.891  26.407  1.00  0.00     0.000 A 
ENDBRANCH  43  62
BRANCH  55  68
ATOM     68  C   UNL A   1      47.801  26.213  30.461  1.00  0.00    -0.014 A 
ATOM     69  C   UNL A   1      48.781  26.180  29.456  1.00  0.00     0.009 A 
ATOM     70  C   UNL A   1      48.126  25.744  31.744  1.00  0.00     0.009 A 
ATOM     71  C   UNL A   1      50.045  25.648  29.720  1.00  0.00     0.001 A 
ATOM     72  C   UNL A   1      49.401  25.245  32.013  1.00  0.00     0.001 A 
ATOM     73  C   UNL A   1      50.354  25.185  30.998  1.00  0.00     0.000 A 
ENDBRANCH  55  68
ENDBRANCH  29  30
ENDBRANCH  21  24
ENDBRANCH  19  20
ENDBRANCH   1  19
TORSDOF 11
ENDMDL
MODEL 3
REMARK VINA RESULT:     -10.4      0.344      6.231
REMARK SMILES C[C@H]1[C@H](C(=O)NCCCNC(=O)c2ccc(-c3c4nc(c(-c5ccccc5)c5ccc([nH]5)c(-c5ccccc5)c5nc(c(-c6ccccc6)c6ccc3[nH]6)C=C5)C=C4)cc2)CC[N@@H+]1C1CCCC1
REMARK SMILES IDX 8 1 7 2 6 3 4 4 5 5 3 7 1 8 2 9 63 10 61 11 62 12 64 14
REMARK SMILES IDX 65 15 68 16 66 17 67 18 9 19 10 20 11 21 12 23 13 24 14 25
REMARK SMILES IDX 60 26 15 27 59 28 16 29 17 30 18 31 53 32 19 33 58 34 52 35
REMARK SMILES IDX 54 36 20 37 57 38 51 39 50 40 21 42 43 43 28 44 42 45 29 46
REMARK SMILES IDX 32 47 41 48 55 49 30 50 31 51 40 53 56 54 33 55 22 56 23 57
REMARK SMILES IDX 27 58 24 59 26 60 25 61 44 62 45 63 49 64 46 65 48 66 47 67
REMARK SMILES IDX 34 68 35 69 39 70 36 71 38 72 37 73
REMARK H PARENT 6 6 63 13 10 22 54 41 32 52
REMARK Flexibility Score: inf
ROOT
ATOM      1  C   UNL A   1      32.015  28.131  27.431  1.00  0.00     0.042 C 
ENDROOT
BRANCH   1   2
ATOM      2  C   UNL A   1      31.626  27.137  26.341  1.00  0.00     0.117 C 
BRANCH   2   3
ATOM      3  N   UNL A   1      31.257  25.846  26.885  1.00  0.00    -0.356 N 
ATOM      4  C   UNL A   1      31.507  24.565  26.521  1.00  0.00     0.229 C 
ATOM      5  O   UNL A   1      30.983  23.701  27.235  1.00  0.00    -0.275 OA
ATOM      6  H   UNL A   1      30.705  25.914  27.698  1.00  0.00     0.163 HD
BRANCH   4   7
ATOM      7  C   UNL A   1      32.343  24.132  25.324  1.00  0.00     0.142 C 
ATOM      8  C   UNL A   1      34.078  25.847  24.700  1.00  0.00     0.076 C 
ATOM      9  C   UNL A   1      33.828  24.501  25.390  1.00  0.00     0.193 C 
ATOM     10  N   UNL A   1      34.559  23.457  24.644  1.00  0.00    -0.330 N 
ATOM     11  C   UNL A   1      32.323  22.666  24.943  1.00  0.00     0.081 C 
ATOM     12  C   UNL A   1      33.572  22.528  24.084  1.00  0.00     0.263 C 
ATOM     13  H   UNL A   1      35.062  23.941  23.901  1.00  0.00     0.348 HD
BRANCH  10  14
ATOM     14  C   UNL A   1      35.724  22.824  25.273  1.00  0.00     0.184 C 
ATOM     15  C   UNL A   1      36.531  21.857  24.394  1.00  0.00     0.065 C 
ATOM     16  C   UNL A   1      36.783  23.755  25.866  1.00  0.00     0.065 C 
ATOM     17  C   UNL A   1      37.899  21.732  25.060  1.00  0.00     0.006 C 
ATOM     18  C   UNL A   1      38.049  22.922  26.000  1.00  0.00     0.006 C 
ENDBRANCH  10  14
ENDBRANCH   4   7
ENDBRANCH   2   3
ENDBRANCH   1   2
BRANCH   1  19
ATOM     19  C   UNL A   1      33.397  28.743  27.264  1.00  0.00     0.118 C 
BRANCH  19  20
ATOM     20  N   UNL A   1      33.483  30.145  27.642  1.00  0.00    -0.352 N 
ATOM     21  C   UNL A   1      34.528  30.888  28.136  1.00  0.00     0.251 C 
ATOM     22  H   UNL A   1      32.647  30.651  27.522  1.00  0.00     0.163 HD
ATOM     23  O   UNL A   1      34.328  32.076  28.394  1.00  0.00    -0.269 OA
BRANCH  21  24
ATOM     24  C   UNL A   1      35.865  30.301  28.412  1.00  0.00     0.039 A 
ATOM     25  C   UNL A   1      36.800  30.281  27.370  1.00  0.00     0.014 A 
ATOM     26  C   UNL A   1      36.217  29.756  29.646  1.00  0.00     0.014 A 
ATOM     27  C   UNL A   1      38.089  29.782  27.585  1.00  0.00     0.010 A 
ATOM     28  C   UNL A   1      37.533  29.366  29.894  1.00  0.00     0.010 A 
ATOM     29  C   UNL A   1      38.482  29.363  28.864  1.00  0.00    -0.014 A 
BRANCH  29  30
ATOM     30  C   UNL A   1      39.872  28.913  29.138  1.00  0.00     0.031 A 
ATOM     31  C   UNL A   1      40.326  27.539  28.722  1.00  0.00     0.074 A 
ATOM     32  C   UNL A   1      40.711  29.722  29.815  1.00  0.00     0.049 A 
ATOM     33  N   UNL A   1      41.481  26.954  28.922  1.00  0.00    -0.248 NA
ATOM     34  C   UNL A   1      39.347  26.698  28.015  1.00  0.00     0.031 C 
ATOM     35  C   UNL A   1      40.382  31.056  30.320  1.00  0.00     0.029 A 
ATOM     36  N   UNL A   1      42.016  29.536  30.200  1.00  0.00    -0.354 N 
ATOM     37  C   UNL A   1      41.358  25.679  28.384  1.00  0.00     0.074 A 
ATOM     38  C   UNL A   1      40.000  25.552  27.906  1.00  0.00     0.031 C 
ATOM     39  C   UNL A   1      41.464  31.583  30.914  1.00  0.00     0.029 A 
ATOM     40  C   UNL A   1      42.548  30.607  30.876  1.00  0.00     0.049 A 
ATOM     41  H   UNL A   1      42.523  28.714  30.008  1.00  0.00     0.167 HD
ATOM     42  C   UNL A   1      42.297  24.708  28.271  1.00  0.00     0.031 A 
ATOM     43  C   UNL A   1      43.769  30.785  31.413  1.00  0.00     0.031 A 
ATOM     44  C   UNL A   1      43.652  24.837  28.740  1.00  0.00     0.049 A 
ATOM     45  C   UNL A   1      44.791  29.691  31.284  1.00  0.00     0.074 A 
ATOM     46  C   UNL A   1      44.692  23.930  28.630  1.00  0.00     0.029 A 
ATOM     47  N   UNL A   1      44.151  25.942  29.412  1.00  0.00    -0.354 N 
ATOM     48  N   UNL A   1      44.677  28.516  30.712  1.00  0.00    -0.248 NA
ATOM     49  C   UNL A   1      46.115  29.954  31.864  1.00  0.00     0.031 C 
ATOM     50  C   UNL A   1      45.807  24.465  29.285  1.00  0.00     0.029 A 
ATOM     51  C   UNL A   1      45.480  25.731  29.744  1.00  0.00     0.049 A 
ATOM     52  H   UNL A   1      43.639  26.756  29.621  1.00  0.00     0.167 HD
ATOM     53  C   UNL A   1      45.920  27.911  30.842  1.00  0.00     0.074 A 
ATOM     54  C   UNL A   1      46.778  28.858  31.524  1.00  0.00     0.031 C 
ATOM     55  C   UNL A   1      46.316  26.680  30.434  1.00  0.00     0.031 A 
BRANCH  42  56
ATOM     56  C   UNL A   1      41.882  23.417  27.617  1.00  0.00    -0.014 A 
ATOM     57  C   UNL A   1      42.117  23.182  26.252  1.00  0.00     0.009 A 
ATOM     58  C   UNL A   1      41.267  22.411  28.378  1.00  0.00     0.009 A 
ATOM     59  C   UNL A   1      41.708  21.987  25.656  1.00  0.00     0.001 A 
ATOM     60  C   UNL A   1      40.890  21.203  27.787  1.00  0.00     0.001 A 
ATOM     61  C   UNL A   1      41.098  20.997  26.425  1.00  0.00     0.000 A 
ENDBRANCH  42  56
BRANCH  43  62
ATOM     62  C   UNL A   1      44.098  32.057  32.111  1.00  0.00    -0.014 A 
ATOM     63  C   UNL A   1      44.552  33.172  31.390  1.00  0.00     0.009 A 
ATOM     64  C   UNL A   1      43.955  32.163  33.504  1.00  0.00     0.009 A 
ATOM     65  C   UNL A   1      44.884  34.357  32.053  1.00  0.00     0.001 A 
ATOM     66  C   UNL A   1      44.256  33.358  34.159  1.00  0.00     0.001 A 
ATOM     67  C   UNL A   1      44.730  34.450  33.436  1.00  0.00     0.000 A 
ENDBRANCH  43  62
BRANCH  55  68
ATOM     68  C   UNL A   1      47.750  26.303  30.691  1.00  0.00    -0.014 A 
ATOM     69  C   UNL A   1      48.156  25.770  31.925  1.00  0.00     0.009 A 
ATOM     70  C   UNL A   1      48.703  26.467  29.673  1.00  0.00     0.009 A 
ATOM     71  C   UNL A   1      49.497  25.449  32.147  1.00  0.00     0.001 A 
ATOM     72  C   UNL A   1      50.036  26.113  29.887  1.00  0.00     0.001 A 
ATOM     73  C   UNL A   1      50.434  25.617  31.128  1.00  0.00     0.000 A 
ENDBRANCH  55  68
ENDBRANCH  29  30
ENDBRANCH  21  24
ENDBRANCH  19  20
ENDBRANCH   1  19
TORSDOF 11
ENDMDL
