MODEL 1
REMARK VINA RESULT:     -12.9      0.000      0.000
REMARK SMILES COC(=O)c1ccc(C)c2c1[C@H]1C=CC[C@H]1[C@@H](c1ccc(C(=O)NCCCNC(=O)c3ccc(-c4c5nc(c(-c6ccccc6)c6ccc([nH]6)c(-c6ccccc6)c6nc(c(-c7ccccc7)c7ccc4[nH]7)C=C6)C=C5)cc3)cc1)N2
REMARK SMILES IDX 25 1 24 2 22 3 23 4 21 6 18 7 19 8 80 9 20 10 79 11 17 12
REMARK SMILES IDX 5 13 6 14 11 15 7 16 10 17 12 18 8 19 81 20 13 21 16 22 9 23
REMARK SMILES IDX 14 25 15 26 3 27 4 28 2 29 1 30 26 31 27 32 28 33 29 34
REMARK SMILES IDX 30 36 31 37 32 38 78 39 33 40 77 41 34 42 35 43 36 44 71 45
REMARK SMILES IDX 37 46 76 47 70 48 72 49 38 50 75 51 69 52 68 53 39 55 61 56
REMARK SMILES IDX 46 57 60 58 47 59 50 60 59 61 73 62 48 63 49 64 58 66 74 67
REMARK SMILES IDX 51 68 40 69 41 70 45 71 42 72 44 73 43 74 62 75 63 76 67 77
REMARK SMILES IDX 64 78 66 79 65 80 52 81 53 82 57 83 54 84 56 85 55 86
REMARK H PARENT 24 5 81 24 28 35 72 54 50 65
REMARK Flexibility Score: inf
ROOT
ATOM      1  C   UNL A   1      36.871  20.546  25.037  1.00  0.00     0.118 C 
ENDROOT
BRANCH   1   2
ATOM      2  N   UNL A   1      37.012  21.554  24.008  1.00  0.00    -0.352 N 
ATOM      3  C   UNL A   1      36.332  22.710  23.758  1.00  0.00     0.251 C 
ATOM      4  O   UNL A   1      36.671  23.351  22.761  1.00  0.00    -0.269 OA
ATOM      5  H   UNL A   1      37.737  21.369  23.367  1.00  0.00     0.163 HD
BRANCH   3   6
ATOM      6  C   UNL A   1      35.249  23.238  24.634  1.00  0.00     0.039 A 
ATOM      7  C   UNL A   1      33.138  24.443  26.110  1.00  0.00    -0.025 A 
ATOM      8  C   UNL A   1      33.925  25.185  25.214  1.00  0.00     0.006 A 
ATOM      9  C   UNL A   1      33.471  23.094  26.290  1.00  0.00     0.006 A 
ATOM     10  C   UNL A   1      34.960  24.595  24.489  1.00  0.00     0.014 A 
ATOM     11  C   UNL A   1      34.483  22.493  25.533  1.00  0.00     0.014 A 
BRANCH   7  12
ATOM     12  C   UNL A   1      31.881  24.993  26.786  1.00  0.00     0.114 C 
ATOM     13  C   UNL A   1      30.989  28.064  23.978  1.00  0.00     0.065 A 
ATOM     14  C   UNL A   1      31.689  29.270  24.076  1.00  0.00     0.016 A 
ATOM     15  C   UNL A   1      31.075  27.093  24.999  1.00  0.00    -0.003 A 
ATOM     16  C   UNL A   1      32.462  29.533  25.201  1.00  0.00     0.006 A 
ATOM     17  C   UNL A   1      31.847  27.378  26.158  1.00  0.00     0.042 A 
ATOM     18  C   UNL A   1      30.374  25.753  24.859  1.00  0.00     0.050 C 
ATOM     19  C   UNL A   1      32.550  28.601  26.248  1.00  0.00    -0.028 A 
ATOM     20  N   UNL A   1      32.025  26.397  27.125  1.00  0.00    -0.377 N 
ATOM     21  C   UNL A   1      30.837  24.871  23.722  1.00  0.00    -0.023 C 
ATOM     22  C   UNL A   1      30.532  24.795  26.057  1.00  0.00     0.031 C 
ATOM     23  C   UNL A   1      33.454  28.966  27.399  1.00  0.00     0.046 C 
ATOM     24  H   UNL A   1      32.252  26.656  28.047  1.00  0.00     0.161 HD
ATOM     25  C   UNL A   1      30.795  23.573  24.052  1.00  0.00    -0.030 C 
ATOM     26  C   UNL A   1      30.328  23.392  25.459  1.00  0.00     0.034 C 
BRANCH  13  27
ATOM     27  C   UNL A   1      30.138  27.852  22.781  1.00  0.00     0.338 C 
ATOM     28  O   UNL A   1      30.561  27.562  21.678  1.00  0.00    -0.246 OA
BRANCH  27  29
ATOM     29  O   UNL A   1      28.843  28.086  23.117  1.00  0.00    -0.465 OA
ATOM     30  C   UNL A   1      28.346  29.334  22.634  1.00  0.00     0.282 C 
ENDBRANCH  27  29
ENDBRANCH  13  27
ENDBRANCH   7  12
ENDBRANCH   3   6
ENDBRANCH   1   2
BRANCH   1  31
ATOM     31  C   UNL A   1      38.069  19.602  25.011  1.00  0.00     0.042 C 
BRANCH  31  32
ATOM     32  C   UNL A   1      39.215  20.124  25.870  1.00  0.00     0.118 C 
BRANCH  32  33
ATOM     33  N   UNL A   1      40.287  19.139  25.969  1.00  0.00    -0.352 N 
ATOM     34  C   UNL A   1      41.636  19.354  26.068  1.00  0.00     0.251 C 
ATOM     35  H   UNL A   1      40.003  18.197  25.964  1.00  0.00     0.163 HD
ATOM     36  O   UNL A   1      42.438  18.457  25.833  1.00  0.00    -0.269 OA
BRANCH  34  37
ATOM     37  C   UNL A   1      42.104  20.691  26.464  1.00  0.00     0.039 A 
ATOM     38  C   UNL A   1      42.421  21.628  25.482  1.00  0.00     0.014 A 
ATOM     39  C   UNL A   1      42.195  21.008  27.824  1.00  0.00     0.014 A 
ATOM     40  C   UNL A   1      42.789  22.914  25.870  1.00  0.00     0.010 A 
ATOM     41  C   UNL A   1      42.488  22.308  28.204  1.00  0.00     0.010 A 
ATOM     42  C   UNL A   1      42.804  23.265  27.231  1.00  0.00    -0.014 A 
BRANCH  42  43
ATOM     43  C   UNL A   1      43.185  24.629  27.650  1.00  0.00     0.031 A 
ATOM     44  C   UNL A   1      44.631  25.028  27.648  1.00  0.00     0.074 A 
ATOM     45  C   UNL A   1      42.234  25.492  28.047  1.00  0.00     0.049 A 
ATOM     46  N   UNL A   1      45.156  26.191  27.928  1.00  0.00    -0.248 NA
ATOM     47  C   UNL A   1      45.615  23.988  27.304  1.00  0.00     0.031 C 
ATOM     48  C   UNL A   1      40.803  25.191  28.132  1.00  0.00     0.029 A 
ATOM     49  N   UNL A   1      42.326  26.802  28.443  1.00  0.00    -0.354 N 
ATOM     50  C   UNL A   1      46.526  26.021  27.792  1.00  0.00     0.074 A 
ATOM     51  C   UNL A   1      46.761  24.635  27.463  1.00  0.00     0.031 C 
ATOM     52  C   UNL A   1      40.146  26.298  28.514  1.00  0.00     0.029 A 
ATOM     53  C   UNL A   1      41.110  27.376  28.723  1.00  0.00     0.049 A 
ATOM     54  H   UNL A   1      43.180  27.284  28.519  1.00  0.00     0.167 HD
ATOM     55  C   UNL A   1      47.500  26.951  27.900  1.00  0.00     0.031 A 
ATOM     56  C   UNL A   1      40.803  28.634  29.093  1.00  0.00     0.031 A 
ATOM     57  C   UNL A   1      47.258  28.330  28.206  1.00  0.00     0.049 A 
ATOM     58  C   UNL A   1      41.902  29.649  29.225  1.00  0.00     0.074 A 
ATOM     59  C   UNL A   1      48.174  29.366  28.267  1.00  0.00     0.029 A 
ATOM     60  N   UNL A   1      46.016  28.866  28.506  1.00  0.00    -0.354 N 
ATOM     61  N   UNL A   1      43.185  29.496  29.007  1.00  0.00    -0.248 NA
ATOM     62  C   UNL A   1      41.520  31.005  29.646  1.00  0.00     0.031 C 
ATOM     63  C   UNL A   1      47.493  30.517  28.661  1.00  0.00     0.029 A 
ATOM     64  C   UNL A   1      46.147  30.211  28.792  1.00  0.00     0.049 A 
ATOM     65  H   UNL A   1      45.170  28.363  28.515  1.00  0.00     0.167 HD
ATOM     66  C   UNL A   1      43.764  30.734  29.251  1.00  0.00     0.074 A 
ATOM     67  C   UNL A   1      42.691  31.632  29.627  1.00  0.00     0.031 C 
ATOM     68  C   UNL A   1      45.068  31.089  29.166  1.00  0.00     0.031 A 
BRANCH  55  69
ATOM     69  C   UNL A   1      48.917  26.516  27.669  1.00  0.00    -0.014 A 
ATOM     70  C   UNL A   1      49.701  26.027  28.726  1.00  0.00     0.009 A 
ATOM     71  C   UNL A   1      49.443  26.513  26.369  1.00  0.00     0.009 A 
ATOM     72  C   UNL A   1      50.991  25.556  28.485  1.00  0.00     0.001 A 
ATOM     73  C   UNL A   1      50.725  26.018  26.129  1.00  0.00     0.001 A 
ATOM     74  C   UNL A   1      51.499  25.543  27.186  1.00  0.00     0.000 A 
ENDBRANCH  55  69
BRANCH  56  75
ATOM     75  C   UNL A   1      39.379  28.988  29.314  1.00  0.00    -0.014 A 
ATOM     76  C   UNL A   1      38.590  29.449  28.250  1.00  0.00     0.009 A 
ATOM     77  C   UNL A   1      38.775  28.766  30.563  1.00  0.00     0.009 A 
ATOM     78  C   UNL A   1      37.222  29.673  28.430  1.00  0.00     0.001 A 
ATOM     79  C   UNL A   1      37.405  28.973  30.734  1.00  0.00     0.001 A 
ATOM     80  C   UNL A   1      36.630  29.424  29.668  1.00  0.00     0.000 A 
ENDBRANCH  56  75
BRANCH  68  81
ATOM     81  C   UNL A   1      45.449  32.503  29.489  1.00  0.00    -0.014 A 
ATOM     82  C   UNL A   1      45.907  32.837  30.771  1.00  0.00     0.009 A 
ATOM     83  C   UNL A   1      45.545  33.448  28.456  1.00  0.00     0.009 A 
ATOM     84  C   UNL A   1      46.474  34.090  31.008  1.00  0.00     0.001 A 
ATOM     85  C   UNL A   1      46.130  34.693  28.691  1.00  0.00     0.001 A 
ATOM     86  C   UNL A   1      46.599  35.010  29.966  1.00  0.00     0.000 A 
ENDBRANCH  68  81
ENDBRANCH  42  43
ENDBRANCH  34  37
ENDBRANCH  32  33
ENDBRANCH  31  32
ENDBRANCH   1  31
TORSDOF 13
ENDMDL
MODEL 2
REMARK VINA RESULT:     -12.6      4.702      9.866
REMARK SMILES COC(=O)c1ccc(C)c2c1[C@H]1C=CC[C@H]1[C@@H](c1ccc(C(=O)NCCCNC(=O)c3ccc(-c4c5nc(c(-c6ccccc6)c6ccc([nH]6)c(-c6ccccc6)c6nc(c(-c7ccccc7)c7ccc4[nH]7)C=C6)C=C5)cc3)cc1)N2
REMARK SMILES IDX 25 1 24 2 22 3 23 4 21 6 18 7 19 8 80 9 20 10 79 11 17 12
REMARK SMILES IDX 5 13 6 14 11 15 7 16 10 17 12 18 8 19 81 20 13 21 16 22 9 23
REMARK SMILES IDX 14 25 15 26 3 27 4 28 2 29 1 30 26 31 27 32 28 33 29 34
REMARK SMILES IDX 30 36 31 37 32 38 78 39 33 40 77 41 34 42 35 43 36 44 71 45
REMARK SMILES IDX 37 46 76 47 70 48 72 49 38 50 75 51 69 52 68 53 39 55 61 56
REMARK SMILES IDX 46 57 60 58 47 59 50 60 59 61 73 62 48 63 49 64 58 66 74 67
REMARK SMILES IDX 51 68 40 69 41 70 45 71 42 72 44 73 43 74 62 75 63 76 67 77
REMARK SMILES IDX 64 78 66 79 65 80 52 81 53 82 57 83 54 84 56 85 55 86
REMARK H PARENT 24 5 81 24 28 35 72 54 50 65
REMARK Flexibility Score: inf
ROOT
ATOM      1  C   UNL A   1      31.655  30.797  26.034  1.00  0.00     0.118 C 
ENDROOT
BRANCH   1   2
ATOM      2  N   UNL A   1      31.443  29.793  27.055  1.00  0.00    -0.352 N 
ATOM      3  C   UNL A   1      31.700  28.452  27.089  1.00  0.00     0.251 C 
ATOM      4  O   UNL A   1      31.366  27.848  28.110  1.00  0.00    -0.269 OA
ATOM      5  H   UNL A   1      31.038  30.144  27.880  1.00  0.00     0.163 HD
BRANCH   3   6
ATOM      6  C   UNL A   1      32.382  27.713  25.991  1.00  0.00     0.039 A 
ATOM      7  C   UNL A   1      33.655  26.069  24.051  1.00  0.00    -0.025 A 
ATOM      8  C   UNL A   1      33.685  25.750  25.418  1.00  0.00     0.006 A 
ATOM      9  C   UNL A   1      33.019  27.263  23.685  1.00  0.00     0.006 A 
ATOM     10  C   UNL A   1      33.061  26.554  26.370  1.00  0.00     0.014 A 
ATOM     11  C   UNL A   1      32.358  28.049  24.635  1.00  0.00     0.014 A 
BRANCH   7  12
ATOM     12  C   UNL A   1      34.159  25.131  22.952  1.00  0.00     0.114 C 
ATOM     13  C   UNL A   1      33.614  21.449  25.016  1.00  0.00     0.065 A 
ATOM     14  C   UNL A   1      34.592  21.059  25.936  1.00  0.00     0.016 A 
ATOM     15  C   UNL A   1      33.835  22.537  24.144  1.00  0.00    -0.003 A 
ATOM     16  C   UNL A   1      35.808  21.730  25.982  1.00  0.00     0.006 A 
ATOM     17  C   UNL A   1      35.089  23.204  24.179  1.00  0.00     0.042 A 
ATOM     18  C   UNL A   1      32.746  23.008  23.197  1.00  0.00     0.050 C 
ATOM     19  C   UNL A   1      36.073  22.800  25.111  1.00  0.00    -0.028 A 
ATOM     20  N   UNL A   1      35.289  24.338  23.402  1.00  0.00    -0.377 N 
ATOM     21  C   UNL A   1      31.483  23.536  23.838  1.00  0.00    -0.023 C 
ATOM     22  C   UNL A   1      33.128  24.192  22.285  1.00  0.00     0.031 C 
ATOM     23  C   UNL A   1      37.404  23.489  25.279  1.00  0.00     0.046 C 
ATOM     24  H   UNL A   1      36.203  24.606  23.155  1.00  0.00     0.161 HD
ATOM     25  C   UNL A   1      30.951  24.543  23.132  1.00  0.00    -0.030 C 
ATOM     26  C   UNL A   1      31.787  24.860  21.936  1.00  0.00     0.034 C 
BRANCH  13  27
ATOM     27  C   UNL A   1      32.353  20.670  24.972  1.00  0.00     0.338 C 
ATOM     28  O   UNL A   1      31.407  20.846  25.717  1.00  0.00    -0.246 OA
BRANCH  27  29
ATOM     29  O   UNL A   1      32.461  19.714  24.013  1.00  0.00    -0.465 OA
ATOM     30  C   UNL A   1      32.526  18.387  24.536  1.00  0.00     0.282 C 
ENDBRANCH  27  29
ENDBRANCH  13  27
ENDBRANCH   7  12
ENDBRANCH   3   6
ENDBRANCH   1   2
BRANCH   1  31
ATOM     31  C   UNL A   1      31.415  32.188  26.613  1.00  0.00     0.042 C 
BRANCH  31  32
ATOM     32  C   UNL A   1      32.688  32.774  27.212  1.00  0.00     0.118 C 
BRANCH  32  33
ATOM     33  N   UNL A   1      32.483  34.157  27.628  1.00  0.00    -0.352 N 
ATOM     34  C   UNL A   1      33.035  34.819  28.693  1.00  0.00     0.251 C 
ATOM     35  H   UNL A   1      31.867  34.684  27.069  1.00  0.00     0.163 HD
ATOM     36  O   UNL A   1      32.550  35.865  29.108  1.00  0.00    -0.269 OA
BRANCH  34  37
ATOM     37  C   UNL A   1      34.229  34.243  29.330  1.00  0.00     0.039 A 
ATOM     38  C   UNL A   1      34.085  33.430  30.454  1.00  0.00     0.014 A 
ATOM     39  C   UNL A   1      35.489  34.499  28.780  1.00  0.00     0.014 A 
ATOM     40  C   UNL A   1      35.215  32.830  31.002  1.00  0.00     0.010 A 
ATOM     41  C   UNL A   1      36.601  33.841  29.281  1.00  0.00     0.010 A 
ATOM     42  C   UNL A   1      36.474  33.016  30.406  1.00  0.00    -0.014 A 
BRANCH  42  43
ATOM     43  C   UNL A   1      37.677  32.376  30.976  1.00  0.00     0.031 A 
ATOM     44  C   UNL A   1      38.259  32.900  32.255  1.00  0.00     0.074 A 
ATOM     45  C   UNL A   1      38.248  31.342  30.333  1.00  0.00     0.049 A 
ATOM     46  N   UNL A   1      39.273  32.440  32.938  1.00  0.00    -0.248 NA
ATOM     47  C   UNL A   1      37.636  34.102  32.835  1.00  0.00     0.031 C 
ATOM     48  C   UNL A   1      37.791  30.785  29.058  1.00  0.00     0.029 A 
ATOM     49  N   UNL A   1      39.330  30.570  30.668  1.00  0.00    -0.354 N 
ATOM     50  C   UNL A   1      39.406  33.293  34.024  1.00  0.00     0.074 A 
ATOM     51  C   UNL A   1      38.413  34.331  33.884  1.00  0.00     0.031 C 
ATOM     52  C   UNL A   1      38.562  29.733  28.741  1.00  0.00     0.029 A 
ATOM     53  C   UNL A   1      39.580  29.558  29.774  1.00  0.00     0.049 A 
ATOM     54  H   UNL A   1      39.876  30.726  31.472  1.00  0.00     0.167 HD
ATOM     55  C   UNL A   1      40.262  33.196  35.065  1.00  0.00     0.031 A 
ATOM     56  C   UNL A   1      40.514  28.589  29.791  1.00  0.00     0.031 A 
ATOM     57  C   UNL A   1      41.232  32.150  35.208  1.00  0.00     0.049 A 
ATOM     58  C   UNL A   1      41.468  28.509  30.947  1.00  0.00     0.074 A 
ATOM     59  C   UNL A   1      42.097  31.926  36.264  1.00  0.00     0.029 A 
ATOM     60  N   UNL A   1      41.468  31.160  34.269  1.00  0.00    -0.354 N 
ATOM     61  N   UNL A   1      41.525  29.271  32.012  1.00  0.00    -0.248 NA
ATOM     62  C   UNL A   1      42.480  27.443  30.914  1.00  0.00     0.031 C 
ATOM     63  C   UNL A   1      42.898  30.832  35.936  1.00  0.00     0.029 A 
ATOM     64  C   UNL A   1      42.494  30.343  34.703  1.00  0.00     0.049 A 
ATOM     65  H   UNL A   1      40.979  31.055  33.421  1.00  0.00     0.167 HD
ATOM     66  C   UNL A   1      42.568  28.772  32.783  1.00  0.00     0.074 A 
ATOM     67  C   UNL A   1      43.112  27.637  32.066  1.00  0.00     0.031 C 
ATOM     68  C   UNL A   1      43.025  29.218  33.976  1.00  0.00     0.031 A 
BRANCH  55  69
ATOM     69  C   UNL A   1      40.180  34.237  36.141  1.00  0.00    -0.014 A 
ATOM     70  C   UNL A   1      40.864  35.457  36.016  1.00  0.00     0.009 A 
ATOM     71  C   UNL A   1      39.345  34.032  37.249  1.00  0.00     0.009 A 
ATOM     72  C   UNL A   1      40.720  36.447  36.989  1.00  0.00     0.001 A 
ATOM     73  C   UNL A   1      39.185  35.034  38.207  1.00  0.00     0.001 A 
ATOM     74  C   UNL A   1      39.874  36.238  38.077  1.00  0.00     0.000 A 
ENDBRANCH  55  69
BRANCH  56  75
ATOM     75  C   UNL A   1      40.539  27.600  28.684  1.00  0.00    -0.014 A 
ATOM     76  C   UNL A   1      39.749  26.443  28.749  1.00  0.00     0.009 A 
ATOM     77  C   UNL A   1      41.272  27.859  27.514  1.00  0.00     0.009 A 
ATOM     78  C   UNL A   1      39.684  25.570  27.660  1.00  0.00     0.001 A 
ATOM     79  C   UNL A   1      41.190  26.994  26.420  1.00  0.00     0.001 A 
ATOM     80  C   UNL A   1      40.395  25.852  26.494  1.00  0.00     0.000 A 
ENDBRANCH  56  75
BRANCH  68  81
ATOM     81  C   UNL A   1      44.181  28.506  34.613  1.00  0.00    -0.014 A 
ATOM     82  C   UNL A   1      45.488  28.983  34.440  1.00  0.00     0.009 A 
ATOM     83  C   UNL A   1      43.938  27.489  35.549  1.00  0.00     0.009 A 
ATOM     84  C   UNL A   1      46.530  28.464  35.209  1.00  0.00     0.001 A 
ATOM     85  C   UNL A   1      44.979  26.987  36.330  1.00  0.00     0.001 A 
ATOM     86  C   UNL A   1      46.273  27.478  36.164  1.00  0.00     0.000 A 
ENDBRANCH  68  81
ENDBRANCH  42  43
ENDBRANCH  34  37
ENDBRANCH  32  33
ENDBRANCH  31  32
ENDBRANCH   1  31
TORSDOF 13
ENDMDL
MODEL 3
REMARK VINA RESULT:     -12.3      4.259      8.918
REMARK SMILES COC(=O)c1ccc(C)c2c1[C@H]1C=CC[C@H]1[C@@H](c1ccc(C(=O)NCCCNC(=O)c3ccc(-c4c5nc(c(-c6ccccc6)c6ccc([nH]6)c(-c6ccccc6)c6nc(c(-c7ccccc7)c7ccc4[nH]7)C=C6)C=C5)cc3)cc1)N2
REMARK SMILES IDX 25 1 24 2 22 3 23 4 21 6 18 7 19 8 80 9 20 10 79 11 17 12
REMARK SMILES IDX 5 13 6 14 11 15 7 16 10 17 12 18 8 19 81 20 13 21 16 22 9 23
REMARK SMILES IDX 14 25 15 26 3 27 4 28 2 29 1 30 26 31 27 32 28 33 29 34
REMARK SMILES IDX 30 36 31 37 32 38 78 39 33 40 77 41 34 42 35 43 36 44 71 45
REMARK SMILES IDX 37 46 76 47 70 48 72 49 38 50 75 51 69 52 68 53 39 55 61 56
REMARK SMILES IDX 46 57 60 58 47 59 50 60 59 61 73 62 48 63 49 64 58 66 74 67
REMARK SMILES IDX 51 68 40 69 41 70 45 71 42 72 44 73 43 74 62 75 63 76 67 77
REMARK SMILES IDX 64 78 66 79 65 80 52 81 53 82 57 83 54 84 56 85 55 86
REMARK H PARENT 24 5 81 24 28 35 72 54 50 65
REMARK Flexibility Score: inf
ROOT
ATOM      1  C   UNL A   1      33.795  30.202  27.259  1.00  0.00     0.118 C 
ENDROOT
BRANCH   1   2
ATOM      2  N   UNL A   1      32.714  29.355  27.716  1.00  0.00    -0.352 N 
ATOM      3  C   UNL A   1      32.194  28.191  27.228  1.00  0.00     0.251 C 
ATOM      4  O   UNL A   1      31.229  27.717  27.832  1.00  0.00    -0.269 OA
ATOM      5  H   UNL A   1      32.271  29.680  28.532  1.00  0.00     0.163 HD
BRANCH   3   6
ATOM      6  C   UNL A   1      32.748  27.466  26.052  1.00  0.00     0.039 A 
ATOM      7  C   UNL A   1      33.755  25.842  23.946  1.00  0.00    -0.025 A 
ATOM      8  C   UNL A   1      33.790  25.415  25.282  1.00  0.00     0.006 A 
ATOM      9  C   UNL A   1      33.254  27.126  23.695  1.00  0.00     0.006 A 
ATOM     10  C   UNL A   1      33.296  26.210  26.317  1.00  0.00     0.014 A 
ATOM     11  C   UNL A   1      32.721  27.907  24.727  1.00  0.00     0.014 A 
BRANCH   7  12
ATOM     12  C   UNL A   1      34.109  24.941  22.761  1.00  0.00     0.114 C 
ATOM     13  C   UNL A   1      33.553  21.184  24.683  1.00  0.00     0.065 A 
ATOM     14  C   UNL A   1      34.586  20.698  25.490  1.00  0.00     0.016 A 
ATOM     15  C   UNL A   1      33.754  22.306  23.849  1.00  0.00    -0.003 A 
ATOM     16  C   UNL A   1      35.835  21.306  25.457  1.00  0.00     0.006 A 
ATOM     17  C   UNL A   1      35.040  22.908  23.802  1.00  0.00     0.042 A 
ATOM     18  C   UNL A   1      32.612  22.879  23.028  1.00  0.00     0.050 C 
ATOM     19  C   UNL A   1      36.079  22.407  24.620  1.00  0.00    -0.028 A 
ATOM     20  N   UNL A   1      35.231  24.071  23.066  1.00  0.00    -0.377 N 
ATOM     21  C   UNL A   1      31.440  23.433  23.807  1.00  0.00    -0.023 C 
ATOM     22  C   UNL A   1      32.976  24.090  22.145  1.00  0.00     0.031 C 
ATOM     23  C   UNL A   1      37.455  23.020  24.699  1.00  0.00     0.046 C 
ATOM     24  H   UNL A   1      36.133  24.307  22.751  1.00  0.00     0.161 HD
ATOM     25  C   UNL A   1      30.903  24.501  23.202  1.00  0.00    -0.030 C 
ATOM     26  C   UNL A   1      31.646  24.840  21.953  1.00  0.00     0.034 C 
BRANCH  13  27
ATOM     27  C   UNL A   1      32.253  20.471  24.715  1.00  0.00     0.338 C 
ATOM     28  O   UNL A   1      31.366  20.690  25.519  1.00  0.00    -0.246 OA
BRANCH  27  29
ATOM     29  O   UNL A   1      32.251  19.518  23.747  1.00  0.00    -0.465 OA
ATOM     30  C   UNL A   1      32.428  18.194  24.251  1.00  0.00     0.282 C 
ENDBRANCH  27  29
ENDBRANCH  13  27
ENDBRANCH   7  12
ENDBRANCH   3   6
ENDBRANCH   1   2
BRANCH   1  31
ATOM     31  C   UNL A   1      33.230  31.441  26.570  1.00  0.00     0.042 C 
BRANCH  31  32
ATOM     32  C   UNL A   1      32.063  32.034  27.350  1.00  0.00     0.118 C 
BRANCH  32  33
ATOM     33  N   UNL A   1      32.165  33.487  27.423  1.00  0.00    -0.352 N 
ATOM     34  C   UNL A   1      33.026  34.245  28.172  1.00  0.00     0.251 C 
ATOM     35  H   UNL A   1      31.533  33.988  26.860  1.00  0.00     0.163 HD
ATOM     36  O   UNL A   1      32.806  35.433  28.379  1.00  0.00    -0.269 OA
BRANCH  34  37
ATOM     37  C   UNL A   1      34.226  33.599  28.725  1.00  0.00     0.039 A 
ATOM     38  C   UNL A   1      35.458  33.787  28.100  1.00  0.00     0.014 A 
ATOM     39  C   UNL A   1      34.114  32.827  29.886  1.00  0.00     0.014 A 
ATOM     40  C   UNL A   1      36.598  33.232  28.675  1.00  0.00     0.010 A 
ATOM     41  C   UNL A   1      35.259  32.341  30.497  1.00  0.00     0.010 A 
ATOM     42  C   UNL A   1      36.506  32.525  29.886  1.00  0.00    -0.014 A 
BRANCH  42  43
ATOM     43  C   UNL A   1      37.713  31.941  30.507  1.00  0.00     0.031 A 
ATOM     44  C   UNL A   1      38.305  30.686  29.939  1.00  0.00     0.074 A 
ATOM     45  C   UNL A   1      38.255  32.530  31.588  1.00  0.00     0.049 A 
ATOM     46  N   UNL A   1      39.388  30.055  30.309  1.00  0.00    -0.248 NA
ATOM     47  C   UNL A   1      37.586  30.048  28.824  1.00  0.00     0.031 C 
ATOM     48  C   UNL A   1      37.730  33.726  32.250  1.00  0.00     0.029 A 
ATOM     49  N   UNL A   1      39.374  32.208  32.313  1.00  0.00    -0.354 N 
ATOM     50  C   UNL A   1      39.478  28.952  29.473  1.00  0.00     0.074 A 
ATOM     51  C   UNL A   1      38.315  28.961  28.616  1.00  0.00     0.031 C 
ATOM     52  C   UNL A   1      38.550  34.062  33.258  1.00  0.00     0.029 A 
ATOM     53  C   UNL A   1      39.641  33.093  33.329  1.00  0.00     0.049 A 
ATOM     54  H   UNL A   1      39.931  31.419  32.124  1.00  0.00     0.167 HD
ATOM     55  C   UNL A   1      40.463  28.031  29.406  1.00  0.00     0.031 A 
ATOM     56  C   UNL A   1      40.659  33.129  34.209  1.00  0.00     0.031 A 
ATOM     57  C   UNL A   1      41.625  28.040  30.245  1.00  0.00     0.049 A 
ATOM     58  C   UNL A   1      41.736  32.085  34.130  1.00  0.00     0.074 A 
ATOM     59  C   UNL A   1      42.715  27.189  30.205  1.00  0.00     0.029 A 
ATOM     60  N   UNL A   1      41.846  28.938  31.277  1.00  0.00    -0.354 N 
ATOM     61  N   UNL A   1      41.854  31.097  33.276  1.00  0.00    -0.248 NA
ATOM     62  C   UNL A   1      42.819  32.157  35.122  1.00  0.00     0.031 C 
ATOM     63  C   UNL A   1      43.569  27.538  31.251  1.00  0.00     0.029 A 
ATOM     64  C   UNL A   1      43.038  28.638  31.907  1.00  0.00     0.049 A 
ATOM     65  H   UNL A   1      41.244  29.677  31.523  1.00  0.00     0.167 HD
ATOM     66  C   UNL A   1      43.027  30.436  33.617  1.00  0.00     0.074 A 
ATOM     67  C   UNL A   1      43.589  31.140  34.752  1.00  0.00     0.031 C 
ATOM     68  C   UNL A   1      43.582  29.348  33.036  1.00  0.00     0.031 A 
BRANCH  55  69
ATOM     69  C   UNL A   1      40.341  26.944  28.380  1.00  0.00    -0.014 A 
ATOM     70  C   UNL A   1      39.606  25.778  28.650  1.00  0.00     0.009 A 
ATOM     71  C   UNL A   1      40.891  27.124  27.102  1.00  0.00     0.009 A 
ATOM     72  C   UNL A   1      39.437  24.808  27.662  1.00  0.00     0.001 A 
ATOM     73  C   UNL A   1      40.699  26.163  26.109  1.00  0.00     0.001 A 
ATOM     74  C   UNL A   1      39.975  25.006  26.391  1.00  0.00     0.000 A 
ENDBRANCH  55  69
BRANCH  56  75
ATOM     75  C   UNL A   1      40.708  34.230  35.203  1.00  0.00    -0.014 A 
ATOM     76  C   UNL A   1      41.315  35.452  34.879  1.00  0.00     0.009 A 
ATOM     77  C   UNL A   1      40.055  34.102  36.441  1.00  0.00     0.009 A 
ATOM     78  C   UNL A   1      41.260  36.527  35.770  1.00  0.00     0.001 A 
ATOM     79  C   UNL A   1      39.986  35.184  37.321  1.00  0.00     0.001 A 
ATOM     80  C   UNL A   1      40.587  36.395  36.984  1.00  0.00     0.000 A 
ENDBRANCH  56  75
BRANCH  68  81
ATOM     81  C   UNL A   1      44.865  28.810  33.597  1.00  0.00    -0.014 A 
ATOM     82  C   UNL A   1      46.094  29.358  33.203  1.00  0.00     0.009 A 
ATOM     83  C   UNL A   1      44.827  27.903  34.668  1.00  0.00     0.009 A 
ATOM     84  C   UNL A   1      47.263  29.019  33.887  1.00  0.00     0.001 A 
ATOM     85  C   UNL A   1      45.995  27.582  35.361  1.00  0.00     0.001 A 
ATOM     86  C   UNL A   1      47.210  28.145  34.973  1.00  0.00     0.000 A 
ENDBRANCH  68  81
ENDBRANCH  42  43
ENDBRANCH  34  37
ENDBRANCH  32  33
ENDBRANCH  31  32
ENDBRANCH   1  31
TORSDOF 13
ENDMDL
