MODEL 1
REMARK VINA RESULT:     -11.1      0.000      0.000
REMARK SMILES COCC[C@]1(C(=O)NCCCNC(=O)c2ccc(-c3c4nc(c(-c5ccccc5)c5ccc([nH]5)c(-c5ccccc5)c5nc(c(-c6ccccc6)c6ccc3[nH]6)C=C5)C=C4)cc2)CCC[N@@H+](Cc2ccc(C(F)(F)F)nc2)C1
REMARK SMILES IDX 9 1 8 2 6 3 7 4 5 6 63 7 78 8 64 9 66 10 65 11 4 13 3 14
REMARK SMILES IDX 2 15 1 16 67 17 68 18 69 19 77 20 70 21 76 22 71 23 72 24
REMARK SMILES IDX 73 25 74 26 75 27 10 28 11 29 12 30 13 31 14 33 15 34 16 35
REMARK SMILES IDX 62 36 17 37 61 38 18 39 19 40 20 41 55 42 21 43 60 44 54 45
REMARK SMILES IDX 56 46 22 47 59 48 53 49 52 50 23 52 45 53 30 54 44 55 31 56
REMARK SMILES IDX 34 57 43 58 57 59 32 60 33 61 42 63 58 64 35 65 24 66 25 67
REMARK SMILES IDX 29 68 26 69 28 70 27 71 46 72 47 73 51 74 48 75 50 76 49 77
REMARK SMILES IDX 36 78 37 79 41 80 38 81 40 82 39 83
REMARK H PARENT 8 5 66 12 12 32 56 51 34 62
REMARK Flexibility Score: inf
ROOT
ATOM      1  C   UNL A   1      36.225  20.551  24.992  1.00  0.00     0.117 C 
ENDROOT
BRANCH   1   2
ATOM      2  N   UNL A   1      36.514  21.955  25.240  1.00  0.00    -0.355 N 
ATOM      3  C   UNL A   1      35.725  23.062  25.319  1.00  0.00     0.232 C 
ATOM      4  O   UNL A   1      36.282  24.055  25.795  1.00  0.00    -0.274 OA
ATOM      5  H   UNL A   1      37.471  22.142  25.380  1.00  0.00     0.163 HD
BRANCH   3   6
ATOM      6  C   UNL A   1      34.216  23.053  24.976  1.00  0.00     0.100 C 
ATOM      7  C   UNL A   1      33.405  21.967  25.729  1.00  0.00     0.029 C 
ATOM      8  C   UNL A   1      33.769  24.493  25.373  1.00  0.00     0.279 C 
ATOM      9  C   UNL A   1      31.929  22.326  25.898  1.00  0.00     0.063 C 
ATOM     10  N   UNL A   1      32.350  24.740  25.645  1.00  0.00    -0.330 N 
ATOM     11  C   UNL A   1      31.747  23.714  26.497  1.00  0.00     0.262 C 
ATOM     12  H   UNL A   1      31.865  24.673  24.751  1.00  0.00     0.348 HD
BRANCH   6  13
ATOM     13  C   UNL A   1      33.997  22.853  23.439  1.00  0.00     0.051 C 
BRANCH  13  14
ATOM     14  C   UNL A   1      33.218  23.922  22.649  1.00  0.00     0.161 C 
BRANCH  14  15
ATOM     15  O   UNL A   1      33.991  25.055  22.266  1.00  0.00    -0.385 OA
ATOM     16  C   UNL A   1      33.229  26.241  22.068  1.00  0.00     0.194 C 
ENDBRANCH  14  15
ENDBRANCH  13  14
ENDBRANCH   6  13
BRANCH  10  17
ATOM     17  C   UNL A   1      32.123  26.115  26.161  1.00  0.00     0.300 C 
BRANCH  17  18
ATOM     18  C   UNL A   1      31.328  27.054  25.273  1.00  0.00     0.025 A 
ATOM     19  C   UNL A   1      30.222  26.630  24.529  1.00  0.00     0.013 A 
ATOM     20  C   UNL A   1      31.700  28.384  25.129  1.00  0.00     0.121 A 
ATOM     21  C   UNL A   1      29.604  27.497  23.627  1.00  0.00     0.034 A 
ATOM     22  N   UNL A   1      31.109  29.256  24.278  1.00  0.00    -0.251 NA
ATOM     23  C   UNL A   1      30.078  28.803  23.507  1.00  0.00     0.144 A 
BRANCH  23  24
ATOM     24  C   UNL A   1      29.418  29.750  22.512  1.00  0.00     0.433 C 
ATOM     25  F   UNL A   1      29.077  30.949  23.064  1.00  0.00    -0.165 F 
ATOM     26  F   UNL A   1      30.199  30.038  21.431  1.00  0.00    -0.165 F 
ATOM     27  F   UNL A   1      28.258  29.246  21.991  1.00  0.00    -0.165 F 
ENDBRANCH  23  24
ENDBRANCH  17  18
ENDBRANCH  10  17
ENDBRANCH   3   6
ENDBRANCH   1   2
BRANCH   1  28
ATOM     28  C   UNL A   1      37.484  19.703  24.921  1.00  0.00     0.042 C 
BRANCH  28  29
ATOM     29  C   UNL A   1      38.690  20.340  25.592  1.00  0.00     0.118 C 
BRANCH  29  30
ATOM     30  N   UNL A   1      39.796  19.409  25.762  1.00  0.00    -0.352 N 
ATOM     31  C   UNL A   1      41.101  19.633  26.116  1.00  0.00     0.251 C 
ATOM     32  H   UNL A   1      39.569  18.466  25.596  1.00  0.00     0.163 HD
ATOM     33  O   UNL A   1      41.918  18.724  26.010  1.00  0.00    -0.269 OA
BRANCH  31  34
ATOM     34  C   UNL A   1      41.531  20.957  26.619  1.00  0.00     0.039 A 
ATOM     35  C   UNL A   1      41.458  21.215  27.990  1.00  0.00     0.014 A 
ATOM     36  C   UNL A   1      41.959  21.959  25.745  1.00  0.00     0.014 A 
ATOM     37  C   UNL A   1      41.849  22.461  28.483  1.00  0.00     0.010 A 
ATOM     38  C   UNL A   1      42.448  23.159  26.247  1.00  0.00     0.010 A 
ATOM     39  C   UNL A   1      42.367  23.437  27.617  1.00  0.00    -0.014 A 
BRANCH  39  40
ATOM     40  C   UNL A   1      42.771  24.774  28.118  1.00  0.00     0.031 A 
ATOM     41  C   UNL A   1      41.730  25.841  28.338  1.00  0.00     0.074 A 
ATOM     42  C   UNL A   1      44.072  25.047  28.337  1.00  0.00     0.049 A 
ATOM     43  N   UNL A   1      41.884  27.076  28.746  1.00  0.00    -0.248 NA
ATOM     44  C   UNL A   1      40.334  25.483  28.032  1.00  0.00     0.031 C 
ATOM     45  C   UNL A   1      45.184  24.117  28.119  1.00  0.00     0.029 A 
ATOM     46  N   UNL A   1      44.678  26.188  28.795  1.00  0.00    -0.354 N 
ATOM     47  C   UNL A   1      40.614  27.641  28.722  1.00  0.00     0.074 A 
ATOM     48  C   UNL A   1      39.713  26.639  28.201  1.00  0.00     0.031 C 
ATOM     49  C   UNL A   1      46.331  24.713  28.482  1.00  0.00     0.029 A 
ATOM     50  C   UNL A   1      46.041  26.074  28.924  1.00  0.00     0.049 A 
ATOM     51  H   UNL A   1      44.183  27.012  29.012  1.00  0.00     0.167 HD
ATOM     52  C   UNL A   1      40.224  28.874  29.125  1.00  0.00     0.031 A 
ATOM     53  C   UNL A   1      46.953  26.964  29.357  1.00  0.00     0.031 A 
ATOM     54  C   UNL A   1      41.115  29.866  29.663  1.00  0.00     0.049 A 
ATOM     55  C   UNL A   1      46.493  28.322  29.810  1.00  0.00     0.074 A 
ATOM     56  C   UNL A   1      40.813  31.127  30.147  1.00  0.00     0.029 A 
ATOM     57  N   UNL A   1      42.485  29.703  29.794  1.00  0.00    -0.354 N 
ATOM     58  N   UNL A   1      45.281  28.818  29.841  1.00  0.00    -0.248 NA
ATOM     59  C   UNL A   1      47.532  29.234  30.310  1.00  0.00     0.031 C 
ATOM     60  C   UNL A   1      42.010  31.745  30.530  1.00  0.00     0.029 A 
ATOM     61  C   UNL A   1      43.047  30.845  30.339  1.00  0.00     0.049 A 
ATOM     62  H   UNL A   1      42.985  28.895  29.536  1.00  0.00     0.167 HD
ATOM     63  C   UNL A   1      45.405  30.086  30.398  1.00  0.00     0.074 A 
ATOM     64  C   UNL A   1      46.809  30.271  30.704  1.00  0.00     0.031 C 
ATOM     65  C   UNL A   1      44.444  31.011  30.638  1.00  0.00     0.031 A 
BRANCH  52  66
ATOM     66  C   UNL A   1      38.763  29.212  28.996  1.00  0.00    -0.014 A 
ATOM     67  C   UNL A   1      38.231  29.694  27.788  1.00  0.00     0.009 A 
ATOM     68  C   UNL A   1      37.903  29.032  30.090  1.00  0.00     0.009 A 
ATOM     69  C   UNL A   1      36.879  30.029  27.693  1.00  0.00     0.001 A 
ATOM     70  C   UNL A   1      36.544  29.337  29.981  1.00  0.00     0.001 A 
ATOM     71  C   UNL A   1      36.037  29.847  28.787  1.00  0.00     0.000 A 
ENDBRANCH  52  66
BRANCH  53  72
ATOM     72  C   UNL A   1      48.389  26.589  29.424  1.00  0.00    -0.014 A 
ATOM     73  C   UNL A   1      48.904  25.944  30.560  1.00  0.00     0.009 A 
ATOM     74  C   UNL A   1      49.258  26.887  28.362  1.00  0.00     0.009 A 
ATOM     75  C   UNL A   1      50.263  25.636  30.646  1.00  0.00     0.001 A 
ATOM     76  C   UNL A   1      50.611  26.552  28.439  1.00  0.00     0.001 A 
ATOM     77  C   UNL A   1      51.114  25.937  29.584  1.00  0.00     0.000 A 
ENDBRANCH  53  72
BRANCH  65  78
ATOM     78  C   UNL A   1      44.877  32.285  31.311  1.00  0.00    -0.014 A 
ATOM     79  C   UNL A   1      45.250  33.417  30.571  1.00  0.00     0.009 A 
ATOM     80  C   UNL A   1      44.896  32.353  32.713  1.00  0.00     0.009 A 
ATOM     81  C   UNL A   1      45.682  34.575  31.222  1.00  0.00     0.001 A 
ATOM     82  C   UNL A   1      45.295  33.521  33.361  1.00  0.00     0.001 A 
ATOM     83  C   UNL A   1      45.701  34.627  32.616  1.00  0.00     0.000 A 
ENDBRANCH  65  78
ENDBRANCH  39  40
ENDBRANCH  31  34
ENDBRANCH  29  30
ENDBRANCH  28  29
ENDBRANCH   1  28
TORSDOF 16
ENDMDL
MODEL 2
REMARK VINA RESULT:     -11.0      1.222      6.065
REMARK SMILES COCC[C@]1(C(=O)NCCCNC(=O)c2ccc(-c3c4nc(c(-c5ccccc5)c5ccc([nH]5)c(-c5ccccc5)c5nc(c(-c6ccccc6)c6ccc3[nH]6)C=C5)C=C4)cc2)CCC[N@@H+](Cc2ccc(C(F)(F)F)nc2)C1
REMARK SMILES IDX 9 1 8 2 6 3 7 4 5 6 63 7 78 8 64 9 66 10 65 11 4 13 3 14
REMARK SMILES IDX 2 15 1 16 67 17 68 18 69 19 77 20 70 21 76 22 71 23 72 24
REMARK SMILES IDX 73 25 74 26 75 27 10 28 11 29 12 30 13 31 14 33 15 34 16 35
REMARK SMILES IDX 62 36 17 37 61 38 18 39 19 40 20 41 55 42 21 43 60 44 54 45
REMARK SMILES IDX 56 46 22 47 59 48 53 49 52 50 23 52 45 53 30 54 44 55 31 56
REMARK SMILES IDX 34 57 43 58 57 59 32 60 33 61 42 63 58 64 35 65 24 66 25 67
REMARK SMILES IDX 29 68 26 69 28 70 27 71 46 72 47 73 51 74 48 75 50 76 49 77
REMARK SMILES IDX 36 78 37 79 41 80 38 81 40 82 39 83
REMARK H PARENT 8 5 66 12 12 32 56 51 34 62
REMARK Flexibility Score: inf
ROOT
ATOM      1  C   UNL A   1      37.685  21.737  25.476  1.00  0.00     0.117 C 
ENDROOT
BRANCH   1   2
ATOM      2  N   UNL A   1      37.285  22.044  24.111  1.00  0.00    -0.355 N 
ATOM      3  C   UNL A   1      36.225  22.720  23.588  1.00  0.00     0.232 C 
ATOM      4  O   UNL A   1      36.338  23.003  22.392  1.00  0.00    -0.274 OA
ATOM      5  H   UNL A   1      37.904  21.694  23.430  1.00  0.00     0.163 HD
BRANCH   3   6
ATOM      6  C   UNL A   1      35.035  23.220  24.441  1.00  0.00     0.100 C 
ATOM      7  C   UNL A   1      35.387  24.399  25.384  1.00  0.00     0.029 C 
ATOM      8  C   UNL A   1      33.991  23.633  23.358  1.00  0.00     0.279 C 
ATOM      9  C   UNL A   1      34.183  25.274  25.730  1.00  0.00     0.063 C 
ATOM     10  N   UNL A   1      32.932  24.578  23.725  1.00  0.00    -0.330 N 
ATOM     11  C   UNL A   1      33.432  25.725  24.484  1.00  0.00     0.262 C 
ATOM     12  H   UNL A   1      32.305  24.083  24.358  1.00  0.00     0.348 HD
BRANCH   6  13
ATOM     13  C   UNL A   1      34.445  22.057  25.307  1.00  0.00     0.051 C 
BRANCH  13  14
ATOM     14  C   UNL A   1      33.314  21.188  24.721  1.00  0.00     0.161 C 
BRANCH  14  15
ATOM     15  O   UNL A   1      33.473  19.789  24.932  1.00  0.00    -0.385 OA
ATOM     16  C   UNL A   1      32.834  18.976  23.954  1.00  0.00     0.194 C 
ENDBRANCH  14  15
ENDBRANCH  13  14
ENDBRANCH   6  13
BRANCH  10  17
ATOM     17  C   UNL A   1      32.127  24.983  22.544  1.00  0.00     0.300 C 
BRANCH  17  18
ATOM     18  C   UNL A   1      31.102  26.081  22.761  1.00  0.00     0.025 A 
ATOM     19  C   UNL A   1      29.999  25.923  23.607  1.00  0.00     0.013 A 
ATOM     20  C   UNL A   1      31.197  27.289  22.085  1.00  0.00     0.121 A 
ATOM     21  C   UNL A   1      29.014  26.909  23.674  1.00  0.00     0.034 A 
ATOM     22  N   UNL A   1      30.269  28.274  22.143  1.00  0.00    -0.251 NA
ATOM     23  C   UNL A   1      29.165  28.071  22.918  1.00  0.00     0.144 A 
BRANCH  23  24
ATOM     24  C   UNL A   1      28.084  29.145  22.974  1.00  0.00     0.433 C 
ATOM     25  F   UNL A   1      26.911  28.691  23.500  1.00  0.00    -0.165 F 
ATOM     26  F   UNL A   1      28.436  30.236  23.713  1.00  0.00    -0.165 F 
ATOM     27  F   UNL A   1      27.763  29.637  21.739  1.00  0.00    -0.165 F 
ENDBRANCH  23  24
ENDBRANCH  17  18
ENDBRANCH  10  17
ENDBRANCH   3   6
ENDBRANCH   1   2
BRANCH   1  28
ATOM     28  C   UNL A   1      39.121  21.246  25.563  1.00  0.00     0.042 C 
BRANCH  28  29
ATOM     29  C   UNL A   1      39.255  19.846  26.142  1.00  0.00     0.118 C 
BRANCH  29  30
ATOM     30  N   UNL A   1      40.533  19.226  25.821  1.00  0.00    -0.352 N 
ATOM     31  C   UNL A   1      41.801  19.748  25.822  1.00  0.00     0.251 C 
ATOM     32  H   UNL A   1      40.477  18.278  25.562  1.00  0.00     0.163 HD
ATOM     33  O   UNL A   1      42.718  19.101  25.327  1.00  0.00    -0.269 OA
BRANCH  31  34
ATOM     34  C   UNL A   1      42.068  21.080  26.407  1.00  0.00     0.039 A 
ATOM     35  C   UNL A   1      41.978  21.239  27.793  1.00  0.00     0.014 A 
ATOM     36  C   UNL A   1      42.359  22.181  25.599  1.00  0.00     0.014 A 
ATOM     37  C   UNL A   1      42.217  22.490  28.364  1.00  0.00     0.010 A 
ATOM     38  C   UNL A   1      42.702  23.398  26.176  1.00  0.00     0.010 A 
ATOM     39  C   UNL A   1      42.601  23.576  27.561  1.00  0.00    -0.014 A 
BRANCH  39  40
ATOM     40  C   UNL A   1      42.842  24.919  28.147  1.00  0.00     0.031 A 
ATOM     41  C   UNL A   1      44.234  25.314  28.571  1.00  0.00     0.074 A 
ATOM     42  C   UNL A   1      41.813  25.767  28.336  1.00  0.00     0.049 A 
ATOM     43  N   UNL A   1      44.645  26.428  29.124  1.00  0.00    -0.248 NA
ATOM     44  C   UNL A   1      45.299  24.315  28.377  1.00  0.00     0.031 C 
ATOM     45  C   UNL A   1      40.412  25.488  28.011  1.00  0.00     0.029 A 
ATOM     46  N   UNL A   1      41.790  27.039  28.846  1.00  0.00    -0.354 N 
ATOM     47  C   UNL A   1      46.003  26.251  29.360  1.00  0.00     0.074 A 
ATOM     48  C   UNL A   1      46.334  24.906  28.952  1.00  0.00     0.031 C 
ATOM     49  C   UNL A   1      39.673  26.574  28.292  1.00  0.00     0.029 A 
ATOM     50  C   UNL A   1      40.540  27.608  28.849  1.00  0.00     0.049 A 
ATOM     51  H   UNL A   1      42.594  27.501  29.179  1.00  0.00     0.167 HD
ATOM     52  C   UNL A   1      46.904  27.139  29.846  1.00  0.00     0.031 A 
ATOM     53  C   UNL A   1      40.139  28.830  29.247  1.00  0.00     0.031 A 
ATOM     54  C   UNL A   1      46.582  28.485  30.233  1.00  0.00     0.049 A 
ATOM     55  C   UNL A   1      41.160  29.800  29.772  1.00  0.00     0.074 A 
ATOM     56  C   UNL A   1      47.430  29.479  30.691  1.00  0.00     0.029 A 
ATOM     57  N   UNL A   1      45.306  29.027  30.203  1.00  0.00    -0.354 N 
ATOM     58  N   UNL A   1      42.452  29.640  29.929  1.00  0.00    -0.248 NA
ATOM     59  C   UNL A   1      40.667  31.131  30.153  1.00  0.00     0.031 C 
ATOM     60  C   UNL A   1      46.658  30.611  30.979  1.00  0.00     0.029 A 
ATOM     61  C   UNL A   1      45.341  30.339  30.645  1.00  0.00     0.049 A 
ATOM     62  H   UNL A   1      44.497  28.550  29.911  1.00  0.00     0.167 HD
ATOM     63  C   UNL A   1      42.931  30.860  30.391  1.00  0.00     0.074 A 
ATOM     64  C   UNL A   1      41.792  31.752  30.472  1.00  0.00     0.031 C 
ATOM     65  C   UNL A   1      44.199  31.212  30.716  1.00  0.00     0.031 A 
BRANCH  52  66
ATOM     66  C   UNL A   1      48.328  26.671  29.981  1.00  0.00    -0.014 A 
ATOM     67  C   UNL A   1      49.252  26.837  28.936  1.00  0.00     0.009 A 
ATOM     68  C   UNL A   1      48.757  26.071  31.175  1.00  0.00     0.009 A 
ATOM     69  C   UNL A   1      50.563  26.371  29.067  1.00  0.00     0.001 A 
ATOM     70  C   UNL A   1      50.078  25.636  31.315  1.00  0.00     0.001 A 
ATOM     71  C   UNL A   1      50.974  25.776  30.258  1.00  0.00     0.000 A 
ENDBRANCH  52  66
BRANCH  53  72
ATOM     72  C   UNL A   1      38.711  29.223  29.129  1.00  0.00    -0.014 A 
ATOM     73  C   UNL A   1      38.210  29.726  27.918  1.00  0.00     0.009 A 
ATOM     74  C   UNL A   1      37.845  29.114  30.228  1.00  0.00     0.009 A 
ATOM     75  C   UNL A   1      36.881  30.143  27.819  1.00  0.00     0.001 A 
ATOM     76  C   UNL A   1      36.509  29.505  30.118  1.00  0.00     0.001 A 
ATOM     77  C   UNL A   1      36.031  30.029  28.918  1.00  0.00     0.000 A 
ENDBRANCH  53  72
BRANCH  65  78
ATOM     78  C   UNL A   1      44.424  32.638  31.138  1.00  0.00    -0.014 A 
ATOM     79  C   UNL A   1      44.729  33.641  30.205  1.00  0.00     0.009 A 
ATOM     80  C   UNL A   1      44.313  32.982  32.494  1.00  0.00     0.009 A 
ATOM     81  C   UNL A   1      44.968  34.950  30.630  1.00  0.00     0.001 A 
ATOM     82  C   UNL A   1      44.519  34.297  32.911  1.00  0.00     0.001 A 
ATOM     83  C   UNL A   1      44.859  35.277  31.981  1.00  0.00     0.000 A 
ENDBRANCH  65  78
ENDBRANCH  39  40
ENDBRANCH  31  34
ENDBRANCH  29  30
ENDBRANCH  28  29
ENDBRANCH   1  28
TORSDOF 16
ENDMDL
MODEL 3
REMARK VINA RESULT:     -11.0      3.956      8.912
REMARK SMILES COCC[C@]1(C(=O)NCCCNC(=O)c2ccc(-c3c4nc(c(-c5ccccc5)c5ccc([nH]5)c(-c5ccccc5)c5nc(c(-c6ccccc6)c6ccc3[nH]6)C=C5)C=C4)cc2)CCC[N@@H+](Cc2ccc(C(F)(F)F)nc2)C1
REMARK SMILES IDX 9 1 8 2 6 3 7 4 5 6 63 7 78 8 64 9 66 10 65 11 4 13 3 14
REMARK SMILES IDX 2 15 1 16 67 17 68 18 69 19 77 20 70 21 76 22 71 23 72 24
REMARK SMILES IDX 73 25 74 26 75 27 10 28 11 29 12 30 13 31 14 33 15 34 16 35
REMARK SMILES IDX 62 36 17 37 61 38 18 39 19 40 20 41 55 42 21 43 60 44 54 45
REMARK SMILES IDX 56 46 22 47 59 48 53 49 52 50 23 52 45 53 30 54 44 55 31 56
REMARK SMILES IDX 34 57 43 58 57 59 32 60 33 61 42 63 58 64 35 65 24 66 25 67
REMARK SMILES IDX 29 68 26 69 28 70 27 71 46 72 47 73 51 74 48 75 50 76 49 77
REMARK SMILES IDX 36 78 37 79 41 80 38 81 40 82 39 83
REMARK H PARENT 8 5 66 12 12 32 56 51 34 62
REMARK Flexibility Score: inf
ROOT
ATOM      1  C   UNL A   1      31.154  30.465  25.601  1.00  0.00     0.117 C 
ENDROOT
BRANCH   1   2
ATOM      2  N   UNL A   1      32.447  29.822  25.784  1.00  0.00    -0.355 N 
ATOM      3  C   UNL A   1      32.973  28.654  25.321  1.00  0.00     0.232 C 
ATOM      4  O   UNL A   1      34.193  28.546  25.473  1.00  0.00    -0.274 OA
ATOM      5  H   UNL A   1      33.066  30.334  26.355  1.00  0.00     0.163 HD
BRANCH   3   6
ATOM      6  C   UNL A   1      32.146  27.601  24.545  1.00  0.00     0.100 C 
ATOM      7  C   UNL A   1      31.622  28.099  23.173  1.00  0.00     0.029 C 
ATOM      8  C   UNL A   1      33.156  26.423  24.388  1.00  0.00     0.279 C 
ATOM      9  C   UNL A   1      31.380  26.969  22.174  1.00  0.00     0.063 C 
ATOM     10  N   UNL A   1      32.933  25.441  23.324  1.00  0.00    -0.330 N 
ATOM     11  C   UNL A   1      32.594  26.059  22.041  1.00  0.00     0.262 C 
ATOM     12  H   UNL A   1      32.112  24.900  23.593  1.00  0.00     0.348 HD
BRANCH   6  13
ATOM     13  C   UNL A   1      30.922  27.119  25.393  1.00  0.00     0.051 C 
BRANCH  13  14
ATOM     14  C   UNL A   1      30.756  25.614  25.678  1.00  0.00     0.161 C 
BRANCH  14  15
ATOM     15  O   UNL A   1      31.469  25.144  26.817  1.00  0.00    -0.385 OA
ATOM     16  C   UNL A   1      31.700  23.740  26.822  1.00  0.00     0.194 C 
ENDBRANCH  14  15
ENDBRANCH  13  14
ENDBRANCH   6  13
BRANCH  10  17
ATOM     17  C   UNL A   1      34.066  24.486  23.215  1.00  0.00     0.300 C 
BRANCH  17  18
ATOM     18  C   UNL A   1      33.824  23.079  23.730  1.00  0.00     0.025 A 
ATOM     19  C   UNL A   1      34.763  22.390  24.505  1.00  0.00     0.013 A 
ATOM     20  C   UNL A   1      32.659  22.394  23.411  1.00  0.00     0.121 A 
ATOM     21  C   UNL A   1      34.552  21.053  24.845  1.00  0.00     0.034 A 
ATOM     22  N   UNL A   1      32.415  21.103  23.743  1.00  0.00    -0.251 NA
ATOM     23  C   UNL A   1      33.376  20.426  24.436  1.00  0.00     0.144 A 
BRANCH  23  24
ATOM     24  C   UNL A   1      33.147  18.961  24.790  1.00  0.00     0.433 C 
ATOM     25  F   UNL A   1      34.253  18.188  24.591  1.00  0.00    -0.165 F 
ATOM     26  F   UNL A   1      32.774  18.764  26.087  1.00  0.00    -0.165 F 
ATOM     27  F   UNL A   1      32.160  18.384  24.041  1.00  0.00    -0.165 F 
ENDBRANCH  23  24
ENDBRANCH  17  18
ENDBRANCH  10  17
ENDBRANCH   3   6
ENDBRANCH   1   2
BRANCH   1  28
ATOM     28  C   UNL A   1      31.143  31.898  26.106  1.00  0.00     0.042 C 
BRANCH  28  29
ATOM     29  C   UNL A   1      32.302  32.231  27.032  1.00  0.00     0.118 C 
BRANCH  29  30
ATOM     30  N   UNL A   1      32.246  33.596  27.534  1.00  0.00    -0.352 N 
ATOM     31  C   UNL A   1      33.075  34.259  28.401  1.00  0.00     0.251 C 
ATOM     32  H   UNL A   1      31.490  34.129  27.196  1.00  0.00     0.163 HD
ATOM     33  O   UNL A   1      32.733  35.350  28.845  1.00  0.00    -0.269 OA
BRANCH  31  34
ATOM     34  C   UNL A   1      34.370  33.671  28.808  1.00  0.00     0.039 A 
ATOM     35  C   UNL A   1      35.493  33.890  28.005  1.00  0.00     0.014 A 
ATOM     36  C   UNL A   1      34.475  32.867  29.945  1.00  0.00     0.014 A 
ATOM     37  C   UNL A   1      36.722  33.336  28.365  1.00  0.00     0.010 A 
ATOM     38  C   UNL A   1      35.718  32.405  30.359  1.00  0.00     0.010 A 
ATOM     39  C   UNL A   1      36.849  32.604  29.557  1.00  0.00    -0.014 A 
BRANCH  39  40
ATOM     40  C   UNL A   1      38.143  31.991  29.950  1.00  0.00     0.031 A 
ATOM     41  C   UNL A   1      39.061  32.717  30.899  1.00  0.00     0.074 A 
ATOM     42  C   UNL A   1      38.514  30.807  29.426  1.00  0.00     0.049 A 
ATOM     43  N   UNL A   1      40.241  32.362  31.343  1.00  0.00    -0.248 NA
ATOM     44  C   UNL A   1      38.608  34.029  31.392  1.00  0.00     0.031 C 
ATOM     45  C   UNL A   1      37.738  30.023  28.462  1.00  0.00     0.029 A 
ATOM     46  N   UNL A   1      39.640  30.054  29.637  1.00  0.00    -0.354 N 
ATOM     47  C   UNL A   1      40.673  33.412  32.144  1.00  0.00     0.074 A 
ATOM     48  C   UNL A   1      39.663  34.443  32.075  1.00  0.00     0.031 C 
ATOM     49  C   UNL A   1      38.393  28.882  28.196  1.00  0.00     0.029 A 
ATOM     50  C   UNL A   1      39.648  28.869  28.942  1.00  0.00     0.049 A 
ATOM     51  H   UNL A   1      40.374  30.335  30.231  1.00  0.00     0.167 HD
ATOM     52  C   UNL A   1      41.797  33.502  32.895  1.00  0.00     0.031 A 
ATOM     53  C   UNL A   1      40.560  27.880  28.915  1.00  0.00     0.031 A 
ATOM     54  C   UNL A   1      42.793  32.470  32.982  1.00  0.00     0.049 A 
ATOM     55  C   UNL A   1      41.794  27.998  29.767  1.00  0.00     0.074 A 
ATOM     56  C   UNL A   1      43.943  32.442  33.752  1.00  0.00     0.029 A 
ATOM     57  N   UNL A   1      42.754  31.278  32.276  1.00  0.00    -0.354 N 
ATOM     58  N   UNL A   1      42.157  28.970  30.568  1.00  0.00    -0.248 NA
ATOM     59  C   UNL A   1      42.732  26.868  29.725  1.00  0.00     0.031 C 
ATOM     60  C   UNL A   1      44.622  31.249  33.477  1.00  0.00     0.029 A 
ATOM     61  C   UNL A   1      43.865  30.511  32.582  1.00  0.00     0.049 A 
ATOM     62  H   UNL A   1      42.041  31.016  31.649  1.00  0.00     0.167 HD
ATOM     63  C   UNL A   1      43.346  28.553  31.154  1.00  0.00     0.074 A 
ATOM     64  C   UNL A   1      43.630  27.233  30.627  1.00  0.00     0.031 C 
ATOM     65  C   UNL A   1      44.130  29.200  32.050  1.00  0.00     0.031 A 
BRANCH  52  66
ATOM     66  C   UNL A   1      42.000  34.769  33.683  1.00  0.00    -0.014 A 
ATOM     67  C   UNL A   1      41.475  34.912  34.979  1.00  0.00     0.009 A 
ATOM     68  C   UNL A   1      42.737  35.826  33.131  1.00  0.00     0.009 A 
ATOM     69  C   UNL A   1      41.648  36.104  35.686  1.00  0.00     0.001 A 
ATOM     70  C   UNL A   1      42.937  37.005  33.854  1.00  0.00     0.001 A 
ATOM     71  C   UNL A   1      42.382  37.147  35.124  1.00  0.00     0.000 A 
ENDBRANCH  52  66
BRANCH  53  72
ATOM     72  C   UNL A   1      40.327  26.670  28.086  1.00  0.00    -0.014 A 
ATOM     73  C   UNL A   1      40.853  26.586  26.787  1.00  0.00     0.009 A 
ATOM     74  C   UNL A   1      39.566  25.598  28.579  1.00  0.00     0.009 A 
ATOM     75  C   UNL A   1      40.593  25.470  25.987  1.00  0.00     0.001 A 
ATOM     76  C   UNL A   1      39.333  24.471  27.788  1.00  0.00     0.001 A 
ATOM     77  C   UNL A   1      39.836  24.413  26.490  1.00  0.00     0.000 A 
ENDBRANCH  53  72
BRANCH  65  78
ATOM     78  C   UNL A   1      45.341  28.465  32.554  1.00  0.00    -0.014 A 
ATOM     79  C   UNL A   1      46.591  28.588  31.927  1.00  0.00     0.009 A 
ATOM     80  C   UNL A   1      45.228  27.644  33.687  1.00  0.00     0.009 A 
ATOM     81  C   UNL A   1      47.690  27.865  32.395  1.00  0.00     0.001 A 
ATOM     82  C   UNL A   1      46.336  26.949  34.174  1.00  0.00     0.001 A 
ATOM     83  C   UNL A   1      47.562  27.049  33.520  1.00  0.00     0.000 A 
ENDBRANCH  65  78
ENDBRANCH  39  40
ENDBRANCH  31  34
ENDBRANCH  29  30
ENDBRANCH  28  29
ENDBRANCH   1  28
TORSDOF 16
ENDMDL
