MODEL 1
REMARK VINA RESULT:     -11.5      0.000      0.000
REMARK SMILES CCc1cc2c(C)cc(=O)oc2cc1O[C@H](C)C(=O)NCCCNC(=O)c1ccc(-c2c3nc(c(-c4ccccc4)c4ccc([nH]4)c(-c4ccccc4)c4nc(c(-c5ccccc5)c5ccc2[nH]5)C=C4)C=C3)cc1
REMARK SMILES IDX 21 1 20 2 18 3 19 4 16 6 17 7 15 8 14 9 3 10 4 11 5 12 13 13
REMARK SMILES IDX 6 14 12 15 7 16 8 17 11 18 9 19 10 20 2 21 1 22 22 23 23 24
REMARK SMILES IDX 24 25 25 26 26 28 27 29 28 30 74 31 29 32 73 33 30 34 31 35
REMARK SMILES IDX 32 36 67 37 33 38 72 39 66 40 68 41 34 42 71 43 65 44 64 45
REMARK SMILES IDX 35 47 57 48 42 49 56 50 43 51 46 52 55 53 69 54 44 55 45 56
REMARK SMILES IDX 54 58 70 59 47 60 36 61 37 62 41 63 38 64 40 65 39 66 58 67
REMARK SMILES IDX 59 68 63 69 60 70 62 71 61 72 48 73 49 74 53 75 50 76 52 77
REMARK SMILES IDX 51 78
REMARK H PARENT 20 5 24 27 68 46 46 57
REMARK Flexibility Score: inf
ROOT
ATOM      1  C   UNL A   1      31.700  29.698  25.453  1.00  0.00     0.118 C 
ENDROOT
BRANCH   1   2
ATOM      2  N   UNL A   1      31.373  29.838  24.053  1.00  0.00    -0.353 N 
ATOM      3  C   UNL A   1      30.536  29.153  23.235  1.00  0.00     0.260 C 
ATOM      4  O   UNL A   1      30.255  29.727  22.173  1.00  0.00    -0.271 OA
ATOM      5  H   UNL A   1      31.851  30.573  23.607  1.00  0.00     0.163 HD
BRANCH   3   6
ATOM      6  C   UNL A   1      30.032  27.699  23.481  1.00  0.00     0.258 C 
ATOM      7  C   UNL A   1      28.515  27.605  23.342  1.00  0.00     0.064 C 
BRANCH   6   8
ATOM      8  O   UNL A   1      30.757  26.530  23.135  1.00  0.00    -0.480 OA
BRANCH   8   9
ATOM      9  C   UNL A   1      31.739  25.979  23.891  1.00  0.00     0.127 A 
ATOM     10  C   UNL A   1      33.051  26.078  23.389  1.00  0.00    -0.005 A 
ATOM     11  C   UNL A   1      34.097  25.396  24.053  1.00  0.00     0.019 A 
ATOM     12  C   UNL A   1      33.860  24.645  25.209  1.00  0.00     0.021 A 
ATOM     13  C   UNL A   1      31.529  25.367  25.119  1.00  0.00     0.094 A 
ATOM     14  C   UNL A   1      34.869  23.801  25.864  1.00  0.00    -0.033 A 
ATOM     15  C   UNL A   1      32.573  24.675  25.735  1.00  0.00     0.142 A 
ATOM     16  C   UNL A   1      36.283  23.785  25.364  1.00  0.00     0.045 C 
ATOM     17  C   UNL A   1      34.482  23.023  26.886  1.00  0.00     0.098 A 
ATOM     18  O   UNL A   1      32.227  23.926  26.877  1.00  0.00    -0.423 OA
ATOM     19  C   UNL A   1      33.113  23.016  27.424  1.00  0.00     0.336 A 
ATOM     20  O   UNL A   1      32.793  22.257  28.333  1.00  0.00    -0.246 OA
BRANCH  10  21
ATOM     21  C   UNL A   1      33.377  26.832  22.112  1.00  0.00     0.036 C 
ATOM     22  C   UNL A   1      34.050  28.184  22.324  1.00  0.00     0.009 C 
ENDBRANCH  10  21
ENDBRANCH   8   9
ENDBRANCH   6   8
ENDBRANCH   3   6
ENDBRANCH   1   2
BRANCH   1  23
ATOM     23  C   UNL A   1      32.994  28.935  25.707  1.00  0.00     0.042 C 
BRANCH  23  24
ATOM     24  C   UNL A   1      33.442  28.966  27.166  1.00  0.00     0.118 C 
BRANCH  24  25
ATOM     25  N   UNL A   1      33.554  30.306  27.729  1.00  0.00    -0.352 N 
ATOM     26  C   UNL A   1      34.606  30.943  28.340  1.00  0.00     0.251 C 
ATOM     27  H   UNL A   1      32.734  30.847  27.658  1.00  0.00     0.163 HD
ATOM     28  O   UNL A   1      34.432  32.082  28.773  1.00  0.00    -0.269 OA
BRANCH  26  29
ATOM     29  C   UNL A   1      35.915  30.278  28.525  1.00  0.00     0.039 A 
ATOM     30  C   UNL A   1      36.830  30.312  27.467  1.00  0.00     0.014 A 
ATOM     31  C   UNL A   1      36.260  29.628  29.710  1.00  0.00     0.014 A 
ATOM     32  C   UNL A   1      38.109  29.777  27.628  1.00  0.00     0.010 A 
ATOM     33  C   UNL A   1      37.565  29.188  29.906  1.00  0.00     0.010 A 
ATOM     34  C   UNL A   1      38.504  29.255  28.867  1.00  0.00    -0.014 A 
BRANCH  34  35
ATOM     35  C   UNL A   1      39.885  28.766  29.103  1.00  0.00     0.031 A 
ATOM     36  C   UNL A   1      40.916  29.688  29.693  1.00  0.00     0.074 A 
ATOM     37  C   UNL A   1      40.233  27.525  28.708  1.00  0.00     0.049 A 
ATOM     38  N   UNL A   1      42.200  29.496  29.861  1.00  0.00    -0.248 NA
ATOM     39  C   UNL A   1      40.449  31.018  30.116  1.00  0.00     0.031 C 
ATOM     40  C   UNL A   1      39.340  26.546  28.082  1.00  0.00     0.029 A 
ATOM     41  N   UNL A   1      41.444  26.880  28.764  1.00  0.00    -0.354 N 
ATOM     42  C   UNL A   1      42.695  30.691  30.370  1.00  0.00     0.074 A 
ATOM     43  C   UNL A   1      41.585  31.615  30.438  1.00  0.00     0.031 C 
ATOM     44  C   UNL A   1      40.025  25.418  27.838  1.00  0.00     0.029 A 
ATOM     45  C   UNL A   1      41.413  25.606  28.249  1.00  0.00     0.049 A 
ATOM     46  H   UNL A   1      42.257  27.290  29.138  1.00  0.00     0.167 HD
ATOM     47  C   UNL A   1      43.956  30.986  30.765  1.00  0.00     0.031 A 
ATOM     48  C   UNL A   1      42.395  24.695  28.116  1.00  0.00     0.031 A 
ATOM     49  C   UNL A   1      45.050  30.055  30.732  1.00  0.00     0.049 A 
ATOM     50  C   UNL A   1      43.782  25.040  28.582  1.00  0.00     0.074 A 
ATOM     51  C   UNL A   1      46.348  30.234  31.174  1.00  0.00     0.029 A 
ATOM     52  N   UNL A   1      44.966  28.764  30.236  1.00  0.00    -0.354 N 
ATOM     53  N   UNL A   1      44.222  26.154  29.115  1.00  0.00    -0.248 NA
ATOM     54  C   UNL A   1      44.806  23.995  28.436  1.00  0.00     0.031 C 
ATOM     55  C   UNL A   1      47.063  29.060  30.910  1.00  0.00     0.029 A 
ATOM     56  C   UNL A   1      46.196  28.137  30.346  1.00  0.00     0.049 A 
ATOM     57  H   UNL A   1      44.154  28.353  29.860  1.00  0.00     0.167 HD
ATOM     58  C   UNL A   1      45.564  25.937  29.392  1.00  0.00     0.074 A 
ATOM     59  C   UNL A   1      45.863  24.580  28.982  1.00  0.00     0.031 C 
ATOM     60  C   UNL A   1      46.470  26.785  29.938  1.00  0.00     0.031 A 
BRANCH  47  61
ATOM     61  C   UNL A   1      44.210  32.380  31.266  1.00  0.00    -0.014 A 
ATOM     62  C   UNL A   1      44.092  32.696  32.630  1.00  0.00     0.009 A 
ATOM     63  C   UNL A   1      44.586  33.389  30.366  1.00  0.00     0.009 A 
ATOM     64  C   UNL A   1      44.301  34.004  33.074  1.00  0.00     0.001 A 
ATOM     65  C   UNL A   1      44.823  34.688  30.818  1.00  0.00     0.001 A 
ATOM     66  C   UNL A   1      44.670  34.997  32.168  1.00  0.00     0.000 A 
ENDBRANCH  47  61
BRANCH  48  67
ATOM     67  C   UNL A   1      42.101  23.359  27.536  1.00  0.00    -0.014 A 
ATOM     68  C   UNL A   1      42.389  23.094  26.189  1.00  0.00     0.009 A 
ATOM     69  C   UNL A   1      41.531  22.345  28.321  1.00  0.00     0.009 A 
ATOM     70  C   UNL A   1      42.084  21.849  25.630  1.00  0.00     0.001 A 
ATOM     71  C   UNL A   1      41.252  21.094  27.767  1.00  0.00     0.001 A 
ATOM     72  C   UNL A   1      41.521  20.850  26.421  1.00  0.00     0.000 A 
ENDBRANCH  48  67
BRANCH  60  73
ATOM     73  C   UNL A   1      47.859  26.257  30.155  1.00  0.00    -0.014 A 
ATOM     74  C   UNL A   1      48.807  26.258  29.122  1.00  0.00     0.009 A 
ATOM     75  C   UNL A   1      48.232  25.795  31.427  1.00  0.00     0.009 A 
ATOM     76  C   UNL A   1      50.098  25.780  29.351  1.00  0.00     0.001 A 
ATOM     77  C   UNL A   1      49.531  25.342  31.659  1.00  0.00     0.001 A 
ATOM     78  C   UNL A   1      50.460  25.327  30.620  1.00  0.00     0.000 A 
ENDBRANCH  60  73
ENDBRANCH  34  35
ENDBRANCH  26  29
ENDBRANCH  24  25
ENDBRANCH  23  24
ENDBRANCH   1  23
TORSDOF 13
ENDMDL
MODEL 2
REMARK VINA RESULT:     -11.2      2.501      7.606
REMARK SMILES CCc1cc2c(C)cc(=O)oc2cc1O[C@H](C)C(=O)NCCCNC(=O)c1ccc(-c2c3nc(c(-c4ccccc4)c4ccc([nH]4)c(-c4ccccc4)c4nc(c(-c5ccccc5)c5ccc2[nH]5)C=C4)C=C3)cc1
REMARK SMILES IDX 21 1 20 2 18 3 19 4 16 6 17 7 15 8 14 9 3 10 4 11 5 12 13 13
REMARK SMILES IDX 6 14 12 15 7 16 8 17 11 18 9 19 10 20 2 21 1 22 22 23 23 24
REMARK SMILES IDX 24 25 25 26 26 28 27 29 28 30 74 31 29 32 73 33 30 34 31 35
REMARK SMILES IDX 32 36 67 37 33 38 72 39 66 40 68 41 34 42 71 43 65 44 64 45
REMARK SMILES IDX 35 47 57 48 42 49 56 50 43 51 46 52 55 53 69 54 44 55 45 56
REMARK SMILES IDX 54 58 70 59 47 60 36 61 37 62 41 63 38 64 40 65 39 66 58 67
REMARK SMILES IDX 59 68 63 69 60 70 62 71 61 72 48 73 49 74 53 75 50 76 52 77
REMARK SMILES IDX 51 78
REMARK H PARENT 20 5 24 27 68 46 46 57
REMARK Flexibility Score: inf
ROOT
ATOM      1  C   UNL A   1      35.928  20.991  25.155  1.00  0.00     0.118 C 
ENDROOT
BRANCH   1   2
ATOM      2  N   UNL A   1      34.911  19.970  25.250  1.00  0.00    -0.353 N 
ATOM      3  C   UNL A   1      33.722  19.799  24.619  1.00  0.00     0.260 C 
ATOM      4  O   UNL A   1      33.245  18.658  24.700  1.00  0.00    -0.271 OA
ATOM      5  H   UNL A   1      35.122  19.259  25.897  1.00  0.00     0.163 HD
BRANCH   3   6
ATOM      6  C   UNL A   1      32.897  20.932  23.939  1.00  0.00     0.258 C 
ATOM      7  C   UNL A   1      32.154  20.419  22.709  1.00  0.00     0.064 C 
BRANCH   6   8
ATOM      8  O   UNL A   1      32.273  21.999  24.637  1.00  0.00    -0.480 OA
BRANCH   8   9
ATOM      9  C   UNL A   1      32.765  23.259  24.719  1.00  0.00     0.127 A 
ATOM     10  C   UNL A   1      32.827  23.829  26.005  1.00  0.00    -0.005 A 
ATOM     11  C   UNL A   1      33.188  25.190  26.140  1.00  0.00     0.019 A 
ATOM     12  C   UNL A   1      33.507  25.975  25.027  1.00  0.00     0.021 A 
ATOM     13  C   UNL A   1      33.230  23.989  23.633  1.00  0.00     0.094 A 
ATOM     14  C   UNL A   1      33.752  27.422  25.083  1.00  0.00    -0.033 A 
ATOM     15  C   UNL A   1      33.550  25.338  23.792  1.00  0.00     0.142 A 
ATOM     16  C   UNL A   1      33.773  28.136  26.403  1.00  0.00     0.045 C 
ATOM     17  C   UNL A   1      33.913  28.085  23.929  1.00  0.00     0.098 A 
ATOM     18  O   UNL A   1      33.828  26.048  22.607  1.00  0.00    -0.423 OA
ATOM     19  C   UNL A   1      33.919  27.429  22.612  1.00  0.00     0.336 A 
ATOM     20  O   UNL A   1      34.028  28.080  21.580  1.00  0.00    -0.246 OA
BRANCH  10  21
ATOM     21  C   UNL A   1      32.446  23.056  27.255  1.00  0.00     0.036 C 
ATOM     22  C   UNL A   1      33.563  22.195  27.838  1.00  0.00     0.009 C 
ENDBRANCH  10  21
ENDBRANCH   8   9
ENDBRANCH   6   8
ENDBRANCH   3   6
ENDBRANCH   1   2
BRANCH   1  23
ATOM     23  C   UNL A   1      37.277  20.469  24.675  1.00  0.00     0.042 C 
BRANCH  23  24
ATOM     24  C   UNL A   1      38.413  20.723  25.661  1.00  0.00     0.118 C 
BRANCH  24  25
ATOM     25  N   UNL A   1      39.456  19.704  25.648  1.00  0.00    -0.352 N 
ATOM     26  C   UNL A   1      40.770  19.753  26.042  1.00  0.00     0.251 C 
ATOM     27  H   UNL A   1      39.167  18.831  25.296  1.00  0.00     0.163 HD
ATOM     28  O   UNL A   1      41.468  18.750  25.889  1.00  0.00    -0.269 OA
BRANCH  26  29
ATOM     29  C   UNL A   1      41.369  20.986  26.601  1.00  0.00     0.039 A 
ATOM     30  C   UNL A   1      41.886  21.933  25.709  1.00  0.00     0.014 A 
ATOM     31  C   UNL A   1      41.430  21.230  27.972  1.00  0.00     0.014 A 
ATOM     32  C   UNL A   1      42.378  23.150  26.185  1.00  0.00     0.010 A 
ATOM     33  C   UNL A   1      41.825  22.480  28.439  1.00  0.00     0.010 A 
ATOM     34  C   UNL A   1      42.305  23.454  27.551  1.00  0.00    -0.014 A 
BRANCH  34  35
ATOM     35  C   UNL A   1      42.729  24.773  28.080  1.00  0.00     0.031 A 
ATOM     36  C   UNL A   1      41.704  25.842  28.340  1.00  0.00     0.074 A 
ATOM     37  C   UNL A   1      44.041  25.039  28.244  1.00  0.00     0.049 A 
ATOM     38  N   UNL A   1      41.879  27.094  28.680  1.00  0.00    -0.248 NA
ATOM     39  C   UNL A   1      40.293  25.463  28.155  1.00  0.00     0.031 C 
ATOM     40  C   UNL A   1      45.140  24.106  27.985  1.00  0.00     0.029 A 
ATOM     41  N   UNL A   1      44.671  26.187  28.657  1.00  0.00    -0.354 N 
ATOM     42  C   UNL A   1      40.608  27.655  28.711  1.00  0.00     0.074 A 
ATOM     43  C   UNL A   1      39.678  26.625  28.309  1.00  0.00     0.031 C 
ATOM     44  C   UNL A   1      46.305  24.708  28.272  1.00  0.00     0.029 A 
ATOM     45  C   UNL A   1      46.041  26.080  28.692  1.00  0.00     0.049 A 
ATOM     46  H   UNL A   1      44.189  27.008  28.904  1.00  0.00     0.167 HD
ATOM     47  C   UNL A   1      40.246  28.912  29.063  1.00  0.00     0.031 A 
ATOM     48  C   UNL A   1      46.978  26.989  29.018  1.00  0.00     0.031 A 
ATOM     49  C   UNL A   1      41.167  29.925  29.497  1.00  0.00     0.049 A 
ATOM     50  C   UNL A   1      46.549  28.370  29.424  1.00  0.00     0.074 A 
ATOM     51  C   UNL A   1      40.895  31.206  29.941  1.00  0.00     0.029 A 
ATOM     52  N   UNL A   1      42.543  29.763  29.552  1.00  0.00    -0.354 N 
ATOM     53  N   UNL A   1      45.339  28.870  29.505  1.00  0.00    -0.248 NA
ATOM     54  C   UNL A   1      47.616  29.311  29.795  1.00  0.00     0.031 C 
ATOM     55  C   UNL A   1      42.111  31.835  30.230  1.00  0.00     0.029 A 
ATOM     56  C   UNL A   1      43.136  30.928  30.009  1.00  0.00     0.049 A 
ATOM     57  H   UNL A   1      43.026  28.943  29.302  1.00  0.00     0.167 HD
ATOM     58  C   UNL A   1      45.497  30.172  29.960  1.00  0.00     0.074 A 
ATOM     59  C   UNL A   1      46.917  30.380  30.152  1.00  0.00     0.031 C 
ATOM     60  C   UNL A   1      44.550  31.112  30.198  1.00  0.00     0.031 A 
BRANCH  47  61
ATOM     61  C   UNL A   1      38.784  29.252  28.986  1.00  0.00    -0.014 A 
ATOM     62  C   UNL A   1      38.204  29.708  27.790  1.00  0.00     0.009 A 
ATOM     63  C   UNL A   1      37.970  29.102  30.119  1.00  0.00     0.009 A 
ATOM     64  C   UNL A   1      36.852  30.050  27.744  1.00  0.00     0.001 A 
ATOM     65  C   UNL A   1      36.611  29.417  30.062  1.00  0.00     0.001 A 
ATOM     66  C   UNL A   1      36.055  29.900  28.879  1.00  0.00     0.000 A 
ENDBRANCH  47  61
BRANCH  48  67
ATOM     67  C   UNL A   1      48.418  26.619  28.996  1.00  0.00    -0.014 A 
ATOM     68  C   UNL A   1      49.018  26.043  30.125  1.00  0.00     0.009 A 
ATOM     69  C   UNL A   1      49.198  26.842  27.851  1.00  0.00     0.009 A 
ATOM     70  C   UNL A   1      50.378  25.724  30.120  1.00  0.00     0.001 A 
ATOM     71  C   UNL A   1      50.551  26.497  27.840  1.00  0.00     0.001 A 
ATOM     72  C   UNL A   1      51.142  25.948  28.977  1.00  0.00     0.000 A 
ENDBRANCH  48  67
BRANCH  60  73
ATOM     73  C   UNL A   1      45.018  32.437  30.726  1.00  0.00    -0.014 A 
ATOM     74  C   UNL A   1      45.160  32.661  32.103  1.00  0.00     0.009 A 
ATOM     75  C   UNL A   1      45.365  33.458  29.827  1.00  0.00     0.009 A 
ATOM     76  C   UNL A   1      45.614  33.895  32.572  1.00  0.00     0.001 A 
ATOM     77  C   UNL A   1      45.843  34.680  30.298  1.00  0.00     0.001 A 
ATOM     78  C   UNL A   1      45.960  34.901  31.669  1.00  0.00     0.000 A 
ENDBRANCH  60  73
ENDBRANCH  34  35
ENDBRANCH  26  29
ENDBRANCH  24  25
ENDBRANCH  23  24
ENDBRANCH   1  23
TORSDOF 13
ENDMDL
MODEL 3
REMARK VINA RESULT:     -11.1      2.296      6.800
REMARK SMILES CCc1cc2c(C)cc(=O)oc2cc1O[C@H](C)C(=O)NCCCNC(=O)c1ccc(-c2c3nc(c(-c4ccccc4)c4ccc([nH]4)c(-c4ccccc4)c4nc(c(-c5ccccc5)c5ccc2[nH]5)C=C4)C=C3)cc1
REMARK SMILES IDX 21 1 20 2 18 3 19 4 16 6 17 7 15 8 14 9 3 10 4 11 5 12 13 13
REMARK SMILES IDX 6 14 12 15 7 16 8 17 11 18 9 19 10 20 2 21 1 22 22 23 23 24
REMARK SMILES IDX 24 25 25 26 26 28 27 29 28 30 74 31 29 32 73 33 30 34 31 35
REMARK SMILES IDX 32 36 67 37 33 38 72 39 66 40 68 41 34 42 71 43 65 44 64 45
REMARK SMILES IDX 35 47 57 48 42 49 56 50 43 51 46 52 55 53 69 54 44 55 45 56
REMARK SMILES IDX 54 58 70 59 47 60 36 61 37 62 41 63 38 64 40 65 39 66 58 67
REMARK SMILES IDX 59 68 63 69 60 70 62 71 61 72 48 73 49 74 53 75 50 76 52 77
REMARK SMILES IDX 51 78
REMARK H PARENT 20 5 24 27 68 46 46 57
REMARK Flexibility Score: inf
ROOT
ATOM      1  C   UNL A   1      31.941  29.635  25.187  1.00  0.00     0.118 C 
ENDROOT
BRANCH   1   2
ATOM      2  N   UNL A   1      31.372  29.797  23.869  1.00  0.00    -0.353 N 
ATOM      3  C   UNL A   1      30.414  29.113  23.194  1.00  0.00     0.260 C 
ATOM      4  O   UNL A   1      29.943  29.703  22.211  1.00  0.00    -0.271 OA
ATOM      5  H   UNL A   1      31.752  30.550  23.363  1.00  0.00     0.163 HD
BRANCH   3   6
ATOM      6  C   UNL A   1      29.984  27.645  23.490  1.00  0.00     0.258 C 
ATOM      7  C   UNL A   1      28.469  27.481  23.405  1.00  0.00     0.064 C 
BRANCH   6   8
ATOM      8  O   UNL A   1      30.749  26.500  23.147  1.00  0.00    -0.480 OA
BRANCH   8   9
ATOM      9  C   UNL A   1      31.724  25.963  23.921  1.00  0.00     0.127 A 
ATOM     10  C   UNL A   1      33.046  26.102  23.457  1.00  0.00    -0.005 A 
ATOM     11  C   UNL A   1      34.090  25.436  24.139  1.00  0.00     0.019 A 
ATOM     12  C   UNL A   1      33.842  24.663  25.278  1.00  0.00     0.021 A 
ATOM     13  C   UNL A   1      31.497  25.328  25.134  1.00  0.00     0.094 A 
ATOM     14  C   UNL A   1      34.854  23.835  25.948  1.00  0.00    -0.033 A 
ATOM     15  C   UNL A   1      32.541  24.653  25.769  1.00  0.00     0.142 A 
ATOM     16  C   UNL A   1      36.281  23.862  25.485  1.00  0.00     0.045 C 
ATOM     17  C   UNL A   1      34.460  23.033  26.947  1.00  0.00     0.098 A 
ATOM     18  O   UNL A   1      32.183  23.879  26.890  1.00  0.00    -0.423 OA
ATOM     19  C   UNL A   1      33.078  22.983  27.449  1.00  0.00     0.336 A 
ATOM     20  O   UNL A   1      32.753  22.204  28.337  1.00  0.00    -0.246 OA
BRANCH  10  21
ATOM     21  C   UNL A   1      33.386  26.882  22.200  1.00  0.00     0.036 C 
ATOM     22  C   UNL A   1      34.082  28.217  22.446  1.00  0.00     0.009 C 
ENDBRANCH  10  21
ENDBRANCH   8   9
ENDBRANCH   6   8
ENDBRANCH   3   6
ENDBRANCH   1   2
BRANCH   1  23
ATOM     23  C   UNL A   1      31.463  30.675  26.192  1.00  0.00     0.042 C 
BRANCH  23  24
ATOM     24  C   UNL A   1      32.601  31.397  26.908  1.00  0.00     0.118 C 
BRANCH  24  25
ATOM     25  N   UNL A   1      32.277  32.755  27.329  1.00  0.00    -0.352 N 
ATOM     26  C   UNL A   1      32.991  33.664  28.070  1.00  0.00     0.251 C 
ATOM     27  H   UNL A   1      31.395  33.075  27.029  1.00  0.00     0.163 HD
ATOM     28  O   UNL A   1      32.472  34.751  28.327  1.00  0.00    -0.269 OA
BRANCH  26  29
ATOM     29  C   UNL A   1      34.339  33.351  28.596  1.00  0.00     0.039 A 
ATOM     30  C   UNL A   1      34.431  32.647  29.803  1.00  0.00     0.014 A 
ATOM     31  C   UNL A   1      35.505  33.730  27.932  1.00  0.00     0.014 A 
ATOM     32  C   UNL A   1      35.678  32.252  30.291  1.00  0.00     0.010 A 
ATOM     33  C   UNL A   1      36.737  33.250  28.363  1.00  0.00     0.010 A 
ATOM     34  C   UNL A   1      36.838  32.506  29.548  1.00  0.00    -0.014 A 
BRANCH  34  35
ATOM     35  C   UNL A   1      38.169  32.018  29.988  1.00  0.00     0.031 A 
ATOM     36  C   UNL A   1      38.699  30.713  29.461  1.00  0.00     0.074 A 
ATOM     37  C   UNL A   1      38.858  32.701  30.923  1.00  0.00     0.049 A 
ATOM     38  N   UNL A   1      39.774  30.053  29.812  1.00  0.00    -0.248 NA
ATOM     39  C   UNL A   1      37.894  30.041  28.428  1.00  0.00     0.031 C 
ATOM     40  C   UNL A   1      38.435  33.956  31.548  1.00  0.00     0.029 A 
ATOM     41  N   UNL A   1      40.062  32.422  31.522  1.00  0.00    -0.354 N 
ATOM     42  C   UNL A   1      39.750  28.876  29.074  1.00  0.00     0.074 A 
ATOM     43  C   UNL A   1      38.534  28.890  28.292  1.00  0.00     0.031 C 
ATOM     44  C   UNL A   1      39.375  34.353  32.420  1.00  0.00     0.029 A 
ATOM     45  C   UNL A   1      40.445  33.361  32.449  1.00  0.00     0.049 A 
ATOM     46  H   UNL A   1      40.599  31.626  31.309  1.00  0.00     0.167 HD
ATOM     47  C   UNL A   1      40.669  27.882  29.032  1.00  0.00     0.031 A 
ATOM     48  C   UNL A   1      41.534  33.413  33.239  1.00  0.00     0.031 A 
ATOM     49  C   UNL A   1      41.895  27.887  29.781  1.00  0.00     0.049 A 
ATOM     50  C   UNL A   1      42.549  32.308  33.160  1.00  0.00     0.074 A 
ATOM     51  C   UNL A   1      42.924  26.963  29.758  1.00  0.00     0.029 A 
ATOM     52  N   UNL A   1      42.261  28.875  30.682  1.00  0.00    -0.354 N 
ATOM     53  N   UNL A   1      42.542  31.230  32.413  1.00  0.00    -0.248 NA
ATOM     54  C   UNL A   1      43.730  32.433  34.027  1.00  0.00     0.031 C 
ATOM     55  C   UNL A   1      43.898  27.373  30.675  1.00  0.00     0.029 A 
ATOM     56  C   UNL A   1      43.495  28.576  31.233  1.00  0.00     0.049 A 
ATOM     57  H   UNL A   1      41.723  29.671  30.898  1.00  0.00     0.167 HD
ATOM     58  C   UNL A   1      43.724  30.562  32.700  1.00  0.00     0.074 A 
ATOM     59  C   UNL A   1      44.432  31.364  33.677  1.00  0.00     0.031 C 
ATOM     60  C   UNL A   1      44.184  29.390  32.199  1.00  0.00     0.031 A 
BRANCH  47  61
ATOM     61  C   UNL A   1      40.371  26.707  28.145  1.00  0.00    -0.014 A 
ATOM     62  C   UNL A   1      40.882  26.634  26.838  1.00  0.00     0.009 A 
ATOM     63  C   UNL A   1      39.580  25.651  28.623  1.00  0.00     0.009 A 
ATOM     64  C   UNL A   1      40.569  25.550  26.016  1.00  0.00     0.001 A 
ATOM     65  C   UNL A   1      39.294  24.555  27.809  1.00  0.00     0.001 A 
ATOM     66  C   UNL A   1      39.779  24.510  26.502  1.00  0.00     0.000 A 
ENDBRANCH  47  61
BRANCH  48  67
ATOM     67  C   UNL A   1      41.735  34.562  34.160  1.00  0.00    -0.014 A 
ATOM     68  C   UNL A   1      41.308  34.483  35.494  1.00  0.00     0.009 A 
ATOM     69  C   UNL A   1      42.351  35.741  33.713  1.00  0.00     0.009 A 
ATOM     70  C   UNL A   1      41.466  35.572  36.355  1.00  0.00     0.001 A 
ATOM     71  C   UNL A   1      42.530  36.818  34.583  1.00  0.00     0.001 A 
ATOM     72  C   UNL A   1      42.080  36.737  35.900  1.00  0.00     0.000 A 
ENDBRANCH  48  67
BRANCH  60  73
ATOM     73  C   UNL A   1      45.531  28.924  32.672  1.00  0.00    -0.014 A 
ATOM     74  C   UNL A   1      45.658  28.079  33.784  1.00  0.00     0.009 A 
ATOM     75  C   UNL A   1      46.682  29.301  31.964  1.00  0.00     0.009 A 
ATOM     76  C   UNL A   1      46.918  27.643  34.196  1.00  0.00     0.001 A 
ATOM     77  C   UNL A   1      47.937  28.843  32.362  1.00  0.00     0.001 A 
ATOM     78  C   UNL A   1      48.056  28.021  33.482  1.00  0.00     0.000 A 
ENDBRANCH  60  73
ENDBRANCH  34  35
ENDBRANCH  26  29
ENDBRANCH  24  25
ENDBRANCH  23  24
ENDBRANCH   1  23
TORSDOF 13
ENDMDL
