MODEL 1
REMARK VINA RESULT:     -11.7      0.000      0.000
REMARK SMILES Cc1nc(NC(=O)[C@@H]2CCC[C@@H](C(=O)NCCCNC(=O)c3ccc(-c4c5nc(c(-c6ccccc6)c6ccc([nH]6)c(-c6ccccc6)c6nc(c(-c7ccccc7)c7ccc4[nH]7)C=C6)C=C5)cc3)C2)ccc1Br
REMARK SMILES IDX 17 1 16 2 15 3 13 4 14 5 12 7 8 8 9 9 70 10 10 11 11 12 6 13
REMARK SMILES IDX 5 14 7 16 4 17 1 18 2 19 3 20 73 21 72 22 74 23 71 24 18 25
REMARK SMILES IDX 19 26 20 27 21 29 22 30 23 31 69 32 24 33 68 34 25 35 26 36
REMARK SMILES IDX 27 37 62 38 28 39 67 40 61 41 63 42 29 43 66 44 60 45 59 46
REMARK SMILES IDX 30 48 52 49 37 50 51 51 38 52 41 53 50 54 64 55 39 56 40 57
REMARK SMILES IDX 49 59 65 60 42 61 31 62 32 63 36 64 33 65 35 66 34 67 53 68
REMARK SMILES IDX 54 69 58 70 55 71 57 72 56 73 43 74 44 75 48 76 45 77 47 78
REMARK SMILES IDX 46 79
REMARK H PARENT 15 6 5 15 19 28 63 47 41 58
REMARK Flexibility Score: inf
ROOT
ATOM      1  C   UNL A   1      37.713  19.995  24.549  1.00  0.00     0.042 C 
ENDROOT
BRANCH   1   2
ATOM      2  C   UNL A   1      36.262  19.918  24.991  1.00  0.00     0.117 C 
BRANCH   2   3
ATOM      3  N   UNL A   1      35.795  21.183  25.537  1.00  0.00    -0.356 N 
ATOM      4  C   UNL A   1      34.590  21.762  25.738  1.00  0.00     0.223 C 
ATOM      5  O   UNL A   1      34.644  22.899  26.224  1.00  0.00    -0.275 OA
ATOM      6  H   UNL A   1      36.538  21.758  25.831  1.00  0.00     0.163 HD
BRANCH   4   7
ATOM      7  C   UNL A   1      33.225  21.147  25.366  1.00  0.00     0.079 C 
ATOM      8  C   UNL A   1      31.795  23.180  25.661  1.00  0.00     0.079 C 
ATOM      9  C   UNL A   1      31.435  23.203  24.171  1.00  0.00     0.013 C 
ATOM     10  C   UNL A   1      31.963  21.697  26.040  1.00  0.00     0.027 C 
ATOM     11  C   UNL A   1      32.622  22.665  23.369  1.00  0.00     0.002 C 
ATOM     12  C   UNL A   1      33.028  21.255  23.828  1.00  0.00     0.013 C 
BRANCH   8  13
ATOM     13  C   UNL A   1      30.859  23.963  26.571  1.00  0.00     0.228 C 
ATOM     14  N   UNL A   1      30.870  25.327  26.597  1.00  0.00    -0.310 N 
ATOM     15  H   UNL A   1      30.230  25.706  27.242  1.00  0.00     0.171 HD
ATOM     16  O   UNL A   1      30.081  23.373  27.327  1.00  0.00    -0.274 OA
BRANCH  14  17
ATOM     17  C   UNL A   1      31.594  26.301  25.906  1.00  0.00     0.132 A 
ATOM     18  C   UNL A   1      30.746  28.077  22.816  1.00  0.00     0.068 C 
ATOM     19  C   UNL A   1      31.584  27.587  23.958  1.00  0.00     0.054 A 
ATOM     20  N   UNL A   1      30.911  26.831  24.873  1.00  0.00    -0.235 NA
ATOM     21  C   UNL A   1      32.952  27.822  24.059  1.00  0.00     0.039 A 
ATOM     22  C   UNL A   1      33.606  27.392  25.208  1.00  0.00     0.021 A 
ATOM     23  Br  UNL A   1      33.983  28.662  22.714  1.00  0.00    -0.049 Br
ATOM     24  C   UNL A   1      32.905  26.660  26.164  1.00  0.00     0.048 A 
ENDBRANCH  14  17
ENDBRANCH   8  13
ENDBRANCH   4   7
ENDBRANCH   2   3
ENDBRANCH   1   2
BRANCH   1  25
ATOM     25  C   UNL A   1      38.634  20.335  25.715  1.00  0.00     0.118 C 
BRANCH  25  26
ATOM     26  N   UNL A   1      39.737  19.384  25.819  1.00  0.00    -0.352 N 
ATOM     27  C   UNL A   1      41.065  19.626  26.062  1.00  0.00     0.251 C 
ATOM     28  H   UNL A   1      39.494  18.437  25.699  1.00  0.00     0.163 HD
ATOM     29  O   UNL A   1      41.911  18.765  25.833  1.00  0.00    -0.269 OA
BRANCH  27  30
ATOM     30  C   UNL A   1      41.465  20.933  26.609  1.00  0.00     0.039 A 
ATOM     31  C   UNL A   1      41.394  21.158  27.984  1.00  0.00     0.014 A 
ATOM     32  C   UNL A   1      41.899  21.938  25.740  1.00  0.00     0.014 A 
ATOM     33  C   UNL A   1      41.808  22.388  28.496  1.00  0.00     0.010 A 
ATOM     34  C   UNL A   1      42.382  23.131  26.256  1.00  0.00     0.010 A 
ATOM     35  C   UNL A   1      42.318  23.373  27.635  1.00  0.00    -0.014 A 
BRANCH  35  36
ATOM     36  C   UNL A   1      42.717  24.704  28.142  1.00  0.00     0.031 A 
ATOM     37  C   UNL A   1      41.664  25.759  28.325  1.00  0.00     0.074 A 
ATOM     38  C   UNL A   1      44.011  24.970  28.394  1.00  0.00     0.049 A 
ATOM     39  N   UNL A   1      41.805  27.003  28.704  1.00  0.00    -0.248 NA
ATOM     40  C   UNL A   1      40.271  25.377  28.027  1.00  0.00     0.031 C 
ATOM     41  C   UNL A   1      45.121  24.031  28.226  1.00  0.00     0.029 A 
ATOM     42  N   UNL A   1      44.611  26.118  28.845  1.00  0.00    -0.354 N 
ATOM     43  C   UNL A   1      40.529  27.545  28.683  1.00  0.00     0.074 A 
ATOM     44  C   UNL A   1      39.629  26.521  28.205  1.00  0.00     0.031 C 
ATOM     45  C   UNL A   1      46.264  24.632  28.594  1.00  0.00     0.029 A 
ATOM     46  C   UNL A   1      45.972  26.006  28.996  1.00  0.00     0.049 A 
ATOM     47  H   UNL A   1      44.114  26.945  29.042  1.00  0.00     0.167 HD
ATOM     48  C   UNL A   1      40.136  28.781  29.062  1.00  0.00     0.031 A 
ATOM     49  C   UNL A   1      46.879  26.910  29.413  1.00  0.00     0.031 A 
ATOM     50  C   UNL A   1      41.024  29.785  29.572  1.00  0.00     0.049 A 
ATOM     51  C   UNL A   1      46.417  28.285  29.808  1.00  0.00     0.074 A 
ATOM     52  C   UNL A   1      40.709  31.049  30.032  1.00  0.00     0.029 A 
ATOM     53  N   UNL A   1      42.393  29.631  29.700  1.00  0.00    -0.354 N 
ATOM     54  N   UNL A   1      45.199  28.768  29.827  1.00  0.00    -0.248 NA
ATOM     55  C   UNL A   1      47.449  29.239  30.242  1.00  0.00     0.031 C 
ATOM     56  C   UNL A   1      41.897  31.679  30.407  1.00  0.00     0.029 A 
ATOM     57  C   UNL A   1      42.943  30.789  30.216  1.00  0.00     0.049 A 
ATOM     58  H   UNL A   1      42.899  28.821  29.461  1.00  0.00     0.167 HD
ATOM     59  C   UNL A   1      45.315  30.072  30.288  1.00  0.00     0.074 A 
ATOM     60  C   UNL A   1      46.720  30.304  30.549  1.00  0.00     0.031 C 
ATOM     61  C   UNL A   1      44.342  30.994  30.476  1.00  0.00     0.031 A 
BRANCH  48  62
ATOM     62  C   UNL A   1      38.678  29.114  28.981  1.00  0.00    -0.014 A 
ATOM     63  C   UNL A   1      37.852  28.969  30.105  1.00  0.00     0.009 A 
ATOM     64  C   UNL A   1      38.151  29.679  27.810  1.00  0.00     0.009 A 
ATOM     65  C   UNL A   1      36.521  29.386  30.059  1.00  0.00     0.001 A 
ATOM     66  C   UNL A   1      36.825  30.112  27.774  1.00  0.00     0.001 A 
ATOM     67  C   UNL A   1      36.012  29.966  28.897  1.00  0.00     0.000 A 
ENDBRANCH  48  62
BRANCH  49  68
ATOM     68  C   UNL A   1      48.312  26.532  29.497  1.00  0.00    -0.014 A 
ATOM     69  C   UNL A   1      49.174  26.779  28.418  1.00  0.00     0.009 A 
ATOM     70  C   UNL A   1      48.831  25.946  30.662  1.00  0.00     0.009 A 
ATOM     71  C   UNL A   1      50.525  26.434  28.501  1.00  0.00     0.001 A 
ATOM     72  C   UNL A   1      50.186  25.621  30.749  1.00  0.00     0.001 A 
ATOM     73  C   UNL A   1      51.032  25.861  29.667  1.00  0.00     0.000 A 
ENDBRANCH  49  68
BRANCH  61  74
ATOM     74  C   UNL A   1      44.737  32.346  30.992  1.00  0.00    -0.014 A 
ATOM     75  C   UNL A   1      44.986  33.401  30.103  1.00  0.00     0.009 A 
ATOM     76  C   UNL A   1      44.700  32.601  32.372  1.00  0.00     0.009 A 
ATOM     77  C   UNL A   1      45.188  34.693  30.589  1.00  0.00     0.001 A 
ATOM     78  C   UNL A   1      44.882  33.898  32.852  1.00  0.00     0.001 A 
ATOM     79  C   UNL A   1      45.124  34.942  31.961  1.00  0.00     0.000 A 
ENDBRANCH  61  74
ENDBRANCH  35  36
ENDBRANCH  27  30
ENDBRANCH  25  26
ENDBRANCH   1  25
TORSDOF 12
ENDMDL
MODEL 2
REMARK VINA RESULT:     -11.7      2.576      7.358
REMARK SMILES Cc1nc(NC(=O)[C@@H]2CCC[C@@H](C(=O)NCCCNC(=O)c3ccc(-c4c5nc(c(-c6ccccc6)c6ccc([nH]6)c(-c6ccccc6)c6nc(c(-c7ccccc7)c7ccc4[nH]7)C=C6)C=C5)cc3)C2)ccc1Br
REMARK SMILES IDX 17 1 16 2 15 3 13 4 14 5 12 7 8 8 9 9 70 10 10 11 11 12 6 13
REMARK SMILES IDX 5 14 7 16 4 17 1 18 2 19 3 20 73 21 72 22 74 23 71 24 18 25
REMARK SMILES IDX 19 26 20 27 21 29 22 30 23 31 69 32 24 33 68 34 25 35 26 36
REMARK SMILES IDX 27 37 62 38 28 39 67 40 61 41 63 42 29 43 66 44 60 45 59 46
REMARK SMILES IDX 30 48 52 49 37 50 51 51 38 52 41 53 50 54 64 55 39 56 40 57
REMARK SMILES IDX 49 59 65 60 42 61 31 62 32 63 36 64 33 65 35 66 34 67 53 68
REMARK SMILES IDX 54 69 58 70 55 71 57 72 56 73 43 74 44 75 48 76 45 77 47 78
REMARK SMILES IDX 46 79
REMARK H PARENT 15 6 5 15 19 28 63 47 41 58
REMARK Flexibility Score: inf
ROOT
ATOM      1  C   UNL A   1      35.619  23.552  25.527  1.00  0.00     0.042 C 
ENDROOT
BRANCH   1   2
ATOM      2  C   UNL A   1      34.666  24.517  24.845  1.00  0.00     0.117 C 
BRANCH   2   3
ATOM      3  N   UNL A   1      34.308  25.628  25.714  1.00  0.00    -0.356 N 
ATOM      4  C   UNL A   1      33.806  26.871  25.535  1.00  0.00     0.223 C 
ATOM      5  O   UNL A   1      33.671  27.522  26.579  1.00  0.00    -0.275 OA
ATOM      6  H   UNL A   1      34.471  25.425  26.663  1.00  0.00     0.163 HD
BRANCH   4   7
ATOM      7  C   UNL A   1      33.464  27.514  24.176  1.00  0.00     0.079 C 
ATOM      8  C   UNL A   1      30.970  27.323  24.278  1.00  0.00     0.079 C 
ATOM      9  C   UNL A   1      30.804  28.847  24.283  1.00  0.00     0.013 C 
ATOM     10  C   UNL A   1      32.219  27.029  23.427  1.00  0.00     0.027 C 
ATOM     11  C   UNL A   1      32.001  29.471  25.005  1.00  0.00     0.002 C 
ATOM     12  C   UNL A   1      33.334  29.052  24.366  1.00  0.00     0.013 C 
BRANCH   8  13
ATOM     13  C   UNL A   1      29.732  26.533  23.880  1.00  0.00     0.228 C 
ATOM     14  N   UNL A   1      29.710  25.169  23.941  1.00  0.00    -0.310 N 
ATOM     15  H   UNL A   1      28.857  24.783  23.637  1.00  0.00     0.171 HD
ATOM     16  O   UNL A   1      28.723  27.113  23.469  1.00  0.00    -0.274 OA
BRANCH  14  17
ATOM     17  C   UNL A   1      30.637  24.204  24.339  1.00  0.00     0.132 A 
ATOM     18  C   UNL A   1      32.236  21.559  22.371  1.00  0.00     0.068 C 
ATOM     19  C   UNL A   1      31.808  22.331  23.582  1.00  0.00     0.054 A 
ATOM     20  N   UNL A   1      31.110  23.472  23.311  1.00  0.00    -0.235 NA
ATOM     21  C   UNL A   1      32.038  21.900  24.885  1.00  0.00     0.039 A 
ATOM     22  C   UNL A   1      31.672  22.744  25.927  1.00  0.00     0.021 A 
ATOM     23  Br  UNL A   1      32.791  20.222  25.325  1.00  0.00    -0.049 Br
ATOM     24  C   UNL A   1      31.001  23.932  25.645  1.00  0.00     0.048 A 
ENDBRANCH  14  17
ENDBRANCH   8  13
ENDBRANCH   4   7
ENDBRANCH   2   3
ENDBRANCH   1   2
BRANCH   1  25
ATOM     25  C   UNL A   1      37.047  23.728  25.023  1.00  0.00     0.118 C 
BRANCH  25  26
ATOM     26  N   UNL A   1      37.926  22.678  25.531  1.00  0.00    -0.352 N 
ATOM     27  C   UNL A   1      39.125  22.799  26.187  1.00  0.00     0.251 C 
ATOM     28  H   UNL A   1      37.615  21.755  25.382  1.00  0.00     0.163 HD
ATOM     29  O   UNL A   1      39.881  21.838  26.292  1.00  0.00    -0.269 OA
BRANCH  27  30
ATOM     30  C   UNL A   1      39.491  24.099  26.772  1.00  0.00     0.039 A 
ATOM     31  C   UNL A   1      40.203  25.026  26.011  1.00  0.00     0.014 A 
ATOM     32  C   UNL A   1      39.130  24.383  28.093  1.00  0.00     0.014 A 
ATOM     33  C   UNL A   1      40.515  26.268  26.564  1.00  0.00     0.010 A 
ATOM     34  C   UNL A   1      39.372  25.645  28.616  1.00  0.00     0.010 A 
ATOM     35  C   UNL A   1      40.087  26.588  27.863  1.00  0.00    -0.014 A 
BRANCH  35  36
ATOM     36  C   UNL A   1      40.445  27.876  28.494  1.00  0.00     0.031 A 
ATOM     37  C   UNL A   1      41.845  28.073  29.004  1.00  0.00     0.074 A 
ATOM     38  C   UNL A   1      39.516  28.836  28.644  1.00  0.00     0.049 A 
ATOM     39  N   UNL A   1      42.351  29.100  29.635  1.00  0.00    -0.248 NA
ATOM     40  C   UNL A   1      42.797  26.967  28.794  1.00  0.00     0.031 C 
ATOM     41  C   UNL A   1      38.120  28.744  28.212  1.00  0.00     0.029 A 
ATOM     42  N   UNL A   1      39.609  30.084  29.205  1.00  0.00    -0.354 N 
ATOM     43  C   UNL A   1      43.670  28.760  29.899  1.00  0.00     0.074 A 
ATOM     44  C   UNL A   1      43.878  27.416  29.413  1.00  0.00     0.031 C 
ATOM     45  C   UNL A   1      37.494  29.897  28.501  1.00  0.00     0.029 A 
ATOM     46  C   UNL A   1      38.435  30.797  29.164  1.00  0.00     0.049 A 
ATOM     47  H   UNL A   1      40.439  30.437  29.601  1.00  0.00     0.167 HD
ATOM     48  C   UNL A   1      44.633  29.516  30.470  1.00  0.00     0.031 A 
ATOM     49  C   UNL A   1      38.153  32.036  29.609  1.00  0.00     0.031 A 
ATOM     50  C   UNL A   1      44.436  30.864  30.918  1.00  0.00     0.049 A 
ATOM     51  C   UNL A   1      39.238  32.848  30.259  1.00  0.00     0.074 A 
ATOM     52  C   UNL A   1      45.367  31.728  31.461  1.00  0.00     0.029 A 
ATOM     53  N   UNL A   1      43.230  31.542  30.864  1.00  0.00    -0.354 N 
ATOM     54  N   UNL A   1      40.493  32.529  30.460  1.00  0.00    -0.248 NA
ATOM     55  C   UNL A   1      38.873  34.189  30.740  1.00  0.00     0.031 C 
ATOM     56  C   UNL A   1      44.717  32.924  31.771  1.00  0.00     0.029 A 
ATOM     57  C   UNL A   1      43.390  32.812  31.382  1.00  0.00     0.049 A 
ATOM     58  H   UNL A   1      42.388  31.175  30.511  1.00  0.00     0.167 HD
ATOM     59  C   UNL A   1      41.070  33.632  31.074  1.00  0.00     0.074 A 
ATOM     60  C   UNL A   1      40.034  34.634  31.205  1.00  0.00     0.031 C 
ATOM     61  C   UNL A   1      42.347  33.795  31.494  1.00  0.00     0.031 A 
BRANCH  48  62
ATOM     62  C   UNL A   1      46.003  28.927  30.609  1.00  0.00    -0.014 A 
ATOM     63  C   UNL A   1      46.973  29.141  29.619  1.00  0.00     0.009 A 
ATOM     64  C   UNL A   1      46.360  28.250  31.785  1.00  0.00     0.009 A 
ATOM     65  C   UNL A   1      48.279  28.687  29.803  1.00  0.00     0.001 A 
ATOM     66  C   UNL A   1      47.672  27.815  31.974  1.00  0.00     0.001 A 
ATOM     67  C   UNL A   1      48.630  28.034  30.985  1.00  0.00     0.000 A 
ENDBRANCH  48  62
BRANCH  49  68
ATOM     68  C   UNL A   1      36.786  32.589  29.433  1.00  0.00    -0.014 A 
ATOM     69  C   UNL A   1      36.420  33.202  28.226  1.00  0.00     0.009 A 
ATOM     70  C   UNL A   1      35.834  32.485  30.459  1.00  0.00     0.009 A 
ATOM     71  C   UNL A   1      35.131  33.713  28.055  1.00  0.00     0.001 A 
ATOM     72  C   UNL A   1      34.540  32.978  30.278  1.00  0.00     0.001 A 
ATOM     73  C   UNL A   1      34.190  33.595  29.078  1.00  0.00     0.000 A 
ENDBRANCH  49  68
BRANCH  61  74
ATOM     74  C   UNL A   1      42.720  35.100  32.133  1.00  0.00    -0.014 A 
ATOM     75  C   UNL A   1      42.476  35.319  33.497  1.00  0.00     0.009 A 
ATOM     76  C   UNL A   1      43.461  36.043  31.405  1.00  0.00     0.009 A 
ATOM     77  C   UNL A   1      42.975  36.462  34.122  1.00  0.00     0.001 A 
ATOM     78  C   UNL A   1      43.976  37.174  32.039  1.00  0.00     0.001 A 
ATOM     79  C   UNL A   1      43.733  37.382  33.396  1.00  0.00     0.000 A 
ENDBRANCH  61  74
ENDBRANCH  35  36
ENDBRANCH  27  30
ENDBRANCH  25  26
ENDBRANCH   1  25
TORSDOF 12
ENDMDL
MODEL 3
REMARK VINA RESULT:     -11.6      0.933      6.071
REMARK SMILES Cc1nc(NC(=O)[C@@H]2CCC[C@@H](C(=O)NCCCNC(=O)c3ccc(-c4c5nc(c(-c6ccccc6)c6ccc([nH]6)c(-c6ccccc6)c6nc(c(-c7ccccc7)c7ccc4[nH]7)C=C6)C=C5)cc3)C2)ccc1Br
REMARK SMILES IDX 17 1 16 2 15 3 13 4 14 5 12 7 8 8 9 9 70 10 10 11 11 12 6 13
REMARK SMILES IDX 5 14 7 16 4 17 1 18 2 19 3 20 73 21 72 22 74 23 71 24 18 25
REMARK SMILES IDX 19 26 20 27 21 29 22 30 23 31 69 32 24 33 68 34 25 35 26 36
REMARK SMILES IDX 27 37 62 38 28 39 67 40 61 41 63 42 29 43 66 44 60 45 59 46
REMARK SMILES IDX 30 48 52 49 37 50 51 51 38 52 41 53 50 54 64 55 39 56 40 57
REMARK SMILES IDX 49 59 65 60 42 61 31 62 32 63 36 64 33 65 35 66 34 67 53 68
REMARK SMILES IDX 54 69 58 70 55 71 57 72 56 73 43 74 44 75 48 76 45 77 47 78
REMARK SMILES IDX 46 79
REMARK H PARENT 15 6 5 15 19 28 63 47 41 58
REMARK Flexibility Score: inf
ROOT
ATOM      1  C   UNL A   1      37.932  19.629  24.908  1.00  0.00     0.042 C 
ENDROOT
BRANCH   1   2
ATOM      2  C   UNL A   1      36.906  20.718  24.645  1.00  0.00     0.117 C 
BRANCH   2   3
ATOM      3  N   UNL A   1      35.642  20.439  25.308  1.00  0.00    -0.356 N 
ATOM      4  C   UNL A   1      34.388  20.942  25.246  1.00  0.00     0.223 C 
ATOM      5  O   UNL A   1      33.586  20.414  26.027  1.00  0.00    -0.275 OA
ATOM      6  H   UNL A   1      35.717  19.707  25.961  1.00  0.00     0.163 HD
BRANCH   4   7
ATOM      7  C   UNL A   1      33.932  22.112  24.349  1.00  0.00     0.079 C 
ATOM      8  C   UNL A   1      32.681  23.443  26.061  1.00  0.00     0.079 C 
ATOM      9  C   UNL A   1      33.663  24.613  25.940  1.00  0.00     0.013 C 
ATOM     10  C   UNL A   1      32.601  22.802  24.663  1.00  0.00     0.027 C 
ATOM     11  C   UNL A   1      35.053  24.060  25.616  1.00  0.00     0.002 C 
ATOM     12  C   UNL A   1      35.042  23.201  24.342  1.00  0.00     0.013 C 
BRANCH   8  13
ATOM     13  C   UNL A   1      31.332  23.782  26.679  1.00  0.00     0.228 C 
ATOM     14  N   UNL A   1      30.587  24.831  26.223  1.00  0.00    -0.310 N 
ATOM     15  H   UNL A   1      29.746  24.952  26.722  1.00  0.00     0.171 HD
ATOM     16  O   UNL A   1      30.894  23.125  27.627  1.00  0.00    -0.274 OA
BRANCH  14  17
ATOM     17  C   UNL A   1      30.759  25.769  25.204  1.00  0.00     0.132 A 
ATOM     18  C   UNL A   1      31.568  29.335  25.434  1.00  0.00     0.068 C 
ATOM     19  C   UNL A   1      31.133  28.041  24.817  1.00  0.00     0.054 A 
ATOM     20  N   UNL A   1      31.182  26.966  25.656  1.00  0.00    -0.235 NA
ATOM     21  C   UNL A   1      30.654  27.937  23.514  1.00  0.00     0.039 A 
ATOM     22  C   UNL A   1      30.363  26.670  23.023  1.00  0.00     0.021 A 
ATOM     23  Br  UNL A   1      30.345  29.420  22.381  1.00  0.00    -0.049 Br
ATOM     24  C   UNL A   1      30.459  25.567  23.869  1.00  0.00     0.048 A 
ENDBRANCH  14  17
ENDBRANCH   8  13
ENDBRANCH   4   7
ENDBRANCH   2   3
ENDBRANCH   1   2
BRANCH   1  25
ATOM     25  C   UNL A   1      38.945  20.061  25.963  1.00  0.00     0.118 C 
BRANCH  25  26
ATOM     26  N   UNL A   1      40.163  19.258  25.894  1.00  0.00    -0.352 N 
ATOM     27  C   UNL A   1      41.469  19.662  25.994  1.00  0.00     0.251 C 
ATOM     28  H   UNL A   1      40.027  18.292  25.757  1.00  0.00     0.163 HD
ATOM     29  O   UNL A   1      42.383  18.927  25.629  1.00  0.00    -0.269 OA
BRANCH  27  30
ATOM     30  C   UNL A   1      41.765  20.991  26.554  1.00  0.00     0.039 A 
ATOM     31  C   UNL A   1      41.740  21.181  27.936  1.00  0.00     0.014 A 
ATOM     32  C   UNL A   1      42.056  22.051  25.691  1.00  0.00     0.014 A 
ATOM     33  C   UNL A   1      42.056  22.435  28.459  1.00  0.00     0.010 A 
ATOM     34  C   UNL A   1      42.445  23.277  26.213  1.00  0.00     0.010 A 
ATOM     35  C   UNL A   1      42.424  23.483  27.599  1.00  0.00    -0.014 A 
BRANCH  35  36
ATOM     36  C   UNL A   1      42.715  24.836  28.120  1.00  0.00     0.031 A 
ATOM     37  C   UNL A   1      44.128  25.187  28.489  1.00  0.00     0.074 A 
ATOM     38  C   UNL A   1      41.717  25.720  28.299  1.00  0.00     0.049 A 
ATOM     39  N   UNL A   1      44.590  26.293  29.012  1.00  0.00    -0.248 NA
ATOM     40  C   UNL A   1      45.157  24.156  28.257  1.00  0.00     0.031 C 
ATOM     41  C   UNL A   1      40.304  25.478  28.002  1.00  0.00     0.029 A 
ATOM     42  N   UNL A   1      41.741  27.005  28.778  1.00  0.00    -0.354 N 
ATOM     43  C   UNL A   1      45.952  26.087  29.175  1.00  0.00     0.074 A 
ATOM     44  C   UNL A   1      46.242  24.738  28.748  1.00  0.00     0.031 C 
ATOM     45  C   UNL A   1      39.601  26.588  28.281  1.00  0.00     0.029 A 
ATOM     46  C   UNL A   1      40.508  27.608  28.803  1.00  0.00     0.049 A 
ATOM     47  H   UNL A   1      42.566  27.453  29.076  1.00  0.00     0.167 HD
ATOM     48  C   UNL A   1      46.886  26.960  29.611  1.00  0.00     0.031 A 
ATOM     49  C   UNL A   1      40.151  28.844  29.201  1.00  0.00     0.031 A 
ATOM     50  C   UNL A   1      46.604  28.311  29.998  1.00  0.00     0.049 A 
ATOM     51  C   UNL A   1      41.208  29.788  29.702  1.00  0.00     0.074 A 
ATOM     52  C   UNL A   1      47.494  29.287  30.404  1.00  0.00     0.029 A 
ATOM     53  N   UNL A   1      45.341  28.877  30.016  1.00  0.00    -0.354 N 
ATOM     54  N   UNL A   1      42.500  29.593  29.806  1.00  0.00    -0.248 NA
ATOM     55  C   UNL A   1      40.762  31.120  30.137  1.00  0.00     0.031 C 
ATOM     56  C   UNL A   1      46.765  30.438  30.703  1.00  0.00     0.029 A 
ATOM     57  C   UNL A   1      45.426  30.187  30.444  1.00  0.00     0.049 A 
ATOM     58  H   UNL A   1      44.509  28.416  29.761  1.00  0.00     0.167 HD
ATOM     59  C   UNL A   1      43.023  30.779  30.301  1.00  0.00     0.074 A 
ATOM     60  C   UNL A   1      41.913  31.694  30.469  1.00  0.00     0.031 C 
ATOM     61  C   UNL A   1      44.310  31.081  30.594  1.00  0.00     0.031 A 
BRANCH  48  62
ATOM     62  C   UNL A   1      48.312  26.502  29.659  1.00  0.00    -0.014 A 
ATOM     63  C   UNL A   1      49.175  26.752  28.581  1.00  0.00     0.009 A 
ATOM     64  C   UNL A   1      48.823  25.919  30.827  1.00  0.00     0.009 A 
ATOM     65  C   UNL A   1      50.528  26.427  28.674  1.00  0.00     0.001 A 
ATOM     66  C   UNL A   1      50.181  25.612  30.923  1.00  0.00     0.001 A 
ATOM     67  C   UNL A   1      51.032  25.866  29.848  1.00  0.00     0.000 A 
ENDBRANCH  48  62
BRANCH  49  68
ATOM     68  C   UNL A   1      38.729  29.263  29.119  1.00  0.00    -0.014 A 
ATOM     69  C   UNL A   1      38.222  29.821  27.936  1.00  0.00     0.009 A 
ATOM     70  C   UNL A   1      37.866  29.085  30.211  1.00  0.00     0.009 A 
ATOM     71  C   UNL A   1      36.881  30.205  27.854  1.00  0.00     0.001 A 
ATOM     72  C   UNL A   1      36.521  29.452  30.119  1.00  0.00     0.001 A 
ATOM     73  C   UNL A   1      36.031  30.015  28.942  1.00  0.00     0.000 A 
ENDBRANCH  49  68
BRANCH  61  74
ATOM     74  C   UNL A   1      44.614  32.451  31.121  1.00  0.00    -0.014 A 
ATOM     75  C   UNL A   1      44.708  33.544  30.248  1.00  0.00     0.009 A 
ATOM     76  C   UNL A   1      44.647  32.671  32.507  1.00  0.00     0.009 A 
ATOM     77  C   UNL A   1      44.824  34.838  30.756  1.00  0.00     0.001 A 
ATOM     78  C   UNL A   1      44.742  33.968  33.011  1.00  0.00     0.001 A 
ATOM     79  C   UNL A   1      44.830  35.050  32.136  1.00  0.00     0.000 A 
ENDBRANCH  61  74
ENDBRANCH  35  36
ENDBRANCH  27  30
ENDBRANCH  25  26
ENDBRANCH   1  25
TORSDOF 12
ENDMDL
