MODEL 1
REMARK VINA RESULT:     -11.2      0.000      0.000
REMARK SMILES C[C@]([NH3+])(C(=O)N1[C@@H](C(=O)NCCCNC(=O)c2ccc(-c3c4nc(c(-c5ccccc5)c5ccc([nH]5)c(-c5ccccc5)c5nc(c(-c6ccccc6)c6ccc3[nH]6)C=C5)C=C4)cc2)C[C@H]2CCCC[C@@H]21)C(F)(F)F
REMARK SMILES IDX 11 1 10 2 8 3 9 4 7 6 6 7 71 8 65 9 66 10 70 11 67 12 69 13
REMARK SMILES IDX 68 14 4 15 5 16 2 17 1 18 72 19 73 20 74 21 75 22 3 23 12 27
REMARK SMILES IDX 13 28 14 29 15 30 16 32 17 33 18 34 64 35 19 36 63 37 20 38
REMARK SMILES IDX 21 39 22 40 57 41 23 42 62 43 56 44 58 45 24 46 61 47 55 48
REMARK SMILES IDX 54 49 25 51 47 52 32 53 46 54 33 55 36 56 45 57 59 58 34 59
REMARK SMILES IDX 35 60 44 62 60 63 37 64 26 65 27 66 31 67 28 68 30 69 29 70
REMARK SMILES IDX 48 71 49 72 53 73 50 74 52 75 51 76 38 77 39 78 43 79 40 80
REMARK SMILES IDX 42 81 41 82
REMARK H PARENT 10 5 3 24 3 25 3 26 14 31 58 50 36 61
REMARK Flexibility Score: inf
ROOT
ATOM      1  C   UNL A   1      35.152  22.534  24.168  1.00  0.00     0.117 C 
ENDROOT
BRANCH   1   2
ATOM      2  N   UNL A   1      34.482  22.946  22.945  1.00  0.00    -0.354 N 
ATOM      3  C   UNL A   1      33.758  24.063  22.648  1.00  0.00     0.242 C 
ATOM      4  O   UNL A   1      33.262  24.099  21.517  1.00  0.00    -0.273 OA
ATOM      5  H   UNL A   1      34.566  22.308  22.201  1.00  0.00     0.163 HD
BRANCH   3   6
ATOM      6  C   UNL A   1      33.448  25.153  23.715  1.00  0.00     0.175 C 
ATOM      7  N   UNL A   1      32.016  25.090  24.129  1.00  0.00    -0.322 N 
ATOM      8  C   UNL A   1      31.289  26.204  23.533  1.00  0.00     0.089 C 
ATOM      9  C   UNL A   1      33.594  26.569  23.118  1.00  0.00     0.041 C 
ATOM     10  C   UNL A   1      32.355  27.294  23.578  1.00  0.00     0.014 C 
ATOM     11  C   UNL A   1      30.046  26.753  24.235  1.00  0.00     0.025 C 
ATOM     12  C   UNL A   1      31.952  28.507  22.765  1.00  0.00     0.006 C 
ATOM     13  C   UNL A   1      29.575  28.046  23.547  1.00  0.00     0.002 C 
ATOM     14  C   UNL A   1      30.680  29.095  23.373  1.00  0.00     0.000 C 
BRANCH   7  15
ATOM     15  C   UNL A   1      31.345  24.046  24.753  1.00  0.00     0.294 C 
ATOM     16  O   UNL A   1      30.676  23.270  24.065  1.00  0.00    -0.267 OA
BRANCH  15  17
ATOM     17  C   UNL A   1      31.326  23.958  26.303  1.00  0.00     0.267 C 
ATOM     18  C   UNL A   1      30.030  23.259  26.748  1.00  0.00     0.100 C 
BRANCH  17  19
ATOM     19  C   UNL A   1      32.518  23.037  26.711  1.00  0.00     0.453 C 
ATOM     20  F   UNL A   1      32.672  21.985  25.875  1.00  0.00    -0.164 F 
ATOM     21  F   UNL A   1      33.689  23.732  26.667  1.00  0.00    -0.164 F 
ATOM     22  F   UNL A   1      32.413  22.570  27.977  1.00  0.00    -0.164 F 
ENDBRANCH  17  19
BRANCH  17  23
ATOM     23  N   UNL A   1      31.410  25.309  26.948  1.00  0.00    -0.337 N 
ATOM     24  H   UNL A   1      30.468  25.670  27.104  1.00  0.00     0.345 HD
ATOM     25  H   UNL A   1      31.920  25.946  26.336  1.00  0.00     0.345 HD
ATOM     26  H   UNL A   1      31.897  25.230  27.840  1.00  0.00     0.345 HD
ENDBRANCH  17  23
ENDBRANCH  15  17
ENDBRANCH   7  15
ENDBRANCH   3   6
ENDBRANCH   1   2
BRANCH   1  27
ATOM     27  C   UNL A   1      36.666  22.526  24.039  1.00  0.00     0.042 C 
BRANCH  27  28
ATOM     28  C   UNL A   1      37.393  23.195  25.195  1.00  0.00     0.118 C 
BRANCH  28  29
ATOM     29  N   UNL A   1      38.613  22.497  25.584  1.00  0.00    -0.352 N 
ATOM     30  C   UNL A   1      39.733  22.948  26.243  1.00  0.00     0.251 C 
ATOM     31  H   UNL A   1      38.639  21.545  25.333  1.00  0.00     0.163 HD
ATOM     32  O   UNL A   1      40.725  22.229  26.317  1.00  0.00    -0.269 OA
BRANCH  30  33
ATOM     33  C   UNL A   1      39.767  24.309  26.821  1.00  0.00     0.039 A 
ATOM     34  C   UNL A   1      39.211  24.524  28.085  1.00  0.00     0.014 A 
ATOM     35  C   UNL A   1      40.360  25.369  26.134  1.00  0.00     0.014 A 
ATOM     36  C   UNL A   1      39.360  25.766  28.708  1.00  0.00     0.010 A 
ATOM     37  C   UNL A   1      40.596  26.572  26.791  1.00  0.00     0.010 A 
ATOM     38  C   UNL A   1      40.115  26.777  28.092  1.00  0.00    -0.014 A 
BRANCH  38  39
ATOM     39  C   UNL A   1      40.461  28.036  28.799  1.00  0.00     0.031 A 
ATOM     40  C   UNL A   1      41.768  28.161  29.533  1.00  0.00     0.074 A 
ATOM     41  C   UNL A   1      39.549  29.026  28.873  1.00  0.00     0.049 A 
ATOM     42  N   UNL A   1      42.185  29.124  30.315  1.00  0.00    -0.248 NA
ATOM     43  C   UNL A   1      42.717  27.046  29.391  1.00  0.00     0.031 C 
ATOM     44  C   UNL A   1      38.228  29.015  28.240  1.00  0.00     0.029 A 
ATOM     45  N   UNL A   1      39.587  30.230  29.533  1.00  0.00    -0.354 N 
ATOM     46  C   UNL A   1      43.433  28.722  30.773  1.00  0.00     0.074 A 
ATOM     47  C   UNL A   1      43.685  27.409  30.219  1.00  0.00     0.031 C 
ATOM     48  C   UNL A   1      37.593  30.163  28.523  1.00  0.00     0.029 A 
ATOM     49  C   UNL A   1      38.434  30.966  29.402  1.00  0.00     0.049 A 
ATOM     50  H   UNL A   1      40.366  30.536  30.051  1.00  0.00     0.167 HD
ATOM     51  C   UNL A   1      44.298  29.391  31.571  1.00  0.00     0.031 A 
ATOM     52  C   UNL A   1      38.081  32.147  29.946  1.00  0.00     0.031 A 
ATOM     53  C   UNL A   1      44.050  30.699  32.115  1.00  0.00     0.049 A 
ATOM     54  C   UNL A   1      39.041  32.849  30.863  1.00  0.00     0.074 A 
ATOM     55  C   UNL A   1      44.894  31.489  32.876  1.00  0.00     0.029 A 
ATOM     56  N   UNL A   1      42.868  31.407  31.962  1.00  0.00    -0.354 N 
ATOM     57  N   UNL A   1      40.247  32.488  31.228  1.00  0.00    -0.248 NA
ATOM     58  C   UNL A   1      38.589  34.120  31.447  1.00  0.00     0.031 C 
ATOM     59  C   UNL A   1      44.200  32.649  33.235  1.00  0.00     0.029 A 
ATOM     60  C   UNL A   1      42.945  32.606  32.649  1.00  0.00     0.049 A 
ATOM     61  H   UNL A   1      42.089  31.102  31.442  1.00  0.00     0.167 HD
ATOM     62  C   UNL A   1      40.705  33.493  32.069  1.00  0.00     0.074 A 
ATOM     63  C   UNL A   1      39.655  34.489  32.145  1.00  0.00     0.031 C 
ATOM     64  C   UNL A   1      41.889  33.582  32.723  1.00  0.00     0.031 A 
BRANCH  51  65
ATOM     65  C   UNL A   1      45.595  28.712  31.914  1.00  0.00    -0.014 A 
ATOM     66  C   UNL A   1      46.740  28.887  31.120  1.00  0.00     0.009 A 
ATOM     67  C   UNL A   1      45.684  27.921  33.069  1.00  0.00     0.009 A 
ATOM     68  C   UNL A   1      47.937  28.253  31.457  1.00  0.00     0.001 A 
ATOM     69  C   UNL A   1      46.890  27.311  33.420  1.00  0.00     0.001 A 
ATOM     70  C   UNL A   1      48.013  27.470  32.609  1.00  0.00     0.000 A 
ENDBRANCH  51  65
BRANCH  52  71
ATOM     71  C   UNL A   1      36.749  32.735  29.648  1.00  0.00    -0.014 A 
ATOM     72  C   UNL A   1      36.544  33.475  28.474  1.00  0.00     0.009 A 
ATOM     73  C   UNL A   1      35.675  32.563  30.536  1.00  0.00     0.009 A 
ATOM     74  C   UNL A   1      35.300  34.050  28.207  1.00  0.00     0.001 A 
ATOM     75  C   UNL A   1      34.424  33.114  30.253  1.00  0.00     0.001 A 
ATOM     76  C   UNL A   1      34.240  33.864  29.092  1.00  0.00     0.000 A 
ENDBRANCH  52  71
BRANCH  64  77
ATOM     77  C   UNL A   1      42.118  34.801  33.568  1.00  0.00    -0.014 A 
ATOM     78  C   UNL A   1      41.718  34.836  34.913  1.00  0.00     0.009 A 
ATOM     79  C   UNL A   1      42.793  35.908  33.029  1.00  0.00     0.009 A 
ATOM     80  C   UNL A   1      41.969  35.964  35.695  1.00  0.00     0.001 A 
ATOM     81  C   UNL A   1      43.068  37.023  33.821  1.00  0.00     0.001 A 
ATOM     82  C   UNL A   1      42.650  37.053  35.150  1.00  0.00     0.000 A 
ENDBRANCH  64  77
ENDBRANCH  38  39
ENDBRANCH  30  33
ENDBRANCH  28  29
ENDBRANCH  27  28
ENDBRANCH   1  27
TORSDOF 14
ENDMDL
MODEL 2
REMARK VINA RESULT:     -11.2      3.077      6.305
REMARK SMILES C[C@]([NH3+])(C(=O)N1[C@@H](C(=O)NCCCNC(=O)c2ccc(-c3c4nc(c(-c5ccccc5)c5ccc([nH]5)c(-c5ccccc5)c5nc(c(-c6ccccc6)c6ccc3[nH]6)C=C5)C=C4)cc2)C[C@H]2CCCC[C@@H]21)C(F)(F)F
REMARK SMILES IDX 11 1 10 2 8 3 9 4 7 6 6 7 71 8 65 9 66 10 70 11 67 12 69 13
REMARK SMILES IDX 68 14 4 15 5 16 2 17 1 18 72 19 73 20 74 21 75 22 3 23 12 27
REMARK SMILES IDX 13 28 14 29 15 30 16 32 17 33 18 34 64 35 19 36 63 37 20 38
REMARK SMILES IDX 21 39 22 40 57 41 23 42 62 43 56 44 58 45 24 46 61 47 55 48
REMARK SMILES IDX 54 49 25 51 47 52 32 53 46 54 33 55 36 56 45 57 59 58 34 59
REMARK SMILES IDX 35 60 44 62 60 63 37 64 26 65 27 66 31 67 28 68 30 69 29 70
REMARK SMILES IDX 48 71 49 72 53 73 50 74 52 75 51 76 38 77 39 78 43 79 40 80
REMARK SMILES IDX 42 81 41 82
REMARK H PARENT 10 5 3 24 3 25 3 26 14 31 58 50 36 61
REMARK Flexibility Score: inf
ROOT
ATOM      1  C   UNL A   1      35.645  23.531  24.192  1.00  0.00     0.117 C 
ENDROOT
BRANCH   1   2
ATOM      2  N   UNL A   1      34.813  23.662  23.007  1.00  0.00    -0.354 N 
ATOM      3  C   UNL A   1      33.796  24.521  22.710  1.00  0.00     0.242 C 
ATOM      4  O   UNL A   1      33.240  24.342  21.622  1.00  0.00    -0.273 OA
ATOM      5  H   UNL A   1      35.020  23.017  22.292  1.00  0.00     0.163 HD
BRANCH   3   6
ATOM      6  C   UNL A   1      33.270  25.562  23.739  1.00  0.00     0.175 C 
ATOM      7  N   UNL A   1      31.851  25.275  24.098  1.00  0.00    -0.322 N 
ATOM      8  C   UNL A   1      30.980  26.248  23.450  1.00  0.00     0.089 C 
ATOM      9  C   UNL A   1      33.212  26.974  23.117  1.00  0.00     0.041 C 
ATOM     10  C   UNL A   1      31.854  27.497  23.513  1.00  0.00     0.014 C 
ATOM     11  C   UNL A   1      29.637  26.600  24.091  1.00  0.00     0.025 C 
ATOM     12  C   UNL A   1      31.296  28.616  22.658  1.00  0.00     0.006 C 
ATOM     13  C   UNL A   1      28.993  27.789  23.356  1.00  0.00     0.002 C 
ATOM     14  C   UNL A   1      29.921  29.000  23.203  1.00  0.00     0.000 C 
BRANCH   7  15
ATOM     15  C   UNL A   1      31.331  24.146  24.718  1.00  0.00     0.294 C 
ATOM     16  O   UNL A   1      30.717  23.321  24.037  1.00  0.00    -0.267 OA
BRANCH  15  17
ATOM     17  C   UNL A   1      31.401  24.014  26.264  1.00  0.00     0.267 C 
ATOM     18  C   UNL A   1      30.279  23.073  26.736  1.00  0.00     0.100 C 
BRANCH  17  19
ATOM     19  C   UNL A   1      32.761  23.321  26.590  1.00  0.00     0.453 C 
ATOM     20  F   UNL A   1      33.782  24.203  26.695  1.00  0.00    -0.164 F 
ATOM     21  F   UNL A   1      32.689  22.679  27.789  1.00  0.00    -0.164 F 
ATOM     22  F   UNL A   1      33.101  22.375  25.684  1.00  0.00    -0.164 F 
ENDBRANCH  17  19
BRANCH  17  23
ATOM     23  N   UNL A   1      31.262  25.338  26.953  1.00  0.00    -0.337 N 
ATOM     24  H   UNL A   1      32.001  25.437  27.649  1.00  0.00     0.345 HD
ATOM     25  H   UNL A   1      30.353  25.388  27.413  1.00  0.00     0.345 HD
ATOM     26  H   UNL A   1      31.338  26.088  26.266  1.00  0.00     0.345 HD
ENDBRANCH  17  23
ENDBRANCH  15  17
ENDBRANCH   7  15
ENDBRANCH   3   6
ENDBRANCH   1   2
BRANCH   1  27
ATOM     27  C   UNL A   1      36.383  22.204  24.253  1.00  0.00     0.042 C 
BRANCH  27  28
ATOM     28  C   UNL A   1      36.735  21.753  25.662  1.00  0.00     0.118 C 
BRANCH  28  29
ATOM     29  N   UNL A   1      37.844  20.806  25.698  1.00  0.00    -0.352 N 
ATOM     30  C   UNL A   1      39.163  20.983  26.046  1.00  0.00     0.251 C 
ATOM     31  H   UNL A   1      37.609  19.889  25.428  1.00  0.00     0.163 HD
ATOM     32  O   UNL A   1      39.973  20.084  25.839  1.00  0.00    -0.269 OA
BRANCH  30  33
ATOM     33  C   UNL A   1      39.623  22.265  26.624  1.00  0.00     0.039 A 
ATOM     34  C   UNL A   1      40.615  22.249  27.608  1.00  0.00     0.014 A 
ATOM     35  C   UNL A   1      39.096  23.481  26.189  1.00  0.00     0.014 A 
ATOM     36  C   UNL A   1      41.162  23.451  28.062  1.00  0.00     0.010 A 
ATOM     37  C   UNL A   1      39.707  24.673  26.565  1.00  0.00     0.010 A 
ATOM     38  C   UNL A   1      40.759  24.669  27.491  1.00  0.00    -0.014 A 
BRANCH  38  39
ATOM     39  C   UNL A   1      41.450  25.947  27.803  1.00  0.00     0.031 A 
ATOM     40  C   UNL A   1      40.763  27.001  28.626  1.00  0.00     0.074 A 
ATOM     41  C   UNL A   1      42.653  26.201  27.251  1.00  0.00     0.049 A 
ATOM     42  N   UNL A   1      41.149  28.224  28.886  1.00  0.00    -0.248 NA
ATOM     43  C   UNL A   1      39.459  26.643  29.206  1.00  0.00     0.031 C 
ATOM     44  C   UNL A   1      43.412  25.279  26.402  1.00  0.00     0.029 A 
ATOM     45  N   UNL A   1      43.444  27.322  27.305  1.00  0.00    -0.354 N 
ATOM     46  C   UNL A   1      40.128  28.786  29.643  1.00  0.00     0.074 A 
ATOM     47  C   UNL A   1      39.088  27.788  29.761  1.00  0.00     0.031 C 
ATOM     48  C   UNL A   1      44.563  25.862  26.034  1.00  0.00     0.029 A 
ATOM     49  C   UNL A   1      44.601  27.217  26.572  1.00  0.00     0.049 A 
ATOM     50  H   UNL A   1      43.205  28.126  27.821  1.00  0.00     0.167 HD
ATOM     51  C   UNL A   1      40.070  30.018  30.202  1.00  0.00     0.031 A 
ATOM     52  C   UNL A   1      45.577  28.116  26.338  1.00  0.00     0.031 A 
ATOM     53  C   UNL A   1      41.107  31.007  30.092  1.00  0.00     0.049 A 
ATOM     54  C   UNL A   1      45.467  29.490  26.934  1.00  0.00     0.074 A 
ATOM     55  C   UNL A   1      41.171  32.258  30.681  1.00  0.00     0.029 A 
ATOM     56  N   UNL A   1      42.260  30.861  29.336  1.00  0.00    -0.354 N 
ATOM     57  N   UNL A   1      44.529  29.980  27.708  1.00  0.00    -0.248 NA
ATOM     58  C   UNL A   1      46.548  30.435  26.622  1.00  0.00     0.031 C 
ATOM     59  C   UNL A   1      42.334  32.893  30.233  1.00  0.00     0.029 A 
ATOM     60  C   UNL A   1      43.021  32.015  29.410  1.00  0.00     0.049 A 
ATOM     61  H   UNL A   1      42.501  30.057  28.822  1.00  0.00     0.167 HD
ATOM     62  C   UNL A   1      44.914  31.285  27.988  1.00  0.00     0.074 A 
ATOM     63  C   UNL A   1      46.181  31.502  27.318  1.00  0.00     0.031 C 
ATOM     64  C   UNL A   1      44.275  32.220  28.731  1.00  0.00     0.031 A 
BRANCH  51  65
ATOM     65  C   UNL A   1      38.831  30.370  30.979  1.00  0.00    -0.014 A 
ATOM     66  C   UNL A   1      37.724  30.966  30.354  1.00  0.00     0.009 A 
ATOM     67  C   UNL A   1      38.754  30.062  32.346  1.00  0.00     0.009 A 
ATOM     68  C   UNL A   1      36.581  31.280  31.090  1.00  0.00     0.001 A 
ATOM     69  C   UNL A   1      37.598  30.350  33.074  1.00  0.00     0.001 A 
ATOM     70  C   UNL A   1      36.516  30.967  32.447  1.00  0.00     0.000 A 
ENDBRANCH  51  65
BRANCH  52  71
ATOM     71  C   UNL A   1      46.739  27.749  25.487  1.00  0.00    -0.014 A 
ATOM     72  C   UNL A   1      47.896  27.201  26.061  1.00  0.00     0.009 A 
ATOM     73  C   UNL A   1      46.700  27.946  24.097  1.00  0.00     0.009 A 
ATOM     74  C   UNL A   1      48.998  26.880  25.264  1.00  0.00     0.001 A 
ATOM     75  C   UNL A   1      47.792  27.598  23.300  1.00  0.00     0.001 A 
ATOM     76  C   UNL A   1      48.943  27.074  23.885  1.00  0.00     0.000 A 
ENDBRANCH  52  71
BRANCH  64  77
ATOM     77  C   UNL A   1      44.937  33.559  28.871  1.00  0.00    -0.014 A 
ATOM     78  C   UNL A   1      45.881  33.799  29.883  1.00  0.00     0.009 A 
ATOM     79  C   UNL A   1      44.657  34.577  27.946  1.00  0.00     0.009 A 
ATOM     80  C   UNL A   1      46.513  35.040  29.978  1.00  0.00     0.001 A 
ATOM     81  C   UNL A   1      45.312  35.807  28.026  1.00  0.00     0.001 A 
ATOM     82  C   UNL A   1      46.233  36.039  29.045  1.00  0.00     0.000 A 
ENDBRANCH  64  77
ENDBRANCH  38  39
ENDBRANCH  30  33
ENDBRANCH  28  29
ENDBRANCH  27  28
ENDBRANCH   1  27
TORSDOF 14
ENDMDL
MODEL 3
REMARK VINA RESULT:     -11.1      2.303      6.747
REMARK SMILES C[C@]([NH3+])(C(=O)N1[C@@H](C(=O)NCCCNC(=O)c2ccc(-c3c4nc(c(-c5ccccc5)c5ccc([nH]5)c(-c5ccccc5)c5nc(c(-c6ccccc6)c6ccc3[nH]6)C=C5)C=C4)cc2)C[C@H]2CCCC[C@@H]21)C(F)(F)F
REMARK SMILES IDX 11 1 10 2 8 3 9 4 7 6 6 7 71 8 65 9 66 10 70 11 67 12 69 13
REMARK SMILES IDX 68 14 4 15 5 16 2 17 1 18 72 19 73 20 74 21 75 22 3 23 12 27
REMARK SMILES IDX 13 28 14 29 15 30 16 32 17 33 18 34 64 35 19 36 63 37 20 38
REMARK SMILES IDX 21 39 22 40 57 41 23 42 62 43 56 44 58 45 24 46 61 47 55 48
REMARK SMILES IDX 54 49 25 51 47 52 32 53 46 54 33 55 36 56 45 57 59 58 34 59
REMARK SMILES IDX 35 60 44 62 60 63 37 64 26 65 27 66 31 67 28 68 30 69 29 70
REMARK SMILES IDX 48 71 49 72 53 73 50 74 52 75 51 76 38 77 39 78 43 79 40 80
REMARK SMILES IDX 42 81 41 82
REMARK H PARENT 10 5 3 24 3 25 3 26 14 31 58 50 36 61
REMARK Flexibility Score: inf
ROOT
ATOM      1  C   UNL A   1      35.907  22.442  24.684  1.00  0.00     0.117 C 
ENDROOT
BRANCH   1   2
ATOM      2  N   UNL A   1      35.191  22.633  23.434  1.00  0.00    -0.354 N 
ATOM      3  C   UNL A   1      34.315  23.601  23.037  1.00  0.00     0.242 C 
ATOM      4  O   UNL A   1      33.825  23.455  21.913  1.00  0.00    -0.273 OA
ATOM      5  H   UNL A   1      35.369  21.944  22.754  1.00  0.00     0.163 HD
BRANCH   3   6
ATOM      6  C   UNL A   1      33.847  24.733  23.996  1.00  0.00     0.175 C 
ATOM      7  N   UNL A   1      32.385  24.616  24.271  1.00  0.00    -0.322 N 
ATOM      8  C   UNL A   1      31.669  25.652  23.537  1.00  0.00     0.089 C 
ATOM      9  C   UNL A   1      33.984  26.117  23.327  1.00  0.00     0.041 C 
ATOM     10  C   UNL A   1      32.671  26.799  23.616  1.00  0.00     0.014 C 
ATOM     11  C   UNL A   1      30.337  26.173  24.078  1.00  0.00     0.025 C 
ATOM     12  C   UNL A   1      32.294  27.939  22.691  1.00  0.00     0.006 C 
ATOM     13  C   UNL A   1      29.875  27.395  23.265  1.00  0.00     0.002 C 
ATOM     14  C   UNL A   1      30.940  28.491  23.134  1.00  0.00     0.000 C 
BRANCH   7  15
ATOM     15  C   UNL A   1      31.705  23.576  24.892  1.00  0.00     0.294 C 
ATOM     16  O   UNL A   1      31.123  22.743  24.194  1.00  0.00    -0.267 OA
BRANCH  15  17
ATOM     17  C   UNL A   1      31.567  23.560  26.439  1.00  0.00     0.267 C 
ATOM     18  C   UNL A   1      30.308  22.761  26.820  1.00  0.00     0.100 C 
BRANCH  17  19
ATOM     19  C   UNL A   1      32.801  22.777  26.988  1.00  0.00     0.453 C 
ATOM     20  F   UNL A   1      33.916  23.542  27.049  1.00  0.00    -0.164 F 
ATOM     21  F   UNL A   1      32.563  22.350  28.259  1.00  0.00    -0.164 F 
ATOM     22  F   UNL A   1      33.081  21.664  26.271  1.00  0.00    -0.164 F 
ENDBRANCH  17  19
BRANCH  17  23
ATOM     23  N   UNL A   1      31.473  24.940  27.014  1.00  0.00    -0.337 N 
ATOM     24  H   UNL A   1      31.462  25.624  26.256  1.00  0.00     0.345 HD
ATOM     25  H   UNL A   1      32.279  25.114  27.615  1.00  0.00     0.345 HD
ATOM     26  H   UNL A   1      30.616  25.024  27.561  1.00  0.00     0.345 HD
ENDBRANCH  17  23
ENDBRANCH  15  17
ENDBRANCH   7  15
ENDBRANCH   3   6
ENDBRANCH   1   2
BRANCH   1  27
ATOM     27  C   UNL A   1      36.878  21.274  24.637  1.00  0.00     0.042 C 
BRANCH  27  28
ATOM     28  C   UNL A   1      38.119  21.460  25.497  1.00  0.00     0.118 C 
BRANCH  28  29
ATOM     29  N   UNL A   1      38.970  20.276  25.536  1.00  0.00    -0.352 N 
ATOM     30  C   UNL A   1      40.280  20.126  25.929  1.00  0.00     0.251 C 
ATOM     31  H   UNL A   1      38.535  19.448  25.230  1.00  0.00     0.163 HD
ATOM     32  O   UNL A   1      40.861  19.066  25.717  1.00  0.00    -0.269 OA
BRANCH  30  33
ATOM     33  C   UNL A   1      41.008  21.249  26.560  1.00  0.00     0.039 A 
ATOM     34  C   UNL A   1      41.672  22.171  25.746  1.00  0.00     0.014 A 
ATOM     35  C   UNL A   1      41.026  21.407  27.946  1.00  0.00     0.014 A 
ATOM     36  C   UNL A   1      42.243  23.313  26.313  1.00  0.00     0.010 A 
ATOM     37  C   UNL A   1      41.505  22.589  28.500  1.00  0.00     0.010 A 
ATOM     38  C   UNL A   1      42.102  23.563  27.687  1.00  0.00    -0.014 A 
BRANCH  38  39
ATOM     39  C   UNL A   1      42.521  24.852  28.295  1.00  0.00     0.031 A 
ATOM     40  C   UNL A   1      41.517  25.950  28.515  1.00  0.00     0.074 A 
ATOM     41  C   UNL A   1      43.827  25.073  28.545  1.00  0.00     0.049 A 
ATOM     42  N   UNL A   1      41.718  27.184  28.905  1.00  0.00    -0.248 NA
ATOM     43  C   UNL A   1      40.110  25.628  28.233  1.00  0.00     0.031 C 
ATOM     44  C   UNL A   1      44.907  24.105  28.341  1.00  0.00     0.029 A 
ATOM     45  N   UNL A   1      44.472  26.192  29.010  1.00  0.00    -0.354 N 
ATOM     46  C   UNL A   1      40.467  27.788  28.895  1.00  0.00     0.074 A 
ATOM     47  C   UNL A   1      39.523  26.802  28.418  1.00  0.00     0.031 C 
ATOM     48  C   UNL A   1      46.074  24.664  28.697  1.00  0.00     0.029 A 
ATOM     49  C   UNL A   1      45.835  26.044  29.101  1.00  0.00     0.049 A 
ATOM     50  H   UNL A   1      44.003  27.022  29.255  1.00  0.00     0.167 HD
ATOM     51  C   UNL A   1      40.133  29.047  29.265  1.00  0.00     0.031 A 
ATOM     52  C   UNL A   1      46.792  26.926  29.450  1.00  0.00     0.031 A 
ATOM     53  C   UNL A   1      41.070  30.025  29.747  1.00  0.00     0.049 A 
ATOM     54  C   UNL A   1      46.400  28.329  29.814  1.00  0.00     0.074 A 
ATOM     55  C   UNL A   1      40.819  31.304  30.211  1.00  0.00     0.029 A 
ATOM     56  N   UNL A   1      42.442  29.836  29.818  1.00  0.00    -0.354 N 
ATOM     57  N   UNL A   1      45.204  28.863  29.869  1.00  0.00    -0.248 NA
ATOM     58  C   UNL A   1      47.489  29.253  30.159  1.00  0.00     0.031 C 
ATOM     59  C   UNL A   1      42.043  31.910  30.507  1.00  0.00     0.029 A 
ATOM     60  C   UNL A   1      43.053  30.989  30.280  1.00  0.00     0.049 A 
ATOM     61  H   UNL A   1      42.912  29.005  29.576  1.00  0.00     0.167 HD
ATOM     62  C   UNL A   1      45.395  30.179  30.271  1.00  0.00     0.074 A 
ATOM     63  C   UNL A   1      46.820  30.356  30.465  1.00  0.00     0.031 C 
ATOM     64  C   UNL A   1      44.472  31.153  30.460  1.00  0.00     0.031 A 
BRANCH  51  65
ATOM     65  C   UNL A   1      38.687  29.443  29.152  1.00  0.00    -0.014 A 
ATOM     66  C   UNL A   1      38.156  29.926  27.944  1.00  0.00     0.009 A 
ATOM     67  C   UNL A   1      37.833  29.292  30.255  1.00  0.00     0.009 A 
ATOM     68  C   UNL A   1      36.810  30.283  27.856  1.00  0.00     0.001 A 
ATOM     69  C   UNL A   1      36.481  29.623  30.156  1.00  0.00     0.001 A 
ATOM     70  C   UNL A   1      35.972  30.127  28.959  1.00  0.00     0.000 A 
ENDBRANCH  51  65
BRANCH  52  71
ATOM     71  C   UNL A   1      48.220  26.511  29.459  1.00  0.00    -0.014 A 
ATOM     72  C   UNL A   1      49.027  26.716  28.329  1.00  0.00     0.009 A 
ATOM     73  C   UNL A   1      48.783  25.907  30.594  1.00  0.00     0.009 A 
ATOM     74  C   UNL A   1      50.361  26.303  28.328  1.00  0.00     0.001 A 
ATOM     75  C   UNL A   1      50.125  25.521  30.600  1.00  0.00     0.001 A 
ATOM     76  C   UNL A   1      50.910  25.711  29.464  1.00  0.00     0.000 A 
ENDBRANCH  52  71
BRANCH  64  77
ATOM     77  C   UNL A   1      44.972  32.495  30.910  1.00  0.00    -0.014 A 
ATOM     78  C   UNL A   1      45.270  33.505  29.981  1.00  0.00     0.009 A 
ATOM     79  C   UNL A   1      45.091  32.773  32.280  1.00  0.00     0.009 A 
ATOM     80  C   UNL A   1      45.700  34.759  30.418  1.00  0.00     0.001 A 
ATOM     81  C   UNL A   1      45.495  34.036  32.714  1.00  0.00     0.001 A 
ATOM     82  C   UNL A   1      45.805  35.025  31.783  1.00  0.00     0.000 A 
ENDBRANCH  64  77
ENDBRANCH  38  39
ENDBRANCH  30  33
ENDBRANCH  28  29
ENDBRANCH  27  28
ENDBRANCH   1  27
TORSDOF 14
ENDMDL
