MODEL 1
REMARK VINA RESULT:     -11.6      0.000      0.000
REMARK SMILES C#Cc1cccc(N(C)S(=O)(=O)c2cc(F)c(F)c(C(=O)NCCCNC(=O)c3ccc(-c4c5nc(c(-c6ccccc6)c6ccc([nH]6)c(-c6ccccc6)c6nc(c(-c7ccccc7)c7ccc4[nH]7)C=C6)C=C5)cc3)c2)c1
REMARK SMILES IDX 23 1 22 2 20 3 21 4 19 6 13 7 14 8 77 9 15 10 16 11 17 12
REMARK SMILES IDX 18 13 10 14 11 15 12 16 8 17 9 18 7 19 3 20 4 21 78 22 5 23
REMARK SMILES IDX 6 24 2 25 1 26 24 27 25 28 26 29 27 30 28 32 29 33 30 34
REMARK SMILES IDX 76 35 31 36 75 37 32 38 33 39 34 40 69 41 35 42 74 43 68 44
REMARK SMILES IDX 70 45 36 46 73 47 67 48 66 49 37 51 59 52 44 53 58 54 45 55
REMARK SMILES IDX 48 56 57 57 71 58 46 59 47 60 56 62 72 63 49 64 38 65 39 66
REMARK SMILES IDX 43 67 40 68 42 69 41 70 60 71 61 72 65 73 62 74 64 75 63 76
REMARK SMILES IDX 50 77 51 78 55 79 52 80 54 81 53 82
REMARK H PARENT 22 5 26 31 70 50 48 61
REMARK Flexibility Score: inf
ROOT
ATOM      1  C   UNL A   1      37.115  21.173  24.569  1.00  0.00     0.118 C 
ENDROOT
BRANCH   1   2
ATOM      2  N   UNL A   1      37.605  22.409  25.126  1.00  0.00    -0.352 N 
ATOM      3  C   UNL A   1      37.016  23.492  25.738  1.00  0.00     0.254 C 
ATOM      4  O   UNL A   1      37.801  24.287  26.253  1.00  0.00    -0.269 OA
ATOM      5  H   UNL A   1      38.582  22.500  25.051  1.00  0.00     0.163 HD
BRANCH   3   6
ATOM      6  C   UNL A   1      35.547  23.793  25.730  1.00  0.00     0.079 A 
ATOM      7  C   UNL A   1      33.623  25.262  25.323  1.00  0.00     0.091 A 
ATOM      8  C   UNL A   1      32.825  24.442  26.123  1.00  0.00     0.064 A 
ATOM      9  C   UNL A   1      34.928  24.837  25.021  1.00  0.00     0.039 A 
ATOM     10  C   UNL A   1      33.369  23.277  26.659  1.00  0.00     0.161 A 
ATOM     11  F   UNL A   1      32.575  22.442  27.344  1.00  0.00    -0.204 F 
ATOM     12  C   UNL A   1      34.720  22.978  26.513  1.00  0.00     0.171 A 
ATOM     13  F   UNL A   1      35.192  21.888  27.138  1.00  0.00    -0.203 F 
BRANCH   7  14
ATOM     14  S   UNL A   1      32.882  26.764  24.623  1.00  0.00     0.264 S 
ATOM     15  O   UNL A   1      33.985  27.456  23.980  1.00  0.00    -0.201 OA
ATOM     16  O   UNL A   1      32.158  27.367  25.719  1.00  0.00    -0.201 OA
BRANCH  14  17
ATOM     17  N   UNL A   1      31.757  26.382  23.356  1.00  0.00    -0.269 N 
ATOM     18  C   UNL A   1      31.776  25.025  22.838  1.00  0.00     0.164 C 
BRANCH  17  19
ATOM     19  C   UNL A   1      30.421  27.017  23.406  1.00  0.00     0.053 A 
ATOM     20  C   UNL A   1      28.839  28.724  22.670  1.00  0.00     0.026 A 
ATOM     21  C   UNL A   1      27.767  28.021  23.219  1.00  0.00     0.017 A 
ATOM     22  C   UNL A   1      30.151  28.221  22.751  1.00  0.00     0.044 A 
ATOM     23  C   UNL A   1      28.004  26.822  23.869  1.00  0.00     0.003 A 
ATOM     24  C   UNL A   1      29.311  26.334  23.961  1.00  0.00     0.027 A 
BRANCH  20  25
ATOM     25  C   UNL A   1      28.587  29.955  21.994  1.00  0.00    -0.070 C 
ATOM     26  C   UNL A   1      28.385  30.990  21.413  1.00  0.00     0.010 C 
ENDBRANCH  20  25
ENDBRANCH  17  19
ENDBRANCH  14  17
ENDBRANCH   7  14
ENDBRANCH   3   6
ENDBRANCH   1   2
BRANCH   1  27
ATOM     27  C   UNL A   1      38.029  19.976  24.783  1.00  0.00     0.042 C 
BRANCH  27  28
ATOM     28  C   UNL A   1      38.901  20.107  26.019  1.00  0.00     0.118 C 
BRANCH  28  29
ATOM     29  N   UNL A   1      40.111  19.291  25.922  1.00  0.00    -0.352 N 
ATOM     30  C   UNL A   1      41.441  19.610  26.002  1.00  0.00     0.251 C 
ATOM     31  H   UNL A   1      39.938  18.334  25.772  1.00  0.00     0.163 HD
ATOM     32  O   UNL A   1      42.273  18.782  25.640  1.00  0.00    -0.269 OA
BRANCH  30  33
ATOM     33  C   UNL A   1      41.883  20.928  26.502  1.00  0.00     0.039 A 
ATOM     34  C   UNL A   1      42.253  21.912  25.580  1.00  0.00     0.014 A 
ATOM     35  C   UNL A   1      41.977  21.190  27.868  1.00  0.00     0.014 A 
ATOM     36  C   UNL A   1      42.661  23.166  26.035  1.00  0.00     0.010 A 
ATOM     37  C   UNL A   1      42.243  22.476  28.315  1.00  0.00     0.010 A 
ATOM     38  C   UNL A   1      42.620  23.469  27.407  1.00  0.00    -0.014 A 
BRANCH  38  39
ATOM     39  C   UNL A   1      43.003  24.811  27.906  1.00  0.00     0.031 A 
ATOM     40  C   UNL A   1      41.949  25.852  28.174  1.00  0.00     0.074 A 
ATOM     41  C   UNL A   1      44.307  25.103  28.083  1.00  0.00     0.049 A 
ATOM     42  N   UNL A   1      42.092  27.074  28.620  1.00  0.00    -0.248 NA
ATOM     43  C   UNL A   1      40.552  25.487  27.876  1.00  0.00     0.031 C 
ATOM     44  C   UNL A   1      45.424  24.196  27.809  1.00  0.00     0.029 A 
ATOM     45  N   UNL A   1      44.911  26.241  28.550  1.00  0.00    -0.354 N 
ATOM     46  C   UNL A   1      40.814  27.619  28.645  1.00  0.00     0.074 A 
ATOM     47  C   UNL A   1      39.917  26.626  28.101  1.00  0.00     0.031 C 
ATOM     48  C   UNL A   1      46.572  24.791  28.167  1.00  0.00     0.029 A 
ATOM     49  C   UNL A   1      46.277  26.138  28.643  1.00  0.00     0.049 A 
ATOM     50  H   UNL A   1      44.413  27.053  28.796  1.00  0.00     0.167 HD
ATOM     51  C   UNL A   1      40.414  28.827  29.108  1.00  0.00     0.031 A 
ATOM     52  C   UNL A   1      47.192  27.031  29.064  1.00  0.00     0.031 A 
ATOM     53  C   UNL A   1      41.310  29.815  29.647  1.00  0.00     0.049 A 
ATOM     54  C   UNL A   1      46.724  28.375  29.544  1.00  0.00     0.074 A 
ATOM     55  C   UNL A   1      41.004  31.051  30.187  1.00  0.00     0.029 A 
ATOM     56  N   UNL A   1      42.689  29.681  29.705  1.00  0.00    -0.354 N 
ATOM     57  N   UNL A   1      45.503  28.845  29.638  1.00  0.00    -0.248 NA
ATOM     58  C   UNL A   1      47.766  29.307  29.995  1.00  0.00     0.031 C 
ATOM     59  C   UNL A   1      42.205  31.696  30.501  1.00  0.00     0.029 A 
ATOM     60  C   UNL A   1      43.252  30.828  30.240  1.00  0.00     0.049 A 
ATOM     61  H   UNL A   1      43.192  28.888  29.411  1.00  0.00     0.167 HD
ATOM     62  C   UNL A   1      45.627  30.115  30.186  1.00  0.00     0.074 A 
ATOM     63  C   UNL A   1      47.039  30.326  30.432  1.00  0.00     0.031 C 
ATOM     64  C   UNL A   1      44.662  31.027  30.463  1.00  0.00     0.031 A 
BRANCH  51  65
ATOM     65  C   UNL A   1      38.945  29.147  29.035  1.00  0.00    -0.014 A 
ATOM     66  C   UNL A   1      38.098  28.969  30.143  1.00  0.00     0.009 A 
ATOM     67  C   UNL A   1      38.401  29.661  27.848  1.00  0.00     0.009 A 
ATOM     68  C   UNL A   1      36.735  29.258  30.049  1.00  0.00     0.001 A 
ATOM     69  C   UNL A   1      37.046  29.986  27.768  1.00  0.00     0.001 A 
ATOM     70  C   UNL A   1      36.211  29.773  28.864  1.00  0.00     0.000 A 
ENDBRANCH  51  65
BRANCH  52  71
ATOM     71  C   UNL A   1      48.638  26.680  29.061  1.00  0.00    -0.014 A 
ATOM     72  C   UNL A   1      49.442  26.966  27.946  1.00  0.00     0.009 A 
ATOM     73  C   UNL A   1      49.217  26.039  30.167  1.00  0.00     0.009 A 
ATOM     74  C   UNL A   1      50.785  26.580  27.926  1.00  0.00     0.001 A 
ATOM     75  C   UNL A   1      50.569  25.691  30.158  1.00  0.00     0.001 A 
ATOM     76  C   UNL A   1      51.348  25.948  29.032  1.00  0.00     0.000 A 
ENDBRANCH  52  71
BRANCH  64  77
ATOM     77  C   UNL A   1      45.105  32.317  31.102  1.00  0.00    -0.014 A 
ATOM     78  C   UNL A   1      45.473  33.432  30.332  1.00  0.00     0.009 A 
ATOM     79  C   UNL A   1      45.149  32.416  32.501  1.00  0.00     0.009 A 
ATOM     80  C   UNL A   1      45.936  34.596  30.950  1.00  0.00     0.001 A 
ATOM     81  C   UNL A   1      45.570  33.594  33.117  1.00  0.00     0.001 A 
ATOM     82  C   UNL A   1      45.981  34.677  32.342  1.00  0.00     0.000 A 
ENDBRANCH  64  77
ENDBRANCH  38  39
ENDBRANCH  30  33
ENDBRANCH  28  29
ENDBRANCH  27  28
ENDBRANCH   1  27
TORSDOF 14
ENDMDL
MODEL 2
REMARK VINA RESULT:     -11.6      0.349      5.831
REMARK SMILES C#Cc1cccc(N(C)S(=O)(=O)c2cc(F)c(F)c(C(=O)NCCCNC(=O)c3ccc(-c4c5nc(c(-c6ccccc6)c6ccc([nH]6)c(-c6ccccc6)c6nc(c(-c7ccccc7)c7ccc4[nH]7)C=C6)C=C5)cc3)c2)c1
REMARK SMILES IDX 23 1 22 2 20 3 21 4 19 6 13 7 14 8 77 9 15 10 16 11 17 12
REMARK SMILES IDX 18 13 10 14 11 15 12 16 8 17 9 18 7 19 3 20 4 21 78 22 5 23
REMARK SMILES IDX 6 24 2 25 1 26 24 27 25 28 26 29 27 30 28 32 29 33 30 34
REMARK SMILES IDX 76 35 31 36 75 37 32 38 33 39 34 40 69 41 35 42 74 43 68 44
REMARK SMILES IDX 70 45 36 46 73 47 67 48 66 49 37 51 59 52 44 53 58 54 45 55
REMARK SMILES IDX 48 56 57 57 71 58 46 59 47 60 56 62 72 63 49 64 38 65 39 66
REMARK SMILES IDX 43 67 40 68 42 69 41 70 60 71 61 72 65 73 62 74 64 75 63 76
REMARK SMILES IDX 50 77 51 78 55 79 52 80 54 81 53 82
REMARK H PARENT 22 5 26 31 70 50 48 61
REMARK Flexibility Score: inf
ROOT
ATOM      1  C   UNL A   1      37.185  21.087  24.599  1.00  0.00     0.118 C 
ENDROOT
BRANCH   1   2
ATOM      2  N   UNL A   1      37.663  22.321  25.175  1.00  0.00    -0.352 N 
ATOM      3  C   UNL A   1      37.062  23.396  25.788  1.00  0.00     0.254 C 
ATOM      4  O   UNL A   1      37.837  24.188  26.322  1.00  0.00    -0.269 OA
ATOM      5  H   UNL A   1      38.641  22.415  25.115  1.00  0.00     0.163 HD
BRANCH   3   6
ATOM      6  C   UNL A   1      35.592  23.691  25.762  1.00  0.00     0.079 A 
ATOM      7  C   UNL A   1      33.668  25.154  25.329  1.00  0.00     0.091 A 
ATOM      8  C   UNL A   1      32.863  24.332  26.121  1.00  0.00     0.064 A 
ATOM      9  C   UNL A   1      34.979  24.733  25.044  1.00  0.00     0.039 A 
ATOM     10  C   UNL A   1      33.404  23.170  26.665  1.00  0.00     0.161 A 
ATOM     11  F   UNL A   1      32.605  22.333  27.341  1.00  0.00    -0.204 F 
ATOM     12  C   UNL A   1      34.758  22.875  26.536  1.00  0.00     0.171 A 
ATOM     13  F   UNL A   1      35.226  21.787  27.168  1.00  0.00    -0.203 F 
BRANCH   7  14
ATOM     14  S   UNL A   1      32.931  26.652  24.618  1.00  0.00     0.264 S 
ATOM     15  O   UNL A   1      34.028  27.318  23.940  1.00  0.00    -0.201 OA
ATOM     16  O   UNL A   1      32.238  27.283  25.719  1.00  0.00    -0.201 OA
BRANCH  14  17
ATOM     17  N   UNL A   1      31.774  26.263  23.383  1.00  0.00    -0.269 N 
ATOM     18  C   UNL A   1      31.765  24.896  22.889  1.00  0.00     0.164 C 
BRANCH  17  19
ATOM     19  C   UNL A   1      30.447  26.914  23.450  1.00  0.00     0.053 A 
ATOM     20  C   UNL A   1      28.879  28.645  22.740  1.00  0.00     0.026 A 
ATOM     21  C   UNL A   1      27.805  27.953  23.298  1.00  0.00     0.017 A 
ATOM     22  C   UNL A   1      30.185  28.125  22.804  1.00  0.00     0.044 A 
ATOM     23  C   UNL A   1      28.033  26.749  23.940  1.00  0.00     0.003 A 
ATOM     24  C   UNL A   1      29.335  26.244  24.016  1.00  0.00     0.027 A 
BRANCH  20  25
ATOM     25  C   UNL A   1      28.635  29.882  22.071  1.00  0.00    -0.070 C 
ATOM     26  C   UNL A   1      28.422  30.930  21.520  1.00  0.00     0.010 C 
ENDBRANCH  20  25
ENDBRANCH  17  19
ENDBRANCH  14  17
ENDBRANCH   7  14
ENDBRANCH   3   6
ENDBRANCH   1   2
BRANCH   1  27
ATOM     27  C   UNL A   1      38.128  19.905  24.764  1.00  0.00     0.042 C 
BRANCH  27  28
ATOM     28  C   UNL A   1      38.979  19.994  26.018  1.00  0.00     0.118 C 
BRANCH  28  29
ATOM     29  N   UNL A   1      40.222  19.234  25.888  1.00  0.00    -0.352 N 
ATOM     30  C   UNL A   1      41.538  19.610  25.953  1.00  0.00     0.251 C 
ATOM     31  H   UNL A   1      40.089  18.273  25.723  1.00  0.00     0.163 HD
ATOM     32  O   UNL A   1      42.400  18.825  25.564  1.00  0.00    -0.269 OA
BRANCH  30  33
ATOM     33  C   UNL A   1      41.929  20.937  26.470  1.00  0.00     0.039 A 
ATOM     34  C   UNL A   1      42.252  21.949  25.561  1.00  0.00     0.014 A 
ATOM     35  C   UNL A   1      42.023  21.182  27.840  1.00  0.00     0.014 A 
ATOM     36  C   UNL A   1      42.611  23.211  26.032  1.00  0.00     0.010 A 
ATOM     37  C   UNL A   1      42.240  22.472  28.303  1.00  0.00     0.010 A 
ATOM     38  C   UNL A   1      42.569  23.493  27.408  1.00  0.00    -0.014 A 
BRANCH  38  39
ATOM     39  C   UNL A   1      42.901  24.842  27.924  1.00  0.00     0.031 A 
ATOM     40  C   UNL A   1      44.336  25.237  28.151  1.00  0.00     0.074 A 
ATOM     41  C   UNL A   1      41.904  25.698  28.223  1.00  0.00     0.049 A 
ATOM     42  N   UNL A   1      44.818  26.373  28.588  1.00  0.00    -0.248 NA
ATOM     43  C   UNL A   1      45.365  24.217  27.881  1.00  0.00     0.031 C 
ATOM     44  C   UNL A   1      40.473  25.412  28.095  1.00  0.00     0.029 A 
ATOM     45  N   UNL A   1      41.945  26.989  28.682  1.00  0.00    -0.354 N 
ATOM     46  C   UNL A   1      46.195  26.198  28.652  1.00  0.00     0.074 A 
ATOM     47  C   UNL A   1      46.468  24.829  28.284  1.00  0.00     0.031 C 
ATOM     48  C   UNL A   1      39.775  26.513  28.412  1.00  0.00     0.029 A 
ATOM     49  C   UNL A   1      40.704  27.562  28.816  1.00  0.00     0.049 A 
ATOM     50  H   UNL A   1      42.782  27.459  28.895  1.00  0.00     0.167 HD
ATOM     51  C   UNL A   1      47.153  27.104  28.961  1.00  0.00     0.031 A 
ATOM     52  C   UNL A   1      40.354  28.796  29.222  1.00  0.00     0.031 A 
ATOM     53  C   UNL A   1      46.878  28.467  29.330  1.00  0.00     0.049 A 
ATOM     54  C   UNL A   1      41.436  29.773  29.588  1.00  0.00     0.074 A 
ATOM     55  C   UNL A   1      47.776  29.480  29.615  1.00  0.00     0.029 A 
ATOM     56  N   UNL A   1      45.608  29.004  29.474  1.00  0.00    -0.354 N 
ATOM     57  N   UNL A   1      42.737  29.617  29.564  1.00  0.00    -0.248 NA
ATOM     58  C   UNL A   1      40.995  31.106  30.018  1.00  0.00     0.031 C 
ATOM     59  C   UNL A   1      47.047  30.608  30.007  1.00  0.00     0.029 A 
ATOM     60  C   UNL A   1      45.697  30.325  29.879  1.00  0.00     0.049 A 
ATOM     61  H   UNL A   1      44.767  28.518  29.311  1.00  0.00     0.167 HD
ATOM     62  C   UNL A   1      43.272  30.840  29.949  1.00  0.00     0.074 A 
ATOM     63  C   UNL A   1      42.152  31.733  30.167  1.00  0.00     0.031 C 
ATOM     64  C   UNL A   1      44.572  31.196  30.107  1.00  0.00     0.031 A 
BRANCH  51  65
ATOM     65  C   UNL A   1      48.585  26.640  28.925  1.00  0.00    -0.014 A 
ATOM     66  C   UNL A   1      49.202  26.074  30.054  1.00  0.00     0.009 A 
ATOM     67  C   UNL A   1      49.322  26.743  27.735  1.00  0.00     0.009 A 
ATOM     68  C   UNL A   1      50.536  25.664  30.003  1.00  0.00     0.001 A 
ATOM     69  C   UNL A   1      50.643  26.297  27.675  1.00  0.00     0.001 A 
ATOM     70  C   UNL A   1      51.254  25.769  28.812  1.00  0.00     0.000 A 
ENDBRANCH  51  65
BRANCH  52  71
ATOM     71  C   UNL A   1      38.919  29.182  29.292  1.00  0.00    -0.014 A 
ATOM     72  C   UNL A   1      38.184  28.998  30.475  1.00  0.00     0.009 A 
ATOM     73  C   UNL A   1      38.270  29.721  28.169  1.00  0.00     0.009 A 
ATOM     74  C   UNL A   1      36.822  29.307  30.516  1.00  0.00     0.001 A 
ATOM     75  C   UNL A   1      36.918  30.065  28.228  1.00  0.00     0.001 A 
ATOM     76  C   UNL A   1      36.192  29.844  29.396  1.00  0.00     0.000 A 
ENDBRANCH  52  71
BRANCH  64  77
ATOM     77  C   UNL A   1      44.845  32.624  30.497  1.00  0.00    -0.014 A 
ATOM     78  C   UNL A   1      44.950  33.014  31.841  1.00  0.00     0.009 A 
ATOM     79  C   UNL A   1      45.006  33.595  29.496  1.00  0.00     0.009 A 
ATOM     80  C   UNL A   1      45.145  34.356  32.175  1.00  0.00     0.001 A 
ATOM     81  C   UNL A   1      45.246  34.928  29.830  1.00  0.00     0.001 A 
ATOM     82  C   UNL A   1      45.296  35.311  31.169  1.00  0.00     0.000 A 
ENDBRANCH  64  77
ENDBRANCH  38  39
ENDBRANCH  30  33
ENDBRANCH  28  29
ENDBRANCH  27  28
ENDBRANCH   1  27
TORSDOF 14
ENDMDL
MODEL 3
REMARK VINA RESULT:     -11.5      3.808      8.988
REMARK SMILES C#Cc1cccc(N(C)S(=O)(=O)c2cc(F)c(F)c(C(=O)NCCCNC(=O)c3ccc(-c4c5nc(c(-c6ccccc6)c6ccc([nH]6)c(-c6ccccc6)c6nc(c(-c7ccccc7)c7ccc4[nH]7)C=C6)C=C5)cc3)c2)c1
REMARK SMILES IDX 23 1 22 2 20 3 21 4 19 6 13 7 14 8 77 9 15 10 16 11 17 12
REMARK SMILES IDX 18 13 10 14 11 15 12 16 8 17 9 18 7 19 3 20 4 21 78 22 5 23
REMARK SMILES IDX 6 24 2 25 1 26 24 27 25 28 26 29 27 30 28 32 29 33 30 34
REMARK SMILES IDX 76 35 31 36 75 37 32 38 33 39 34 40 69 41 35 42 74 43 68 44
REMARK SMILES IDX 70 45 36 46 73 47 67 48 66 49 37 51 59 52 44 53 58 54 45 55
REMARK SMILES IDX 48 56 57 57 71 58 46 59 47 60 56 62 72 63 49 64 38 65 39 66
REMARK SMILES IDX 43 67 40 68 42 69 41 70 60 71 61 72 65 73 62 74 64 75 63 76
REMARK SMILES IDX 50 77 51 78 55 79 52 80 54 81 53 82
REMARK H PARENT 22 5 26 31 70 50 48 61
REMARK Flexibility Score: inf
ROOT
ATOM      1  C   UNL A   1      31.756  30.484  26.860  1.00  0.00     0.118 C 
ENDROOT
BRANCH   1   2
ATOM      2  N   UNL A   1      32.532  30.122  25.699  1.00  0.00    -0.352 N 
ATOM      3  C   UNL A   1      32.411  29.166  24.717  1.00  0.00     0.254 C 
ATOM      4  O   UNL A   1      33.187  29.293  23.772  1.00  0.00    -0.269 OA
ATOM      5  H   UNL A   1      33.329  30.688  25.583  1.00  0.00     0.163 HD
BRANCH   3   6
ATOM      6  C   UNL A   1      31.494  27.981  24.777  1.00  0.00     0.079 A 
ATOM      7  C   UNL A   1      31.008  25.620  25.245  1.00  0.00     0.091 A 
ATOM      8  C   UNL A   1      29.842  25.708  24.481  1.00  0.00     0.064 A 
ATOM      9  C   UNL A   1      31.730  26.799  25.501  1.00  0.00     0.039 A 
ATOM     10  C   UNL A   1      29.476  26.935  23.935  1.00  0.00     0.161 A 
ATOM     11  F   UNL A   1      28.308  27.039  23.287  1.00  0.00    -0.204 F 
ATOM     12  C   UNL A   1      30.310  28.046  24.033  1.00  0.00     0.171 A 
ATOM     13  F   UNL A   1      29.936  29.168  23.399  1.00  0.00    -0.203 F 
BRANCH   7  14
ATOM     14  S   UNL A   1      31.449  24.012  25.960  1.00  0.00     0.264 S 
ATOM     15  O   UNL A   1      30.378  23.120  25.556  1.00  0.00    -0.201 OA
ATOM     16  O   UNL A   1      31.708  24.285  27.356  1.00  0.00    -0.201 OA
BRANCH  14  17
ATOM     17  N   UNL A   1      32.895  23.375  25.240  1.00  0.00    -0.269 N 
ATOM     18  C   UNL A   1      34.135  23.542  25.980  1.00  0.00     0.164 C 
BRANCH  17  19
ATOM     19  C   UNL A   1      32.787  22.114  24.472  1.00  0.00     0.053 A 
ATOM     20  C   UNL A   1      32.608  19.682  24.376  1.00  0.00     0.026 A 
ATOM     21  C   UNL A   1      32.219  19.726  23.038  1.00  0.00     0.017 A 
ATOM     22  C   UNL A   1      32.877  20.864  25.090  1.00  0.00     0.044 A 
ATOM     23  C   UNL A   1      32.117  20.951  22.401  1.00  0.00     0.003 A 
ATOM     24  C   UNL A   1      32.401  22.122  23.110  1.00  0.00     0.027 A 
BRANCH  20  25
ATOM     25  C   UNL A   1      32.703  18.416  25.029  1.00  0.00    -0.070 C 
ATOM     26  C   UNL A   1      32.768  17.351  25.585  1.00  0.00     0.010 C 
ENDBRANCH  20  25
ENDBRANCH  17  19
ENDBRANCH  14  17
ENDBRANCH   7  14
ENDBRANCH   3   6
ENDBRANCH   1   2
BRANCH   1  27
ATOM     27  C   UNL A   1      31.384  31.957  26.940  1.00  0.00     0.042 C 
BRANCH  27  28
ATOM     28  C   UNL A   1      32.581  32.880  26.799  1.00  0.00     0.118 C 
BRANCH  28  29
ATOM     29  N   UNL A   1      32.477  34.046  27.676  1.00  0.00    -0.352 N 
ATOM     30  C   UNL A   1      33.193  34.430  28.780  1.00  0.00     0.251 C 
ATOM     31  H   UNL A   1      31.759  34.671  27.428  1.00  0.00     0.163 HD
ATOM     32  O   UNL A   1      32.750  35.329  29.491  1.00  0.00    -0.269 OA
BRANCH  30  33
ATOM     33  C   UNL A   1      34.471  33.777  29.127  1.00  0.00     0.039 A 
ATOM     34  C   UNL A   1      35.625  34.129  28.419  1.00  0.00     0.014 A 
ATOM     35  C   UNL A   1      34.538  32.791  30.111  1.00  0.00     0.014 A 
ATOM     36  C   UNL A   1      36.842  33.530  28.743  1.00  0.00     0.010 A 
ATOM     37  C   UNL A   1      35.768  32.304  30.528  1.00  0.00     0.010 A 
ATOM     38  C   UNL A   1      36.929  32.641  29.827  1.00  0.00    -0.014 A 
BRANCH  38  39
ATOM     39  C   UNL A   1      38.223  32.032  30.217  1.00  0.00     0.031 A 
ATOM     40  C   UNL A   1      39.120  32.723  31.210  1.00  0.00     0.074 A 
ATOM     41  C   UNL A   1      38.604  30.872  29.648  1.00  0.00     0.049 A 
ATOM     42  N   UNL A   1      40.280  32.339  31.678  1.00  0.00    -0.248 NA
ATOM     43  C   UNL A   1      38.672  34.029  31.726  1.00  0.00     0.031 C 
ATOM     44  C   UNL A   1      37.846  30.134  28.635  1.00  0.00     0.029 A 
ATOM     45  N   UNL A   1      39.721  30.104  29.851  1.00  0.00    -0.354 N 
ATOM     46  C   UNL A   1      40.699  33.355  32.528  1.00  0.00     0.074 A 
ATOM     47  C   UNL A   1      39.710  34.405  32.456  1.00  0.00     0.031 C 
ATOM     48  C   UNL A   1      38.491  28.993  28.349  1.00  0.00     0.029 A 
ATOM     49  C   UNL A   1      39.731  28.945  29.115  1.00  0.00     0.049 A 
ATOM     50  H   UNL A   1      40.446  30.358  30.466  1.00  0.00     0.167 HD
ATOM     51  C   UNL A   1      41.794  33.400  33.323  1.00  0.00     0.031 A 
ATOM     52  C   UNL A   1      40.640  27.954  29.061  1.00  0.00     0.031 A 
ATOM     53  C   UNL A   1      42.779  32.355  33.390  1.00  0.00     0.049 A 
ATOM     54  C   UNL A   1      41.862  28.044  29.931  1.00  0.00     0.074 A 
ATOM     55  C   UNL A   1      43.901  32.279  34.196  1.00  0.00     0.029 A 
ATOM     56  N   UNL A   1      42.764  31.206  32.613  1.00  0.00    -0.354 N 
ATOM     57  N   UNL A   1      42.202  28.974  30.790  1.00  0.00    -0.248 NA
ATOM     58  C   UNL A   1      42.816  26.932  29.834  1.00  0.00     0.031 C 
ATOM     59  C   UNL A   1      44.606  31.120  33.851  1.00  0.00     0.029 A 
ATOM     60  C   UNL A   1      43.877  30.431  32.896  1.00  0.00     0.049 A 
ATOM     61  H   UNL A   1      42.066  30.975  31.959  1.00  0.00     0.167 HD
ATOM     62  C   UNL A   1      43.395  28.545  31.358  1.00  0.00     0.074 A 
ATOM     63  C   UNL A   1      43.699  27.258  30.767  1.00  0.00     0.031 C 
ATOM     64  C   UNL A   1      44.172  29.159  32.286  1.00  0.00     0.031 A 
BRANCH  51  65
ATOM     65  C   UNL A   1      41.987  34.631  34.170  1.00  0.00    -0.014 A 
ATOM     66  C   UNL A   1      41.505  34.697  35.489  1.00  0.00     0.009 A 
ATOM     67  C   UNL A   1      42.687  35.731  33.652  1.00  0.00     0.009 A 
ATOM     68  C   UNL A   1      41.682  35.854  36.251  1.00  0.00     0.001 A 
ATOM     69  C   UNL A   1      42.896  36.871  34.429  1.00  0.00     0.001 A 
ATOM     70  C   UNL A   1      42.383  36.937  35.724  1.00  0.00     0.000 A 
ENDBRANCH  51  65
BRANCH  52  71
ATOM     71  C   UNL A   1      40.424  26.788  28.162  1.00  0.00    -0.014 A 
ATOM     72  C   UNL A   1      40.935  26.787  26.854  1.00  0.00     0.009 A 
ATOM     73  C   UNL A   1      39.689  25.676  28.602  1.00  0.00     0.009 A 
ATOM     74  C   UNL A   1      40.679  25.715  25.996  1.00  0.00     0.001 A 
ATOM     75  C   UNL A   1      39.469  24.590  27.753  1.00  0.00     0.001 A 
ATOM     76  C   UNL A   1      39.951  24.617  26.447  1.00  0.00     0.000 A 
ENDBRANCH  52  71
BRANCH  64  77
ATOM     77  C   UNL A   1      45.401  28.419  32.744  1.00  0.00    -0.014 A 
ATOM     78  C   UNL A   1      46.645  28.601  32.120  1.00  0.00     0.009 A 
ATOM     79  C   UNL A   1      45.309  27.529  33.825  1.00  0.00     0.009 A 
ATOM     80  C   UNL A   1      47.755  27.857  32.527  1.00  0.00     0.001 A 
ATOM     81  C   UNL A   1      46.429  26.820  34.259  1.00  0.00     0.001 A 
ATOM     82  C   UNL A   1      47.647  26.971  33.598  1.00  0.00     0.000 A 
ENDBRANCH  64  77
ENDBRANCH  38  39
ENDBRANCH  30  33
ENDBRANCH  28  29
ENDBRANCH  27  28
ENDBRANCH   1  27
TORSDOF 14
ENDMDL
