MODEL 1
REMARK VINA RESULT:     -12.1      0.000      0.000
REMARK SMILES C[C@H]1[C@@H](C(=O)NCCCNC(=O)c2ccc(-c3c4nc(c(-c5ccccc5)c5ccc([nH]5)c(-c5ccccc5)c5nc(c(-c6ccccc6)c6ccc3[nH]6)C=C5)C=C4)cc2)CCN1C(=O)N[C@@H]1CC[N@H+]2CCCC[C@H]12
REMARK SMILES IDX 8 1 7 2 6 3 4 4 5 5 3 7 1 8 2 9 63 10 61 11 62 12 64 13
REMARK SMILES IDX 65 14 66 15 67 17 68 18 75 19 69 20 70 21 74 22 71 23 73 25
REMARK SMILES IDX 72 26 9 27 10 28 11 29 12 31 13 32 14 33 60 34 15 35 59 36
REMARK SMILES IDX 16 37 17 38 18 39 53 40 19 41 58 42 52 43 54 44 20 45 57 46
REMARK SMILES IDX 51 47 50 48 21 50 43 51 28 52 42 53 29 54 32 55 41 56 55 57
REMARK SMILES IDX 30 58 31 59 40 61 56 62 33 63 22 64 23 65 27 66 24 67 26 68
REMARK SMILES IDX 25 69 44 70 45 71 49 72 46 73 48 74 47 75 34 76 35 77 39 78
REMARK SMILES IDX 36 79 38 80 37 81
REMARK H PARENT 6 6 66 16 70 24 10 30 54 49 32 60
REMARK Flexibility Score: inf
ROOT
ATOM      1  C   UNL A   1      37.786  19.646  24.998  1.00  0.00     0.042 C 
ENDROOT
BRANCH   1   2
ATOM      2  C   UNL A   1      36.548  20.534  24.977  1.00  0.00     0.117 C 
BRANCH   2   3
ATOM      3  N   UNL A   1      35.318  19.769  25.050  1.00  0.00    -0.356 N 
ATOM      4  C   UNL A   1      34.022  20.168  24.923  1.00  0.00     0.225 C 
ATOM      5  O   UNL A   1      33.176  19.280  24.862  1.00  0.00    -0.275 OA
ATOM      6  H   UNL A   1      35.440  18.807  25.217  1.00  0.00     0.163 HD
BRANCH   4   7
ATOM      7  C   UNL A   1      33.717  21.652  24.782  1.00  0.00     0.102 C 
ATOM      8  C   UNL A   1      33.662  21.758  27.385  1.00  0.00     0.032 C 
ATOM      9  C   UNL A   1      33.451  22.483  26.063  1.00  0.00     0.096 C 
ATOM     10  N   UNL A   1      32.089  22.997  25.936  1.00  0.00    -0.321 N 
ATOM     11  C   UNL A   1      32.455  21.831  23.930  1.00  0.00     0.037 C 
ATOM     12  C   UNL A   1      31.382  22.224  24.930  1.00  0.00     0.122 C 
BRANCH  10  13
ATOM     13  C   UNL A   1      31.409  23.946  26.638  1.00  0.00     0.318 C 
ATOM     14  O   UNL A   1      30.503  23.632  27.417  1.00  0.00    -0.249 OA
ATOM     15  N   UNL A   1      31.652  25.267  26.538  1.00  0.00    -0.329 N 
ATOM     16  H   UNL A   1      31.139  25.777  27.206  1.00  0.00     0.165 HD
BRANCH  15  17
ATOM     17  C   UNL A   1      32.470  26.148  25.708  1.00  0.00     0.147 C 
ATOM     18  C   UNL A   1      33.147  27.252  26.543  1.00  0.00     0.092 C 
ATOM     19  C   UNL A   1      31.688  26.948  24.641  1.00  0.00     0.207 C 
ATOM     20  C   UNL A   1      32.837  28.566  25.840  1.00  0.00     0.264 C 
ATOM     21  N   UNL A   1      31.545  28.288  25.230  1.00  0.00    -0.331 N 
ATOM     22  C   UNL A   1      30.322  26.448  24.188  1.00  0.00     0.067 C 
ATOM     23  C   UNL A   1      31.145  29.267  24.224  1.00  0.00     0.262 C 
ATOM     24  H   UNL A   1      30.805  28.341  25.930  1.00  0.00     0.348 HD
ATOM     25  C   UNL A   1      29.764  27.416  23.137  1.00  0.00     0.012 C 
ATOM     26  C   UNL A   1      29.788  28.867  23.632  1.00  0.00     0.062 C 
ENDBRANCH  15  17
ENDBRANCH  10  13
ENDBRANCH   4   7
ENDBRANCH   2   3
ENDBRANCH   1   2
BRANCH   1  27
ATOM     27  C   UNL A   1      38.979  20.241  25.746  1.00  0.00     0.118 C 
BRANCH  27  28
ATOM     28  N   UNL A   1      40.124  19.343  25.799  1.00  0.00    -0.352 N 
ATOM     29  C   UNL A   1      41.436  19.585  26.108  1.00  0.00     0.251 C 
ATOM     30  H   UNL A   1      39.921  18.404  25.577  1.00  0.00     0.163 HD
ATOM     31  O   UNL A   1      42.275  18.704  25.922  1.00  0.00    -0.269 OA
BRANCH  29  32
ATOM     32  C   UNL A   1      41.857  20.896  26.640  1.00  0.00     0.039 A 
ATOM     33  C   UNL A   1      42.299  21.872  25.743  1.00  0.00     0.014 A 
ATOM     34  C   UNL A   1      41.846  21.161  28.012  1.00  0.00     0.014 A 
ATOM     35  C   UNL A   1      42.664  23.133  26.215  1.00  0.00     0.010 A 
ATOM     36  C   UNL A   1      42.129  22.444  28.473  1.00  0.00     0.010 A 
ATOM     37  C   UNL A   1      42.544  23.442  27.580  1.00  0.00    -0.014 A 
BRANCH  37  38
ATOM     38  C   UNL A   1      42.836  24.811  28.077  1.00  0.00     0.031 A 
ATOM     39  C   UNL A   1      44.238  25.211  28.440  1.00  0.00     0.074 A 
ATOM     40  C   UNL A   1      41.822  25.681  28.245  1.00  0.00     0.049 A 
ATOM     41  N   UNL A   1      44.675  26.355  28.903  1.00  0.00    -0.248 NA
ATOM     42  C   UNL A   1      45.284  24.188  28.285  1.00  0.00     0.031 C 
ATOM     43  C   UNL A   1      40.409  25.400  27.975  1.00  0.00     0.029 A 
ATOM     44  N   UNL A   1      41.822  26.982  28.683  1.00  0.00    -0.354 N 
ATOM     45  C   UNL A   1      46.040  26.187  29.100  1.00  0.00     0.074 A 
ATOM     46  C   UNL A   1      46.348  24.814  28.765  1.00  0.00     0.031 C 
ATOM     47  C   UNL A   1      39.687  26.504  28.220  1.00  0.00     0.029 A 
ATOM     48  C   UNL A   1      40.575  27.556  28.705  1.00  0.00     0.049 A 
ATOM     49  H   UNL A   1      42.640  27.458  28.956  1.00  0.00     0.167 HD
ATOM     50  C   UNL A   1      46.959  27.099  29.501  1.00  0.00     0.031 A 
ATOM     51  C   UNL A   1      40.185  28.789  29.076  1.00  0.00     0.031 A 
ATOM     52  C   UNL A   1      46.651  28.463  29.840  1.00  0.00     0.049 A 
ATOM     53  C   UNL A   1      41.221  29.776  29.536  1.00  0.00     0.074 A 
ATOM     54  C   UNL A   1      47.517  29.476  30.213  1.00  0.00     0.029 A 
ATOM     55  N   UNL A   1      45.375  29.006  29.851  1.00  0.00    -0.354 N 
ATOM     56  N   UNL A   1      42.517  29.622  29.649  1.00  0.00    -0.248 NA
ATOM     57  C   UNL A   1      40.737  31.113  29.907  1.00  0.00     0.031 C 
ATOM     58  C   UNL A   1      46.759  30.613  30.509  1.00  0.00     0.029 A 
ATOM     59  C   UNL A   1      45.427  30.330  30.252  1.00  0.00     0.049 A 
ATOM     60  H   UNL A   1      44.553  28.521  29.609  1.00  0.00     0.167 HD
ATOM     61  C   UNL A   1      43.009  30.847  30.080  1.00  0.00     0.074 A 
ATOM     62  C   UNL A   1      41.873  31.740  30.183  1.00  0.00     0.031 C 
ATOM     63  C   UNL A   1      44.286  31.203  30.364  1.00  0.00     0.031 A 
BRANCH  50  64
ATOM     64  C   UNL A   1      48.388  26.639  29.601  1.00  0.00    -0.014 A 
ATOM     65  C   UNL A   1      49.283  26.797  28.530  1.00  0.00     0.009 A 
ATOM     66  C   UNL A   1      48.857  26.065  30.793  1.00  0.00     0.009 A 
ATOM     67  C   UNL A   1      50.602  26.353  28.634  1.00  0.00     0.001 A 
ATOM     68  C   UNL A   1      50.187  25.652  30.907  1.00  0.00     0.001 A 
ATOM     69  C   UNL A   1      51.054  25.786  29.824  1.00  0.00     0.000 A 
ENDBRANCH  50  64
BRANCH  51  70
ATOM     70  C   UNL A   1      38.748  29.163  29.018  1.00  0.00    -0.014 A 
ATOM     71  C   UNL A   1      38.186  29.669  27.835  1.00  0.00     0.009 A 
ATOM     72  C   UNL A   1      37.928  29.019  30.149  1.00  0.00     0.009 A 
ATOM     73  C   UNL A   1      36.843  30.048  27.795  1.00  0.00     0.001 A 
ATOM     74  C   UNL A   1      36.578  29.368  30.096  1.00  0.00     0.001 A 
ATOM     75  C   UNL A   1      36.038  29.893  28.923  1.00  0.00     0.000 A 
ENDBRANCH  51  70
BRANCH  63  76
ATOM     76  C   UNL A   1      44.521  32.627  30.789  1.00  0.00    -0.014 A 
ATOM     77  C   UNL A   1      44.715  33.650  29.848  1.00  0.00     0.009 A 
ATOM     78  C   UNL A   1      44.527  32.952  32.155  1.00  0.00     0.009 A 
ATOM     79  C   UNL A   1      44.955  34.960  30.268  1.00  0.00     0.001 A 
ATOM     80  C   UNL A   1      44.732  34.267  32.571  1.00  0.00     0.001 A 
ATOM     81  C   UNL A   1      44.959  35.268  31.628  1.00  0.00     0.000 A 
ENDBRANCH  63  76
ENDBRANCH  37  38
ENDBRANCH  29  32
ENDBRANCH  27  28
ENDBRANCH   1  27
TORSDOF 12
ENDMDL
MODEL 2
REMARK VINA RESULT:     -12.1      3.511      9.149
REMARK SMILES C[C@H]1[C@@H](C(=O)NCCCNC(=O)c2ccc(-c3c4nc(c(-c5ccccc5)c5ccc([nH]5)c(-c5ccccc5)c5nc(c(-c6ccccc6)c6ccc3[nH]6)C=C5)C=C4)cc2)CCN1C(=O)N[C@@H]1CC[N@H+]2CCCC[C@H]12
REMARK SMILES IDX 8 1 7 2 6 3 4 4 5 5 3 7 1 8 2 9 63 10 61 11 62 12 64 13
REMARK SMILES IDX 65 14 66 15 67 17 68 18 75 19 69 20 70 21 74 22 71 23 73 25
REMARK SMILES IDX 72 26 9 27 10 28 11 29 12 31 13 32 14 33 60 34 15 35 59 36
REMARK SMILES IDX 16 37 17 38 18 39 53 40 19 41 58 42 52 43 54 44 20 45 57 46
REMARK SMILES IDX 51 47 50 48 21 50 43 51 28 52 42 53 29 54 32 55 41 56 55 57
REMARK SMILES IDX 30 58 31 59 40 61 56 62 33 63 22 64 23 65 27 66 24 67 26 68
REMARK SMILES IDX 25 69 44 70 45 71 49 72 46 73 48 74 47 75 34 76 35 77 39 78
REMARK SMILES IDX 36 79 38 80 37 81
REMARK H PARENT 6 6 66 16 70 24 10 30 54 49 32 60
REMARK Flexibility Score: inf
ROOT
ATOM      1  C   UNL A   1      31.374  31.993  26.512  1.00  0.00     0.042 C 
ENDROOT
BRANCH   1   2
ATOM      2  C   UNL A   1      31.525  30.617  25.875  1.00  0.00     0.117 C 
BRANCH   2   3
ATOM      3  N   UNL A   1      30.797  30.505  24.625  1.00  0.00    -0.356 N 
ATOM      4  C   UNL A   1      30.521  29.412  23.860  1.00  0.00     0.225 C 
ATOM      5  O   UNL A   1      29.738  29.576  22.928  1.00  0.00    -0.275 OA
ATOM      6  H   UNL A   1      30.447  31.355  24.273  1.00  0.00     0.163 HD
BRANCH   4   7
ATOM      7  C   UNL A   1      31.117  28.067  24.250  1.00  0.00     0.102 C 
ATOM      8  C   UNL A   1      33.266  28.793  22.965  1.00  0.00     0.032 C 
ATOM      9  C   UNL A   1      32.527  27.698  23.724  1.00  0.00     0.096 C 
ATOM     10  N   UNL A   1      32.354  26.495  22.912  1.00  0.00    -0.321 N 
ATOM     11  C   UNL A   1      30.205  26.943  23.748  1.00  0.00     0.037 C 
ATOM     12  C   UNL A   1      30.951  26.359  22.562  1.00  0.00     0.122 C 
BRANCH  10  13
ATOM     13  C   UNL A   1      33.254  25.616  22.391  1.00  0.00     0.318 C 
ATOM     14  O   UNL A   1      33.492  25.594  21.178  1.00  0.00    -0.249 OA
ATOM     15  N   UNL A   1      33.932  24.715  23.128  1.00  0.00    -0.329 N 
ATOM     16  H   UNL A   1      34.615  24.252  22.591  1.00  0.00     0.165 HD
BRANCH  15  17
ATOM     17  C   UNL A   1      33.930  24.240  24.510  1.00  0.00     0.147 C 
ATOM     18  C   UNL A   1      35.342  24.275  25.128  1.00  0.00     0.092 C 
ATOM     19  C   UNL A   1      33.509  22.763  24.689  1.00  0.00     0.207 C 
ATOM     20  C   UNL A   1      35.576  22.898  25.730  1.00  0.00     0.264 C 
ATOM     21  N   UNL A   1      34.782  22.045  24.859  1.00  0.00    -0.331 N 
ATOM     22  C   UNL A   1      32.690  22.085  23.599  1.00  0.00     0.067 C 
ATOM     23  C   UNL A   1      34.563  20.703  25.389  1.00  0.00     0.262 C 
ATOM     24  H   UNL A   1      35.271  21.883  23.980  1.00  0.00     0.348 HD
ATOM     25  C   UNL A   1      32.411  20.636  24.017  1.00  0.00     0.012 C 
ATOM     26  C   UNL A   1      33.698  19.900  24.408  1.00  0.00     0.062 C 
ENDBRANCH  15  17
ENDBRANCH  10  13
ENDBRANCH   4   7
ENDBRANCH   2   3
ENDBRANCH   1   2
BRANCH   1  27
ATOM     27  C   UNL A   1      32.636  32.514  27.198  1.00  0.00     0.118 C 
BRANCH  27  28
ATOM     28  N   UNL A   1      32.484  33.864  27.723  1.00  0.00    -0.352 N 
ATOM     29  C   UNL A   1      33.232  34.555  28.639  1.00  0.00     0.251 C 
ATOM     30  H   UNL A   1      31.716  34.362  27.359  1.00  0.00     0.163 HD
ATOM     31  O   UNL A   1      32.818  35.632  29.069  1.00  0.00    -0.269 OA
BRANCH  29  32
ATOM     32  C   UNL A   1      34.513  34.014  29.133  1.00  0.00     0.039 A 
ATOM     33  C   UNL A   1      34.497  33.159  30.238  1.00  0.00     0.014 A 
ATOM     34  C   UNL A   1      35.727  34.362  28.535  1.00  0.00     0.014 A 
ATOM     35  C   UNL A   1      35.690  32.602  30.699  1.00  0.00     0.010 A 
ATOM     36  C   UNL A   1      36.904  33.740  28.942  1.00  0.00     0.010 A 
ATOM     37  C   UNL A   1      36.898  32.855  30.030  1.00  0.00    -0.014 A 
BRANCH  37  38
ATOM     38  C   UNL A   1      38.156  32.189  30.453  1.00  0.00     0.031 A 
ATOM     39  C   UNL A   1      39.052  32.824  31.478  1.00  0.00     0.074 A 
ATOM     40  C   UNL A   1      38.512  31.025  29.875  1.00  0.00     0.049 A 
ATOM     41  N   UNL A   1      40.193  32.394  31.956  1.00  0.00    -0.248 NA
ATOM     42  C   UNL A   1      38.626  34.124  32.022  1.00  0.00     0.031 C 
ATOM     43  C   UNL A   1      37.753  30.329  28.833  1.00  0.00     0.029 A 
ATOM     44  N   UNL A   1      39.604  30.221  30.082  1.00  0.00    -0.354 N 
ATOM     45  C   UNL A   1      40.622  33.369  32.847  1.00  0.00     0.074 A 
ATOM     46  C   UNL A   1      39.651  34.440  32.799  1.00  0.00     0.031 C 
ATOM     47  C   UNL A   1      38.384  29.187  28.518  1.00  0.00     0.029 A 
ATOM     48  C   UNL A   1      39.611  29.091  29.301  1.00  0.00     0.049 A 
ATOM     49  H   UNL A   1      40.316  30.434  30.729  1.00  0.00     0.167 HD
ATOM     50  C   UNL A   1      41.712  33.364  33.652  1.00  0.00     0.031 A 
ATOM     51  C   UNL A   1      40.507  28.089  29.219  1.00  0.00     0.031 A 
ATOM     52  C   UNL A   1      42.681  32.301  33.695  1.00  0.00     0.049 A 
ATOM     53  C   UNL A   1      41.719  28.117  30.108  1.00  0.00     0.074 A 
ATOM     54  C   UNL A   1      43.795  32.181  34.508  1.00  0.00     0.029 A 
ATOM     55  N   UNL A   1      42.654  31.174  32.888  1.00  0.00    -0.354 N 
ATOM     56  N   UNL A   1      42.072  29.012  30.997  1.00  0.00    -0.248 NA
ATOM     57  C   UNL A   1      42.647  26.985  29.989  1.00  0.00     0.031 C 
ATOM     58  C   UNL A   1      44.475  31.012  34.149  1.00  0.00     0.029 A 
ATOM     59  C   UNL A   1      43.747  30.368  33.162  1.00  0.00     0.049 A 
ATOM     60  H   UNL A   1      41.961  30.976  32.217  1.00  0.00     0.167 HD
ATOM     61  C   UNL A   1      43.251  28.542  31.561  1.00  0.00     0.074 A 
ATOM     62  C   UNL A   1      43.536  27.269  30.931  1.00  0.00     0.031 C 
ATOM     63  C   UNL A   1      44.027  29.111  32.517  1.00  0.00     0.031 A 
BRANCH  50  64
ATOM     64  C   UNL A   1      41.915  34.557  34.546  1.00  0.00    -0.014 A 
ATOM     65  C   UNL A   1      41.408  34.581  35.856  1.00  0.00     0.009 A 
ATOM     66  C   UNL A   1      42.648  35.662  34.085  1.00  0.00     0.009 A 
ATOM     67  C   UNL A   1      41.593  35.702  36.669  1.00  0.00     0.001 A 
ATOM     68  C   UNL A   1      42.860  36.768  34.912  1.00  0.00     0.001 A 
ATOM     69  C   UNL A   1      42.323  36.791  36.198  1.00  0.00     0.000 A 
ENDBRANCH  50  64
BRANCH  51  70
ATOM     70  C   UNL A   1      40.284  26.970  28.267  1.00  0.00    -0.014 A 
ATOM     71  C   UNL A   1      39.534  25.846  28.645  1.00  0.00     0.009 A 
ATOM     72  C   UNL A   1      40.825  27.019  26.972  1.00  0.00     0.009 A 
ATOM     73  C   UNL A   1      39.354  24.783  27.758  1.00  0.00     0.001 A 
ATOM     74  C   UNL A   1      40.615  25.970  26.076  1.00  0.00     0.001 A 
ATOM     75  C   UNL A   1      39.890  24.848  26.472  1.00  0.00     0.000 A 
ENDBRANCH  51  70
BRANCH  63  76
ATOM     76  C   UNL A   1      45.245  28.344  32.953  1.00  0.00    -0.014 A 
ATOM     77  C   UNL A   1      45.186  27.405  33.994  1.00  0.00     0.009 A 
ATOM     78  C   UNL A   1      46.468  28.553  32.296  1.00  0.00     0.009 A 
ATOM     79  C   UNL A   1      46.337  26.724  34.398  1.00  0.00     0.001 A 
ATOM     80  C   UNL A   1      47.608  27.846  32.678  1.00  0.00     0.001 A 
ATOM     81  C   UNL A   1      47.544  26.941  33.737  1.00  0.00     0.000 A 
ENDBRANCH  63  76
ENDBRANCH  37  38
ENDBRANCH  29  32
ENDBRANCH  27  28
ENDBRANCH   1  27
TORSDOF 12
ENDMDL
MODEL 3
REMARK VINA RESULT:     -12.1      1.466      6.035
REMARK SMILES C[C@H]1[C@@H](C(=O)NCCCNC(=O)c2ccc(-c3c4nc(c(-c5ccccc5)c5ccc([nH]5)c(-c5ccccc5)c5nc(c(-c6ccccc6)c6ccc3[nH]6)C=C5)C=C4)cc2)CCN1C(=O)N[C@@H]1CC[N@H+]2CCCC[C@H]12
REMARK SMILES IDX 8 1 7 2 6 3 4 4 5 5 3 7 1 8 2 9 63 10 61 11 62 12 64 13
REMARK SMILES IDX 65 14 66 15 67 17 68 18 75 19 69 20 70 21 74 22 71 23 73 25
REMARK SMILES IDX 72 26 9 27 10 28 11 29 12 31 13 32 14 33 60 34 15 35 59 36
REMARK SMILES IDX 16 37 17 38 18 39 53 40 19 41 58 42 52 43 54 44 20 45 57 46
REMARK SMILES IDX 51 47 50 48 21 50 43 51 28 52 42 53 29 54 32 55 41 56 55 57
REMARK SMILES IDX 30 58 31 59 40 61 56 62 33 63 22 64 23 65 27 66 24 67 26 68
REMARK SMILES IDX 25 69 44 70 45 71 49 72 46 73 48 74 47 75 34 76 35 77 39 78
REMARK SMILES IDX 36 79 38 80 37 81
REMARK H PARENT 6 6 66 16 70 24 10 30 54 49 32 60
REMARK Flexibility Score: inf
ROOT
ATOM      1  C   UNL A   1      37.982  19.604  24.967  1.00  0.00     0.042 C 
ENDROOT
BRANCH   1   2
ATOM      2  C   UNL A   1      36.780  20.541  25.002  1.00  0.00     0.117 C 
BRANCH   2   3
ATOM      3  N   UNL A   1      35.519  19.823  25.001  1.00  0.00    -0.356 N 
ATOM      4  C   UNL A   1      34.245  20.279  24.854  1.00  0.00     0.225 C 
ATOM      5  O   UNL A   1      33.367  19.429  24.725  1.00  0.00    -0.275 OA
ATOM      6  H   UNL A   1      35.599  18.850  25.127  1.00  0.00     0.163 HD
BRANCH   4   7
ATOM      7  C   UNL A   1      34.001  21.779  24.773  1.00  0.00     0.102 C 
ATOM      8  C   UNL A   1      33.660  21.732  27.356  1.00  0.00     0.032 C 
ATOM      9  C   UNL A   1      33.619  22.541  26.067  1.00  0.00     0.096 C 
ATOM     10  N   UNL A   1      32.295  23.112  25.824  1.00  0.00    -0.321 N 
ATOM     11  C   UNL A   1      32.849  22.054  23.801  1.00  0.00     0.037 C 
ATOM     12  C   UNL A   1      31.683  22.425  24.700  1.00  0.00     0.122 C 
BRANCH  10  13
ATOM     13  C   UNL A   1      31.570  24.041  26.505  1.00  0.00     0.318 C 
ATOM     14  O   UNL A   1      30.652  23.702  27.260  1.00  0.00    -0.249 OA
ATOM     15  N   UNL A   1      31.777  25.369  26.409  1.00  0.00    -0.329 N 
ATOM     16  H   UNL A   1      31.233  25.865  27.062  1.00  0.00     0.165 HD
BRANCH  15  17
ATOM     17  C   UNL A   1      32.592  26.271  25.600  1.00  0.00     0.147 C 
ATOM     18  C   UNL A   1      33.234  27.382  26.455  1.00  0.00     0.092 C 
ATOM     19  C   UNL A   1      31.813  27.065  24.527  1.00  0.00     0.207 C 
ATOM     20  C   UNL A   1      32.911  28.695  25.757  1.00  0.00     0.264 C 
ATOM     21  N   UNL A   1      31.635  28.398  25.124  1.00  0.00    -0.331 N 
ATOM     22  C   UNL A   1      30.464  26.544  24.047  1.00  0.00     0.067 C 
ATOM     23  C   UNL A   1      31.233  29.377  24.119  1.00  0.00     0.262 C 
ATOM     24  H   UNL A   1      30.883  28.431  25.811  1.00  0.00     0.348 HD
ATOM     25  C   UNL A   1      29.905  27.509  22.995  1.00  0.00     0.012 C 
ATOM     26  C   UNL A   1      29.894  28.957  23.502  1.00  0.00     0.062 C 
ENDBRANCH  15  17
ENDBRANCH  10  13
ENDBRANCH   4   7
ENDBRANCH   2   3
ENDBRANCH   1   2
BRANCH   1  27
ATOM     27  C   UNL A   1      39.196  20.103  25.749  1.00  0.00     0.118 C 
BRANCH  27  28
ATOM     28  N   UNL A   1      40.237  19.095  25.890  1.00  0.00    -0.352 N 
ATOM     29  C   UNL A   1      41.582  19.225  26.110  1.00  0.00     0.251 C 
ATOM     30  H   UNL A   1      39.921  18.165  25.815  1.00  0.00     0.163 HD
ATOM     31  O   UNL A   1      42.309  18.235  26.022  1.00  0.00    -0.269 OA
BRANCH  29  32
ATOM     32  C   UNL A   1      42.173  20.540  26.428  1.00  0.00     0.039 A 
ATOM     33  C   UNL A   1      42.654  21.329  25.379  1.00  0.00     0.014 A 
ATOM     34  C   UNL A   1      42.279  20.989  27.747  1.00  0.00     0.014 A 
ATOM     35  C   UNL A   1      43.180  22.593  25.649  1.00  0.00     0.010 A 
ATOM     36  C   UNL A   1      42.725  22.282  28.006  1.00  0.00     0.010 A 
ATOM     37  C   UNL A   1      43.182  23.097  26.960  1.00  0.00    -0.014 A 
BRANCH  37  38
ATOM     38  C   UNL A   1      43.648  24.478  27.242  1.00  0.00     0.031 A 
ATOM     39  C   UNL A   1      42.678  25.540  27.676  1.00  0.00     0.074 A 
ATOM     40  C   UNL A   1      44.947  24.785  27.062  1.00  0.00     0.049 A 
ATOM     41  N   UNL A   1      42.903  26.801  27.951  1.00  0.00    -0.248 NA
ATOM     42  C   UNL A   1      41.265  25.144  27.794  1.00  0.00     0.031 C 
ATOM     43  C   UNL A   1      45.981  23.857  26.598  1.00  0.00     0.029 A 
ATOM     44  N   UNL A   1      45.621  25.966  27.247  1.00  0.00    -0.354 N 
ATOM     45  C   UNL A   1      41.666  27.346  28.267  1.00  0.00     0.074 A 
ATOM     46  C   UNL A   1      40.685  26.298  28.091  1.00  0.00     0.031 C 
ATOM     47  C   UNL A   1      47.163  24.494  26.570  1.00  0.00     0.029 A 
ATOM     48  C   UNL A   1      46.964  25.883  26.969  1.00  0.00     0.049 A 
ATOM     49  H   UNL A   1      45.184  26.794  27.551  1.00  0.00     0.167 HD
ATOM     50  C   UNL A   1      41.373  28.600  28.689  1.00  0.00     0.031 A 
ATOM     51  C   UNL A   1      47.929  26.819  27.024  1.00  0.00     0.031 A 
ATOM     52  C   UNL A   1      42.348  29.645  28.859  1.00  0.00     0.049 A 
ATOM     53  C   UNL A   1      47.575  28.208  27.476  1.00  0.00     0.074 A 
ATOM     54  C   UNL A   1      42.158  30.935  29.324  1.00  0.00     0.029 A 
ATOM     55  N   UNL A   1      43.697  29.522  28.564  1.00  0.00    -0.354 N 
ATOM     56  N   UNL A   1      46.411  28.689  27.840  1.00  0.00    -0.248 NA
ATOM     57  C   UNL A   1      48.675  29.180  27.538  1.00  0.00     0.031 C 
ATOM     58  C   UNL A   1      43.381  31.610  29.253  1.00  0.00     0.029 A 
ATOM     59  C   UNL A   1      44.347  30.720  28.811  1.00  0.00     0.049 A 
ATOM     60  H   UNL A   1      44.130  28.703  28.229  1.00  0.00     0.167 HD
ATOM     61  C   UNL A   1      46.641  30.011  28.197  1.00  0.00     0.074 A 
ATOM     62  C   UNL A   1      48.061  30.247  28.030  1.00  0.00     0.031 C 
ATOM     63  C   UNL A   1      45.758  30.946  28.626  1.00  0.00     0.031 A 
BRANCH  50  64
ATOM     64  C   UNL A   1      39.930  28.908  28.989  1.00  0.00    -0.014 A 
ATOM     65  C   UNL A   1      39.067  29.395  27.994  1.00  0.00     0.009 A 
ATOM     66  C   UNL A   1      39.418  28.679  30.275  1.00  0.00     0.009 A 
ATOM     67  C   UNL A   1      37.734  29.688  28.291  1.00  0.00     0.001 A 
ATOM     68  C   UNL A   1      38.076  28.941  30.562  1.00  0.00     0.001 A 
ATOM     69  C   UNL A   1      37.239  29.456  29.572  1.00  0.00     0.000 A 
ENDBRANCH  50  64
BRANCH  51  70
ATOM     70  C   UNL A   1      49.325  26.470  26.652  1.00  0.00    -0.014 A 
ATOM     71  C   UNL A   1      49.796  26.693  25.349  1.00  0.00     0.009 A 
ATOM     72  C   UNL A   1      50.194  25.907  27.600  1.00  0.00     0.009 A 
ATOM     73  C   UNL A   1      51.099  26.334  24.996  1.00  0.00     0.001 A 
ATOM     74  C   UNL A   1      51.506  25.580  27.253  1.00  0.00     0.001 A 
ATOM     75  C   UNL A   1      51.955  25.783  25.949  1.00  0.00     0.000 A 
ENDBRANCH  51  70
BRANCH  63  76
ATOM     76  C   UNL A   1      46.310  32.302  28.967  1.00  0.00    -0.014 A 
ATOM     77  C   UNL A   1      46.788  32.597  30.254  1.00  0.00     0.009 A 
ATOM     78  C   UNL A   1      46.373  33.296  27.977  1.00  0.00     0.009 A 
ATOM     79  C   UNL A   1      47.273  33.872  30.554  1.00  0.00     0.001 A 
ATOM     80  C   UNL A   1      46.891  34.558  28.270  1.00  0.00     0.001 A 
ATOM     81  C   UNL A   1      47.329  34.848  29.560  1.00  0.00     0.000 A 
ENDBRANCH  63  76
ENDBRANCH  37  38
ENDBRANCH  29  32
ENDBRANCH  27  28
ENDBRANCH   1  27
TORSDOF 12
ENDMDL
