MODEL 1
REMARK VINA RESULT:     -11.1      0.000      0.000
REMARK SMILES CC(=O)c1cc(C(=O)NC[C@H]2CC[C@H](C(=O)NCCCNC(=O)c3ccc(-c4c5nc(c(-c6ccccc6)c6ccc([nH]6)c(-c6ccccc6)c6nc(c(-c7ccccc7)c7ccc4[nH]7)C=C6)C=C5)cc3)O2)n(C)c1
REMARK SMILES IDX 18 1 17 2 15 3 16 4 14 6 11 7 12 8 72 9 13 10 10 11 9 12
REMARK SMILES IDX 7 13 8 14 6 16 4 17 5 18 75 19 73 20 74 21 2 22 1 23 3 24
REMARK SMILES IDX 19 25 20 26 21 27 22 28 23 30 24 31 25 32 71 33 26 34 70 35
REMARK SMILES IDX 27 36 28 37 29 38 64 39 30 40 69 41 63 42 65 43 31 44 68 45
REMARK SMILES IDX 62 46 61 47 32 49 54 50 39 51 53 52 40 53 43 54 52 55 66 56
REMARK SMILES IDX 41 57 42 58 51 60 67 61 44 62 33 63 34 64 38 65 35 66 37 67
REMARK SMILES IDX 36 68 55 69 56 70 60 71 57 72 59 73 58 74 45 75 46 76 50 77
REMARK SMILES IDX 47 78 49 79 48 80
REMARK H PARENT 17 5 9 15 21 29 65 48 43 59
REMARK Flexibility Score: inf
ROOT
ATOM      1  C   UNL A   1      36.139  20.246  24.742  1.00  0.00     0.117 C 
ENDROOT
BRANCH   1   2
ATOM      2  N   UNL A   1      35.590  20.794  25.964  1.00  0.00    -0.354 N 
ATOM      3  C   UNL A   1      34.454  21.518  26.182  1.00  0.00     0.249 C 
ATOM      4  O   UNL A   1      34.219  21.843  27.351  1.00  0.00    -0.272 OA
ATOM      5  H   UNL A   1      36.123  20.615  26.772  1.00  0.00     0.163 HD
BRANCH   3   6
ATOM      6  C   UNL A   1      33.534  22.006  25.034  1.00  0.00     0.207 C 
ATOM      7  C   UNL A   1      31.883  23.657  24.871  1.00  0.00     0.138 C 
ATOM      8  C   UNL A   1      31.206  22.404  25.414  1.00  0.00     0.037 C 
ATOM      9  O   UNL A   1      33.291  23.408  24.922  1.00  0.00    -0.363 OA
ATOM     10  C   UNL A   1      32.183  21.307  25.053  1.00  0.00     0.045 C 
BRANCH   7  11
ATOM     11  C   UNL A   1      31.323  23.845  23.464  1.00  0.00     0.148 C 
BRANCH  11  12
ATOM     12  N   UNL A   1      32.155  24.296  22.395  1.00  0.00    -0.348 N 
ATOM     13  C   UNL A   1      32.463  25.607  22.095  1.00  0.00     0.268 C 
ATOM     14  O   UNL A   1      33.241  25.788  21.159  1.00  0.00    -0.268 OA
ATOM     15  H   UNL A   1      32.546  23.605  21.814  1.00  0.00     0.163 HD
BRANCH  13  16
ATOM     16  C   UNL A   1      31.808  26.730  22.776  1.00  0.00     0.107 A 
ATOM     17  C   UNL A   1      30.257  28.398  23.143  1.00  0.00     0.036 A 
ATOM     18  C   UNL A   1      30.718  27.413  22.231  1.00  0.00     0.045 A 
ATOM     19  C   UNL A   1      31.082  28.296  24.240  1.00  0.00     0.097 A 
ATOM     20  N   UNL A   1      32.086  27.401  23.959  1.00  0.00    -0.346 N 
ATOM     21  C   UNL A   1      33.259  27.338  24.807  1.00  0.00     0.150 C 
BRANCH  17  22
ATOM     22  C   UNL A   1      29.165  29.362  23.023  1.00  0.00     0.161 C 
ATOM     23  C   UNL A   1      27.752  28.843  22.975  1.00  0.00     0.093 C 
ATOM     24  O   UNL A   1      29.384  30.574  22.983  1.00  0.00    -0.294 OA
ENDBRANCH  17  22
ENDBRANCH  13  16
ENDBRANCH  11  12
ENDBRANCH   7  11
ENDBRANCH   3   6
ENDBRANCH   1   2
BRANCH   1  25
ATOM     25  C   UNL A   1      37.385  19.402  25.003  1.00  0.00     0.042 C 
BRANCH  25  26
ATOM     26  C   UNL A   1      38.618  20.203  25.376  1.00  0.00     0.118 C 
BRANCH  26  27
ATOM     27  N   UNL A   1      39.750  19.332  25.651  1.00  0.00    -0.352 N 
ATOM     28  C   UNL A   1      41.020  19.635  26.072  1.00  0.00     0.251 C 
ATOM     29  H   UNL A   1      39.578  18.373  25.512  1.00  0.00     0.163 HD
ATOM     30  O   UNL A   1      41.897  18.779  25.991  1.00  0.00    -0.269 OA
BRANCH  28  31
ATOM     31  C   UNL A   1      41.350  20.974  26.616  1.00  0.00     0.039 A 
ATOM     32  C   UNL A   1      41.861  21.944  25.746  1.00  0.00     0.014 A 
ATOM     33  C   UNL A   1      41.222  21.264  27.977  1.00  0.00     0.014 A 
ATOM     34  C   UNL A   1      42.207  23.206  26.234  1.00  0.00     0.010 A 
ATOM     35  C   UNL A   1      41.478  22.548  28.445  1.00  0.00     0.010 A 
ATOM     36  C   UNL A   1      41.996  23.525  27.585  1.00  0.00    -0.014 A 
BRANCH  36  37
ATOM     37  C   UNL A   1      42.346  24.863  28.123  1.00  0.00     0.031 A 
ATOM     38  C   UNL A   1      43.763  25.163  28.531  1.00  0.00     0.074 A 
ATOM     39  C   UNL A   1      41.380  25.785  28.298  1.00  0.00     0.049 A 
ATOM     40  N   UNL A   1      44.255  26.249  29.073  1.00  0.00    -0.248 NA
ATOM     41  C   UNL A   1      44.755  24.092  28.332  1.00  0.00     0.031 C 
ATOM     42  C   UNL A   1      39.962  25.599  27.980  1.00  0.00     0.029 A 
ATOM     43  N   UNL A   1      41.447  27.063  28.791  1.00  0.00    -0.354 N 
ATOM     44  C   UNL A   1      45.600  25.982  29.298  1.00  0.00     0.074 A 
ATOM     45  C   UNL A   1      45.837  24.618  28.883  1.00  0.00     0.031 C 
ATOM     46  C   UNL A   1      39.300  26.733  28.257  1.00  0.00     0.029 A 
ATOM     47  C   UNL A   1      40.234  27.710  28.806  1.00  0.00     0.049 A 
ATOM     48  H   UNL A   1      42.282  27.478  29.104  1.00  0.00     0.167 HD
ATOM     49  C   UNL A   1      46.557  26.806  29.786  1.00  0.00     0.031 A 
ATOM     50  C   UNL A   1      39.914  28.949  29.218  1.00  0.00     0.031 A 
ATOM     51  C   UNL A   1      46.324  28.169  30.177  1.00  0.00     0.049 A 
ATOM     52  C   UNL A   1      40.995  29.846  29.754  1.00  0.00     0.074 A 
ATOM     53  C   UNL A   1      47.238  29.107  30.626  1.00  0.00     0.029 A 
ATOM     54  N   UNL A   1      45.085  28.790  30.166  1.00  0.00    -0.354 N 
ATOM     55  N   UNL A   1      42.275  29.600  29.897  1.00  0.00    -0.248 NA
ATOM     56  C   UNL A   1      40.587  31.194  30.172  1.00  0.00     0.031 C 
ATOM     57  C   UNL A   1      46.542  30.282  30.930  1.00  0.00     0.029 A 
ATOM     58  C   UNL A   1      45.205  30.091  30.620  1.00  0.00     0.049 A 
ATOM     59  H   UNL A   1      44.244  28.367  29.878  1.00  0.00     0.167 HD
ATOM     60  C   UNL A   1      42.830  30.770  30.399  1.00  0.00     0.074 A 
ATOM     61  C   UNL A   1      41.750  31.729  30.517  1.00  0.00     0.031 C 
ATOM     62  C   UNL A   1      44.117  31.028  30.733  1.00  0.00     0.031 A 
BRANCH  49  63
ATOM     63  C   UNL A   1      47.946  26.246  29.925  1.00  0.00    -0.014 A 
ATOM     64  C   UNL A   1      48.408  25.736  31.149  1.00  0.00     0.009 A 
ATOM     65  C   UNL A   1      48.798  26.202  28.809  1.00  0.00     0.009 A 
ATOM     66  C   UNL A   1      49.705  25.233  31.265  1.00  0.00     0.001 A 
ATOM     67  C   UNL A   1      50.084  25.672  28.920  1.00  0.00     0.001 A 
ATOM     68  C   UNL A   1      50.541  25.197  30.149  1.00  0.00     0.000 A 
ENDBRANCH  49  63
BRANCH  50  69
ATOM     69  C   UNL A   1      38.509  29.425  29.121  1.00  0.00    -0.014 A 
ATOM     70  C   UNL A   1      37.641  29.303  30.217  1.00  0.00     0.009 A 
ATOM     71  C   UNL A   1      38.030  30.006  27.937  1.00  0.00     0.009 A 
ATOM     72  C   UNL A   1      36.315  29.730  30.120  1.00  0.00     0.001 A 
ATOM     73  C   UNL A   1      36.711  30.457  27.851  1.00  0.00     0.001 A 
ATOM     74  C   UNL A   1      35.852  30.310  28.939  1.00  0.00     0.000 A 
ENDBRANCH  50  69
BRANCH  62  75
ATOM     75  C   UNL A   1      44.430  32.411  31.229  1.00  0.00    -0.014 A 
ATOM     76  C   UNL A   1      44.528  32.686  32.601  1.00  0.00     0.009 A 
ATOM     77  C   UNL A   1      44.669  33.442  30.308  1.00  0.00     0.009 A 
ATOM     78  C   UNL A   1      44.824  33.977  33.042  1.00  0.00     0.001 A 
ATOM     79  C   UNL A   1      44.995  34.724  30.750  1.00  0.00     0.001 A 
ATOM     80  C   UNL A   1      45.062  34.993  32.117  1.00  0.00     0.000 A 
ENDBRANCH  62  75
ENDBRANCH  36  37
ENDBRANCH  28  31
ENDBRANCH  26  27
ENDBRANCH  25  26
ENDBRANCH   1  25
TORSDOF 14
ENDMDL
MODEL 2
REMARK VINA RESULT:     -11.1      3.119      8.924
REMARK SMILES CC(=O)c1cc(C(=O)NC[C@H]2CC[C@H](C(=O)NCCCNC(=O)c3ccc(-c4c5nc(c(-c6ccccc6)c6ccc([nH]6)c(-c6ccccc6)c6nc(c(-c7ccccc7)c7ccc4[nH]7)C=C6)C=C5)cc3)O2)n(C)c1
REMARK SMILES IDX 18 1 17 2 15 3 16 4 14 6 11 7 12 8 72 9 13 10 10 11 9 12
REMARK SMILES IDX 7 13 8 14 6 16 4 17 5 18 75 19 73 20 74 21 2 22 1 23 3 24
REMARK SMILES IDX 19 25 20 26 21 27 22 28 23 30 24 31 25 32 71 33 26 34 70 35
REMARK SMILES IDX 27 36 28 37 29 38 64 39 30 40 69 41 63 42 65 43 31 44 68 45
REMARK SMILES IDX 62 46 61 47 32 49 54 50 39 51 53 52 40 53 43 54 52 55 66 56
REMARK SMILES IDX 41 57 42 58 51 60 67 61 44 62 33 63 34 64 38 65 35 66 37 67
REMARK SMILES IDX 36 68 55 69 56 70 60 71 57 72 59 73 58 74 45 75 46 76 50 77
REMARK SMILES IDX 47 78 49 79 48 80
REMARK H PARENT 17 5 9 15 21 29 65 48 43 59
REMARK Flexibility Score: inf
ROOT
ATOM      1  C   UNL A   1      31.262  30.175  25.302  1.00  0.00     0.117 C 
ENDROOT
BRANCH   1   2
ATOM      2  N   UNL A   1      30.569  30.083  24.035  1.00  0.00    -0.354 N 
ATOM      3  C   UNL A   1      30.711  29.197  23.007  1.00  0.00     0.249 C 
ATOM      4  O   UNL A   1      29.959  29.347  22.037  1.00  0.00    -0.272 OA
ATOM      5  H   UNL A   1      29.881  30.772  23.891  1.00  0.00     0.163 HD
BRANCH   3   6
ATOM      6  C   UNL A   1      31.812  28.106  22.982  1.00  0.00     0.207 C 
ATOM      7  C   UNL A   1      32.978  26.944  24.647  1.00  0.00     0.138 C 
ATOM      8  C   UNL A   1      33.719  28.256  24.420  1.00  0.00     0.037 C 
ATOM      9  O   UNL A   1      31.734  27.057  23.948  1.00  0.00    -0.363 OA
ATOM     10  C   UNL A   1      33.207  28.706  23.069  1.00  0.00     0.045 C 
BRANCH   7  11
ATOM     11  C   UNL A   1      33.906  25.856  24.115  1.00  0.00     0.148 C 
BRANCH  11  12
ATOM     12  N   UNL A   1      33.641  25.204  22.873  1.00  0.00    -0.348 N 
ATOM     13  C   UNL A   1      33.796  23.860  22.604  1.00  0.00     0.268 C 
ATOM     14  O   UNL A   1      33.466  23.482  21.481  1.00  0.00    -0.268 OA
ATOM     15  H   UNL A   1      33.318  25.769  22.134  1.00  0.00     0.163 HD
BRANCH  13  16
ATOM     16  C   UNL A   1      34.430  22.948  23.564  1.00  0.00     0.107 A 
ATOM     17  C   UNL A   1      36.133  21.819  24.638  1.00  0.00     0.036 A 
ATOM     18  C   UNL A   1      35.801  22.677  23.556  1.00  0.00     0.045 A 
ATOM     19  C   UNL A   1      34.946  21.582  25.293  1.00  0.00     0.097 A 
ATOM     20  N   UNL A   1      33.919  22.141  24.570  1.00  0.00    -0.346 N 
ATOM     21  C   UNL A   1      32.548  21.777  24.860  1.00  0.00     0.150 C 
BRANCH  17  22
ATOM     22  C   UNL A   1      37.420  21.251  25.035  1.00  0.00     0.161 C 
ATOM     23  C   UNL A   1      37.647  19.778  24.827  1.00  0.00     0.093 C 
ATOM     24  O   UNL A   1      38.311  21.958  25.508  1.00  0.00    -0.294 OA
ENDBRANCH  17  22
ENDBRANCH  13  16
ENDBRANCH  11  12
ENDBRANCH   7  11
ENDBRANCH   3   6
ENDBRANCH   1   2
BRANCH   1  25
ATOM     25  C   UNL A   1      31.098  31.551  25.945  1.00  0.00     0.042 C 
BRANCH  25  26
ATOM     26  C   UNL A   1      32.213  31.935  26.899  1.00  0.00     0.118 C 
BRANCH  26  27
ATOM     27  N   UNL A   1      32.160  33.349  27.233  1.00  0.00    -0.352 N 
ATOM     28  C   UNL A   1      32.938  34.089  28.086  1.00  0.00     0.251 C 
ATOM     29  H   UNL A   1      31.452  33.856  26.774  1.00  0.00     0.163 HD
ATOM     30  O   UNL A   1      32.560  35.209  28.422  1.00  0.00    -0.269 OA
BRANCH  28  31
ATOM     31  C   UNL A   1      34.219  33.560  28.611  1.00  0.00     0.039 A 
ATOM     32  C   UNL A   1      34.209  32.862  29.825  1.00  0.00     0.014 A 
ATOM     33  C   UNL A   1      35.432  33.794  27.959  1.00  0.00     0.014 A 
ATOM     34  C   UNL A   1      35.404  32.374  30.359  1.00  0.00     0.010 A 
ATOM     35  C   UNL A   1      36.607  33.229  28.442  1.00  0.00     0.010 A 
ATOM     36  C   UNL A   1      36.610  32.535  29.659  1.00  0.00    -0.014 A 
BRANCH  36  37
ATOM     37  C   UNL A   1      37.890  32.016  30.201  1.00  0.00     0.031 A 
ATOM     38  C   UNL A   1      38.484  30.749  29.647  1.00  0.00     0.074 A 
ATOM     39  C   UNL A   1      38.487  32.652  31.227  1.00  0.00     0.049 A 
ATOM     40  N   UNL A   1      39.561  30.107  30.023  1.00  0.00    -0.248 NA
ATOM     41  C   UNL A   1      37.757  30.100  28.542  1.00  0.00     0.031 C 
ATOM     42  C   UNL A   1      37.988  33.865  31.878  1.00  0.00     0.029 A 
ATOM     43  N   UNL A   1      39.643  32.361  31.905  1.00  0.00    -0.354 N 
ATOM     44  C   UNL A   1      39.625  28.974  29.221  1.00  0.00     0.074 A 
ATOM     45  C   UNL A   1      38.454  28.988  28.373  1.00  0.00     0.031 C 
ATOM     46  C   UNL A   1      38.850  34.232  32.840  1.00  0.00     0.029 A 
ATOM     47  C   UNL A   1      39.938  33.261  32.900  1.00  0.00     0.049 A 
ATOM     48  H   UNL A   1      40.208  31.582  31.699  1.00  0.00     0.167 HD
ATOM     49  C   UNL A   1      40.583  28.019  29.178  1.00  0.00     0.031 A 
ATOM     50  C   UNL A   1      40.969  33.299  33.763  1.00  0.00     0.031 A 
ATOM     51  C   UNL A   1      41.758  28.018  30.007  1.00  0.00     0.049 A 
ATOM     52  C   UNL A   1      42.021  32.228  33.694  1.00  0.00     0.074 A 
ATOM     53  C   UNL A   1      42.820  27.131  29.999  1.00  0.00     0.029 A 
ATOM     54  N   UNL A   1      42.025  28.955  30.993  1.00  0.00    -0.354 N 
ATOM     55  N   UNL A   1      42.101  31.201  32.884  1.00  0.00    -0.248 NA
ATOM     56  C   UNL A   1      43.132  32.332  34.651  1.00  0.00     0.031 C 
ATOM     57  C   UNL A   1      43.708  27.505  31.013  1.00  0.00     0.029 A 
ATOM     58  C   UNL A   1      43.224  28.655  31.615  1.00  0.00     0.049 A 
ATOM     59  H   UNL A   1      41.448  29.720  31.218  1.00  0.00     0.167 HD
ATOM     60  C   UNL A   1      43.281  30.548  33.217  1.00  0.00     0.074 A 
ATOM     61  C   UNL A   1      43.892  31.307  34.289  1.00  0.00     0.031 C 
ATOM     62  C   UNL A   1      43.812  29.422  32.683  1.00  0.00     0.031 A 
BRANCH  49  63
ATOM     63  C   UNL A   1      40.393  26.892  28.201  1.00  0.00    -0.014 A 
ATOM     64  C   UNL A   1      40.952  26.942  26.913  1.00  0.00     0.009 A 
ATOM     65  C   UNL A   1      39.668  25.751  28.580  1.00  0.00     0.009 A 
ATOM     66  C   UNL A   1      40.753  25.893  26.012  1.00  0.00     0.001 A 
ATOM     67  C   UNL A   1      39.496  24.691  27.688  1.00  0.00     0.001 A 
ATOM     68  C   UNL A   1      40.030  24.767  26.402  1.00  0.00     0.000 A 
ENDBRANCH  49  63
BRANCH  50  69
ATOM     69  C   UNL A   1      41.069  34.401  34.755  1.00  0.00    -0.014 A 
ATOM     70  C   UNL A   1      41.770  35.575  34.443  1.00  0.00     0.009 A 
ATOM     71  C   UNL A   1      40.461  34.287  36.016  1.00  0.00     0.009 A 
ATOM     72  C   UNL A   1      41.884  36.603  35.382  1.00  0.00     0.001 A 
ATOM     73  C   UNL A   1      40.553  35.328  36.943  1.00  0.00     0.001 A 
ATOM     74  C   UNL A   1      41.271  36.480  36.629  1.00  0.00     0.000 A 
ENDBRANCH  50  69
BRANCH  62  75
ATOM     75  C   UNL A   1      45.132  28.962  33.233  1.00  0.00    -0.014 A 
ATOM     76  C   UNL A   1      46.343  29.428  32.701  1.00  0.00     0.009 A 
ATOM     77  C   UNL A   1      45.160  28.079  34.323  1.00  0.00     0.009 A 
ATOM     78  C   UNL A   1      47.559  28.991  33.230  1.00  0.00     0.001 A 
ATOM     79  C   UNL A   1      46.376  27.667  34.869  1.00  0.00     0.001 A 
ATOM     80  C   UNL A   1      47.575  28.116  34.315  1.00  0.00     0.000 A 
ENDBRANCH  62  75
ENDBRANCH  36  37
ENDBRANCH  28  31
ENDBRANCH  26  27
ENDBRANCH  25  26
ENDBRANCH   1  25
TORSDOF 14
ENDMDL
MODEL 3
REMARK VINA RESULT:     -11.0      3.100      8.792
REMARK SMILES CC(=O)c1cc(C(=O)NC[C@H]2CC[C@H](C(=O)NCCCNC(=O)c3ccc(-c4c5nc(c(-c6ccccc6)c6ccc([nH]6)c(-c6ccccc6)c6nc(c(-c7ccccc7)c7ccc4[nH]7)C=C6)C=C5)cc3)O2)n(C)c1
REMARK SMILES IDX 18 1 17 2 15 3 16 4 14 6 11 7 12 8 72 9 13 10 10 11 9 12
REMARK SMILES IDX 7 13 8 14 6 16 4 17 5 18 75 19 73 20 74 21 2 22 1 23 3 24
REMARK SMILES IDX 19 25 20 26 21 27 22 28 23 30 24 31 25 32 71 33 26 34 70 35
REMARK SMILES IDX 27 36 28 37 29 38 64 39 30 40 69 41 63 42 65 43 31 44 68 45
REMARK SMILES IDX 62 46 61 47 32 49 54 50 39 51 53 52 40 53 43 54 52 55 66 56
REMARK SMILES IDX 41 57 42 58 51 60 67 61 44 62 33 63 34 64 38 65 35 66 37 67
REMARK SMILES IDX 36 68 55 69 56 70 60 71 57 72 59 73 58 74 45 75 46 76 50 77
REMARK SMILES IDX 47 78 49 79 48 80
REMARK H PARENT 17 5 9 15 21 29 65 48 43 59
REMARK Flexibility Score: inf
ROOT
ATOM      1  C   UNL A   1      31.307  30.201  25.384  1.00  0.00     0.117 C 
ENDROOT
BRANCH   1   2
ATOM      2  N   UNL A   1      30.637  30.131  24.103  1.00  0.00    -0.354 N 
ATOM      3  C   UNL A   1      30.425  29.074  23.267  1.00  0.00     0.249 C 
ATOM      4  O   UNL A   1      29.795  29.304  22.230  1.00  0.00    -0.272 OA
ATOM      5  H   UNL A   1      30.272  30.987  23.782  1.00  0.00     0.163 HD
BRANCH   3   6
ATOM      6  C   UNL A   1      31.014  27.663  23.529  1.00  0.00     0.207 C 
ATOM      7  C   UNL A   1      30.153  25.492  23.362  1.00  0.00     0.138 C 
ATOM      8  C   UNL A   1      29.765  26.019  24.738  1.00  0.00     0.037 C 
ATOM      9  O   UNL A   1      30.658  26.614  22.629  1.00  0.00    -0.363 OA
ATOM     10  C   UNL A   1      30.717  27.177  24.939  1.00  0.00     0.045 C 
BRANCH   7  11
ATOM     11  C   UNL A   1      31.179  24.393  23.622  1.00  0.00     0.148 C 
BRANCH  11  12
ATOM     12  N   UNL A   1      32.500  24.476  23.086  1.00  0.00    -0.348 N 
ATOM     13  C   UNL A   1      33.469  23.497  23.143  1.00  0.00     0.268 C 
ATOM     14  O   UNL A   1      34.533  23.743  22.577  1.00  0.00    -0.268 OA
ATOM     15  H   UNL A   1      32.743  25.316  22.634  1.00  0.00     0.163 HD
BRANCH  13  16
ATOM     16  C   UNL A   1      33.288  22.275  23.936  1.00  0.00     0.107 A 
ATOM     17  C   UNL A   1      32.843  20.052  24.368  1.00  0.00     0.036 A 
ATOM     18  C   UNL A   1      32.857  21.068  23.377  1.00  0.00     0.045 A 
ATOM     19  C   UNL A   1      33.271  20.663  25.525  1.00  0.00     0.097 A 
ATOM     20  N   UNL A   1      33.399  22.012  25.293  1.00  0.00    -0.346 N 
ATOM     21  C   UNL A   1      33.529  22.929  26.407  1.00  0.00     0.150 C 
BRANCH  17  22
ATOM     22  C   UNL A   1      32.459  18.644  24.276  1.00  0.00     0.161 C 
ATOM     23  C   UNL A   1      32.578  17.955  22.942  1.00  0.00     0.093 C 
ATOM     24  O   UNL A   1      32.069  18.023  25.264  1.00  0.00    -0.294 OA
ENDBRANCH  17  22
ENDBRANCH  13  16
ENDBRANCH  11  12
ENDBRANCH   7  11
ENDBRANCH   3   6
ENDBRANCH   1   2
BRANCH   1  25
ATOM     25  C   UNL A   1      31.164  31.577  26.030  1.00  0.00     0.042 C 
BRANCH  25  26
ATOM     26  C   UNL A   1      32.327  31.977  26.920  1.00  0.00     0.118 C 
BRANCH  26  27
ATOM     27  N   UNL A   1      32.248  33.380  27.294  1.00  0.00    -0.352 N 
ATOM     28  C   UNL A   1      33.011  34.108  28.171  1.00  0.00     0.251 C 
ATOM     29  H   UNL A   1      31.533  33.888  26.847  1.00  0.00     0.163 HD
ATOM     30  O   UNL A   1      32.612  35.211  28.537  1.00  0.00    -0.269 OA
BRANCH  28  31
ATOM     31  C   UNL A   1      34.298  33.585  28.687  1.00  0.00     0.039 A 
ATOM     32  C   UNL A   1      35.461  33.813  27.942  1.00  0.00     0.014 A 
ATOM     33  C   UNL A   1      34.364  32.823  29.856  1.00  0.00     0.014 A 
ATOM     34  C   UNL A   1      36.685  33.309  28.389  1.00  0.00     0.010 A 
ATOM     35  C   UNL A   1      35.594  32.402  30.348  1.00  0.00     0.010 A 
ATOM     36  C   UNL A   1      36.764  32.619  29.608  1.00  0.00    -0.014 A 
BRANCH  36  37
ATOM     37  C   UNL A   1      38.055  32.084  30.108  1.00  0.00     0.031 A 
ATOM     38  C   UNL A   1      38.583  30.777  29.580  1.00  0.00     0.074 A 
ATOM     39  C   UNL A   1      38.721  32.743  31.074  1.00  0.00     0.049 A 
ATOM     40  N   UNL A   1      39.660  30.119  29.929  1.00  0.00    -0.248 NA
ATOM     41  C   UNL A   1      37.782  30.105  28.542  1.00  0.00     0.031 C 
ATOM     42  C   UNL A   1      38.291  33.998  31.697  1.00  0.00     0.029 A 
ATOM     43  N   UNL A   1      39.902  32.446  31.706  1.00  0.00    -0.354 N 
ATOM     44  C   UNL A   1      39.650  28.952  29.175  1.00  0.00     0.074 A 
ATOM     45  C   UNL A   1      38.438  28.966  28.387  1.00  0.00     0.031 C 
ATOM     46  C   UNL A   1      39.211  34.377  32.598  1.00  0.00     0.029 A 
ATOM     47  C   UNL A   1      40.273  33.377  32.645  1.00  0.00     0.049 A 
ATOM     48  H   UNL A   1      40.433  31.641  31.506  1.00  0.00     0.167 HD
ATOM     49  C   UNL A   1      40.577  27.967  29.125  1.00  0.00     0.031 A 
ATOM     50  C   UNL A   1      41.347  33.419  33.454  1.00  0.00     0.031 A 
ATOM     51  C   UNL A   1      41.792  27.965  29.894  1.00  0.00     0.049 A 
ATOM     52  C   UNL A   1      42.363  32.315  33.379  1.00  0.00     0.074 A 
ATOM     53  C   UNL A   1      42.827  27.046  29.871  1.00  0.00     0.029 A 
ATOM     54  N   UNL A   1      42.136  28.933  30.824  1.00  0.00    -0.354 N 
ATOM     55  N   UNL A   1      42.372  31.252  32.610  1.00  0.00    -0.248 NA
ATOM     56  C   UNL A   1      43.524  32.424  34.273  1.00  0.00     0.031 C 
ATOM     57  C   UNL A   1      43.776  27.434  30.823  1.00  0.00     0.029 A 
ATOM     58  C   UNL A   1      43.356  28.623  31.398  1.00  0.00     0.049 A 
ATOM     59  H   UNL A   1      41.593  29.724  31.044  1.00  0.00     0.167 HD
ATOM     60  C   UNL A   1      43.549  30.578  32.912  1.00  0.00     0.074 A 
ATOM     61  C   UNL A   1      44.235  31.363  33.918  1.00  0.00     0.031 C 
ATOM     62  C   UNL A   1      44.019  29.415  32.401  1.00  0.00     0.031 A 
BRANCH  49  63
ATOM     63  C   UNL A   1      40.305  26.806  28.208  1.00  0.00    -0.014 A 
ATOM     64  C   UNL A   1      40.806  26.782  26.896  1.00  0.00     0.009 A 
ATOM     65  C   UNL A   1      39.561  25.709  28.670  1.00  0.00     0.009 A 
ATOM     66  C   UNL A   1      40.532  25.703  26.052  1.00  0.00     0.001 A 
ATOM     67  C   UNL A   1      39.314  24.619  27.834  1.00  0.00     0.001 A 
ATOM     68  C   UNL A   1      39.790  24.621  26.523  1.00  0.00     0.000 A 
ENDBRANCH  49  63
BRANCH  50  69
ATOM     69  C   UNL A   1      41.528  34.558  34.391  1.00  0.00    -0.014 A 
ATOM     70  C   UNL A   1      41.003  34.498  35.691  1.00  0.00     0.009 A 
ATOM     71  C   UNL A   1      42.229  35.707  33.994  1.00  0.00     0.009 A 
ATOM     72  C   UNL A   1      41.153  35.577  36.565  1.00  0.00     0.001 A 
ATOM     73  C   UNL A   1      42.402  36.773  34.880  1.00  0.00     0.001 A 
ATOM     74  C   UNL A   1      41.856  36.711  36.161  1.00  0.00     0.000 A 
ENDBRANCH  50  69
BRANCH  62  75
ATOM     75  C   UNL A   1      45.352  28.938  32.904  1.00  0.00    -0.014 A 
ATOM     76  C   UNL A   1      45.458  28.191  34.086  1.00  0.00     0.009 A 
ATOM     77  C   UNL A   1      46.512  29.209  32.161  1.00  0.00     0.009 A 
ATOM     78  C   UNL A   1      46.706  27.753  34.534  1.00  0.00     0.001 A 
ATOM     79  C   UNL A   1      47.753  28.745  32.595  1.00  0.00     0.001 A 
ATOM     80  C   UNL A   1      47.851  28.027  33.786  1.00  0.00     0.000 A 
ENDBRANCH  62  75
ENDBRANCH  36  37
ENDBRANCH  28  31
ENDBRANCH  26  27
ENDBRANCH  25  26
ENDBRANCH   1  25
TORSDOF 14
ENDMDL
