MODEL 1
REMARK VINA RESULT:     -11.3      0.000      0.000
REMARK SMILES C[C@@H]1CN(C(=O)NC[C@@H]2CCC[C@@H]2C(=O)NCCCNC(=O)c2ccc(-c3c4nc(c(-c5ccccc5)c5ccc([nH]5)c(-c5ccccc5)c5nc(c(-c6ccccc6)c6ccc3[nH]6)C=C5)C=C4)cc2)C[C@@H]1C
REMARK SMILES IDX 17 1 16 2 14 3 15 4 13 6 9 7 10 8 11 9 12 10 8 11 7 12 5 13
REMARK SMILES IDX 6 14 4 16 1 17 2 18 3 19 72 20 71 21 73 22 18 23 19 24 20 25
REMARK SMILES IDX 21 26 22 28 23 29 24 30 70 31 25 32 69 33 26 34 27 35 28 36
REMARK SMILES IDX 63 37 29 38 68 39 62 40 64 41 30 42 67 43 61 44 60 45 31 47
REMARK SMILES IDX 53 48 38 49 52 50 39 51 42 52 51 53 65 54 40 55 41 56 50 58
REMARK SMILES IDX 66 59 43 60 32 61 33 62 37 63 34 64 36 65 35 66 54 67 55 68
REMARK SMILES IDX 59 69 56 70 58 71 57 72 44 73 45 74 49 75 46 76 48 77 47 78
REMARK H PARENT 16 5 7 15 20 27 64 46 42 57
REMARK Flexibility Score: inf
ROOT
ATOM      1  C   UNL A   1      35.748  21.420  25.846  1.00  0.00     0.117 C 
ENDROOT
BRANCH   1   2
ATOM      2  N   UNL A   1      34.560  20.598  25.836  1.00  0.00    -0.356 N 
ATOM      3  C   UNL A   1      33.274  20.731  25.459  1.00  0.00     0.223 C 
ATOM      4  O   UNL A   1      32.641  19.669  25.566  1.00  0.00    -0.275 OA
ATOM      5  H   UNL A   1      34.739  19.702  26.201  1.00  0.00     0.163 HD
BRANCH   3   6
ATOM      6  C   UNL A   1      32.569  21.964  24.845  1.00  0.00     0.083 C 
ATOM      7  C   UNL A   1      33.108  23.410  24.898  1.00  0.00     0.021 C 
ATOM      8  C   UNL A   1      33.082  23.712  26.396  1.00  0.00     0.006 C 
ATOM      9  C   UNL A   1      31.770  23.053  26.866  1.00  0.00     0.001 C 
ATOM     10  C   UNL A   1      31.283  22.208  25.680  1.00  0.00     0.014 C 
BRANCH   7  11
ATOM     11  C   UNL A   1      34.328  23.828  24.074  1.00  0.00     0.122 C 
BRANCH  11  12
ATOM     12  N   UNL A   1      33.889  24.591  22.903  1.00  0.00    -0.338 N 
ATOM     13  C   UNL A   1      33.567  25.877  22.684  1.00  0.00     0.317 C 
ATOM     14  O   UNL A   1      33.733  26.289  21.534  1.00  0.00    -0.249 OA
ATOM     15  H   UNL A   1      33.812  24.037  22.094  1.00  0.00     0.165 HD
BRANCH  13  16
ATOM     16  N   UNL A   1      33.085  26.666  23.668  1.00  0.00    -0.324 N 
ATOM     17  C   UNL A   1      33.150  28.357  26.959  1.00  0.00     0.010 C 
ATOM     18  C   UNL A   1      32.791  27.344  25.892  1.00  0.00     0.010 C 
ATOM     19  C   UNL A   1      33.812  27.286  24.756  1.00  0.00     0.125 C 
ATOM     20  C   UNL A   1      31.451  27.549  25.159  1.00  0.00     0.010 C 
ATOM     21  C   UNL A   1      31.646  26.680  23.915  1.00  0.00     0.125 C 
ATOM     22  C   UNL A   1      31.126  28.988  24.765  1.00  0.00     0.010 C 
ENDBRANCH  13  16
ENDBRANCH  11  12
ENDBRANCH   7  11
ENDBRANCH   3   6
ENDBRANCH   1   2
BRANCH   1  23
ATOM     23  C   UNL A   1      36.830  20.880  24.922  1.00  0.00     0.042 C 
BRANCH  23  24
ATOM     24  C   UNL A   1      38.224  21.258  25.403  1.00  0.00     0.118 C 
BRANCH  24  25
ATOM     25  N   UNL A   1      39.095  20.089  25.543  1.00  0.00    -0.352 N 
ATOM     26  C   UNL A   1      40.407  19.989  25.942  1.00  0.00     0.251 C 
ATOM     27  H   UNL A   1      38.671  19.231  25.314  1.00  0.00     0.163 HD
ATOM     28  O   UNL A   1      41.024  18.938  25.771  1.00  0.00    -0.269 OA
BRANCH  26  29
ATOM     29  C   UNL A   1      41.092  21.150  26.545  1.00  0.00     0.039 A 
ATOM     30  C   UNL A   1      41.663  22.124  25.721  1.00  0.00     0.014 A 
ATOM     31  C   UNL A   1      41.150  21.289  27.930  1.00  0.00     0.014 A 
ATOM     32  C   UNL A   1      42.187  23.288  26.289  1.00  0.00     0.010 A 
ATOM     33  C   UNL A   1      41.544  22.499  28.481  1.00  0.00     0.010 A 
ATOM     34  C   UNL A   1      42.070  23.512  27.669  1.00  0.00    -0.014 A 
BRANCH  34  35
ATOM     35  C   UNL A   1      42.481  24.789  28.308  1.00  0.00     0.031 A 
ATOM     36  C   UNL A   1      41.464  25.879  28.515  1.00  0.00     0.074 A 
ATOM     37  C   UNL A   1      43.782  25.011  28.586  1.00  0.00     0.049 A 
ATOM     38  N   UNL A   1      41.645  27.119  28.893  1.00  0.00    -0.248 NA
ATOM     39  C   UNL A   1      40.061  25.545  28.209  1.00  0.00     0.031 C 
ATOM     40  C   UNL A   1      44.874  24.055  28.384  1.00  0.00     0.029 A 
ATOM     41  N   UNL A   1      44.410  26.124  29.086  1.00  0.00    -0.354 N 
ATOM     42  C   UNL A   1      40.391  27.716  28.831  1.00  0.00     0.074 A 
ATOM     43  C   UNL A   1      39.472  26.725  28.320  1.00  0.00     0.031 C 
ATOM     44  C   UNL A   1      46.027  24.610  28.787  1.00  0.00     0.029 A 
ATOM     45  C   UNL A   1      45.770  25.977  29.221  1.00  0.00     0.049 A 
ATOM     46  H   UNL A   1      43.932  26.951  29.324  1.00  0.00     0.167 HD
ATOM     47  C   UNL A   1      40.030  28.970  29.192  1.00  0.00     0.031 A 
ATOM     48  C   UNL A   1      46.707  26.851  29.634  1.00  0.00     0.031 A 
ATOM     49  C   UNL A   1      40.943  29.940  29.729  1.00  0.00     0.049 A 
ATOM     50  C   UNL A   1      46.283  28.240  30.025  1.00  0.00     0.074 A 
ATOM     51  C   UNL A   1      40.671  31.213  30.197  1.00  0.00     0.029 A 
ATOM     52  N   UNL A   1      42.308  29.741  29.872  1.00  0.00    -0.354 N 
ATOM     53  N   UNL A   1      45.082  28.766  30.029  1.00  0.00    -0.248 NA
ATOM     54  C   UNL A   1      47.344  29.154  30.471  1.00  0.00     0.031 C 
ATOM     55  C   UNL A   1      41.880  31.804  30.574  1.00  0.00     0.029 A 
ATOM     56  C   UNL A   1      42.896  30.878  30.395  1.00  0.00     0.049 A 
ATOM     57  H   UNL A   1      42.786  28.912  29.636  1.00  0.00     0.167 HD
ATOM     58  C   UNL A   1      45.239  30.063  30.500  1.00  0.00     0.074 A 
ATOM     59  C   UNL A   1      46.647  30.236  30.789  1.00  0.00     0.031 C 
ATOM     60  C   UNL A   1      44.301  31.026  30.676  1.00  0.00     0.031 A 
BRANCH  47  61
ATOM     61  C   UNL A   1      38.586  29.355  29.017  1.00  0.00    -0.014 A 
ATOM     62  C   UNL A   1      38.092  29.793  27.777  1.00  0.00     0.009 A 
ATOM     63  C   UNL A   1      37.700  29.257  30.102  1.00  0.00     0.009 A 
ATOM     64  C   UNL A   1      36.754  30.167  27.639  1.00  0.00     0.001 A 
ATOM     65  C   UNL A   1      36.355  29.599  29.952  1.00  0.00     0.001 A 
ATOM     66  C   UNL A   1      35.886  30.065  28.725  1.00  0.00     0.000 A 
ENDBRANCH  47  61
BRANCH  48  67
ATOM     67  C   UNL A   1      48.134  26.439  29.711  1.00  0.00    -0.014 A 
ATOM     68  C   UNL A   1      48.612  25.746  30.834  1.00  0.00     0.009 A 
ATOM     69  C   UNL A   1      49.027  26.735  28.668  1.00  0.00     0.009 A 
ATOM     70  C   UNL A   1      49.959  25.381  30.923  1.00  0.00     0.001 A 
ATOM     71  C   UNL A   1      50.366  26.342  28.747  1.00  0.00     0.001 A 
ATOM     72  C   UNL A   1      50.832  25.675  29.878  1.00  0.00     0.000 A 
ENDBRANCH  48  67
BRANCH  60  73
ATOM     73  C   UNL A   1      44.762  32.343  31.231  1.00  0.00    -0.014 A 
ATOM     74  C   UNL A   1      44.865  32.552  32.614  1.00  0.00     0.009 A 
ATOM     75  C   UNL A   1      45.159  33.365  30.355  1.00  0.00     0.009 A 
ATOM     76  C   UNL A   1      45.333  33.770  33.110  1.00  0.00     0.001 A 
ATOM     77  C   UNL A   1      45.655  34.569  30.852  1.00  0.00     0.001 A 
ATOM     78  C   UNL A   1      45.735  34.774  32.228  1.00  0.00     0.000 A 
ENDBRANCH  60  73
ENDBRANCH  34  35
ENDBRANCH  26  29
ENDBRANCH  24  25
ENDBRANCH  23  24
ENDBRANCH   1  23
TORSDOF 13
ENDMDL
MODEL 2
REMARK VINA RESULT:     -11.2      3.203      8.529
REMARK SMILES C[C@@H]1CN(C(=O)NC[C@@H]2CCC[C@@H]2C(=O)NCCCNC(=O)c2ccc(-c3c4nc(c(-c5ccccc5)c5ccc([nH]5)c(-c5ccccc5)c5nc(c(-c6ccccc6)c6ccc3[nH]6)C=C5)C=C4)cc2)C[C@@H]1C
REMARK SMILES IDX 17 1 16 2 14 3 15 4 13 6 9 7 10 8 11 9 12 10 8 11 7 12 5 13
REMARK SMILES IDX 6 14 4 16 1 17 2 18 3 19 72 20 71 21 73 22 18 23 19 24 20 25
REMARK SMILES IDX 21 26 22 28 23 29 24 30 70 31 25 32 69 33 26 34 27 35 28 36
REMARK SMILES IDX 63 37 29 38 68 39 62 40 64 41 30 42 67 43 61 44 60 45 31 47
REMARK SMILES IDX 53 48 38 49 52 50 39 51 42 52 51 53 65 54 40 55 41 56 50 58
REMARK SMILES IDX 66 59 43 60 32 61 33 62 37 63 34 64 36 65 35 66 54 67 55 68
REMARK SMILES IDX 59 69 56 70 58 71 57 72 44 73 45 74 49 75 46 76 48 77 47 78
REMARK H PARENT 16 5 7 15 20 27 64 46 42 57
REMARK Flexibility Score: inf
ROOT
ATOM      1  C   UNL A   1      32.224  29.675  25.548  1.00  0.00     0.117 C 
ENDROOT
BRANCH   1   2
ATOM      2  N   UNL A   1      31.514  29.728  24.290  1.00  0.00    -0.356 N 
ATOM      3  C   UNL A   1      30.937  28.849  23.449  1.00  0.00     0.223 C 
ATOM      4  O   UNL A   1      30.350  29.413  22.511  1.00  0.00    -0.275 OA
ATOM      5  H   UNL A   1      31.431  30.652  23.961  1.00  0.00     0.163 HD
BRANCH   3   6
ATOM      6  C   UNL A   1      30.841  27.310  23.573  1.00  0.00     0.083 C 
ATOM      7  C   UNL A   1      31.777  26.431  24.432  1.00  0.00     0.021 C 
ATOM      8  C   UNL A   1      33.130  26.636  23.752  1.00  0.00     0.006 C 
ATOM      9  C   UNL A   1      32.772  26.651  22.252  1.00  0.00     0.001 C 
ATOM     10  C   UNL A   1      31.240  26.722  22.192  1.00  0.00     0.014 C 
BRANCH   7  11
ATOM     11  C   UNL A   1      31.698  26.455  25.960  1.00  0.00     0.122 C 
BRANCH  11  12
ATOM     12  N   UNL A   1      31.186  25.171  26.444  1.00  0.00    -0.338 N 
ATOM     13  C   UNL A   1      31.742  23.980  26.722  1.00  0.00     0.317 C 
ATOM     14  O   UNL A   1      31.159  23.292  27.563  1.00  0.00    -0.249 OA
ATOM     15  H   UNL A   1      30.215  25.183  26.599  1.00  0.00     0.165 HD
BRANCH  13  16
ATOM     16  N   UNL A   1      32.869  23.561  26.107  1.00  0.00    -0.324 N 
ATOM     17  C   UNL A   1      36.462  23.683  25.227  1.00  0.00     0.010 C 
ATOM     18  C   UNL A   1      34.962  23.846  25.091  1.00  0.00     0.010 C 
ATOM     19  C   UNL A   1      34.242  23.884  26.439  1.00  0.00     0.125 C 
ATOM     20  C   UNL A   1      34.209  22.748  24.315  1.00  0.00     0.010 C 
ATOM     21  C   UNL A   1      32.768  22.983  24.771  1.00  0.00     0.125 C 
ATOM     22  C   UNL A   1      34.641  21.314  24.611  1.00  0.00     0.010 C 
ENDBRANCH  13  16
ENDBRANCH  11  12
ENDBRANCH   7  11
ENDBRANCH   3   6
ENDBRANCH   1   2
BRANCH   1  23
ATOM     23  C   UNL A   1      31.749  30.744  26.522  1.00  0.00     0.042 C 
BRANCH  23  24
ATOM     24  C   UNL A   1      32.915  31.499  27.144  1.00  0.00     0.118 C 
BRANCH  24  25
ATOM     25  N   UNL A   1      32.586  32.900  27.413  1.00  0.00    -0.352 N 
ATOM     26  C   UNL A   1      33.185  33.821  28.238  1.00  0.00     0.251 C 
ATOM     27  H   UNL A   1      31.805  33.240  26.920  1.00  0.00     0.163 HD
ATOM     28  O   UNL A   1      32.614  34.881  28.495  1.00  0.00    -0.269 OA
BRANCH  26  29
ATOM     29  C   UNL A   1      34.499  33.531  28.847  1.00  0.00     0.039 A 
ATOM     30  C   UNL A   1      34.566  32.799  30.037  1.00  0.00     0.014 A 
ATOM     31  C   UNL A   1      35.670  33.963  28.230  1.00  0.00     0.014 A 
ATOM     32  C   UNL A   1      35.809  32.407  30.537  1.00  0.00     0.010 A 
ATOM     33  C   UNL A   1      36.892  33.461  28.650  1.00  0.00     0.010 A 
ATOM     34  C   UNL A   1      36.978  32.679  29.810  1.00  0.00    -0.014 A 
BRANCH  34  35
ATOM     35  C   UNL A   1      38.311  32.166  30.219  1.00  0.00     0.031 A 
ATOM     36  C   UNL A   1      38.810  30.860  29.661  1.00  0.00     0.074 A 
ATOM     37  C   UNL A   1      39.011  32.808  31.176  1.00  0.00     0.049 A 
ATOM     38  N   UNL A   1      39.856  30.155  30.012  1.00  0.00    -0.248 NA
ATOM     39  C   UNL A   1      37.998  30.237  28.600  1.00  0.00     0.031 C 
ATOM     40  C   UNL A   1      38.612  34.055  31.834  1.00  0.00     0.029 A 
ATOM     41  N   UNL A   1      40.203  32.487  31.777  1.00  0.00    -0.354 N 
ATOM     42  C   UNL A   1      39.802  28.997  29.245  1.00  0.00     0.074 A 
ATOM     43  C   UNL A   1      38.590  29.062  28.461  1.00  0.00     0.031 C 
ATOM     44  C   UNL A   1      39.557  34.410  32.719  1.00  0.00     0.029 A 
ATOM     45  C   UNL A   1      40.598  33.390  32.735  1.00  0.00     0.049 A 
ATOM     46  H   UNL A   1      40.725  31.686  31.544  1.00  0.00     0.167 HD
ATOM     47  C   UNL A   1      40.693  27.981  29.181  1.00  0.00     0.031 A 
ATOM     48  C   UNL A   1      41.672  33.388  33.547  1.00  0.00     0.031 A 
ATOM     49  C   UNL A   1      41.911  27.937  29.941  1.00  0.00     0.049 A 
ATOM     50  C   UNL A   1      42.646  32.245  33.461  1.00  0.00     0.074 A 
ATOM     51  C   UNL A   1      42.921  26.993  29.897  1.00  0.00     0.029 A 
ATOM     52  N   UNL A   1      42.284  28.884  30.882  1.00  0.00    -0.354 N 
ATOM     53  N   UNL A   1      42.617  31.193  32.680  1.00  0.00    -0.248 NA
ATOM     54  C   UNL A   1      43.803  32.293  34.367  1.00  0.00     0.031 C 
ATOM     55  C   UNL A   1      43.882  27.341  30.851  1.00  0.00     0.029 A 
ATOM     56  C   UNL A   1      43.497  28.533  31.447  1.00  0.00     0.049 A 
ATOM     57  H   UNL A   1      41.764  29.688  31.113  1.00  0.00     0.167 HD
ATOM     58  C   UNL A   1      43.761  30.466  32.981  1.00  0.00     0.074 A 
ATOM     59  C   UNL A   1      44.471  31.208  34.003  1.00  0.00     0.031 C 
ATOM     60  C   UNL A   1      44.186  29.288  32.461  1.00  0.00     0.031 A 
BRANCH  47  61
ATOM     61  C   UNL A   1      40.378  26.838  28.254  1.00  0.00    -0.014 A 
ATOM     62  C   UNL A   1      39.576  25.762  28.667  1.00  0.00     0.009 A 
ATOM     63  C   UNL A   1      40.873  26.847  26.939  1.00  0.00     0.009 A 
ATOM     64  C   UNL A   1      39.312  24.699  27.800  1.00  0.00     0.001 A 
ATOM     65  C   UNL A   1      40.580  25.800  26.064  1.00  0.00     0.001 A 
ATOM     66  C   UNL A   1      39.810  24.722  26.498  1.00  0.00     0.000 A 
ENDBRANCH  47  61
BRANCH  48  67
ATOM     67  C   UNL A   1      41.891  34.507  34.503  1.00  0.00    -0.014 A 
ATOM     68  C   UNL A   1      42.624  35.638  34.114  1.00  0.00     0.009 A 
ATOM     69  C   UNL A   1      41.372  34.452  35.807  1.00  0.00     0.009 A 
ATOM     70  C   UNL A   1      42.857  36.679  35.017  1.00  0.00     0.001 A 
ATOM     71  C   UNL A   1      41.580  35.509  36.698  1.00  0.00     0.001 A 
ATOM     72  C   UNL A   1      42.330  36.616  36.306  1.00  0.00     0.000 A 
ENDBRANCH  48  67
BRANCH  60  73
ATOM     73  C   UNL A   1      45.490  28.743  32.967  1.00  0.00    -0.014 A 
ATOM     74  C   UNL A   1      45.535  27.858  34.055  1.00  0.00     0.009 A 
ATOM     75  C   UNL A   1      46.683  29.071  32.305  1.00  0.00     0.009 A 
ATOM     76  C   UNL A   1      46.754  27.331  34.485  1.00  0.00     0.001 A 
ATOM     77  C   UNL A   1      47.896  28.520  32.717  1.00  0.00     0.001 A 
ATOM     78  C   UNL A   1      47.931  27.657  33.811  1.00  0.00     0.000 A 
ENDBRANCH  60  73
ENDBRANCH  34  35
ENDBRANCH  26  29
ENDBRANCH  24  25
ENDBRANCH  23  24
ENDBRANCH   1  23
TORSDOF 13
ENDMDL
MODEL 3
REMARK VINA RESULT:     -11.2      1.827      7.233
REMARK SMILES C[C@@H]1CN(C(=O)NC[C@@H]2CCC[C@@H]2C(=O)NCCCNC(=O)c2ccc(-c3c4nc(c(-c5ccccc5)c5ccc([nH]5)c(-c5ccccc5)c5nc(c(-c6ccccc6)c6ccc3[nH]6)C=C5)C=C4)cc2)C[C@@H]1C
REMARK SMILES IDX 17 1 16 2 14 3 15 4 13 6 9 7 10 8 11 9 12 10 8 11 7 12 5 13
REMARK SMILES IDX 6 14 4 16 1 17 2 18 3 19 72 20 71 21 73 22 18 23 19 24 20 25
REMARK SMILES IDX 21 26 22 28 23 29 24 30 70 31 25 32 69 33 26 34 27 35 28 36
REMARK SMILES IDX 63 37 29 38 68 39 62 40 64 41 30 42 67 43 61 44 60 45 31 47
REMARK SMILES IDX 53 48 38 49 52 50 39 51 42 52 51 53 65 54 40 55 41 56 50 58
REMARK SMILES IDX 66 59 43 60 32 61 33 62 37 63 34 64 36 65 35 66 54 67 55 68
REMARK SMILES IDX 59 69 56 70 58 71 57 72 44 73 45 74 49 75 46 76 48 77 47 78
REMARK H PARENT 16 5 7 15 20 27 64 46 42 57
REMARK Flexibility Score: inf
ROOT
ATOM      1  C   UNL A   1      32.466  27.298  26.735  1.00  0.00     0.117 C 
ENDROOT
BRANCH   1   2
ATOM      2  N   UNL A   1      31.201  26.603  26.780  1.00  0.00    -0.356 N 
ATOM      3  C   UNL A   1      30.387  25.982  25.904  1.00  0.00     0.223 C 
ATOM      4  O   UNL A   1      29.423  25.436  26.465  1.00  0.00    -0.275 OA
ATOM      5  H   UNL A   1      30.836  26.576  27.694  1.00  0.00     0.163 HD
BRANCH   3   6
ATOM      6  C   UNL A   1      30.569  25.796  24.379  1.00  0.00     0.083 C 
ATOM      7  C   UNL A   1      31.395  26.728  23.466  1.00  0.00     0.021 C 
ATOM      8  C   UNL A   1      30.623  28.044  23.561  1.00  0.00     0.006 C 
ATOM      9  C   UNL A   1      29.150  27.590  23.556  1.00  0.00     0.001 C 
ATOM     10  C   UNL A   1      29.186  26.065  23.726  1.00  0.00     0.014 C 
BRANCH   7  11
ATOM     11  C   UNL A   1      32.924  26.753  23.539  1.00  0.00     0.122 C 
BRANCH  11  12
ATOM     12  N   UNL A   1      33.471  25.700  22.682  1.00  0.00    -0.338 N 
ATOM     13  C   UNL A   1      33.675  24.379  22.825  1.00  0.00     0.317 C 
ATOM     14  O   UNL A   1      33.669  23.714  21.787  1.00  0.00    -0.249 OA
ATOM     15  H   UNL A   1      33.755  26.035  21.801  1.00  0.00     0.165 HD
BRANCH  13  16
ATOM     16  N   UNL A   1      33.881  23.820  24.037  1.00  0.00    -0.324 N 
ATOM     17  C   UNL A   1      32.914  22.678  27.421  1.00  0.00     0.010 C 
ATOM     18  C   UNL A   1      33.518  23.545  26.335  1.00  0.00     0.010 C 
ATOM     19  C   UNL A   1      32.896  23.298  24.961  1.00  0.00     0.125 C 
ATOM     20  C   UNL A   1      35.028  23.388  26.078  1.00  0.00     0.010 C 
ATOM     21  C   UNL A   1      35.170  24.018  24.692  1.00  0.00     0.125 C 
ATOM     22  C   UNL A   1      35.553  21.953  26.074  1.00  0.00     0.010 C 
ENDBRANCH  13  16
ENDBRANCH  11  12
ENDBRANCH   7  11
ENDBRANCH   3   6
ENDBRANCH   1   2
BRANCH   1  23
ATOM     23  C   UNL A   1      32.354  28.731  27.238  1.00  0.00     0.042 C 
BRANCH  23  24
ATOM     24  C   UNL A   1      33.584  29.552  26.882  1.00  0.00     0.118 C 
BRANCH  24  25
ATOM     25  N   UNL A   1      33.715  30.744  27.723  1.00  0.00    -0.352 N 
ATOM     26  C   UNL A   1      34.693  31.111  28.615  1.00  0.00     0.251 C 
ATOM     27  H   UNL A   1      32.979  31.392  27.633  1.00  0.00     0.163 HD
ATOM     28  O   UNL A   1      34.499  32.047  29.391  1.00  0.00    -0.269 OA
BRANCH  26  29
ATOM     29  C   UNL A   1      35.966  30.365  28.673  1.00  0.00     0.039 A 
ATOM     30  C   UNL A   1      36.862  30.437  27.601  1.00  0.00     0.014 A 
ATOM     31  C   UNL A   1      36.288  29.611  29.798  1.00  0.00     0.014 A 
ATOM     32  C   UNL A   1      38.122  29.846  27.714  1.00  0.00     0.010 A 
ATOM     33  C   UNL A   1      37.583  29.143  29.963  1.00  0.00     0.010 A 
ATOM     34  C   UNL A   1      38.516  29.252  28.923  1.00  0.00    -0.014 A 
BRANCH  34  35
ATOM     35  C   UNL A   1      39.889  28.733  29.148  1.00  0.00     0.031 A 
ATOM     36  C   UNL A   1      40.953  29.651  29.688  1.00  0.00     0.074 A 
ATOM     37  C   UNL A   1      40.207  27.483  28.754  1.00  0.00     0.049 A 
ATOM     38  N   UNL A   1      42.242  29.451  29.796  1.00  0.00    -0.248 NA
ATOM     39  C   UNL A   1      40.517  30.992  30.118  1.00  0.00     0.031 C 
ATOM     40  C   UNL A   1      39.279  26.511  28.168  1.00  0.00     0.029 A 
ATOM     41  N   UNL A   1      41.408  26.819  28.773  1.00  0.00    -0.354 N 
ATOM     42  C   UNL A   1      42.768  30.648  30.268  1.00  0.00     0.074 A 
ATOM     43  C   UNL A   1      41.673  31.587  30.362  1.00  0.00     0.031 C 
ATOM     44  C   UNL A   1      39.937  25.368  27.917  1.00  0.00     0.029 A 
ATOM     45  C   UNL A   1      41.341  25.543  28.267  1.00  0.00     0.049 A 
ATOM     46  H   UNL A   1      42.239  27.219  29.115  1.00  0.00     0.167 HD
ATOM     47  C   UNL A   1      44.045  30.935  30.614  1.00  0.00     0.031 A 
ATOM     48  C   UNL A   1      42.306  24.620  28.091  1.00  0.00     0.031 A 
ATOM     49  C   UNL A   1      45.123  29.988  30.548  1.00  0.00     0.049 A 
ATOM     50  C   UNL A   1      43.718  24.964  28.479  1.00  0.00     0.074 A 
ATOM     51  C   UNL A   1      46.438  30.149  30.945  1.00  0.00     0.029 A 
ATOM     52  N   UNL A   1      45.006  28.698  30.051  1.00  0.00    -0.354 N 
ATOM     53  N   UNL A   1      44.186  26.076  28.990  1.00  0.00    -0.248 NA
ATOM     54  C   UNL A   1      44.733  23.921  28.269  1.00  0.00     0.031 C 
ATOM     55  C   UNL A   1      47.130  28.973  30.640  1.00  0.00     0.029 A 
ATOM     56  C   UNL A   1      46.232  28.061  30.107  1.00  0.00     0.049 A 
ATOM     57  H   UNL A   1      44.173  28.296  29.712  1.00  0.00     0.167 HD
ATOM     58  C   UNL A   1      45.544  25.861  29.185  1.00  0.00     0.074 A 
ATOM     59  C   UNL A   1      45.819  24.505  28.756  1.00  0.00     0.031 C 
ATOM     60  C   UNL A   1      46.481  26.710  29.675  1.00  0.00     0.031 A 
BRANCH  47  61
ATOM     61  C   UNL A   1      44.337  32.329  31.099  1.00  0.00    -0.014 A 
ATOM     62  C   UNL A   1      44.264  32.659  32.462  1.00  0.00     0.009 A 
ATOM     63  C   UNL A   1      44.712  33.324  30.182  1.00  0.00     0.009 A 
ATOM     64  C   UNL A   1      44.517  33.963  32.892  1.00  0.00     0.001 A 
ATOM     65  C   UNL A   1      44.998  34.619  30.618  1.00  0.00     0.001 A 
ATOM     66  C   UNL A   1      44.888  34.941  31.970  1.00  0.00     0.000 A 
ENDBRANCH  47  61
BRANCH  48  67
ATOM     67  C   UNL A   1      41.972  23.283  27.531  1.00  0.00    -0.014 A 
ATOM     68  C   UNL A   1      41.422  22.288  28.354  1.00  0.00     0.009 A 
ATOM     69  C   UNL A   1      42.201  22.991  26.177  1.00  0.00     0.009 A 
ATOM     70  C   UNL A   1      41.133  21.021  27.840  1.00  0.00     0.001 A 
ATOM     71  C   UNL A   1      41.882  21.733  25.658  1.00  0.00     0.001 A 
ATOM     72  C   UNL A   1      41.358  20.747  26.492  1.00  0.00     0.000 A 
ENDBRANCH  48  67
BRANCH  60  73
ATOM     73  C   UNL A   1      47.884  26.189  29.798  1.00  0.00    -0.014 A 
ATOM     74  C   UNL A   1      48.751  26.168  28.695  1.00  0.00     0.009 A 
ATOM     75  C   UNL A   1      48.362  25.774  31.050  1.00  0.00     0.009 A 
ATOM     76  C   UNL A   1      50.064  25.717  28.840  1.00  0.00     0.001 A 
ATOM     77  C   UNL A   1      49.683  25.352  31.199  1.00  0.00     0.001 A 
ATOM     78  C   UNL A   1      50.530  25.317  30.092  1.00  0.00     0.000 A 
ENDBRANCH  60  73
ENDBRANCH  34  35
ENDBRANCH  26  29
ENDBRANCH  24  25
ENDBRANCH  23  24
ENDBRANCH   1  23
TORSDOF 13
ENDMDL
