MODEL 1
REMARK VINA RESULT:     -10.9      0.000      0.000
REMARK SMILES O=C(NCCCNC(=O)[C@H](CCO)NC(=O)c1cccc(C(F)(F)F)c1F)c1ccc(-c2c3nc(c(-c4ccccc4)c4ccc([nH]4)c(-c4ccccc4)c4nc(c(-c5ccccc5)c5ccc2[nH]5)C=C4)C=C3)cc1
REMARK SMILES IDX 5 1 4 2 3 3 1 4 2 5 28 7 29 8 75 9 30 10 74 11 31 12 32 13
REMARK SMILES IDX 33 14 68 15 34 16 73 17 67 18 69 19 35 20 72 21 66 22 65 23
REMARK SMILES IDX 36 25 58 26 43 27 57 28 44 29 47 30 56 31 70 32 45 33 46 34
REMARK SMILES IDX 55 36 71 37 48 38 37 39 38 40 42 41 39 42 41 43 40 44 59 45
REMARK SMILES IDX 60 46 64 47 61 48 63 49 62 50 49 51 50 52 54 53 51 54 53 55
REMARK SMILES IDX 52 56 6 57 7 58 8 59 9 61 10 62 14 63 15 64 16 66 17 67
REMARK SMILES IDX 18 68 26 69 19 70 21 71 27 72 20 73 22 74 23 75 24 76 25 77
REMARK SMILES IDX 11 78 12 79 13 80
REMARK H PARENT 3 6 69 24 47 35 7 60 14 65 13 81
REMARK Flexibility Score: inf
ROOT
ATOM      1  C   UNL A   1      37.838  19.888  24.791  1.00  0.00     0.042 C 
ENDROOT
BRANCH   1   2
ATOM      2  C   UNL A   1      38.905  20.254  25.815  1.00  0.00     0.118 C 
BRANCH   2   3
ATOM      3  N   UNL A   1      40.010  19.302  25.850  1.00  0.00    -0.352 N 
ATOM      4  O   UNL A   1      42.138  18.569  25.896  1.00  0.00    -0.269 OA
ATOM      5  C   UNL A   1      41.349  19.488  26.101  1.00  0.00     0.251 C 
ATOM      6  H   UNL A   1      39.754  18.370  25.661  1.00  0.00     0.163 HD
BRANCH   5   7
ATOM      7  C   UNL A   1      41.850  20.791  26.587  1.00  0.00     0.039 A 
ATOM      8  C   UNL A   1      41.977  21.044  27.952  1.00  0.00     0.014 A 
ATOM      9  C   UNL A   1      42.214  21.775  25.662  1.00  0.00     0.014 A 
ATOM     10  C   UNL A   1      42.262  22.330  28.392  1.00  0.00     0.010 A 
ATOM     11  C   UNL A   1      42.616  23.038  26.109  1.00  0.00     0.010 A 
ATOM     12  C   UNL A   1      42.593  23.343  27.478  1.00  0.00    -0.014 A 
BRANCH  12  13
ATOM     13  C   UNL A   1      42.931  24.695  27.995  1.00  0.00     0.031 A 
ATOM     14  C   UNL A   1      44.362  25.140  28.139  1.00  0.00     0.074 A 
ATOM     15  C   UNL A   1      41.929  25.553  28.274  1.00  0.00     0.049 A 
ATOM     16  N   UNL A   1      44.825  26.311  28.501  1.00  0.00    -0.248 NA
ATOM     17  C   UNL A   1      45.408  24.146  27.853  1.00  0.00     0.031 C 
ATOM     18  C   UNL A   1      40.500  25.241  28.179  1.00  0.00     0.029 A 
ATOM     19  N   UNL A   1      41.955  26.870  28.654  1.00  0.00    -0.354 N 
ATOM     20  C   UNL A   1      46.210  26.186  28.513  1.00  0.00     0.074 A 
ATOM     21  C   UNL A   1      46.512  24.821  28.145  1.00  0.00     0.031 C 
ATOM     22  C   UNL A   1      39.791  26.353  28.415  1.00  0.00     0.029 A 
ATOM     23  C   UNL A   1      40.707  27.438  28.746  1.00  0.00     0.049 A 
ATOM     24  H   UNL A   1      42.787  27.361  28.842  1.00  0.00     0.167 HD
ATOM     25  C   UNL A   1      47.144  27.124  28.801  1.00  0.00     0.031 A 
ATOM     26  C   UNL A   1      40.336  28.690  29.064  1.00  0.00     0.031 A 
ATOM     27  C   UNL A   1      46.845  28.488  29.151  1.00  0.00     0.049 A 
ATOM     28  C   UNL A   1      41.393  29.706  29.383  1.00  0.00     0.074 A 
ATOM     29  C   UNL A   1      47.727  29.521  29.423  1.00  0.00     0.029 A 
ATOM     30  N   UNL A   1      45.568  29.011  29.274  1.00  0.00    -0.354 N 
ATOM     31  N   UNL A   1      42.696  29.576  29.360  1.00  0.00    -0.248 NA
ATOM     32  C   UNL A   1      40.923  31.043  29.770  1.00  0.00     0.031 C 
ATOM     33  C   UNL A   1      46.981  30.657  29.758  1.00  0.00     0.029 A 
ATOM     34  C   UNL A   1      45.636  30.345  29.640  1.00  0.00     0.049 A 
ATOM     35  H   UNL A   1      44.735  28.508  29.123  1.00  0.00     0.167 HD
ATOM     36  C   UNL A   1      43.205  30.819  29.710  1.00  0.00     0.074 A 
ATOM     37  C   UNL A   1      42.068  31.693  29.918  1.00  0.00     0.031 C 
ATOM     38  C   UNL A   1      44.498  31.201  29.847  1.00  0.00     0.031 A 
BRANCH  25  39
ATOM     39  C   UNL A   1      48.587  26.697  28.780  1.00  0.00    -0.014 A 
ATOM     40  C   UNL A   1      49.388  26.870  27.641  1.00  0.00     0.009 A 
ATOM     41  C   UNL A   1      49.164  26.150  29.937  1.00  0.00     0.009 A 
ATOM     42  C   UNL A   1      50.727  26.473  27.650  1.00  0.00     0.001 A 
ATOM     43  C   UNL A   1      50.510  25.778  29.953  1.00  0.00     0.001 A 
ATOM     44  C   UNL A   1      51.289  25.931  28.807  1.00  0.00     0.000 A 
ENDBRANCH  25  39
BRANCH  26  45
ATOM     45  C   UNL A   1      38.895  29.050  29.092  1.00  0.00    -0.014 A 
ATOM     46  C   UNL A   1      38.247  29.491  27.928  1.00  0.00     0.009 A 
ATOM     47  C   UNL A   1      38.159  28.946  30.282  1.00  0.00     0.009 A 
ATOM     48  C   UNL A   1      36.895  29.839  27.962  1.00  0.00     0.001 A 
ATOM     49  C   UNL A   1      36.801  29.266  30.306  1.00  0.00     0.001 A 
ATOM     50  C   UNL A   1      36.172  29.721  29.148  1.00  0.00     0.000 A 
ENDBRANCH  26  45
BRANCH  38  51
ATOM     51  C   UNL A   1      44.745  32.638  30.205  1.00  0.00    -0.014 A 
ATOM     52  C   UNL A   1      44.862  33.048  31.543  1.00  0.00     0.009 A 
ATOM     53  C   UNL A   1      44.878  33.593  29.185  1.00  0.00     0.009 A 
ATOM     54  C   UNL A   1      45.066  34.394  31.851  1.00  0.00     0.001 A 
ATOM     55  C   UNL A   1      45.111  34.933  29.496  1.00  0.00     0.001 A 
ATOM     56  C   UNL A   1      45.193  35.334  30.829  1.00  0.00     0.000 A 
ENDBRANCH  38  51
ENDBRANCH  12  13
ENDBRANCH   5   7
ENDBRANCH   2   3
ENDBRANCH   1   2
BRANCH   1  57
ATOM     57  C   UNL A   1      36.447  20.379  25.158  1.00  0.00     0.117 C 
BRANCH  57  58
ATOM     58  N   UNL A   1      36.407  21.813  25.376  1.00  0.00    -0.354 N 
ATOM     59  C   UNL A   1      35.539  22.764  24.933  1.00  0.00     0.242 C 
ATOM     60  H   UNL A   1      37.132  22.159  25.944  1.00  0.00     0.163 HD
ATOM     61  O   UNL A   1      35.648  23.897  25.411  1.00  0.00    -0.273 OA
BRANCH  59  62
ATOM     62  C   UNL A   1      34.404  22.435  23.945  1.00  0.00     0.173 C 
BRANCH  62  63
ATOM     63  N   UNL A   1      33.109  22.392  24.635  1.00  0.00    -0.340 N 
ATOM     64  C   UNL A   1      32.238  21.346  24.817  1.00  0.00     0.254 C 
ATOM     65  H   UNL A   1      32.819  23.245  25.030  1.00  0.00     0.164 HD
ATOM     66  O   UNL A   1      31.201  21.511  25.452  1.00  0.00    -0.269 OA
BRANCH  64  67
ATOM     67  C   UNL A   1      32.475  20.055  24.150  1.00  0.00     0.076 A 
ATOM     68  C   UNL A   1      32.151  19.940  22.795  1.00  0.00     0.017 A 
ATOM     69  C   UNL A   1      33.027  18.975  24.838  1.00  0.00     0.148 A 
ATOM     70  C   UNL A   1      32.450  18.761  22.115  1.00  0.00     0.002 A 
ATOM     71  C   UNL A   1      33.368  17.805  24.162  1.00  0.00     0.092 A 
ATOM     72  F   UNL A   1      33.259  19.080  26.152  1.00  0.00    -0.205 F 
ATOM     73  C   UNL A   1      33.070  17.707  22.791  1.00  0.00     0.016 A 
BRANCH  71  74
ATOM     74  C   UNL A   1      34.062  16.674  24.865  1.00  0.00     0.419 C 
ATOM     75  F   UNL A   1      35.394  16.909  25.024  1.00  0.00    -0.166 F 
ATOM     76  F   UNL A   1      33.569  16.488  26.123  1.00  0.00    -0.166 F 
ATOM     77  F   UNL A   1      33.964  15.465  24.254  1.00  0.00    -0.166 F 
ENDBRANCH  71  74
ENDBRANCH  64  67
ENDBRANCH  62  63
BRANCH  62  78
ATOM     78  C   UNL A   1      34.408  23.396  22.745  1.00  0.00     0.063 C 
BRANCH  78  79
ATOM     79  C   UNL A   1      33.229  24.362  22.760  1.00  0.00     0.158 C 
BRANCH  79  80
ATOM     80  O   UNL A   1      32.113  23.813  22.078  1.00  0.00    -0.396 OA
ATOM     81  H   UNL A   1      31.579  24.530  21.702  1.00  0.00     0.210 HD
ENDBRANCH  79  80
ENDBRANCH  78  79
ENDBRANCH  62  78
ENDBRANCH  59  62
ENDBRANCH  57  58
ENDBRANCH   1  57
TORSDOF 16
ENDMDL
MODEL 2
REMARK VINA RESULT:     -10.8      5.617     10.148
REMARK SMILES O=C(NCCCNC(=O)[C@H](CCO)NC(=O)c1cccc(C(F)(F)F)c1F)c1ccc(-c2c3nc(c(-c4ccccc4)c4ccc([nH]4)c(-c4ccccc4)c4nc(c(-c5ccccc5)c5ccc2[nH]5)C=C4)C=C3)cc1
REMARK SMILES IDX 5 1 4 2 3 3 1 4 2 5 28 7 29 8 75 9 30 10 74 11 31 12 32 13
REMARK SMILES IDX 33 14 68 15 34 16 73 17 67 18 69 19 35 20 72 21 66 22 65 23
REMARK SMILES IDX 36 25 58 26 43 27 57 28 44 29 47 30 56 31 70 32 45 33 46 34
REMARK SMILES IDX 55 36 71 37 48 38 37 39 38 40 42 41 39 42 41 43 40 44 59 45
REMARK SMILES IDX 60 46 64 47 61 48 63 49 62 50 49 51 50 52 54 53 51 54 53 55
REMARK SMILES IDX 52 56 6 57 7 58 8 59 9 61 10 62 14 63 15 64 16 66 17 67
REMARK SMILES IDX 18 68 26 69 19 70 21 71 27 72 20 73 22 74 23 75 24 76 25 77
REMARK SMILES IDX 11 78 12 79 13 80
REMARK H PARENT 3 6 69 24 47 35 7 60 14 65 13 81
REMARK Flexibility Score: inf
ROOT
ATOM      1  C   UNL A   1      30.945  32.166  26.090  1.00  0.00     0.042 C 
ENDROOT
BRANCH   1   2
ATOM      2  C   UNL A   1      32.210  32.437  26.895  1.00  0.00     0.118 C 
BRANCH   2   3
ATOM      3  N   UNL A   1      32.209  33.751  27.531  1.00  0.00    -0.352 N 
ATOM      4  O   UNL A   1      32.799  35.377  28.971  1.00  0.00    -0.269 OA
ATOM      5  C   UNL A   1      33.093  34.320  28.416  1.00  0.00     0.251 C 
ATOM      6  H   UNL A   1      31.449  34.325  27.284  1.00  0.00     0.163 HD
BRANCH   5   7
ATOM      7  C   UNL A   1      34.378  33.659  28.729  1.00  0.00     0.039 A 
ATOM      8  C   UNL A   1      34.469  32.730  29.764  1.00  0.00     0.014 A 
ATOM      9  C   UNL A   1      35.510  33.962  27.967  1.00  0.00     0.014 A 
ATOM     10  C   UNL A   1      35.713  32.266  30.169  1.00  0.00     0.010 A 
ATOM     11  C   UNL A   1      36.747  33.401  28.302  1.00  0.00     0.010 A 
ATOM     12  C   UNL A   1      36.869  32.590  29.440  1.00  0.00    -0.014 A 
BRANCH  12  13
ATOM     13  C   UNL A   1      38.177  32.039  29.884  1.00  0.00     0.031 A 
ATOM     14  C   UNL A   1      38.986  32.721  30.956  1.00  0.00     0.074 A 
ATOM     15  C   UNL A   1      38.603  30.874  29.359  1.00  0.00     0.049 A 
ATOM     16  N   UNL A   1      40.107  32.330  31.511  1.00  0.00    -0.248 NA
ATOM     17  C   UNL A   1      38.483  34.006  31.464  1.00  0.00     0.031 C 
ATOM     18  C   UNL A   1      37.912  30.117  28.310  1.00  0.00     0.029 A 
ATOM     19  N   UNL A   1      39.695  30.100  29.659  1.00  0.00    -0.354 N 
ATOM     20  C   UNL A   1      40.457  33.332  32.409  1.00  0.00     0.074 A 
ATOM     21  C   UNL A   1      39.444  34.359  32.309  1.00  0.00     0.031 C 
ATOM     22  C   UNL A   1      38.551  28.957  28.112  1.00  0.00     0.029 A 
ATOM     23  C   UNL A   1      39.733  28.915  28.964  1.00  0.00     0.049 A 
ATOM     24  H   UNL A   1      40.384  30.368  30.309  1.00  0.00     0.167 HD
ATOM     25  C   UNL A   1      41.523  33.390  33.243  1.00  0.00     0.031 A 
ATOM     26  C   UNL A   1      40.620  27.906  29.002  1.00  0.00     0.031 A 
ATOM     27  C   UNL A   1      42.524  32.361  33.356  1.00  0.00     0.049 A 
ATOM     28  C   UNL A   1      41.794  28.000  29.932  1.00  0.00     0.074 A 
ATOM     29  C   UNL A   1      43.621  32.314  34.199  1.00  0.00     0.029 A 
ATOM     30  N   UNL A   1      42.548  31.197  32.604  1.00  0.00    -0.354 N 
ATOM     31  N   UNL A   1      42.091  28.942  30.793  1.00  0.00    -0.248 NA
ATOM     32  C   UNL A   1      42.753  26.888  29.894  1.00  0.00     0.031 C 
ATOM     33  C   UNL A   1      44.336  31.143  33.924  1.00  0.00     0.029 A 
ATOM     34  C   UNL A   1      43.653  30.436  32.948  1.00  0.00     0.049 A 
ATOM     35  H   UNL A   1      41.879  30.948  31.926  1.00  0.00     0.167 HD
ATOM     36  C   UNL A   1      43.261  28.529  31.415  1.00  0.00     0.074 A 
ATOM     37  C   UNL A   1      43.605  27.241  30.846  1.00  0.00     0.031 C 
ATOM     38  C   UNL A   1      43.984  29.159  32.371  1.00  0.00     0.031 A 
BRANCH  25  39
ATOM     39  C   UNL A   1      41.682  34.628  34.083  1.00  0.00    -0.014 A 
ATOM     40  C   UNL A   1      41.149  34.710  35.379  1.00  0.00     0.009 A 
ATOM     41  C   UNL A   1      42.414  35.716  33.581  1.00  0.00     0.009 A 
ATOM     42  C   UNL A   1      41.318  35.869  36.141  1.00  0.00     0.001 A 
ATOM     43  C   UNL A   1      42.604  36.863  34.356  1.00  0.00     0.001 A 
ATOM     44  C   UNL A   1      42.048  36.942  35.631  1.00  0.00     0.000 A 
ENDBRANCH  25  39
BRANCH  26  45
ATOM     45  C   UNL A   1      40.427  26.717  28.134  1.00  0.00    -0.014 A 
ATOM     46  C   UNL A   1      39.681  25.617  28.584  1.00  0.00     0.009 A 
ATOM     47  C   UNL A   1      40.980  26.681  26.844  1.00  0.00     0.009 A 
ATOM     48  C   UNL A   1      39.511  24.497  27.768  1.00  0.00     0.001 A 
ATOM     49  C   UNL A   1      40.784  25.573  26.020  1.00  0.00     0.001 A 
ATOM     50  C   UNL A   1      40.056  24.478  26.485  1.00  0.00     0.000 A 
ENDBRANCH  26  45
BRANCH  38  51
ATOM     51  C   UNL A   1      45.200  28.443  32.884  1.00  0.00    -0.014 A 
ATOM     52  C   UNL A   1      46.463  28.641  32.304  1.00  0.00     0.009 A 
ATOM     53  C   UNL A   1      45.080  27.566  33.973  1.00  0.00     0.009 A 
ATOM     54  C   UNL A   1      47.575  27.943  32.782  1.00  0.00     0.001 A 
ATOM     55  C   UNL A   1      46.198  26.893  34.467  1.00  0.00     0.001 A 
ATOM     56  C   UNL A   1      47.441  27.073  33.863  1.00  0.00     0.000 A 
ENDBRANCH  38  51
ENDBRANCH  12  13
ENDBRANCH   5   7
ENDBRANCH   2   3
ENDBRANCH   1   2
BRANCH   1  57
ATOM     57  C   UNL A   1      30.983  30.857  25.319  1.00  0.00     0.117 C 
BRANCH  57  58
ATOM     58  N   UNL A   1      32.247  30.161  25.470  1.00  0.00    -0.354 N 
ATOM     59  C   UNL A   1      32.563  28.841  25.368  1.00  0.00     0.242 C 
ATOM     60  H   UNL A   1      33.010  30.746  25.682  1.00  0.00     0.163 HD
ATOM     61  O   UNL A   1      33.760  28.543  25.382  1.00  0.00    -0.273 OA
BRANCH  59  62
ATOM     62  C   UNL A   1      31.487  27.760  25.150  1.00  0.00     0.173 C 
BRANCH  62  63
ATOM     63  N   UNL A   1      31.623  27.149  23.821  1.00  0.00    -0.340 N 
ATOM     64  C   UNL A   1      30.872  27.325  22.686  1.00  0.00     0.254 C 
ATOM     65  H   UNL A   1      32.370  26.515  23.730  1.00  0.00     0.164 HD
ATOM     66  O   UNL A   1      31.166  26.730  21.654  1.00  0.00    -0.269 OA
BRANCH  64  67
ATOM     67  C   UNL A   1      29.639  28.128  22.726  1.00  0.00     0.076 A 
ATOM     68  C   UNL A   1      28.498  27.561  23.302  1.00  0.00     0.017 A 
ATOM     69  C   UNL A   1      29.604  29.428  22.224  1.00  0.00     0.148 A 
ATOM     70  C   UNL A   1      27.343  28.328  23.437  1.00  0.00     0.002 A 
ATOM     71  C   UNL A   1      28.469  30.221  22.388  1.00  0.00     0.092 A 
ATOM     72  F   UNL A   1      30.683  29.926  21.608  1.00  0.00    -0.205 F 
ATOM     73  C   UNL A   1      27.334  29.655  22.999  1.00  0.00     0.016 A 
BRANCH  71  74
ATOM     74  C   UNL A   1      28.452  31.657  21.952  1.00  0.00     0.419 C 
ATOM     75  F   UNL A   1      27.430  32.354  22.520  1.00  0.00    -0.166 F 
ATOM     76  F   UNL A   1      29.592  32.308  22.325  1.00  0.00    -0.166 F 
ATOM     77  F   UNL A   1      28.342  31.854  20.613  1.00  0.00    -0.166 F 
ENDBRANCH  71  74
ENDBRANCH  64  67
ENDBRANCH  62  63
BRANCH  62  78
ATOM     78  C   UNL A   1      31.494  26.724  26.286  1.00  0.00     0.063 C 
BRANCH  78  79
ATOM     79  C   UNL A   1      31.295  25.299  25.784  1.00  0.00     0.158 C 
BRANCH  79  80
ATOM     80  O   UNL A   1      29.942  25.070  25.425  1.00  0.00    -0.396 OA
ATOM     81  H   UNL A   1      29.862  24.201  25.002  1.00  0.00     0.210 HD
ENDBRANCH  79  80
ENDBRANCH  78  79
ENDBRANCH  62  78
ENDBRANCH  59  62
ENDBRANCH  57  58
ENDBRANCH   1  57
TORSDOF 16
ENDMDL
MODEL 3
REMARK VINA RESULT:     -10.8      2.413      3.897
REMARK SMILES O=C(NCCCNC(=O)[C@H](CCO)NC(=O)c1cccc(C(F)(F)F)c1F)c1ccc(-c2c3nc(c(-c4ccccc4)c4ccc([nH]4)c(-c4ccccc4)c4nc(c(-c5ccccc5)c5ccc2[nH]5)C=C4)C=C3)cc1
REMARK SMILES IDX 5 1 4 2 3 3 1 4 2 5 28 7 29 8 75 9 30 10 74 11 31 12 32 13
REMARK SMILES IDX 33 14 68 15 34 16 73 17 67 18 69 19 35 20 72 21 66 22 65 23
REMARK SMILES IDX 36 25 58 26 43 27 57 28 44 29 47 30 56 31 70 32 45 33 46 34
REMARK SMILES IDX 55 36 71 37 48 38 37 39 38 40 42 41 39 42 41 43 40 44 59 45
REMARK SMILES IDX 60 46 64 47 61 48 63 49 62 50 49 51 50 52 54 53 51 54 53 55
REMARK SMILES IDX 52 56 6 57 7 58 8 59 9 61 10 62 14 63 15 64 16 66 17 67
REMARK SMILES IDX 18 68 26 69 19 70 21 71 27 72 20 73 22 74 23 75 24 76 25 77
REMARK SMILES IDX 11 78 12 79 13 80
REMARK H PARENT 3 6 69 24 47 35 7 60 14 65 13 81
REMARK Flexibility Score: inf
ROOT
ATOM      1  C   UNL A   1      37.435  19.901  24.918  1.00  0.00     0.042 C 
ENDROOT
BRANCH   1   2
ATOM      2  C   UNL A   1      38.660  20.423  25.657  1.00  0.00     0.118 C 
BRANCH   2   3
ATOM      3  N   UNL A   1      39.753  19.456  25.701  1.00  0.00    -0.352 N 
ATOM      4  O   UNL A   1      41.868  18.695  25.818  1.00  0.00    -0.269 OA
ATOM      5  C   UNL A   1      41.078  19.613  26.028  1.00  0.00     0.251 C 
ATOM      6  H   UNL A   1      39.497  18.537  25.455  1.00  0.00     0.163 HD
BRANCH   5   7
ATOM      7  C   UNL A   1      41.568  20.885  26.600  1.00  0.00     0.039 A 
ATOM      8  C   UNL A   1      41.586  21.088  27.979  1.00  0.00     0.014 A 
ATOM      9  C   UNL A   1      42.031  21.890  25.745  1.00  0.00     0.014 A 
ATOM     10  C   UNL A   1      41.864  22.349  28.488  1.00  0.00     0.010 A 
ATOM     11  C   UNL A   1      42.425  23.125  26.270  1.00  0.00     0.010 A 
ATOM     12  C   UNL A   1      42.294  23.384  27.642  1.00  0.00    -0.014 A 
BRANCH  12  13
ATOM     13  C   UNL A   1      42.620  24.708  28.234  1.00  0.00     0.031 A 
ATOM     14  C   UNL A   1      44.040  25.093  28.552  1.00  0.00     0.074 A 
ATOM     15  C   UNL A   1      41.625  25.598  28.422  1.00  0.00     0.049 A 
ATOM     16  N   UNL A   1      44.501  26.235  28.998  1.00  0.00    -0.248 NA
ATOM     17  C   UNL A   1      45.075  24.066  28.356  1.00  0.00     0.031 C 
ATOM     18  C   UNL A   1      40.205  25.345  28.157  1.00  0.00     0.029 A 
ATOM     19  N   UNL A   1      41.654  26.902  28.841  1.00  0.00    -0.354 N 
ATOM     20  C   UNL A   1      45.870  26.056  29.164  1.00  0.00     0.074 A 
ATOM     21  C   UNL A   1      46.162  24.689  28.792  1.00  0.00     0.031 C 
ATOM     22  C   UNL A   1      39.514  26.478  28.344  1.00  0.00     0.029 A 
ATOM     23  C   UNL A   1      40.426  27.516  28.809  1.00  0.00     0.049 A 
ATOM     24  H   UNL A   1      42.477  27.356  29.137  1.00  0.00     0.167 HD
ATOM     25  C   UNL A   1      46.799  26.948  29.583  1.00  0.00     0.031 A 
ATOM     26  C   UNL A   1      40.066  28.774  29.119  1.00  0.00     0.031 A 
ATOM     27  C   UNL A   1      46.511  28.314  29.937  1.00  0.00     0.049 A 
ATOM     28  C   UNL A   1      41.115  29.739  29.586  1.00  0.00     0.074 A 
ATOM     29  C   UNL A   1      47.392  29.304  30.338  1.00  0.00     0.029 A 
ATOM     30  N   UNL A   1      45.248  28.883  29.930  1.00  0.00    -0.354 N 
ATOM     31  N   UNL A   1      42.407  29.559  29.707  1.00  0.00    -0.248 NA
ATOM     32  C   UNL A   1      40.653  31.083  29.956  1.00  0.00     0.031 C 
ATOM     33  C   UNL A   1      46.655  30.460  30.620  1.00  0.00     0.029 A 
ATOM     34  C   UNL A   1      45.322  30.204  30.341  1.00  0.00     0.049 A 
ATOM     35  H   UNL A   1      44.420  28.417  29.671  1.00  0.00     0.167 HD
ATOM     36  C   UNL A   1      42.917  30.771  30.149  1.00  0.00     0.074 A 
ATOM     37  C   UNL A   1      41.797  31.684  30.253  1.00  0.00     0.031 C 
ATOM     38  C   UNL A   1      44.199  31.098  30.443  1.00  0.00     0.031 A 
BRANCH  25  39
ATOM     39  C   UNL A   1      48.218  26.466  29.713  1.00  0.00    -0.014 A 
ATOM     40  C   UNL A   1      48.683  25.863  30.892  1.00  0.00     0.009 A 
ATOM     41  C   UNL A   1      49.091  26.579  28.620  1.00  0.00     0.009 A 
ATOM     42  C   UNL A   1      50.003  25.415  30.984  1.00  0.00     0.001 A 
ATOM     43  C   UNL A   1      50.402  26.108  28.705  1.00  0.00     0.001 A 
ATOM     44  C   UNL A   1      50.861  25.534  29.890  1.00  0.00     0.000 A 
ENDBRANCH  25  39
BRANCH  26  45
ATOM     45  C   UNL A   1      38.646  29.190  28.995  1.00  0.00    -0.014 A 
ATOM     46  C   UNL A   1      38.161  29.722  27.790  1.00  0.00     0.009 A 
ATOM     47  C   UNL A   1      37.765  29.047  30.078  1.00  0.00     0.009 A 
ATOM     48  C   UNL A   1      36.827  30.122  27.681  1.00  0.00     0.001 A 
ATOM     49  C   UNL A   1      36.426  29.420  29.957  1.00  0.00     0.001 A 
ATOM     50  C   UNL A   1      35.960  29.966  28.761  1.00  0.00     0.000 A 
ENDBRANCH  26  45
BRANCH  38  51
ATOM     51  C   UNL A   1      44.456  32.515  30.869  1.00  0.00    -0.014 A 
ATOM     52  C   UNL A   1      44.471  32.878  32.225  1.00  0.00     0.009 A 
ATOM     53  C   UNL A   1      44.700  33.498  29.897  1.00  0.00     0.009 A 
ATOM     54  C   UNL A   1      44.687  34.207  32.595  1.00  0.00     0.001 A 
ATOM     55  C   UNL A   1      44.944  34.819  30.272  1.00  0.00     0.001 A 
ATOM     56  C   UNL A   1      44.925  35.175  31.619  1.00  0.00     0.000 A 
ENDBRANCH  38  51
ENDBRANCH  12  13
ENDBRANCH   5   7
ENDBRANCH   2   3
ENDBRANCH   1   2
BRANCH   1  57
ATOM     57  C   UNL A   1      36.198  20.764  25.104  1.00  0.00     0.117 C 
BRANCH  57  58
ATOM     58  N   UNL A   1      35.005  19.975  25.351  1.00  0.00    -0.354 N 
ATOM     59  C   UNL A   1      33.685  20.298  25.274  1.00  0.00     0.242 C 
ATOM     60  H   UNL A   1      35.181  19.045  25.621  1.00  0.00     0.163 HD
ATOM     61  O   UNL A   1      32.870  19.377  25.380  1.00  0.00    -0.273 OA
BRANCH  59  62
ATOM     62  C   UNL A   1      33.211  21.733  24.976  1.00  0.00     0.173 C 
BRANCH  62  63
ATOM     63  N   UNL A   1      33.338  22.037  23.545  1.00  0.00    -0.340 N 
ATOM     64  C   UNL A   1      33.358  23.246  22.895  1.00  0.00     0.254 C 
ATOM     65  H   UNL A   1      33.423  21.250  22.959  1.00  0.00     0.164 HD
ATOM     66  O   UNL A   1      33.496  23.289  21.677  1.00  0.00    -0.269 OA
BRANCH  64  67
ATOM     67  C   UNL A   1      33.089  24.491  23.632  1.00  0.00     0.076 A 
ATOM     68  C   UNL A   1      34.109  25.026  24.425  1.00  0.00     0.017 A 
ATOM     69  C   UNL A   1      31.860  25.141  23.533  1.00  0.00     0.148 A 
ATOM     70  C   UNL A   1      33.916  26.250  25.061  1.00  0.00     0.002 A 
ATOM     71  C   UNL A   1      31.666  26.386  24.130  1.00  0.00     0.092 A 
ATOM     72  F   UNL A   1      30.870  24.575  22.831  1.00  0.00    -0.205 F 
ATOM     73  C   UNL A   1      32.708  26.934  24.900  1.00  0.00     0.016 A 
BRANCH  71  74
ATOM     74  C   UNL A   1      30.386  27.149  23.943  1.00  0.00     0.419 C 
ATOM     75  F   UNL A   1      30.432  28.378  24.527  1.00  0.00    -0.166 F 
ATOM     76  F   UNL A   1      30.128  27.379  22.623  1.00  0.00    -0.166 F 
ATOM     77  F   UNL A   1      29.274  26.543  24.431  1.00  0.00    -0.166 F 
ENDBRANCH  71  74
ENDBRANCH  64  67
ENDBRANCH  62  63
BRANCH  62  78
ATOM     78  C   UNL A   1      31.793  21.980  25.515  1.00  0.00     0.063 C 
BRANCH  78  79
ATOM     79  C   UNL A   1      31.771  22.952  26.689  1.00  0.00     0.158 C 
BRANCH  79  80
ATOM     80  O   UNL A   1      32.187  22.315  27.886  1.00  0.00    -0.396 OA
ATOM     81  H   UNL A   1      32.801  22.893  28.363  1.00  0.00     0.210 HD
ENDBRANCH  79  80
ENDBRANCH  78  79
ENDBRANCH  62  78
ENDBRANCH  59  62
ENDBRANCH  57  58
ENDBRANCH   1  57
TORSDOF 16
ENDMDL
