MODEL 1
REMARK VINA RESULT:     -12.9      0.000      0.000
REMARK SMILES CC(=O)Nc1cc(NC(C)=O)cc(C(=O)Nc2ccc(Br)cc2C(=O)NCCCNC(=O)c2ccc(-c3c4nc(c(-c5ccccc5)c5ccc([nH]5)c(-c5ccccc5)c5nc(c(-c6ccccc6)c6ccc3[nH]6)C=C5)C=C4)cc2)c1
REMARK SMILES IDX 27 1 26 2 24 3 25 4 23 6 17 7 18 8 19 9 22 10 20 11 21 12
REMARK SMILES IDX 16 13 14 14 15 15 13 17 5 18 6 19 81 20 7 21 12 22 4 23 1 24
REMARK SMILES IDX 2 25 3 26 8 28 9 29 10 31 11 32 28 33 29 34 30 35 31 36
REMARK SMILES IDX 32 38 33 39 34 40 80 41 35 42 79 43 36 44 37 45 38 46 73 47
REMARK SMILES IDX 39 48 78 49 72 50 74 51 40 52 77 53 71 54 70 55 41 57 63 58
REMARK SMILES IDX 48 59 62 60 49 61 52 62 61 63 75 64 50 65 51 66 60 68 76 69
REMARK SMILES IDX 53 70 42 71 43 72 47 73 44 74 46 75 45 76 64 77 65 78 69 79
REMARK SMILES IDX 66 80 68 81 67 82 54 83 55 84 59 85 56 86 58 87 57 88
REMARK H PARENT 26 5 16 16 4 27 8 30 30 37 74 56 52 67
REMARK Flexibility Score: inf
ROOT
ATOM      1  C   UNL A   1      37.220  21.945  24.371  1.00  0.00     0.118 C 
ENDROOT
BRANCH   1   2
ATOM      2  N   UNL A   1      36.421  22.702  25.314  1.00  0.00    -0.352 N 
ATOM      3  C   UNL A   1      35.067  22.891  25.363  1.00  0.00     0.253 C 
ATOM      4  O   UNL A   1      34.613  23.604  26.257  1.00  0.00    -0.269 OA
ATOM      5  H   UNL A   1      36.930  23.148  26.028  1.00  0.00     0.163 HD
BRANCH   3   6
ATOM      6  C   UNL A   1      34.157  22.349  24.325  1.00  0.00     0.064 A 
ATOM      7  C   UNL A   1      33.619  23.042  23.220  1.00  0.00     0.054 A 
ATOM      8  C   UNL A   1      32.583  22.431  22.492  1.00  0.00     0.028 A 
ATOM      9  C   UNL A   1      32.206  21.110  22.741  1.00  0.00     0.018 A 
ATOM     10  C   UNL A   1      33.796  21.003  24.543  1.00  0.00     0.031 A 
ATOM     11  C   UNL A   1      32.844  20.388  23.741  1.00  0.00     0.018 A 
ATOM     12  Br  UNL A   1      32.416  18.569  24.012  1.00  0.00    -0.051 Br
BRANCH   7  13
ATOM     13  N   UNL A   1      34.037  24.290  22.694  1.00  0.00    -0.321 N 
ATOM     14  C   UNL A   1      33.407  25.517  22.592  1.00  0.00     0.255 C 
ATOM     15  O   UNL A   1      33.884  26.381  21.861  1.00  0.00    -0.269 OA
ATOM     16  H   UNL A   1      34.953  24.282  22.332  1.00  0.00     0.170 HD
BRANCH  14  17
ATOM     17  C   UNL A   1      32.200  25.839  23.384  1.00  0.00     0.044 A 
ATOM     18  C   UNL A   1      30.839  25.424  25.328  1.00  0.00     0.044 A 
ATOM     19  C   UNL A   1      29.830  26.214  24.753  1.00  0.00     0.052 A 
ATOM     20  C   UNL A   1      32.050  25.311  24.666  1.00  0.00     0.040 A 
ATOM     21  C   UNL A   1      30.026  26.883  23.536  1.00  0.00     0.044 A 
ATOM     22  C   UNL A   1      31.216  26.668  22.837  1.00  0.00     0.040 A 
BRANCH  18  23
ATOM     23  N   UNL A   1      30.511  24.697  26.488  1.00  0.00    -0.326 N 
ATOM     24  C   UNL A   1      30.643  22.311  25.741  1.00  0.00     0.114 C 
ATOM     25  C   UNL A   1      30.258  23.378  26.727  1.00  0.00     0.221 C 
ATOM     26  O   UNL A   1      29.733  23.062  27.799  1.00  0.00    -0.275 OA
ATOM     27  H   UNL A   1      30.450  25.258  27.295  1.00  0.00     0.169 HD
ENDBRANCH  18  23
BRANCH  21  28
ATOM     28  N   UNL A   1      29.083  27.762  22.957  1.00  0.00    -0.326 N 
ATOM     29  C   UNL A   1      29.070  29.144  23.040  1.00  0.00     0.221 C 
ATOM     30  H   UNL A   1      28.356  27.347  22.440  1.00  0.00     0.169 HD
ATOM     31  C   UNL A   1      27.950  29.778  22.254  1.00  0.00     0.114 C 
ATOM     32  O   UNL A   1      29.869  29.849  23.648  1.00  0.00    -0.275 OA
ENDBRANCH  21  28
ENDBRANCH  14  17
ENDBRANCH   7  13
ENDBRANCH   3   6
ENDBRANCH   1   2
BRANCH   1  33
ATOM     33  C   UNL A   1      37.731  20.631  24.925  1.00  0.00     0.042 C 
BRANCH  33  34
ATOM     34  C   UNL A   1      38.901  20.781  25.888  1.00  0.00     0.118 C 
BRANCH  34  35
ATOM     35  N   UNL A   1      39.945  19.767  25.751  1.00  0.00    -0.352 N 
ATOM     36  C   UNL A   1      41.289  19.793  26.046  1.00  0.00     0.251 C 
ATOM     37  H   UNL A   1      39.629  18.911  25.380  1.00  0.00     0.163 HD
ATOM     38  O   UNL A   1      41.984  18.801  25.839  1.00  0.00    -0.269 OA
BRANCH  36  39
ATOM     39  C   UNL A   1      41.916  21.032  26.547  1.00  0.00     0.039 A 
ATOM     40  C   UNL A   1      42.359  21.990  25.632  1.00  0.00     0.014 A 
ATOM     41  C   UNL A   1      41.999  21.286  27.912  1.00  0.00     0.014 A 
ATOM     42  C   UNL A   1      42.755  23.250  26.089  1.00  0.00     0.010 A 
ATOM     43  C   UNL A   1      42.242  22.578  28.351  1.00  0.00     0.010 A 
ATOM     44  C   UNL A   1      42.624  23.579  27.446  1.00  0.00    -0.014 A 
BRANCH  44  45
ATOM     45  C   UNL A   1      42.874  24.952  27.961  1.00  0.00     0.031 A 
ATOM     46  C   UNL A   1      44.258  25.343  28.404  1.00  0.00     0.074 A 
ATOM     47  C   UNL A   1      41.844  25.802  28.145  1.00  0.00     0.049 A 
ATOM     48  N   UNL A   1      44.652  26.420  29.038  1.00  0.00    -0.248 NA
ATOM     49  C   UNL A   1      45.334  24.369  28.155  1.00  0.00     0.031 C 
ATOM     50  C   UNL A   1      40.439  25.527  27.830  1.00  0.00     0.029 A 
ATOM     51  N   UNL A   1      41.821  27.074  28.661  1.00  0.00    -0.354 N 
ATOM     52  C   UNL A   1      46.001  26.225  29.304  1.00  0.00     0.074 A 
ATOM     53  C   UNL A   1      46.342  24.904  28.825  1.00  0.00     0.031 C 
ATOM     54  C   UNL A   1      39.700  26.609  28.123  1.00  0.00     0.029 A 
ATOM     55  C   UNL A   1      40.567  27.636  28.690  1.00  0.00     0.049 A 
ATOM     56  H   UNL A   1      42.627  27.541  28.980  1.00  0.00     0.167 HD
ATOM     57  C   UNL A   1      46.891  27.076  29.866  1.00  0.00     0.031 A 
ATOM     58  C   UNL A   1      40.159  28.842  29.128  1.00  0.00     0.031 A 
ATOM     59  C   UNL A   1      46.566  28.409  30.292  1.00  0.00     0.049 A 
ATOM     60  C   UNL A   1      41.171  29.797  29.694  1.00  0.00     0.074 A 
ATOM     61  C   UNL A   1      47.407  29.382  30.802  1.00  0.00     0.029 A 
ATOM     62  N   UNL A   1      45.296  28.962  30.242  1.00  0.00    -0.354 N 
ATOM     63  N   UNL A   1      42.456  29.619  29.884  1.00  0.00    -0.248 NA
ATOM     64  C   UNL A   1      40.678  31.122  30.093  1.00  0.00     0.031 C 
ATOM     65  C   UNL A   1      46.639  30.515  31.088  1.00  0.00     0.029 A 
ATOM     66  C   UNL A   1      45.328  30.261  30.715  1.00  0.00     0.049 A 
ATOM     67  H   UNL A   1      44.490  28.497  29.917  1.00  0.00     0.167 HD
ATOM     68  C   UNL A   1      42.930  30.815  30.406  1.00  0.00     0.074 A 
ATOM     69  C   UNL A   1      41.797  31.716  30.486  1.00  0.00     0.031 C 
ATOM     70  C   UNL A   1      44.189  31.139  30.786  1.00  0.00     0.031 A 
BRANCH  57  71
ATOM     71  C   UNL A   1      48.300  26.580  30.033  1.00  0.00    -0.014 A 
ATOM     72  C   UNL A   1      49.259  26.762  29.023  1.00  0.00     0.009 A 
ATOM     73  C   UNL A   1      48.672  25.911  31.208  1.00  0.00     0.009 A 
ATOM     74  C   UNL A   1      50.544  26.233  29.161  1.00  0.00     0.001 A 
ATOM     75  C   UNL A   1      49.968  25.413  31.358  1.00  0.00     0.001 A 
ATOM     76  C   UNL A   1      50.898  25.562  30.330  1.00  0.00     0.000 A 
ENDBRANCH  57  71
BRANCH  58  77
ATOM     77  C   UNL A   1      38.727  29.224  29.017  1.00  0.00    -0.014 A 
ATOM     78  C   UNL A   1      38.212  29.691  27.798  1.00  0.00     0.009 A 
ATOM     79  C   UNL A   1      37.866  29.110  30.119  1.00  0.00     0.009 A 
ATOM     80  C   UNL A   1      36.868  30.055  27.690  1.00  0.00     0.001 A 
ATOM     81  C   UNL A   1      36.516  29.452  30.001  1.00  0.00     0.001 A 
ATOM     82  C   UNL A   1      36.021  29.930  28.789  1.00  0.00     0.000 A 
ENDBRANCH  58  77
BRANCH  70  83
ATOM     83  C   UNL A   1      44.414  32.533  31.294  1.00  0.00    -0.014 A 
ATOM     84  C   UNL A   1      44.225  32.852  32.648  1.00  0.00     0.009 A 
ATOM     85  C   UNL A   1      44.868  33.528  30.415  1.00  0.00     0.009 A 
ATOM     86  C   UNL A   1      44.461  34.149  33.104  1.00  0.00     0.001 A 
ATOM     87  C   UNL A   1      45.128  34.817  30.879  1.00  0.00     0.001 A 
ATOM     88  C   UNL A   1      44.916  35.128  32.223  1.00  0.00     0.000 A 
ENDBRANCH  70  83
ENDBRANCH  44  45
ENDBRANCH  36  39
ENDBRANCH  34  35
ENDBRANCH  33  34
ENDBRANCH   1  33
TORSDOF 14
ENDMDL
MODEL 2
REMARK VINA RESULT:     -12.7      3.115      8.425
REMARK SMILES CC(=O)Nc1cc(NC(C)=O)cc(C(=O)Nc2ccc(Br)cc2C(=O)NCCCNC(=O)c2ccc(-c3c4nc(c(-c5ccccc5)c5ccc([nH]5)c(-c5ccccc5)c5nc(c(-c6ccccc6)c6ccc3[nH]6)C=C5)C=C4)cc2)c1
REMARK SMILES IDX 27 1 26 2 24 3 25 4 23 6 17 7 18 8 19 9 22 10 20 11 21 12
REMARK SMILES IDX 16 13 14 14 15 15 13 17 5 18 6 19 81 20 7 21 12 22 4 23 1 24
REMARK SMILES IDX 2 25 3 26 8 28 9 29 10 31 11 32 28 33 29 34 30 35 31 36
REMARK SMILES IDX 32 38 33 39 34 40 80 41 35 42 79 43 36 44 37 45 38 46 73 47
REMARK SMILES IDX 39 48 78 49 72 50 74 51 40 52 77 53 71 54 70 55 41 57 63 58
REMARK SMILES IDX 48 59 62 60 49 61 52 62 61 63 75 64 50 65 51 66 60 68 76 69
REMARK SMILES IDX 53 70 42 71 43 72 47 73 44 74 46 75 45 76 64 77 65 78 69 79
REMARK SMILES IDX 66 80 68 81 67 82 54 83 55 84 59 85 56 86 58 87 57 88
REMARK H PARENT 26 5 16 16 4 27 8 30 30 37 74 56 52 67
REMARK Flexibility Score: inf
ROOT
ATOM      1  C   UNL A   1      32.021  29.515  27.236  1.00  0.00     0.118 C 
ENDROOT
BRANCH   1   2
ATOM      2  N   UNL A   1      32.921  28.777  26.371  1.00  0.00    -0.352 N 
ATOM      3  C   UNL A   1      32.646  27.989  25.288  1.00  0.00     0.253 C 
ATOM      4  O   UNL A   1      33.587  27.439  24.718  1.00  0.00    -0.269 OA
ATOM      5  H   UNL A   1      33.875  28.856  26.598  1.00  0.00     0.163 HD
BRANCH   3   6
ATOM      6  C   UNL A   1      31.257  27.705  24.850  1.00  0.00     0.064 A 
ATOM      7  C   UNL A   1      30.461  26.601  25.217  1.00  0.00     0.054 A 
ATOM      8  C   UNL A   1      29.268  26.376  24.507  1.00  0.00     0.028 A 
ATOM      9  C   UNL A   1      28.793  27.307  23.579  1.00  0.00     0.018 A 
ATOM     10  C   UNL A   1      30.751  28.656  23.941  1.00  0.00     0.031 A 
ATOM     11  C   UNL A   1      29.518  28.464  23.331  1.00  0.00     0.018 A 
ATOM     12  Br  UNL A   1      28.830  29.776  22.160  1.00  0.00    -0.051 Br
BRANCH   7  13
ATOM     13  N   UNL A   1      30.680  25.689  26.280  1.00  0.00    -0.321 N 
ATOM     14  C   UNL A   1      31.383  24.500  26.357  1.00  0.00     0.255 C 
ATOM     15  O   UNL A   1      31.210  23.760  27.323  1.00  0.00    -0.269 OA
ATOM     16  H   UNL A   1      30.250  25.953  27.126  1.00  0.00     0.170 HD
BRANCH  14  17
ATOM     17  C   UNL A   1      32.381  24.119  25.336  1.00  0.00     0.044 A 
ATOM     18  C   UNL A   1      34.613  23.377  24.810  1.00  0.00     0.044 A 
ATOM     19  C   UNL A   1      34.355  23.660  23.458  1.00  0.00     0.052 A 
ATOM     20  C   UNL A   1      33.587  23.537  25.726  1.00  0.00     0.040 A 
ATOM     21  C   UNL A   1      33.094  24.094  23.027  1.00  0.00     0.044 A 
ATOM     22  C   UNL A   1      32.109  24.349  23.984  1.00  0.00     0.040 A 
BRANCH  18  23
ATOM     23  N   UNL A   1      35.938  23.062  25.165  1.00  0.00    -0.326 N 
ATOM     24  C   UNL A   1      36.017  20.567  24.974  1.00  0.00     0.114 C 
ATOM     25  C   UNL A   1      36.589  21.888  25.406  1.00  0.00     0.221 C 
ATOM     26  O   UNL A   1      37.691  21.926  25.962  1.00  0.00    -0.275 OA
ATOM     27  H   UNL A   1      36.514  23.854  25.262  1.00  0.00     0.169 HD
ENDBRANCH  18  23
BRANCH  21  28
ATOM     28  N   UNL A   1      32.752  24.304  21.672  1.00  0.00    -0.326 N 
ATOM     29  C   UNL A   1      32.889  25.476  20.948  1.00  0.00     0.221 C 
ATOM     30  H   UNL A   1      32.374  23.534  21.190  1.00  0.00     0.169 HD
ATOM     31  C   UNL A   1      32.479  25.337  19.504  1.00  0.00     0.114 C 
ATOM     32  O   UNL A   1      33.318  26.548  21.364  1.00  0.00    -0.275 OA
ENDBRANCH  21  28
ENDBRANCH  14  17
ENDBRANCH   7  13
ENDBRANCH   3   6
ENDBRANCH   1   2
BRANCH   1  33
ATOM     33  C   UNL A   1      31.797  30.947  26.798  1.00  0.00     0.042 C 
BRANCH  33  34
ATOM     34  C   UNL A   1      32.951  31.883  27.132  1.00  0.00     0.118 C 
BRANCH  34  35
ATOM     35  N   UNL A   1      32.553  33.208  27.605  1.00  0.00    -0.352 N 
ATOM     36  C   UNL A   1      33.185  34.112  28.427  1.00  0.00     0.251 C 
ATOM     37  H   UNL A   1      31.674  33.506  27.276  1.00  0.00     0.163 HD
ATOM     38  O   UNL A   1      32.645  35.184  28.692  1.00  0.00    -0.269 OA
BRANCH  36  39
ATOM     39  C   UNL A   1      34.480  33.774  29.048  1.00  0.00     0.039 A 
ATOM     40  C   UNL A   1      34.494  33.068  30.254  1.00  0.00     0.014 A 
ATOM     41  C   UNL A   1      35.677  34.081  28.411  1.00  0.00     0.014 A 
ATOM     42  C   UNL A   1      35.700  32.557  30.741  1.00  0.00     0.010 A 
ATOM     43  C   UNL A   1      36.844  33.447  28.809  1.00  0.00     0.010 A 
ATOM     44  C   UNL A   1      36.872  32.675  29.980  1.00  0.00    -0.014 A 
BRANCH  44  45
ATOM     45  C   UNL A   1      38.145  32.012  30.368  1.00  0.00     0.031 A 
ATOM     46  C   UNL A   1      39.095  32.708  31.306  1.00  0.00     0.074 A 
ATOM     47  C   UNL A   1      38.505  30.848  29.790  1.00  0.00     0.049 A 
ATOM     48  N   UNL A   1      40.322  32.385  31.633  1.00  0.00    -0.248 NA
ATOM     49  C   UNL A   1      38.626  33.965  31.912  1.00  0.00     0.031 C 
ATOM     50  C   UNL A   1      37.716  30.101  28.807  1.00  0.00     0.029 A 
ATOM     51  N   UNL A   1      39.643  30.095  29.936  1.00  0.00    -0.354 N 
ATOM     52  C   UNL A   1      40.780  33.423  32.436  1.00  0.00     0.074 A 
ATOM     53  C   UNL A   1      39.728  34.413  32.491  1.00  0.00     0.031 C 
ATOM     54  C   UNL A   1      38.376  28.982  28.469  1.00  0.00     0.029 A 
ATOM     55  C   UNL A   1      39.653  28.953  29.172  1.00  0.00     0.049 A 
ATOM     56  H   UNL A   1      40.385  30.350  30.533  1.00  0.00     0.167 HD
ATOM     57  C   UNL A   1      41.956  33.533  33.097  1.00  0.00     0.031 A 
ATOM     58  C   UNL A   1      40.587  27.992  29.047  1.00  0.00     0.031 A 
ATOM     59  C   UNL A   1      42.979  32.525  33.087  1.00  0.00     0.049 A 
ATOM     60  C   UNL A   1      41.861  28.102  29.836  1.00  0.00     0.074 A 
ATOM     61  C   UNL A   1      44.175  32.501  33.783  1.00  0.00     0.029 A 
ATOM     62  N   UNL A   1      42.919  31.352  32.351  1.00  0.00    -0.354 N 
ATOM     63  N   UNL A   1      42.254  29.062  30.638  1.00  0.00    -0.248 NA
ATOM     64  C   UNL A   1      42.813  26.990  29.710  1.00  0.00     0.031 C 
ATOM     65  C   UNL A   1      44.851  31.324  33.446  1.00  0.00     0.029 A 
ATOM     66  C   UNL A   1      44.056  30.597  32.572  1.00  0.00     0.049 A 
ATOM     67  H   UNL A   1      42.175  31.095  31.759  1.00  0.00     0.167 HD
ATOM     68  C   UNL A   1      43.489  28.661  31.129  1.00  0.00     0.074 A 
ATOM     69  C   UNL A   1      43.771  27.364  30.548  1.00  0.00     0.031 C 
ATOM     70  C   UNL A   1      44.316  29.310  31.984  1.00  0.00     0.031 A 
BRANCH  57  71
ATOM     71  C   UNL A   1      42.177  34.789  33.893  1.00  0.00    -0.014 A 
ATOM     72  C   UNL A   1      42.771  35.922  33.314  1.00  0.00     0.009 A 
ATOM     73  C   UNL A   1      41.799  34.837  35.244  1.00  0.00     0.009 A 
ATOM     74  C   UNL A   1      43.035  37.057  34.084  1.00  0.00     0.001 A 
ATOM     75  C   UNL A   1      42.034  35.985  36.004  1.00  0.00     0.001 A 
ATOM     76  C   UNL A   1      42.665  37.087  35.427  1.00  0.00     0.000 A 
ENDBRANCH  57  71
BRANCH  58  77
ATOM     77  C   UNL A   1      40.334  26.825  28.164  1.00  0.00    -0.014 A 
ATOM     78  C   UNL A   1      40.844  26.802  26.857  1.00  0.00     0.009 A 
ATOM     79  C   UNL A   1      39.598  25.722  28.624  1.00  0.00     0.009 A 
ATOM     80  C   UNL A   1      40.606  25.709  26.021  1.00  0.00     0.001 A 
ATOM     81  C   UNL A   1      39.383  24.618  27.794  1.00  0.00     0.001 A 
ATOM     82  C   UNL A   1      39.881  24.616  26.492  1.00  0.00     0.000 A 
ENDBRANCH  58  77
BRANCH  70  83
ATOM     83  C   UNL A   1      45.590  28.613  32.365  1.00  0.00    -0.014 A 
ATOM     84  C   UNL A   1      45.635  27.726  33.452  1.00  0.00     0.009 A 
ATOM     85  C   UNL A   1      46.747  28.809  31.594  1.00  0.00     0.009 A 
ATOM     86  C   UNL A   1      46.824  27.071  33.776  1.00  0.00     0.001 A 
ATOM     87  C   UNL A   1      47.926  28.134  31.905  1.00  0.00     0.001 A 
ATOM     88  C   UNL A   1      47.965  27.270  33.000  1.00  0.00     0.000 A 
ENDBRANCH  70  83
ENDBRANCH  44  45
ENDBRANCH  36  39
ENDBRANCH  34  35
ENDBRANCH  33  34
ENDBRANCH   1  33
TORSDOF 14
ENDMDL
MODEL 3
REMARK VINA RESULT:     -12.7      3.287      8.481
REMARK SMILES CC(=O)Nc1cc(NC(C)=O)cc(C(=O)Nc2ccc(Br)cc2C(=O)NCCCNC(=O)c2ccc(-c3c4nc(c(-c5ccccc5)c5ccc([nH]5)c(-c5ccccc5)c5nc(c(-c6ccccc6)c6ccc3[nH]6)C=C5)C=C4)cc2)c1
REMARK SMILES IDX 27 1 26 2 24 3 25 4 23 6 17 7 18 8 19 9 22 10 20 11 21 12
REMARK SMILES IDX 16 13 14 14 15 15 13 17 5 18 6 19 81 20 7 21 12 22 4 23 1 24
REMARK SMILES IDX 2 25 3 26 8 28 9 29 10 31 11 32 28 33 29 34 30 35 31 36
REMARK SMILES IDX 32 38 33 39 34 40 80 41 35 42 79 43 36 44 37 45 38 46 73 47
REMARK SMILES IDX 39 48 78 49 72 50 74 51 40 52 77 53 71 54 70 55 41 57 63 58
REMARK SMILES IDX 48 59 62 60 49 61 52 62 61 63 75 64 50 65 51 66 60 68 76 69
REMARK SMILES IDX 53 70 42 71 43 72 47 73 44 74 46 75 45 76 64 77 65 78 69 79
REMARK SMILES IDX 66 80 68 81 67 82 54 83 55 84 59 85 56 86 58 87 57 88
REMARK H PARENT 26 5 16 16 4 27 8 30 30 37 74 56 52 67
REMARK Flexibility Score: inf
ROOT
ATOM      1  C   UNL A   1      32.246  29.210  27.264  1.00  0.00     0.118 C 
ENDROOT
BRANCH   1   2
ATOM      2  N   UNL A   1      33.099  28.431  26.389  1.00  0.00    -0.352 N 
ATOM      3  C   UNL A   1      32.781  27.700  25.278  1.00  0.00     0.253 C 
ATOM      4  O   UNL A   1      33.685  27.095  24.703  1.00  0.00    -0.269 OA
ATOM      5  H   UNL A   1      34.053  28.426  26.632  1.00  0.00     0.163 HD
BRANCH   3   6
ATOM      6  C   UNL A   1      31.382  27.542  24.812  1.00  0.00     0.064 A 
ATOM      7  C   UNL A   1      30.483  26.511  25.158  1.00  0.00     0.054 A 
ATOM      8  C   UNL A   1      29.290  26.395  24.424  1.00  0.00     0.028 A 
ATOM      9  C   UNL A   1      28.918  27.365  23.490  1.00  0.00     0.018 A 
ATOM     10  C   UNL A   1      30.979  28.536  23.896  1.00  0.00     0.031 A 
ATOM     11  C   UNL A   1      29.747  28.455  23.261  1.00  0.00     0.018 A 
ATOM     12  Br  UNL A   1      29.201  29.825  22.082  1.00  0.00    -0.051 Br
BRANCH   7  13
ATOM     13  N   UNL A   1      30.600  25.581  26.221  1.00  0.00    -0.321 N 
ATOM     14  C   UNL A   1      31.103  24.294  26.283  1.00  0.00     0.255 C 
ATOM     15  O   UNL A   1      30.856  23.597  27.264  1.00  0.00    -0.269 OA
ATOM     16  H   UNL A   1      30.259  25.916  27.082  1.00  0.00     0.170 HD
BRANCH  14  17
ATOM     17  C   UNL A   1      31.978  23.750  25.222  1.00  0.00     0.044 A 
ATOM     18  C   UNL A   1      33.930  22.475  24.613  1.00  0.00     0.044 A 
ATOM     19  C   UNL A   1      33.785  22.943  23.296  1.00  0.00     0.052 A 
ATOM     20  C   UNL A   1      32.970  22.825  25.547  1.00  0.00     0.040 A 
ATOM     21  C   UNL A   1      32.701  23.746  22.916  1.00  0.00     0.044 A 
ATOM     22  C   UNL A   1      31.805  24.171  23.901  1.00  0.00     0.040 A 
BRANCH  18  23
ATOM     23  N   UNL A   1      35.110  21.776  24.927  1.00  0.00    -0.326 N 
ATOM     24  C   UNL A   1      36.689  23.583  25.641  1.00  0.00     0.114 C 
ATOM     25  C   UNL A   1      36.379  22.170  25.232  1.00  0.00     0.221 C 
ATOM     26  O   UNL A   1      37.283  21.329  25.202  1.00  0.00    -0.275 OA
ATOM     27  H   UNL A   1      34.995  20.798  24.925  1.00  0.00     0.169 HD
ENDBRANCH  18  23
BRANCH  21  28
ATOM     28  N   UNL A   1      32.456  24.167  21.590  1.00  0.00    -0.326 N 
ATOM     29  C   UNL A   1      32.889  25.338  20.993  1.00  0.00     0.221 C 
ATOM     30  H   UNL A   1      31.918  23.563  21.030  1.00  0.00     0.169 HD
ATOM     31  C   UNL A   1      32.497  25.448  19.541  1.00  0.00     0.114 C 
ATOM     32  O   UNL A   1      33.551  26.228  21.519  1.00  0.00    -0.275 OA
ENDBRANCH  21  28
ENDBRANCH  14  17
ENDBRANCH   7  13
ENDBRANCH   3   6
ENDBRANCH   1   2
BRANCH   1  33
ATOM     33  C   UNL A   1      32.036  30.635  26.795  1.00  0.00     0.042 C 
BRANCH  33  34
ATOM     34  C   UNL A   1      33.122  31.602  27.247  1.00  0.00     0.118 C 
BRANCH  34  35
ATOM     35  N   UNL A   1      32.651  32.943  27.586  1.00  0.00    -0.352 N 
ATOM     36  C   UNL A   1      33.214  33.945  28.343  1.00  0.00     0.251 C 
ATOM     37  H   UNL A   1      31.773  33.171  27.203  1.00  0.00     0.163 HD
ATOM     38  O   UNL A   1      32.619  35.010  28.493  1.00  0.00    -0.269 OA
BRANCH  36  39
ATOM     39  C   UNL A   1      34.498  33.722  29.035  1.00  0.00     0.039 A 
ATOM     40  C   UNL A   1      34.523  32.937  30.191  1.00  0.00     0.014 A 
ATOM     41  C   UNL A   1      35.686  34.219  28.508  1.00  0.00     0.014 A 
ATOM     42  C   UNL A   1      35.751  32.543  30.730  1.00  0.00     0.010 A 
ATOM     43  C   UNL A   1      36.895  33.704  28.948  1.00  0.00     0.010 A 
ATOM     44  C   UNL A   1      36.945  32.858  30.066  1.00  0.00    -0.014 A 
BRANCH  44  45
ATOM     45  C   UNL A   1      38.264  32.328  30.504  1.00  0.00     0.031 A 
ATOM     46  C   UNL A   1      38.795  31.054  29.902  1.00  0.00     0.074 A 
ATOM     47  C   UNL A   1      38.925  32.917  31.520  1.00  0.00     0.049 A 
ATOM     48  N   UNL A   1      39.829  30.336  30.262  1.00  0.00    -0.248 NA
ATOM     49  C   UNL A   1      38.026  30.479  28.785  1.00  0.00     0.031 C 
ATOM     50  C   UNL A   1      38.491  34.114  32.246  1.00  0.00     0.029 A 
ATOM     51  N   UNL A   1      40.106  32.575  32.131  1.00  0.00    -0.354 N 
ATOM     52  C   UNL A   1      39.801  29.208  29.452  1.00  0.00     0.074 A 
ATOM     53  C   UNL A   1      38.614  29.303  28.631  1.00  0.00     0.031 C 
ATOM     54  C   UNL A   1      39.408  34.425  33.175  1.00  0.00     0.029 A 
ATOM     55  C   UNL A   1      40.471  33.428  33.146  1.00  0.00     0.049 A 
ATOM     56  H   UNL A   1      40.642  31.791  31.869  1.00  0.00     0.167 HD
ATOM     57  C   UNL A   1      40.696  28.196  29.369  1.00  0.00     0.031 A 
ATOM     58  C   UNL A   1      41.539  33.407  33.964  1.00  0.00     0.031 A 
ATOM     59  C   UNL A   1      41.903  28.127  30.145  1.00  0.00     0.049 A 
ATOM     60  C   UNL A   1      42.554  32.308  33.817  1.00  0.00     0.074 A 
ATOM     61  C   UNL A   1      42.917  27.187  30.084  1.00  0.00     0.029 A 
ATOM     62  N   UNL A   1      42.267  29.048  31.114  1.00  0.00    -0.354 N 
ATOM     63  N   UNL A   1      42.543  31.279  33.004  1.00  0.00    -0.248 NA
ATOM     64  C   UNL A   1      43.732  32.376  34.692  1.00  0.00     0.031 C 
ATOM     65  C   UNL A   1      43.881  27.525  31.039  1.00  0.00     0.029 A 
ATOM     66  C   UNL A   1      43.487  28.699  31.663  1.00  0.00     0.049 A 
ATOM     67  H   UNL A   1      41.734  29.836  31.373  1.00  0.00     0.167 HD
ATOM     68  C   UNL A   1      43.720  30.588  33.253  1.00  0.00     0.074 A 
ATOM     69  C   UNL A   1      44.429  31.324  34.282  1.00  0.00     0.031 C 
ATOM     70  C   UNL A   1      44.174  29.445  32.684  1.00  0.00     0.031 A 
BRANCH  57  71
ATOM     71  C   UNL A   1      40.394  27.094  28.391  1.00  0.00    -0.014 A 
ATOM     72  C   UNL A   1      39.627  25.980  28.766  1.00  0.00     0.009 A 
ATOM     73  C   UNL A   1      40.893  27.164  27.082  1.00  0.00     0.009 A 
ATOM     74  C   UNL A   1      39.414  24.930  27.870  1.00  0.00     0.001 A 
ATOM     75  C   UNL A   1      40.651  26.129  26.176  1.00  0.00     0.001 A 
ATOM     76  C   UNL A   1      39.924  25.007  26.575  1.00  0.00     0.000 A 
ENDBRANCH  57  71
BRANCH  58  77
ATOM     77  C   UNL A   1      41.720  34.482  34.973  1.00  0.00    -0.014 A 
ATOM     78  C   UNL A   1      42.383  35.670  34.631  1.00  0.00     0.009 A 
ATOM     79  C   UNL A   1      41.219  34.336  36.276  1.00  0.00     0.009 A 
ATOM     80  C   UNL A   1      42.559  36.683  35.577  1.00  0.00     0.001 A 
ATOM     81  C   UNL A   1      41.374  35.360  37.213  1.00  0.00     0.001 A 
ATOM     82  C   UNL A   1      42.049  36.528  36.866  1.00  0.00     0.000 A 
ENDBRANCH  58  77
BRANCH  70  83
ATOM     83  C   UNL A   1      45.511  28.938  33.139  1.00  0.00    -0.014 A 
ATOM     84  C   UNL A   1      45.619  28.026  34.200  1.00  0.00     0.009 A 
ATOM     85  C   UNL A   1      46.674  29.342  32.464  1.00  0.00     0.009 A 
ATOM     86  C   UNL A   1      46.871  27.549  34.593  1.00  0.00     0.001 A 
ATOM     87  C   UNL A   1      47.920  28.844  32.842  1.00  0.00     0.001 A 
ATOM     88  C   UNL A   1      48.018  27.954  33.912  1.00  0.00     0.000 A 
ENDBRANCH  70  83
ENDBRANCH  44  45
ENDBRANCH  36  39
ENDBRANCH  34  35
ENDBRANCH  33  34
ENDBRANCH   1  33
TORSDOF 14
ENDMDL
