MODEL 1
REMARK VINA RESULT:     -11.7      0.000      0.000
REMARK SMILES O=C(NCCCNC(=O)c1ccc(-c2c3nc(c(-c4ccccc4)c4ccc([nH]4)c(-c4ccccc4)c4nc(c(-c5ccccc5)c5ccc2[nH]5)C=C4)C=C3)cc1)C1=Cc2cc(Cl)c(Cl)cc2O[C@@H]1C(F)(F)F
REMARK SMILES IDX 5 1 4 2 3 3 1 4 2 5 58 7 59 8 69 9 60 10 68 11 61 12 67 13
REMARK SMILES IDX 62 14 66 15 63 16 64 17 65 18 70 19 71 20 72 21 73 22 6 23
REMARK SMILES IDX 7 24 8 25 9 27 10 28 11 29 57 30 12 31 56 32 13 33 14 34
REMARK SMILES IDX 15 35 50 36 16 37 55 38 49 39 51 40 17 41 54 42 48 43 47 44
REMARK SMILES IDX 18 46 40 47 25 48 39 49 26 50 29 51 38 52 52 53 27 54 28 55
REMARK SMILES IDX 37 57 53 58 30 59 19 60 20 61 24 62 21 63 23 64 22 65 41 66
REMARK SMILES IDX 42 67 46 68 43 69 45 70 44 71 31 72 32 73 36 74 33 75 35 76
REMARK SMILES IDX 34 77
REMARK H PARENT 3 6 7 26 51 45 29 56
REMARK Flexibility Score: inf
ROOT
ATOM      1  C   UNL A   1      31.878  28.052  27.476  1.00  0.00     0.042 C 
ENDROOT
BRANCH   1   2
ATOM      2  C   UNL A   1      31.548  26.993  26.429  1.00  0.00     0.118 C 
BRANCH   2   3
ATOM      3  N   UNL A   1      31.345  25.660  26.999  1.00  0.00    -0.352 N 
ATOM      4  O   UNL A   1      31.788  23.467  27.376  1.00  0.00    -0.270 OA
ATOM      5  C   UNL A   1      31.925  24.458  26.673  1.00  0.00     0.251 C 
ATOM      6  H   UNL A   1      30.689  25.618  27.733  1.00  0.00     0.163 HD
BRANCH   5   7
ATOM      7  C   UNL A   1      32.753  24.429  25.457  1.00  0.00     0.067 C 
ATOM      8  C   UNL A   1      34.019  24.845  25.591  1.00  0.00     0.025 C 
ATOM      9  C   UNL A   1      32.280  23.579  24.318  1.00  0.00     0.314 C 
ATOM     10  C   UNL A   1      34.993  23.923  25.000  1.00  0.00     0.019 A 
ATOM     11  O   UNL A   1      33.246  22.564  23.943  1.00  0.00    -0.475 OA
ATOM     12  C   UNL A   1      36.304  23.982  25.484  1.00  0.00     0.034 A 
ATOM     13  C   UNL A   1      34.547  22.767  24.335  1.00  0.00     0.129 A 
ATOM     14  C   UNL A   1      37.118  22.848  25.425  1.00  0.00     0.060 A 
ATOM     15  C   UNL A   1      35.377  21.652  24.235  1.00  0.00     0.069 A 
ATOM     16  Cl  UNL A   1      38.639  22.923  26.241  1.00  0.00    -0.083 Cl
ATOM     17  C   UNL A   1      36.646  21.676  24.820  1.00  0.00     0.063 A 
ATOM     18  Cl  UNL A   1      37.537  20.197  24.859  1.00  0.00    -0.083 Cl
BRANCH   9  19
ATOM     19  C   UNL A   1      31.897  24.439  23.103  1.00  0.00     0.429 C 
ATOM     20  F   UNL A   1      30.596  24.255  22.769  1.00  0.00    -0.167 F 
ATOM     21  F   UNL A   1      32.056  25.760  23.347  1.00  0.00    -0.167 F 
ATOM     22  F   UNL A   1      32.638  24.138  22.011  1.00  0.00    -0.167 F 
ENDBRANCH   9  19
ENDBRANCH   5   7
ENDBRANCH   2   3
ENDBRANCH   1   2
BRANCH   1  23
ATOM     23  C   UNL A   1      33.246  28.687  27.254  1.00  0.00     0.118 C 
BRANCH  23  24
ATOM     24  N   UNL A   1      33.299  30.113  27.551  1.00  0.00    -0.352 N 
ATOM     25  C   UNL A   1      34.331  30.879  28.047  1.00  0.00     0.251 C 
ATOM     26  H   UNL A   1      32.466  30.606  27.368  1.00  0.00     0.163 HD
ATOM     27  O   UNL A   1      34.144  32.074  28.266  1.00  0.00    -0.269 OA
BRANCH  25  28
ATOM     28  C   UNL A   1      35.646  30.273  28.354  1.00  0.00     0.039 A 
ATOM     29  C   UNL A   1      36.645  30.282  27.374  1.00  0.00     0.014 A 
ATOM     30  C   UNL A   1      35.911  29.705  29.600  1.00  0.00     0.014 A 
ATOM     31  C   UNL A   1      37.919  29.791  27.673  1.00  0.00     0.010 A 
ATOM     32  C   UNL A   1      37.209  29.341  29.938  1.00  0.00     0.010 A 
ATOM     33  C   UNL A   1      38.224  29.354  28.972  1.00  0.00    -0.014 A 
BRANCH  33  34
ATOM     34  C   UNL A   1      39.581  28.870  29.334  1.00  0.00     0.031 A 
ATOM     35  C   UNL A   1      40.490  29.735  30.173  1.00  0.00     0.074 A 
ATOM     36  C   UNL A   1      40.025  27.691  28.857  1.00  0.00     0.049 A 
ATOM     37  N   UNL A   1      41.724  29.516  30.552  1.00  0.00    -0.248 NA
ATOM     38  C   UNL A   1      39.959  31.040  30.605  1.00  0.00     0.031 C 
ATOM     39  C   UNL A   1      39.277  26.793  27.973  1.00  0.00     0.029 A 
ATOM     40  N   UNL A   1      41.218  27.041  29.054  1.00  0.00    -0.354 N 
ATOM     41  C   UNL A   1      42.121  30.665  31.228  1.00  0.00     0.074 A 
ATOM     42  C   UNL A   1      41.026  31.603  31.148  1.00  0.00     0.031 C 
ATOM     43  C   UNL A   1      40.006  25.688  27.747  1.00  0.00     0.029 A 
ATOM     44  C   UNL A   1      41.284  25.814  28.438  1.00  0.00     0.049 A 
ATOM     45  H   UNL A   1      41.956  27.417  29.586  1.00  0.00     0.167 HD
ATOM     46  C   UNL A   1      43.278  30.908  31.888  1.00  0.00     0.031 A 
ATOM     47  C   UNL A   1      42.262  24.888  28.443  1.00  0.00     0.031 A 
ATOM     48  C   UNL A   1      44.347  29.955  32.009  1.00  0.00     0.049 A 
ATOM     49  C   UNL A   1      43.511  25.154  29.234  1.00  0.00     0.074 A 
ATOM     50  C   UNL A   1      45.528  30.066  32.720  1.00  0.00     0.029 A 
ATOM     51  N   UNL A   1      44.354  28.705  31.409  1.00  0.00    -0.354 N 
ATOM     52  N   UNL A   1      43.837  26.214  29.934  1.00  0.00    -0.248 NA
ATOM     53  C   UNL A   1      44.516  24.082  29.257  1.00  0.00     0.031 C 
ATOM     54  C   UNL A   1      46.268  28.897  32.518  1.00  0.00     0.029 A 
ATOM     55  C   UNL A   1      45.524  28.038  31.725  1.00  0.00     0.049 A 
ATOM     56  H   UNL A   1      43.633  28.345  30.843  1.00  0.00     0.167 HD
ATOM     57  C   UNL A   1      45.073  25.928  30.500  1.00  0.00     0.074 A 
ATOM     58  C   UNL A   1      45.422  24.585  30.082  1.00  0.00     0.031 C 
ATOM     59  C   UNL A   1      45.852  26.704  31.292  1.00  0.00     0.031 A 
BRANCH  46  60
ATOM     60  C   UNL A   1      43.433  32.256  32.538  1.00  0.00    -0.014 A 
ATOM     61  C   UNL A   1      43.020  32.481  33.862  1.00  0.00     0.009 A 
ATOM     62  C   UNL A   1      44.012  33.315  31.822  1.00  0.00     0.009 A 
ATOM     63  C   UNL A   1      43.138  33.747  34.438  1.00  0.00     0.001 A 
ATOM     64  C   UNL A   1      44.162  34.572  32.412  1.00  0.00     0.001 A 
ATOM     65  C   UNL A   1      43.714  34.790  33.715  1.00  0.00     0.000 A 
ENDBRANCH  46  60
BRANCH  47  66
ATOM     66  C   UNL A   1      42.079  23.604  27.716  1.00  0.00    -0.014 A 
ATOM     67  C   UNL A   1      41.533  22.489  28.370  1.00  0.00     0.009 A 
ATOM     68  C   UNL A   1      42.454  23.482  26.369  1.00  0.00     0.009 A 
ATOM     69  C   UNL A   1      41.394  21.270  27.701  1.00  0.00     0.001 A 
ATOM     70  C   UNL A   1      42.286  22.270  25.694  1.00  0.00     0.001 A 
ATOM     71  C   UNL A   1      41.768  21.163  26.363  1.00  0.00     0.000 A 
ENDBRANCH  47  66
BRANCH  59  72
ATOM     72  C   UNL A   1      47.139  26.102  31.778  1.00  0.00    -0.014 A 
ATOM     73  C   UNL A   1      47.217  25.454  33.020  1.00  0.00     0.009 A 
ATOM     74  C   UNL A   1      48.287  26.176  30.974  1.00  0.00     0.009 A 
ATOM     75  C   UNL A   1      48.432  24.934  33.469  1.00  0.00     0.001 A 
ATOM     76  C   UNL A   1      49.493  25.626  31.411  1.00  0.00     0.001 A 
ATOM     77  C   UNL A   1      49.568  25.018  32.664  1.00  0.00     0.000 A 
ENDBRANCH  59  72
ENDBRANCH  33  34
ENDBRANCH  25  28
ENDBRANCH  23  24
ENDBRANCH   1  23
TORSDOF 11
ENDMDL
MODEL 2
REMARK VINA RESULT:     -11.5      3.330      7.567
REMARK SMILES O=C(NCCCNC(=O)c1ccc(-c2c3nc(c(-c4ccccc4)c4ccc([nH]4)c(-c4ccccc4)c4nc(c(-c5ccccc5)c5ccc2[nH]5)C=C4)C=C3)cc1)C1=Cc2cc(Cl)c(Cl)cc2O[C@@H]1C(F)(F)F
REMARK SMILES IDX 5 1 4 2 3 3 1 4 2 5 58 7 59 8 69 9 60 10 68 11 61 12 67 13
REMARK SMILES IDX 62 14 66 15 63 16 64 17 65 18 70 19 71 20 72 21 73 22 6 23
REMARK SMILES IDX 7 24 8 25 9 27 10 28 11 29 57 30 12 31 56 32 13 33 14 34
REMARK SMILES IDX 15 35 50 36 16 37 55 38 49 39 51 40 17 41 54 42 48 43 47 44
REMARK SMILES IDX 18 46 40 47 25 48 39 49 26 50 29 51 38 52 52 53 27 54 28 55
REMARK SMILES IDX 37 57 53 58 30 59 19 60 20 61 24 62 21 63 23 64 22 65 41 66
REMARK SMILES IDX 42 67 46 68 43 69 45 70 44 71 31 72 32 73 36 74 33 75 35 76
REMARK SMILES IDX 34 77
REMARK H PARENT 3 6 7 26 51 45 29 56
REMARK Flexibility Score: inf
ROOT
ATOM      1  C   UNL A   1      36.611  23.588  24.820  1.00  0.00     0.042 C 
ENDROOT
BRANCH   1   2
ATOM      2  C   UNL A   1      35.120  23.881  24.958  1.00  0.00     0.118 C 
BRANCH   2   3
ATOM      3  N   UNL A   1      34.519  23.277  26.147  1.00  0.00    -0.352 N 
ATOM      4  O   UNL A   1      33.669  21.611  27.433  1.00  0.00    -0.270 OA
ATOM      5  C   UNL A   1      33.952  22.036  26.322  1.00  0.00     0.251 C 
ATOM      6  H   UNL A   1      34.521  23.848  26.949  1.00  0.00     0.163 HD
BRANCH   5   7
ATOM      7  C   UNL A   1      33.741  21.226  25.112  1.00  0.00     0.067 C 
ATOM      8  C   UNL A   1      34.713  20.360  24.800  1.00  0.00     0.025 C 
ATOM      9  C   UNL A   1      32.343  21.123  24.585  1.00  0.00     0.314 C 
ATOM     10  C   UNL A   1      34.211  19.014  24.506  1.00  0.00     0.019 A 
ATOM     11  O   UNL A   1      31.872  19.752  24.522  1.00  0.00    -0.475 OA
ATOM     12  C   UNL A   1      35.109  17.952  24.651  1.00  0.00     0.034 A 
ATOM     13  C   UNL A   1      32.828  18.765  24.524  1.00  0.00     0.129 A 
ATOM     14  C   UNL A   1      34.630  16.673  24.946  1.00  0.00     0.060 A 
ATOM     15  C   UNL A   1      32.351  17.479  24.772  1.00  0.00     0.069 A 
ATOM     16  Cl  UNL A   1      35.799  15.461  25.334  1.00  0.00    -0.083 Cl
ATOM     17  C   UNL A   1      33.252  16.442  25.029  1.00  0.00     0.063 A 
ATOM     18  Cl  UNL A   1      32.602  14.929  25.550  1.00  0.00    -0.083 Cl
BRANCH   9  19
ATOM     19  C   UNL A   1      32.212  21.805  23.214  1.00  0.00     0.429 C 
ATOM     20  F   UNL A   1      31.301  22.807  23.255  1.00  0.00    -0.167 F 
ATOM     21  F   UNL A   1      33.381  22.354  22.808  1.00  0.00    -0.167 F 
ATOM     22  F   UNL A   1      31.816  20.940  22.250  1.00  0.00    -0.167 F 
ENDBRANCH   9  19
ENDBRANCH   5   7
ENDBRANCH   2   3
ENDBRANCH   1   2
BRANCH   1  23
ATOM     23  C   UNL A   1      37.267  23.257  26.154  1.00  0.00     0.118 C 
BRANCH  23  24
ATOM     24  N   UNL A   1      38.389  22.329  26.055  1.00  0.00    -0.352 N 
ATOM     25  C   UNL A   1      39.727  22.524  26.316  1.00  0.00     0.251 C 
ATOM     26  H   UNL A   1      38.151  21.422  25.755  1.00  0.00     0.163 HD
ATOM     27  O   UNL A   1      40.519  21.605  26.122  1.00  0.00    -0.269 OA
BRANCH  25  28
ATOM     28  C   UNL A   1      40.226  23.836  26.788  1.00  0.00     0.039 A 
ATOM     29  C   UNL A   1      40.314  24.897  25.880  1.00  0.00     0.014 A 
ATOM     30  C   UNL A   1      40.595  24.035  28.117  1.00  0.00     0.014 A 
ATOM     31  C   UNL A   1      40.702  26.164  26.326  1.00  0.00     0.010 A 
ATOM     32  C   UNL A   1      40.851  25.319  28.584  1.00  0.00     0.010 A 
ATOM     33  C   UNL A   1      40.934  26.396  27.691  1.00  0.00    -0.014 A 
BRANCH  33  34
ATOM     34  C   UNL A   1      41.301  27.742  28.203  1.00  0.00     0.031 A 
ATOM     35  C   UNL A   1      42.749  28.165  28.239  1.00  0.00     0.074 A 
ATOM     36  C   UNL A   1      40.348  28.556  28.697  1.00  0.00     0.049 A 
ATOM     37  N   UNL A   1      43.276  29.274  28.694  1.00  0.00    -0.248 NA
ATOM     38  C   UNL A   1      43.740  27.196  27.741  1.00  0.00     0.031 C 
ATOM     39  C   UNL A   1      38.920  28.239  28.792  1.00  0.00     0.029 A 
ATOM     40  N   UNL A   1      40.438  29.826  29.210  1.00  0.00    -0.354 N 
ATOM     41  C   UNL A   1      44.652  29.116  28.569  1.00  0.00     0.074 A 
ATOM     42  C   UNL A   1      44.882  27.782  28.065  1.00  0.00     0.031 C 
ATOM     43  C   UNL A   1      38.264  29.303  29.282  1.00  0.00     0.029 A 
ATOM     44  C   UNL A   1      39.224  30.363  29.568  1.00  0.00     0.049 A 
ATOM     45  H   UNL A   1      41.291  30.307  29.313  1.00  0.00     0.167 HD
ATOM     46  C   UNL A   1      45.638  30.009  28.819  1.00  0.00     0.031 A 
ATOM     47  C   UNL A   1      38.920  31.578  30.059  1.00  0.00     0.031 A 
ATOM     48  C   UNL A   1      45.406  31.353  29.274  1.00  0.00     0.049 A 
ATOM     49  C   UNL A   1      40.024  32.575  30.269  1.00  0.00     0.074 A 
ATOM     50  C   UNL A   1      46.324  32.366  29.484  1.00  0.00     0.029 A 
ATOM     51  N   UNL A   1      44.157  31.871  29.580  1.00  0.00    -0.354 N 
ATOM     52  N   UNL A   1      41.313  32.436  30.071  1.00  0.00    -0.248 NA
ATOM     53  C   UNL A   1      39.626  33.908  30.744  1.00  0.00     0.031 C 
ATOM     54  C   UNL A   1      45.633  33.487  29.953  1.00  0.00     0.029 A 
ATOM     55  C   UNL A   1      44.280  33.188  29.986  1.00  0.00     0.049 A 
ATOM     56  H   UNL A   1      43.308  31.377  29.517  1.00  0.00     0.167 HD
ATOM     57  C   UNL A   1      41.877  33.668  30.375  1.00  0.00     0.074 A 
ATOM     58  C   UNL A   1      40.787  34.548  30.743  1.00  0.00     0.031 C 
ATOM     59  C   UNL A   1      43.181  34.041  30.354  1.00  0.00     0.031 A 
BRANCH  46  60
ATOM     60  C   UNL A   1      47.056  29.558  28.589  1.00  0.00    -0.014 A 
ATOM     61  C   UNL A   1      47.679  29.716  27.340  1.00  0.00     0.009 A 
ATOM     62  C   UNL A   1      47.783  28.977  29.639  1.00  0.00     0.009 A 
ATOM     63  C   UNL A   1      48.982  29.260  27.134  1.00  0.00     0.001 A 
ATOM     64  C   UNL A   1      49.099  28.552  29.440  1.00  0.00     0.001 A 
ATOM     65  C   UNL A   1      49.692  28.683  28.186  1.00  0.00     0.000 A 
ENDBRANCH  46  60
BRANCH  47  66
ATOM     66  C   UNL A   1      37.505  31.939  30.339  1.00  0.00    -0.014 A 
ATOM     67  C   UNL A   1      36.949  31.702  31.607  1.00  0.00     0.009 A 
ATOM     68  C   UNL A   1      36.700  32.516  29.345  1.00  0.00     0.009 A 
ATOM     69  C   UNL A   1      35.609  32.005  31.863  1.00  0.00     0.001 A 
ATOM     70  C   UNL A   1      35.369  32.847  29.613  1.00  0.00     0.001 A 
ATOM     71  C   UNL A   1      34.822  32.580  30.867  1.00  0.00     0.000 A 
ENDBRANCH  47  66
BRANCH  59  72
ATOM     72  C   UNL A   1      43.484  35.469  30.710  1.00  0.00    -0.014 A 
ATOM     73  C   UNL A   1      43.719  35.855  32.038  1.00  0.00     0.009 A 
ATOM     74  C   UNL A   1      43.546  36.437  29.697  1.00  0.00     0.009 A 
ATOM     75  C   UNL A   1      43.962  37.193  32.350  1.00  0.00     0.001 A 
ATOM     76  C   UNL A   1      43.822  37.769  30.008  1.00  0.00     0.001 A 
ATOM     77  C   UNL A   1      44.015  38.148  31.335  1.00  0.00     0.000 A 
ENDBRANCH  59  72
ENDBRANCH  33  34
ENDBRANCH  25  28
ENDBRANCH  23  24
ENDBRANCH   1  23
TORSDOF 11
ENDMDL
MODEL 3
REMARK VINA RESULT:     -11.5      2.905      7.629
REMARK SMILES O=C(NCCCNC(=O)c1ccc(-c2c3nc(c(-c4ccccc4)c4ccc([nH]4)c(-c4ccccc4)c4nc(c(-c5ccccc5)c5ccc2[nH]5)C=C4)C=C3)cc1)C1=Cc2cc(Cl)c(Cl)cc2O[C@@H]1C(F)(F)F
REMARK SMILES IDX 5 1 4 2 3 3 1 4 2 5 58 7 59 8 69 9 60 10 68 11 61 12 67 13
REMARK SMILES IDX 62 14 66 15 63 16 64 17 65 18 70 19 71 20 72 21 73 22 6 23
REMARK SMILES IDX 7 24 8 25 9 27 10 28 11 29 57 30 12 31 56 32 13 33 14 34
REMARK SMILES IDX 15 35 50 36 16 37 55 38 49 39 51 40 17 41 54 42 48 43 47 44
REMARK SMILES IDX 18 46 40 47 25 48 39 49 26 50 29 51 38 52 52 53 27 54 28 55
REMARK SMILES IDX 37 57 53 58 30 59 19 60 20 61 24 62 21 63 23 64 22 65 41 66
REMARK SMILES IDX 42 67 46 68 43 69 45 70 44 71 31 72 32 73 36 74 33 75 35 76
REMARK SMILES IDX 34 77
REMARK H PARENT 3 6 7 26 51 45 29 56
REMARK Flexibility Score: inf
ROOT
ATOM      1  C   UNL A   1      37.711  19.912  24.878  1.00  0.00     0.042 C 
ENDROOT
BRANCH   1   2
ATOM      2  C   UNL A   1      36.512  20.842  25.033  1.00  0.00     0.118 C 
BRANCH   2   3
ATOM      3  N   UNL A   1      36.433  21.862  23.987  1.00  0.00    -0.352 N 
ATOM      4  O   UNL A   1      35.552  23.622  22.858  1.00  0.00    -0.270 OA
ATOM      5  C   UNL A   1      35.393  22.688  23.629  1.00  0.00     0.251 C 
ATOM      6  H   UNL A   1      37.254  21.976  23.456  1.00  0.00     0.163 HD
BRANCH   5   7
ATOM      7  C   UNL A   1      34.088  22.418  24.252  1.00  0.00     0.067 C 
ATOM      8  C   UNL A   1      33.796  23.128  25.349  1.00  0.00     0.025 C 
ATOM      9  C   UNL A   1      33.055  21.723  23.420  1.00  0.00     0.314 C 
ATOM     10  C   UNL A   1      32.461  23.733  25.304  1.00  0.00     0.019 A 
ATOM     11  O   UNL A   1      31.840  22.504  23.274  1.00  0.00    -0.475 OA
ATOM     12  C   UNL A   1      32.238  24.850  26.115  1.00  0.00     0.034 A 
ATOM     13  C   UNL A   1      31.622  23.494  24.201  1.00  0.00     0.129 A 
ATOM     14  C   UNL A   1      31.273  25.792  25.751  1.00  0.00     0.060 A 
ATOM     15  C   UNL A   1      30.629  24.411  23.866  1.00  0.00     0.069 A 
ATOM     16  Cl  UNL A   1      31.207  27.253  26.671  1.00  0.00    -0.083 Cl
ATOM     17  C   UNL A   1      30.484  25.584  24.613  1.00  0.00     0.063 A 
ATOM     18  Cl  UNL A   1      29.392  26.782  24.018  1.00  0.00    -0.083 Cl
BRANCH   9  19
ATOM     19  C   UNL A   1      32.739  20.326  23.975  1.00  0.00     0.429 C 
ATOM     20  F   UNL A   1      32.216  19.528  23.012  1.00  0.00    -0.167 F 
ATOM     21  F   UNL A   1      33.848  19.704  24.440  1.00  0.00    -0.167 F 
ATOM     22  F   UNL A   1      31.845  20.371  24.990  1.00  0.00    -0.167 F 
ENDBRANCH   9  19
ENDBRANCH   5   7
ENDBRANCH   2   3
ENDBRANCH   1   2
BRANCH   1  23
ATOM     23  C   UNL A   1      38.841  20.247  25.844  1.00  0.00     0.118 C 
BRANCH  23  24
ATOM     24  N   UNL A   1      40.008  19.381  25.723  1.00  0.00    -0.352 N 
ATOM     25  C   UNL A   1      41.329  19.623  26.030  1.00  0.00     0.251 C 
ATOM     26  H   UNL A   1      39.822  18.481  25.369  1.00  0.00     0.163 HD
ATOM     27  O   UNL A   1      42.169  18.755  25.806  1.00  0.00    -0.269 OA
BRANCH  25  28
ATOM     28  C   UNL A   1      41.751  20.929  26.586  1.00  0.00     0.039 A 
ATOM     29  C   UNL A   1      42.142  21.947  25.710  1.00  0.00     0.014 A 
ATOM     30  C   UNL A   1      41.756  21.164  27.960  1.00  0.00     0.014 A 
ATOM     31  C   UNL A   1      42.464  23.212  26.212  1.00  0.00     0.010 A 
ATOM     32  C   UNL A   1      41.946  22.452  28.446  1.00  0.00     0.010 A 
ATOM     33  C   UNL A   1      42.328  23.487  27.582  1.00  0.00    -0.014 A 
BRANCH  33  34
ATOM     34  C   UNL A   1      42.616  24.834  28.139  1.00  0.00     0.031 A 
ATOM     35  C   UNL A   1      44.023  25.197  28.545  1.00  0.00     0.074 A 
ATOM     36  C   UNL A   1      41.609  25.706  28.345  1.00  0.00     0.049 A 
ATOM     37  N   UNL A   1      44.468  26.298  29.095  1.00  0.00    -0.248 NA
ATOM     38  C   UNL A   1      45.060  24.169  28.349  1.00  0.00     0.031 C 
ATOM     39  C   UNL A   1      40.192  25.453  28.069  1.00  0.00     0.029 A 
ATOM     40  N   UNL A   1      41.626  26.989  28.834  1.00  0.00    -0.354 N 
ATOM     41  C   UNL A   1      45.819  26.077  29.341  1.00  0.00     0.074 A 
ATOM     42  C   UNL A   1      46.105  24.718  28.947  1.00  0.00     0.031 C 
ATOM     43  C   UNL A   1      39.485  26.562  28.343  1.00  0.00     0.029 A 
ATOM     44  C   UNL A   1      40.389  27.589  28.846  1.00  0.00     0.049 A 
ATOM     45  H   UNL A   1      42.445  27.436  29.145  1.00  0.00     0.167 HD
ATOM     46  C   UNL A   1      46.750  26.937  29.820  1.00  0.00     0.031 A 
ATOM     47  C   UNL A   1      40.029  28.834  29.210  1.00  0.00     0.031 A 
ATOM     48  C   UNL A   1      46.474  28.305  30.165  1.00  0.00     0.049 A 
ATOM     49  C   UNL A   1      41.089  29.790  29.679  1.00  0.00     0.074 A 
ATOM     50  C   UNL A   1      47.356  29.285  30.584  1.00  0.00     0.029 A 
ATOM     51  N   UNL A   1      45.217  28.887  30.119  1.00  0.00    -0.354 N 
ATOM     52  N   UNL A   1      42.375  29.589  29.831  1.00  0.00    -0.248 NA
ATOM     53  C   UNL A   1      40.648  31.155  30.001  1.00  0.00     0.031 C 
ATOM     54  C   UNL A   1      46.624  30.451  30.828  1.00  0.00     0.029 A 
ATOM     55  C   UNL A   1      45.296  30.211  30.512  1.00  0.00     0.049 A 
ATOM     56  H   UNL A   1      44.390  28.426  29.847  1.00  0.00     0.167 HD
ATOM     57  C   UNL A   1      42.902  30.806  30.242  1.00  0.00     0.074 A 
ATOM     58  C   UNL A   1      41.799  31.744  30.289  1.00  0.00     0.031 C 
ATOM     59  C   UNL A   1      44.183  31.123  30.556  1.00  0.00     0.031 A 
BRANCH  46  60
ATOM     60  C   UNL A   1      48.153  26.418  29.982  1.00  0.00    -0.014 A 
ATOM     61  C   UNL A   1      49.093  26.517  28.942  1.00  0.00     0.009 A 
ATOM     62  C   UNL A   1      48.545  25.832  31.195  1.00  0.00     0.009 A 
ATOM     63  C   UNL A   1      50.380  25.998  29.097  1.00  0.00     0.001 A 
ATOM     64  C   UNL A   1      49.844  25.345  31.360  1.00  0.00     0.001 A 
ATOM     65  C   UNL A   1      50.756  25.417  30.307  1.00  0.00     0.000 A 
ENDBRANCH  46  60
BRANCH  47  66
ATOM     66  C   UNL A   1      38.610  29.264  29.100  1.00  0.00    -0.014 A 
ATOM     67  C   UNL A   1      38.106  29.743  27.880  1.00  0.00     0.009 A 
ATOM     68  C   UNL A   1      37.753  29.205  30.209  1.00  0.00     0.009 A 
ATOM     69  C   UNL A   1      36.783  30.183  27.782  1.00  0.00     0.001 A 
ATOM     70  C   UNL A   1      36.422  29.617  30.100  1.00  0.00     0.001 A 
ATOM     71  C   UNL A   1      35.942  30.117  28.891  1.00  0.00     0.000 A 
ENDBRANCH  47  66
BRANCH  59  72
ATOM     72  C   UNL A   1      44.454  32.548  30.945  1.00  0.00    -0.014 A 
ATOM     73  C   UNL A   1      44.396  32.963  32.284  1.00  0.00     0.009 A 
ATOM     74  C   UNL A   1      44.783  33.486  29.954  1.00  0.00     0.009 A 
ATOM     75  C   UNL A   1      44.616  34.300  32.618  1.00  0.00     0.001 A 
ATOM     76  C   UNL A   1      45.034  34.816  30.294  1.00  0.00     0.001 A 
ATOM     77  C   UNL A   1      44.936  35.224  31.624  1.00  0.00     0.000 A 
ENDBRANCH  59  72
ENDBRANCH  33  34
ENDBRANCH  25  28
ENDBRANCH  23  24
ENDBRANCH   1  23
TORSDOF 11
ENDMDL
