MODEL 1
REMARK VINA RESULT:     -12.7      0.000      0.000
REMARK SMILES O=C(NCCCNC(=O)[C@@H]1[C@H](C(=O)Nc2ccc(Cn3cncn3)cc2)[C@@H]2C=C[C@H]1CC2)c1ccc(-c2c3nc(c(-c4ccccc4)c4ccc([nH]4)c(-c4ccccc4)c4nc(c(-c5ccccc5)c5ccc2[nH]5)C=C4)C=C3)cc1
REMARK SMILES IDX 6 1 5 2 4 3 3 4 1 5 2 6 33 8 34 9 80 10 35 11 79 12 36 13
REMARK SMILES IDX 37 14 38 15 73 16 39 17 78 18 72 19 74 20 40 21 77 22 71 23
REMARK SMILES IDX 70 24 41 26 63 27 48 28 62 29 49 30 52 31 61 32 75 33 50 34
REMARK SMILES IDX 51 35 60 37 76 38 53 39 42 40 43 41 47 42 44 43 46 44 45 45
REMARK SMILES IDX 64 46 65 47 69 48 66 49 68 50 67 51 54 52 55 53 59 54 56 55
REMARK SMILES IDX 58 56 57 57 7 58 8 59 9 61 10 62 11 63 30 64 27 65 29 66
REMARK SMILES IDX 31 67 28 68 32 69 12 70 13 71 14 72 15 74 16 75 26 76 17 77
REMARK SMILES IDX 25 78 18 79 19 80 20 81 21 82 24 83 22 84 23 85
REMARK H PARENT 3 7 74 25 52 36 7 60 14 73
REMARK Flexibility Score: inf
ROOT
ATOM      1  C   UNL A   1      33.528  27.668  25.064  1.00  0.00     0.117 C 
ENDROOT
BRANCH   1   2
ATOM      2  C   UNL A   1      32.937  29.000  25.560  1.00  0.00     0.042 C 
BRANCH   2   3
ATOM      3  C   UNL A   1      32.972  29.227  27.075  1.00  0.00     0.118 C 
BRANCH   3   4
ATOM      4  N   UNL A   1      33.225  30.591  27.505  1.00  0.00    -0.352 N 
ATOM      5  O   UNL A   1      34.180  32.518  28.022  1.00  0.00    -0.269 OA
ATOM      6  C   UNL A   1      34.338  31.304  27.845  1.00  0.00     0.251 C 
ATOM      7  H   UNL A   1      32.401  31.126  27.564  1.00  0.00     0.163 HD
BRANCH   6   8
ATOM      8  C   UNL A   1      35.684  30.727  28.090  1.00  0.00     0.039 A 
ATOM      9  C   UNL A   1      36.089  29.433  27.760  1.00  0.00     0.014 A 
ATOM     10  C   UNL A   1      36.614  31.589  28.701  1.00  0.00     0.014 A 
ATOM     11  C   UNL A   1      37.361  28.984  28.118  1.00  0.00     0.010 A 
ATOM     12  C   UNL A   1      37.888  31.152  29.044  1.00  0.00     0.010 A 
ATOM     13  C   UNL A   1      38.251  29.835  28.786  1.00  0.00    -0.014 A 
BRANCH  13  14
ATOM     14  C   UNL A   1      39.608  29.361  29.058  1.00  0.00     0.031 A 
ATOM     15  C   UNL A   1      39.896  29.042  30.489  1.00  0.00     0.074 A 
ATOM     16  C   UNL A   1      40.508  29.058  28.099  1.00  0.00     0.049 A 
ATOM     17  N   UNL A   1      40.822  29.528  31.249  1.00  0.00    -0.248 NA
ATOM     18  C   UNL A   1      38.990  28.104  31.174  1.00  0.00     0.031 C 
ATOM     19  C   UNL A   1      40.306  29.009  26.648  1.00  0.00     0.029 A 
ATOM     20  N   UNL A   1      41.792  28.619  28.244  1.00  0.00    -0.354 N 
ATOM     21  C   UNL A   1      40.711  28.868  32.472  1.00  0.00     0.074 A 
ATOM     22  C   UNL A   1      39.510  28.073  32.402  1.00  0.00     0.031 C 
ATOM     23  C   UNL A   1      41.345  28.358  26.074  1.00  0.00     0.029 A 
ATOM     24  C   UNL A   1      42.343  28.072  27.091  1.00  0.00     0.049 A 
ATOM     25  H   UNL A   1      42.285  28.684  29.092  1.00  0.00     0.167 HD
ATOM     26  C   UNL A   1      41.699  28.887  33.410  1.00  0.00     0.031 A 
ATOM     27  C   UNL A   1      43.513  27.392  26.990  1.00  0.00     0.031 A 
ATOM     28  C   UNL A   1      42.636  29.954  33.192  1.00  0.00     0.049 A 
ATOM     29  C   UNL A   1      44.329  27.714  28.180  1.00  0.00     0.074 A 
ATOM     30  C   UNL A   1      42.553  31.331  33.186  1.00  0.00     0.029 A 
ATOM     31  N   UNL A   1      43.820  29.649  32.570  1.00  0.00    -0.354 N 
ATOM     32  N   UNL A   1      44.846  28.886  28.402  1.00  0.00    -0.248 NA
ATOM     33  C   UNL A   1      44.225  26.844  29.340  1.00  0.00     0.031 C 
ATOM     34  C   UNL A   1      43.418  31.742  32.129  1.00  0.00     0.029 A 
ATOM     35  C   UNL A   1      44.016  30.598  31.600  1.00  0.00     0.049 A 
ATOM     36  H   UNL A   1      44.416  28.892  32.781  1.00  0.00     0.167 HD
ATOM     37  C   UNL A   1      44.721  29.070  29.770  1.00  0.00     0.074 A 
ATOM     38  C   UNL A   1      44.431  27.742  30.306  1.00  0.00     0.031 C 
ATOM     39  C   UNL A   1      44.592  30.320  30.304  1.00  0.00     0.031 A 
BRANCH  26  40
ATOM     40  C   UNL A   1      41.996  27.735  34.334  1.00  0.00    -0.014 A 
ATOM     41  C   UNL A   1      41.695  27.856  35.704  1.00  0.00     0.009 A 
ATOM     42  C   UNL A   1      42.805  26.647  33.956  1.00  0.00     0.009 A 
ATOM     43  C   UNL A   1      42.224  26.964  36.647  1.00  0.00     0.001 A 
ATOM     44  C   UNL A   1      43.302  25.734  34.890  1.00  0.00     0.001 A 
ATOM     45  C   UNL A   1      43.032  25.907  36.239  1.00  0.00     0.000 A 
ENDBRANCH  26  40
BRANCH  27  46
ATOM     46  C   UNL A   1      43.871  26.278  26.087  1.00  0.00    -0.014 A 
ATOM     47  C   UNL A   1      45.178  26.137  25.593  1.00  0.00     0.009 A 
ATOM     48  C   UNL A   1      42.997  25.185  25.946  1.00  0.00     0.009 A 
ATOM     49  C   UNL A   1      45.603  24.934  25.012  1.00  0.00     0.001 A 
ATOM     50  C   UNL A   1      43.420  23.985  25.366  1.00  0.00     0.001 A 
ATOM     51  C   UNL A   1      44.729  23.854  24.913  1.00  0.00     0.000 A 
ENDBRANCH  27  46
BRANCH  39  52
ATOM     52  C   UNL A   1      44.796  31.503  29.386  1.00  0.00    -0.014 A 
ATOM     53  C   UNL A   1      43.774  32.030  28.575  1.00  0.00     0.009 A 
ATOM     54  C   UNL A   1      46.015  32.195  29.448  1.00  0.00     0.009 A 
ATOM     55  C   UNL A   1      43.979  33.192  27.823  1.00  0.00     0.001 A 
ATOM     56  C   UNL A   1      46.212  33.368  28.714  1.00  0.00     0.001 A 
ATOM     57  C   UNL A   1      45.197  33.863  27.898  1.00  0.00     0.000 A 
ENDBRANCH  39  52
ENDBRANCH  13  14
ENDBRANCH   6   8
ENDBRANCH   3   4
ENDBRANCH   2   3
ENDBRANCH   1   2
BRANCH   1  58
ATOM     58  N   UNL A   1      33.787  26.719  26.135  1.00  0.00    -0.356 N 
ATOM     59  C   UNL A   1      33.554  25.383  25.975  1.00  0.00     0.224 C 
ATOM     60  H   UNL A   1      34.139  27.048  26.994  1.00  0.00     0.163 HD
ATOM     61  O   UNL A   1      32.520  24.948  26.480  1.00  0.00    -0.275 OA
BRANCH  59  62
ATOM     62  C   UNL A   1      34.488  24.556  25.101  1.00  0.00     0.098 C 
ATOM     63  C   UNL A   1      33.773  23.583  24.126  1.00  0.00     0.098 C 
ATOM     64  C   UNL A   1      35.695  23.802  25.764  1.00  0.00     0.025 C 
ATOM     65  C   UNL A   1      34.692  22.360  23.833  1.00  0.00     0.025 C 
ATOM     66  C   UNL A   1      35.397  22.351  26.113  1.00  0.00    -0.027 C 
ATOM     67  C   UNL A   1      36.759  23.633  24.644  1.00  0.00     0.009 C 
ATOM     68  C   UNL A   1      34.904  21.602  25.114  1.00  0.00    -0.027 C 
ATOM     69  C   UNL A   1      36.112  22.876  23.443  1.00  0.00     0.009 C 
BRANCH  63  70
ATOM     70  C   UNL A   1      32.279  23.213  24.290  1.00  0.00     0.228 C 
ATOM     71  O   UNL A   1      32.028  22.141  24.870  1.00  0.00    -0.274 OA
ATOM     72  N   UNL A   1      31.182  23.980  24.018  1.00  0.00    -0.326 N 
ATOM     73  H   UNL A   1      30.338  23.544  24.275  1.00  0.00     0.169 HD
BRANCH  72  74
ATOM     74  C   UNL A   1      30.993  25.247  23.455  1.00  0.00     0.041 A 
ATOM     75  C   UNL A   1      30.073  26.090  24.078  1.00  0.00     0.026 A 
ATOM     76  C   UNL A   1      31.620  25.695  22.297  1.00  0.00     0.026 A 
ATOM     77  C   UNL A   1      29.980  27.432  23.697  1.00  0.00     0.008 A 
ATOM     78  C   UNL A   1      31.518  27.029  21.894  1.00  0.00     0.008 A 
ATOM     79  C   UNL A   1      30.762  27.930  22.646  1.00  0.00    -0.026 A 
BRANCH  79  80
ATOM     80  C   UNL A   1      30.814  29.403  22.342  1.00  0.00     0.181 C 
BRANCH  80  81
ATOM     81  N   UNL A   1      29.511  30.024  22.423  1.00  0.00    -0.249 N 
ATOM     82  C   UNL A   1      29.019  30.796  23.430  1.00  0.00     0.220 A 
ATOM     83  N   UNL A   1      28.645  29.964  21.392  1.00  0.00    -0.160 NA
ATOM     84  N   UNL A   1      27.829  31.239  23.100  1.00  0.00    -0.224 NA
ATOM     85  C   UNL A   1      27.637  30.706  21.857  1.00  0.00     0.246 A 
ENDBRANCH  80  81
ENDBRANCH  79  80
ENDBRANCH  72  74
ENDBRANCH  63  70
ENDBRANCH  59  62
ENDBRANCH   1  58
TORSDOF 14
ENDMDL
MODEL 2
REMARK VINA RESULT:     -12.7      2.055      4.757
REMARK SMILES O=C(NCCCNC(=O)[C@@H]1[C@H](C(=O)Nc2ccc(Cn3cncn3)cc2)[C@@H]2C=C[C@H]1CC2)c1ccc(-c2c3nc(c(-c4ccccc4)c4ccc([nH]4)c(-c4ccccc4)c4nc(c(-c5ccccc5)c5ccc2[nH]5)C=C4)C=C3)cc1
REMARK SMILES IDX 6 1 5 2 4 3 3 4 1 5 2 6 33 8 34 9 80 10 35 11 79 12 36 13
REMARK SMILES IDX 37 14 38 15 73 16 39 17 78 18 72 19 74 20 40 21 77 22 71 23
REMARK SMILES IDX 70 24 41 26 63 27 48 28 62 29 49 30 52 31 61 32 75 33 50 34
REMARK SMILES IDX 51 35 60 37 76 38 53 39 42 40 43 41 47 42 44 43 46 44 45 45
REMARK SMILES IDX 64 46 65 47 69 48 66 49 68 50 67 51 54 52 55 53 59 54 56 55
REMARK SMILES IDX 58 56 57 57 7 58 8 59 9 61 10 62 11 63 30 64 27 65 29 66
REMARK SMILES IDX 31 67 28 68 32 69 12 70 13 71 14 72 15 74 16 75 26 76 17 77
REMARK SMILES IDX 25 78 18 79 19 80 20 81 21 82 24 83 22 84 23 85
REMARK H PARENT 3 7 74 25 52 36 7 60 14 73
REMARK Flexibility Score: inf
ROOT
ATOM      1  C   UNL A   1      31.392  28.213  27.055  1.00  0.00     0.117 C 
ENDROOT
BRANCH   1   2
ATOM      2  C   UNL A   1      32.636  28.936  27.604  1.00  0.00     0.042 C 
BRANCH   2   3
ATOM      3  C   UNL A   1      33.190  30.071  26.737  1.00  0.00     0.118 C 
BRANCH   3   4
ATOM      4  N   UNL A   1      33.518  31.299  27.439  1.00  0.00    -0.352 N 
ATOM      5  O   UNL A   1      34.582  32.990  28.389  1.00  0.00    -0.269 OA
ATOM      6  C   UNL A   1      34.650  31.820  27.995  1.00  0.00     0.251 C 
ATOM      7  H   UNL A   1      32.741  31.897  27.536  1.00  0.00     0.163 HD
BRANCH   6   8
ATOM      8  C   UNL A   1      35.912  31.072  28.229  1.00  0.00     0.039 A 
ATOM      9  C   UNL A   1      36.153  29.746  27.868  1.00  0.00     0.014 A 
ATOM     10  C   UNL A   1      36.941  31.796  28.862  1.00  0.00     0.014 A 
ATOM     11  C   UNL A   1      37.357  29.132  28.217  1.00  0.00     0.010 A 
ATOM     12  C   UNL A   1      38.148  31.194  29.198  1.00  0.00     0.010 A 
ATOM     13  C   UNL A   1      38.343  29.848  28.907  1.00  0.00    -0.014 A 
BRANCH  13  14
ATOM     14  C   UNL A   1      39.629  29.201  29.170  1.00  0.00     0.031 A 
ATOM     15  C   UNL A   1      39.916  28.917  30.609  1.00  0.00     0.074 A 
ATOM     16  C   UNL A   1      40.444  28.724  28.207  1.00  0.00     0.049 A 
ATOM     17  N   UNL A   1      40.926  29.306  31.317  1.00  0.00    -0.248 NA
ATOM     18  C   UNL A   1      38.911  28.154  31.368  1.00  0.00     0.031 C 
ATOM     19  C   UNL A   1      40.190  28.631  26.767  1.00  0.00     0.029 A 
ATOM     20  N   UNL A   1      41.658  28.116  28.343  1.00  0.00    -0.354 N 
ATOM     21  C   UNL A   1      40.764  28.731  32.578  1.00  0.00     0.074 A 
ATOM     22  C   UNL A   1      39.462  28.113  32.582  1.00  0.00     0.031 C 
ATOM     23  C   UNL A   1      41.107  27.809  26.203  1.00  0.00     0.029 A 
ATOM     24  C   UNL A   1      42.089  27.437  27.209  1.00  0.00     0.049 A 
ATOM     25  H   UNL A   1      42.184  28.153  29.174  1.00  0.00     0.167 HD
ATOM     26  C   UNL A   1      41.775  28.658  33.487  1.00  0.00     0.031 A 
ATOM     27  C   UNL A   1      43.148  26.594  27.116  1.00  0.00     0.031 A 
ATOM     28  C   UNL A   1      42.845  29.568  33.187  1.00  0.00     0.049 A 
ATOM     29  C   UNL A   1      44.040  26.857  28.265  1.00  0.00     0.074 A 
ATOM     30  C   UNL A   1      42.956  30.941  33.107  1.00  0.00     0.029 A 
ATOM     31  N   UNL A   1      43.953  29.066  32.553  1.00  0.00    -0.354 N 
ATOM     32  N   UNL A   1      44.723  27.953  28.409  1.00  0.00    -0.248 NA
ATOM     33  C   UNL A   1      43.853  26.071  29.473  1.00  0.00     0.031 C 
ATOM     34  C   UNL A   1      43.835  31.171  32.007  1.00  0.00     0.029 A 
ATOM     35  C   UNL A   1      44.248  29.927  31.527  1.00  0.00     0.049 A 
ATOM     36  H   UNL A   1      44.443  28.245  32.789  1.00  0.00     0.167 HD
ATOM     37  C   UNL A   1      44.671  28.223  29.767  1.00  0.00     0.074 A 
ATOM     38  C   UNL A   1      44.215  26.979  30.383  1.00  0.00     0.031 C 
ATOM     39  C   UNL A   1      44.736  29.505  30.234  1.00  0.00     0.031 A 
BRANCH  26  40
ATOM     40  C   UNL A   1      41.938  27.524  34.466  1.00  0.00    -0.014 A 
ATOM     41  C   UNL A   1      41.662  27.745  35.828  1.00  0.00     0.009 A 
ATOM     42  C   UNL A   1      42.608  26.330  34.141  1.00  0.00     0.009 A 
ATOM     43  C   UNL A   1      42.086  26.843  36.813  1.00  0.00     0.001 A 
ATOM     44  C   UNL A   1      42.999  25.410  35.118  1.00  0.00     0.001 A 
ATOM     45  C   UNL A   1      42.759  25.678  36.457  1.00  0.00     0.000 A 
ENDBRANCH  26  40
BRANCH  27  46
ATOM     46  C   UNL A   1      43.315  25.395  26.267  1.00  0.00    -0.014 A 
ATOM     47  C   UNL A   1      44.344  25.321  25.313  1.00  0.00     0.009 A 
ATOM     48  C   UNL A   1      42.643  24.205  26.598  1.00  0.00     0.009 A 
ATOM     49  C   UNL A   1      44.709  24.095  24.741  1.00  0.00     0.001 A 
ATOM     50  C   UNL A   1      43.006  22.981  26.027  1.00  0.00     0.001 A 
ATOM     51  C   UNL A   1      44.050  22.923  25.109  1.00  0.00     0.000 A 
ENDBRANCH  27  46
BRANCH  39  52
ATOM     52  C   UNL A   1      45.074  30.598  29.247  1.00  0.00    -0.014 A 
ATOM     53  C   UNL A   1      44.112  31.214  28.426  1.00  0.00     0.009 A 
ATOM     54  C   UNL A   1      46.376  31.121  29.248  1.00  0.00     0.009 A 
ATOM     55  C   UNL A   1      44.452  32.296  27.606  1.00  0.00     0.001 A 
ATOM     56  C   UNL A   1      46.710  32.215  28.446  1.00  0.00     0.001 A 
ATOM     57  C   UNL A   1      45.751  32.799  27.621  1.00  0.00     0.000 A 
ENDBRANCH  39  52
ENDBRANCH  13  14
ENDBRANCH   6   8
ENDBRANCH   3   4
ENDBRANCH   2   3
ENDBRANCH   1   2
BRANCH   1  58
ATOM     58  N   UNL A   1      31.562  26.772  26.954  1.00  0.00    -0.356 N 
ATOM     59  C   UNL A   1      30.884  26.038  26.023  1.00  0.00     0.224 C 
ATOM     60  H   UNL A   1      32.179  26.317  27.572  1.00  0.00     0.163 HD
ATOM     61  O   UNL A   1      29.903  25.419  26.429  1.00  0.00    -0.275 OA
BRANCH  59  62
ATOM     62  C   UNL A   1      31.290  26.126  24.557  1.00  0.00     0.098 C 
ATOM     63  C   UNL A   1      32.654  25.468  24.220  1.00  0.00     0.098 C 
ATOM     64  C   UNL A   1      31.206  27.509  23.818  1.00  0.00     0.025 C 
ATOM     65  C   UNL A   1      33.292  26.178  22.990  1.00  0.00     0.025 C 
ATOM     66  C   UNL A   1      32.517  28.282  23.808  1.00  0.00    -0.027 C 
ATOM     67  C   UNL A   1      31.035  27.177  22.310  1.00  0.00     0.009 C 
ATOM     68  C   UNL A   1      33.587  27.605  23.358  1.00  0.00    -0.027 C 
ATOM     69  C   UNL A   1      32.226  26.278  21.854  1.00  0.00     0.009 C 
BRANCH  63  70
ATOM     70  C   UNL A   1      33.675  25.095  25.322  1.00  0.00     0.228 C 
ATOM     71  O   UNL A   1      34.146  26.033  25.990  1.00  0.00    -0.274 OA
ATOM     72  N   UNL A   1      34.022  23.851  25.767  1.00  0.00    -0.326 N 
ATOM     73  H   UNL A   1      34.645  23.879  26.529  1.00  0.00     0.169 HD
BRANCH  72  74
ATOM     74  C   UNL A   1      33.690  22.548  25.381  1.00  0.00     0.041 A 
ATOM     75  C   UNL A   1      32.334  22.226  25.324  1.00  0.00     0.026 A 
ATOM     76  C   UNL A   1      34.617  21.550  25.103  1.00  0.00     0.026 A 
ATOM     77  C   UNL A   1      31.922  21.018  24.756  1.00  0.00     0.008 A 
ATOM     78  C   UNL A   1      34.216  20.329  24.554  1.00  0.00     0.008 A 
ATOM     79  C   UNL A   1      32.865  20.089  24.296  1.00  0.00    -0.026 A 
BRANCH  79  80
ATOM     80  C   UNL A   1      32.447  18.870  23.518  1.00  0.00     0.181 C 
BRANCH  80  81
ATOM     81  N   UNL A   1      32.745  17.644  24.223  1.00  0.00    -0.249 N 
ATOM     82  C   UNL A   1      33.487  16.592  23.782  1.00  0.00     0.220 A 
ATOM     83  N   UNL A   1      32.365  17.465  25.504  1.00  0.00    -0.160 NA
ATOM     84  N   UNL A   1      33.595  15.701  24.740  1.00  0.00    -0.224 NA
ATOM     85  C   UNL A   1      32.895  16.267  25.766  1.00  0.00     0.246 A 
ENDBRANCH  80  81
ENDBRANCH  79  80
ENDBRANCH  72  74
ENDBRANCH  63  70
ENDBRANCH  59  62
ENDBRANCH   1  58
TORSDOF 14
ENDMDL
MODEL 3
REMARK VINA RESULT:     -12.3      2.828      7.956
REMARK SMILES O=C(NCCCNC(=O)[C@@H]1[C@H](C(=O)Nc2ccc(Cn3cncn3)cc2)[C@@H]2C=C[C@H]1CC2)c1ccc(-c2c3nc(c(-c4ccccc4)c4ccc([nH]4)c(-c4ccccc4)c4nc(c(-c5ccccc5)c5ccc2[nH]5)C=C4)C=C3)cc1
REMARK SMILES IDX 6 1 5 2 4 3 3 4 1 5 2 6 33 8 34 9 80 10 35 11 79 12 36 13
REMARK SMILES IDX 37 14 38 15 73 16 39 17 78 18 72 19 74 20 40 21 77 22 71 23
REMARK SMILES IDX 70 24 41 26 63 27 48 28 62 29 49 30 52 31 61 32 75 33 50 34
REMARK SMILES IDX 51 35 60 37 76 38 53 39 42 40 43 41 47 42 44 43 46 44 45 45
REMARK SMILES IDX 64 46 65 47 69 48 66 49 68 50 67 51 54 52 55 53 59 54 56 55
REMARK SMILES IDX 58 56 57 57 7 58 8 59 9 61 10 62 11 63 30 64 27 65 29 66
REMARK SMILES IDX 31 67 28 68 32 69 12 70 13 71 14 72 15 74 16 75 26 76 17 77
REMARK SMILES IDX 25 78 18 79 19 80 20 81 21 82 24 83 22 84 23 85
REMARK H PARENT 3 7 74 25 52 36 7 60 14 73
REMARK Flexibility Score: inf
ROOT
ATOM      1  C   UNL A   1      34.881  23.268  25.757  1.00  0.00     0.117 C 
ENDROOT
BRANCH   1   2
ATOM      2  C   UNL A   1      35.943  22.155  25.688  1.00  0.00     0.042 C 
BRANCH   2   3
ATOM      3  C   UNL A   1      37.277  22.540  25.040  1.00  0.00     0.118 C 
BRANCH   3   4
ATOM      4  N   UNL A   1      38.453  21.873  25.570  1.00  0.00    -0.352 N 
ATOM      5  O   UNL A   1      40.203  21.294  26.793  1.00  0.00    -0.269 OA
ATOM      6  C   UNL A   1      39.419  22.196  26.479  1.00  0.00     0.251 C 
ATOM      7  H   UNL A   1      38.584  20.977  25.183  1.00  0.00     0.163 HD
BRANCH   6   8
ATOM      8  C   UNL A   1      39.641  23.550  27.048  1.00  0.00     0.039 A 
ATOM      9  C   UNL A   1      38.803  24.653  26.879  1.00  0.00     0.014 A 
ATOM     10  C   UNL A   1      40.801  23.699  27.831  1.00  0.00     0.014 A 
ATOM     11  C   UNL A   1      39.166  25.896  27.400  1.00  0.00     0.010 A 
ATOM     12  C   UNL A   1      41.159  24.930  28.367  1.00  0.00     0.010 A 
ATOM     13  C   UNL A   1      40.359  26.040  28.120  1.00  0.00    -0.014 A 
BRANCH  13  14
ATOM     14  C   UNL A   1      40.658  27.334  28.735  1.00  0.00     0.031 A 
ATOM     15  C   UNL A   1      41.828  28.060  28.152  1.00  0.00     0.074 A 
ATOM     16  C   UNL A   1      39.864  27.941  29.641  1.00  0.00     0.049 A 
ATOM     17  N   UNL A   1      42.892  28.481  28.755  1.00  0.00    -0.248 NA
ATOM     18  C   UNL A   1      41.836  28.286  26.697  1.00  0.00     0.031 C 
ATOM     19  C   UNL A   1      38.532  27.535  30.097  1.00  0.00     0.029 A 
ATOM     20  N   UNL A   1      40.053  29.135  30.275  1.00  0.00    -0.354 N 
ATOM     21  C   UNL A   1      43.651  29.145  27.792  1.00  0.00     0.074 A 
ATOM     22  C   UNL A   1      43.000  28.912  26.526  1.00  0.00     0.031 C 
ATOM     23  C   UNL A   1      37.948  28.566  30.751  1.00  0.00     0.029 A 
ATOM     24  C   UNL A   1      38.912  29.647  30.882  1.00  0.00     0.049 A 
ATOM     25  H   UNL A   1      40.922  29.594  30.300  1.00  0.00     0.167 HD
ATOM     26  C   UNL A   1      44.676  29.982  28.113  1.00  0.00     0.031 A 
ATOM     27  C   UNL A   1      38.757  30.887  31.411  1.00  0.00     0.031 A 
ATOM     28  C   UNL A   1      45.141  29.783  29.457  1.00  0.00     0.049 A 
ATOM     29  C   UNL A   1      40.103  31.446  31.660  1.00  0.00     0.074 A 
ATOM     30  C   UNL A   1      45.725  28.734  30.136  1.00  0.00     0.029 A 
ATOM     31  N   UNL A   1      44.697  30.651  30.423  1.00  0.00    -0.354 N 
ATOM     32  N   UNL A   1      40.915  30.988  32.565  1.00  0.00    -0.248 NA
ATOM     33  C   UNL A   1      40.714  32.253  30.617  1.00  0.00     0.031 C 
ATOM     34  C   UNL A   1      45.152  28.781  31.441  1.00  0.00     0.029 A 
ATOM     35  C   UNL A   1      44.304  29.888  31.492  1.00  0.00     0.049 A 
ATOM     36  H   UNL A   1      44.667  31.634  30.359  1.00  0.00     0.167 HD
ATOM     37  C   UNL A   1      42.169  31.065  31.981  1.00  0.00     0.074 A 
ATOM     38  C   UNL A   1      41.997  31.947  30.828  1.00  0.00     0.031 C 
ATOM     39  C   UNL A   1      43.161  30.191  32.324  1.00  0.00     0.031 A 
BRANCH  26  40
ATOM     40  C   UNL A   1      45.037  31.206  27.312  1.00  0.00    -0.014 A 
ATOM     41  C   UNL A   1      46.383  31.429  26.964  1.00  0.00     0.009 A 
ATOM     42  C   UNL A   1      44.147  32.279  27.122  1.00  0.00     0.009 A 
ATOM     43  C   UNL A   1      46.818  32.679  26.502  1.00  0.00     0.001 A 
ATOM     44  C   UNL A   1      44.572  33.515  26.627  1.00  0.00     0.001 A 
ATOM     45  C   UNL A   1      45.913  33.723  26.340  1.00  0.00     0.000 A 
ENDBRANCH  26  40
BRANCH  27  46
ATOM     46  C   UNL A   1      37.547  31.734  31.466  1.00  0.00    -0.014 A 
ATOM     47  C   UNL A   1      36.956  32.231  30.292  1.00  0.00     0.009 A 
ATOM     48  C   UNL A   1      36.802  31.812  32.656  1.00  0.00     0.009 A 
ATOM     49  C   UNL A   1      35.655  32.752  30.304  1.00  0.00     0.001 A 
ATOM     50  C   UNL A   1      35.503  32.333  32.669  1.00  0.00     0.001 A 
ATOM     51  C   UNL A   1      34.924  32.789  31.489  1.00  0.00     0.000 A 
ENDBRANCH  27  46
BRANCH  39  52
ATOM     52  C   UNL A   1      42.919  29.277  33.502  1.00  0.00    -0.014 A 
ATOM     53  C   UNL A   1      43.214  29.642  34.829  1.00  0.00     0.009 A 
ATOM     54  C   UNL A   1      42.239  28.070  33.283  1.00  0.00     0.009 A 
ATOM     55  C   UNL A   1      42.872  28.806  35.898  1.00  0.00     0.001 A 
ATOM     56  C   UNL A   1      41.877  27.246  34.352  1.00  0.00     0.001 A 
ATOM     57  C   UNL A   1      42.198  27.611  35.658  1.00  0.00     0.000 A 
ENDBRANCH  39  52
ENDBRANCH  13  14
ENDBRANCH   6   8
ENDBRANCH   3   4
ENDBRANCH   2   3
ENDBRANCH   1   2
BRANCH   1  58
ATOM     58  N   UNL A   1      35.291  24.496  25.094  1.00  0.00    -0.356 N 
ATOM     59  C   UNL A   1      34.388  25.291  24.446  1.00  0.00     0.224 C 
ATOM     60  H   UNL A   1      36.239  24.759  25.114  1.00  0.00     0.163 HD
ATOM     61  O   UNL A   1      34.363  25.196  23.221  1.00  0.00    -0.275 OA
BRANCH  59  62
ATOM     62  C   UNL A   1      33.407  26.128  25.257  1.00  0.00     0.098 C 
ATOM     63  C   UNL A   1      31.936  26.059  24.766  1.00  0.00     0.098 C 
ATOM     64  C   UNL A   1      33.756  27.625  25.579  1.00  0.00     0.025 C 
ATOM     65  C   UNL A   1      31.197  27.381  25.128  1.00  0.00     0.025 C 
ATOM     66  C   UNL A   1      33.165  28.621  24.593  1.00  0.00    -0.027 C 
ATOM     67  C   UNL A   1      32.972  27.975  26.874  1.00  0.00     0.009 C 
ATOM     68  C   UNL A   1      31.844  28.513  24.378  1.00  0.00    -0.027 C 
ATOM     69  C   UNL A   1      31.454  27.710  26.631  1.00  0.00     0.009 C 
BRANCH  63  70
ATOM     70  C   UNL A   1      31.565  25.500  23.371  1.00  0.00     0.228 C 
ATOM     71  O   UNL A   1      31.387  26.333  22.464  1.00  0.00    -0.274 OA
ATOM     72  N   UNL A   1      31.553  24.199  22.957  1.00  0.00    -0.326 N 
ATOM     73  H   UNL A   1      31.349  24.106  21.998  1.00  0.00     0.169 HD
BRANCH  72  74
ATOM     74  C   UNL A   1      31.764  22.971  23.591  1.00  0.00     0.041 A 
ATOM     75  C   UNL A   1      32.507  22.015  22.899  1.00  0.00     0.026 A 
ATOM     76  C   UNL A   1      31.242  22.628  24.834  1.00  0.00     0.026 A 
ATOM     77  C   UNL A   1      32.929  20.849  23.545  1.00  0.00     0.008 A 
ATOM     78  C   UNL A   1      31.640  21.455  25.482  1.00  0.00     0.008 A 
ATOM     79  C   UNL A   1      32.557  20.597  24.873  1.00  0.00    -0.026 A 
BRANCH  79  80
ATOM     80  C   UNL A   1      33.147  19.447  25.643  1.00  0.00     0.181 C 
BRANCH  80  81
ATOM     81  N   UNL A   1      33.401  18.299  24.802  1.00  0.00    -0.249 N 
ATOM     82  C   UNL A   1      32.491  17.426  24.291  1.00  0.00     0.220 A 
ATOM     83  N   UNL A   1      34.639  18.032  24.342  1.00  0.00    -0.160 NA
ATOM     84  N   UNL A   1      33.101  16.565  23.511  1.00  0.00    -0.224 NA
ATOM     85  C   UNL A   1      34.405  16.964  23.573  1.00  0.00     0.246 A 
ENDBRANCH  80  81
ENDBRANCH  79  80
ENDBRANCH  72  74
ENDBRANCH  63  70
ENDBRANCH  59  62
ENDBRANCH   1  58
TORSDOF 14
ENDMDL
