MODEL 1
REMARK VINA RESULT:     -11.4      0.000      0.000
REMARK SMILES COc1ccc(F)c(NC(=O)N2CCCC[C@@H]2C(=O)NCCCNC(=O)c2ccc(-c3c4nc(c(-c5ccccc5)c5ccc([nH]5)c(-c5ccccc5)c5nc(c(-c6ccccc6)c6ccc3[nH]6)C=C5)C=C4)cc2)c1
REMARK SMILES IDX 21 1 20 2 18 3 19 4 17 6 12 7 13 8 14 9 16 10 15 11 10 12
REMARK SMILES IDX 9 13 11 15 8 16 3 17 4 18 75 19 5 20 6 21 7 22 2 23 1 24
REMARK SMILES IDX 22 25 23 26 24 27 25 28 26 30 27 31 28 32 74 33 29 34 73 35
REMARK SMILES IDX 30 36 31 37 32 38 67 39 33 40 72 41 66 42 68 43 34 44 71 45
REMARK SMILES IDX 65 46 64 47 35 49 57 50 42 51 56 52 43 53 46 54 55 55 69 56
REMARK SMILES IDX 44 57 45 58 54 60 70 61 47 62 36 63 37 64 41 65 38 66 40 67
REMARK SMILES IDX 39 68 58 69 59 70 63 71 60 72 62 73 61 74 48 75 49 76 53 77
REMARK SMILES IDX 50 78 52 79 51 80
REMARK H PARENT 20 5 9 14 24 29 68 48 46 59
REMARK Flexibility Score: inf
ROOT
ATOM      1  C   UNL A   1      31.538  27.531  26.426  1.00  0.00     0.117 C 
ENDROOT
BRANCH   1   2
ATOM      2  N   UNL A   1      31.418  26.170  26.911  1.00  0.00    -0.354 N 
ATOM      3  C   UNL A   1      31.868  25.016  26.349  1.00  0.00     0.242 C 
ATOM      4  O   UNL A   1      31.262  23.979  26.640  1.00  0.00    -0.273 OA
ATOM      5  H   UNL A   1      30.944  26.066  27.768  1.00  0.00     0.163 HD
BRANCH   3   6
ATOM      6  C   UNL A   1      32.986  25.014  25.284  1.00  0.00     0.176 C 
ATOM      7  N   UNL A   1      32.682  24.294  24.014  1.00  0.00    -0.313 N 
ATOM      8  C   UNL A   1      33.816  24.012  23.137  1.00  0.00     0.122 C 
ATOM      9  C   UNL A   1      35.008  23.413  23.863  1.00  0.00     0.022 C 
ATOM     10  C   UNL A   1      34.263  24.488  25.977  1.00  0.00     0.035 C 
ATOM     11  C   UNL A   1      35.428  24.313  25.013  1.00  0.00     0.004 C 
BRANCH   7  12
ATOM     12  C   UNL A   1      31.446  24.065  23.449  1.00  0.00     0.322 C 
ATOM     13  N   UNL A   1      30.513  25.032  23.297  1.00  0.00    -0.305 N 
ATOM     14  H   UNL A   1      29.591  24.688  23.322  1.00  0.00     0.171 HD
ATOM     15  O   UNL A   1      31.108  22.919  23.131  1.00  0.00    -0.248 OA
BRANCH  13  16
ATOM     16  C   UNL A   1      30.581  26.421  23.108  1.00  0.00     0.082 A 
ATOM     17  C   UNL A   1      31.789  28.472  22.785  1.00  0.00     0.121 A 
ATOM     18  C   UNL A   1      30.656  29.222  23.100  1.00  0.00     0.049 A 
ATOM     19  C   UNL A   1      31.724  27.084  22.684  1.00  0.00     0.075 A 
ATOM     20  C   UNL A   1      29.457  28.566  23.366  1.00  0.00     0.045 A 
ATOM     21  C   UNL A   1      29.433  27.173  23.384  1.00  0.00     0.147 A 
ATOM     22  F   UNL A   1      28.292  26.549  23.719  1.00  0.00    -0.205 F 
BRANCH  17  23
ATOM     23  O   UNL A   1      33.012  29.057  22.597  1.00  0.00    -0.497 OA
ATOM     24  C   UNL A   1      34.010  28.385  23.377  1.00  0.00     0.278 C 
ENDBRANCH  17  23
ENDBRANCH  13  16
ENDBRANCH   7  12
ENDBRANCH   3   6
ENDBRANCH   1   2
BRANCH   1  25
ATOM     25  C   UNL A   1      32.070  28.431  27.537  1.00  0.00     0.042 C 
BRANCH  25  26
ATOM     26  C   UNL A   1      33.446  29.012  27.232  1.00  0.00     0.118 C 
BRANCH  26  27
ATOM     27  N   UNL A   1      33.575  30.391  27.685  1.00  0.00    -0.352 N 
ATOM     28  C   UNL A   1      34.602  30.987  28.373  1.00  0.00     0.251 C 
ATOM     29  H   UNL A   1      32.817  30.979  27.465  1.00  0.00     0.163 HD
ATOM     30  O   UNL A   1      34.455  32.094  28.873  1.00  0.00    -0.269 OA
BRANCH  28  31
ATOM     31  C   UNL A   1      35.881  30.265  28.527  1.00  0.00     0.039 A 
ATOM     32  C   UNL A   1      36.787  30.265  27.467  1.00  0.00     0.014 A 
ATOM     33  C   UNL A   1      36.192  29.625  29.730  1.00  0.00     0.014 A 
ATOM     34  C   UNL A   1      38.048  29.696  27.646  1.00  0.00     0.010 A 
ATOM     35  C   UNL A   1      37.476  29.133  29.934  1.00  0.00     0.010 A 
ATOM     36  C   UNL A   1      38.419  29.175  28.896  1.00  0.00    -0.014 A 
BRANCH  36  37
ATOM     37  C   UNL A   1      39.807  28.719  29.155  1.00  0.00     0.031 A 
ATOM     38  C   UNL A   1      40.814  29.650  29.766  1.00  0.00     0.074 A 
ATOM     39  C   UNL A   1      40.175  27.482  28.766  1.00  0.00     0.049 A 
ATOM     40  N   UNL A   1      42.083  29.445  30.010  1.00  0.00    -0.248 NA
ATOM     41  C   UNL A   1      40.341  30.995  30.131  1.00  0.00     0.031 C 
ATOM     42  C   UNL A   1      39.298  26.500  28.122  1.00  0.00     0.029 A 
ATOM     43  N   UNL A   1      41.385  26.843  28.847  1.00  0.00    -0.354 N 
ATOM     44  C   UNL A   1      42.562  30.633  30.546  1.00  0.00     0.074 A 
ATOM     45  C   UNL A   1      41.460  31.571  30.545  1.00  0.00     0.031 C 
ATOM     46  C   UNL A   1      39.992  25.373  27.896  1.00  0.00     0.029 A 
ATOM     47  C   UNL A   1      41.371  25.569  28.328  1.00  0.00     0.049 A 
ATOM     48  H   UNL A   1      42.189  27.255  29.239  1.00  0.00     0.167 HD
ATOM     49  C   UNL A   1      43.802  30.911  31.012  1.00  0.00     0.031 A 
ATOM     50  C   UNL A   1      42.359  24.666  28.201  1.00  0.00     0.031 A 
ATOM     51  C   UNL A   1      44.896  29.978  31.005  1.00  0.00     0.049 A 
ATOM     52  C   UNL A   1      43.738  25.017  28.686  1.00  0.00     0.074 A 
ATOM     53  C   UNL A   1      46.175  30.146  31.506  1.00  0.00     0.029 A 
ATOM     54  N   UNL A   1      44.845  28.704  30.458  1.00  0.00    -0.354 N 
ATOM     55  N   UNL A   1      44.154  26.117  29.265  1.00  0.00    -0.248 NA
ATOM     56  C   UNL A   1      44.781  24.000  28.503  1.00  0.00     0.031 C 
ATOM     57  C   UNL A   1      46.917  29.000  31.203  1.00  0.00     0.029 A 
ATOM     58  C   UNL A   1      46.082  28.092  30.572  1.00  0.00     0.049 A 
ATOM     59  H   UNL A   1      44.049  28.297  30.050  1.00  0.00     0.167 HD
ATOM     60  C   UNL A   1      45.502  25.918  29.532  1.00  0.00     0.074 A 
ATOM     61  C   UNL A   1      45.826  24.582  29.076  1.00  0.00     0.031 C 
ATOM     62  C   UNL A   1      46.393  26.766  30.101  1.00  0.00     0.031 A 
BRANCH  49  63
ATOM     63  C   UNL A   1      44.045  32.292  31.557  1.00  0.00    -0.014 A 
ATOM     64  C   UNL A   1      43.848  32.585  32.916  1.00  0.00     0.009 A 
ATOM     65  C   UNL A   1      44.518  33.304  30.708  1.00  0.00     0.009 A 
ATOM     66  C   UNL A   1      44.086  33.871  33.405  1.00  0.00     0.001 A 
ATOM     67  C   UNL A   1      44.786  34.581  31.206  1.00  0.00     0.001 A 
ATOM     68  C   UNL A   1      44.560  34.866  32.551  1.00  0.00     0.000 A 
ENDBRANCH  49  63
BRANCH  50  69
ATOM     69  C   UNL A   1      42.085  23.342  27.582  1.00  0.00    -0.014 A 
ATOM     70  C   UNL A   1      42.404  23.104  26.236  1.00  0.00     0.009 A 
ATOM     71  C   UNL A   1      41.497  22.310  28.331  1.00  0.00     0.009 A 
ATOM     72  C   UNL A   1      42.116  21.870  25.648  1.00  0.00     0.001 A 
ATOM     73  C   UNL A   1      41.240  21.068  27.750  1.00  0.00     0.001 A 
ATOM     74  C   UNL A   1      41.539  20.852  26.406  1.00  0.00     0.000 A 
ENDBRANCH  50  69
BRANCH  62  75
ATOM     75  C   UNL A   1      47.800  26.268  30.273  1.00  0.00    -0.014 A 
ATOM     76  C   UNL A   1      48.723  26.315  29.217  1.00  0.00     0.009 A 
ATOM     77  C   UNL A   1      48.220  25.780  31.521  1.00  0.00     0.009 A 
ATOM     78  C   UNL A   1      50.028  25.853  29.398  1.00  0.00     0.001 A 
ATOM     79  C   UNL A   1      49.534  25.350  31.708  1.00  0.00     0.001 A 
ATOM     80  C   UNL A   1      50.434  25.377  30.643  1.00  0.00     0.000 A 
ENDBRANCH  62  75
ENDBRANCH  36  37
ENDBRANCH  28  31
ENDBRANCH  26  27
ENDBRANCH  25  26
ENDBRANCH   1  25
TORSDOF 13
ENDMDL
MODEL 2
REMARK VINA RESULT:     -11.4      3.418      5.481
REMARK SMILES COc1ccc(F)c(NC(=O)N2CCCC[C@@H]2C(=O)NCCCNC(=O)c2ccc(-c3c4nc(c(-c5ccccc5)c5ccc([nH]5)c(-c5ccccc5)c5nc(c(-c6ccccc6)c6ccc3[nH]6)C=C5)C=C4)cc2)c1
REMARK SMILES IDX 21 1 20 2 18 3 19 4 17 6 12 7 13 8 14 9 16 10 15 11 10 12
REMARK SMILES IDX 9 13 11 15 8 16 3 17 4 18 75 19 5 20 6 21 7 22 2 23 1 24
REMARK SMILES IDX 22 25 23 26 24 27 25 28 26 30 27 31 28 32 74 33 29 34 73 35
REMARK SMILES IDX 30 36 31 37 32 38 67 39 33 40 72 41 66 42 68 43 34 44 71 45
REMARK SMILES IDX 65 46 64 47 35 49 57 50 42 51 56 52 43 53 46 54 55 55 69 56
REMARK SMILES IDX 44 57 45 58 54 60 70 61 47 62 36 63 37 64 41 65 38 66 40 67
REMARK SMILES IDX 39 68 58 69 59 70 63 71 60 72 62 73 61 74 48 75 49 76 53 77
REMARK SMILES IDX 50 78 52 79 51 80
REMARK H PARENT 20 5 9 14 24 29 68 48 46 59
REMARK Flexibility Score: inf
ROOT
ATOM      1  C   UNL A   1      31.728  30.580  26.438  1.00  0.00     0.117 C 
ENDROOT
BRANCH   1   2
ATOM      2  N   UNL A   1      32.000  30.291  25.043  1.00  0.00    -0.354 N 
ATOM      3  C   UNL A   1      31.845  29.124  24.362  1.00  0.00     0.242 C 
ATOM      4  O   UNL A   1      32.565  28.953  23.372  1.00  0.00    -0.273 OA
ATOM      5  H   UNL A   1      32.347  31.045  24.514  1.00  0.00     0.163 HD
BRANCH   3   6
ATOM      6  C   UNL A   1      30.921  27.999  24.878  1.00  0.00     0.176 C 
ATOM      7  N   UNL A   1      31.594  26.854  25.555  1.00  0.00    -0.313 N 
ATOM      8  C   UNL A   1      30.787  25.654  25.764  1.00  0.00     0.122 C 
ATOM      9  C   UNL A   1      30.021  25.218  24.528  1.00  0.00     0.022 C 
ATOM     10  C   UNL A   1      30.045  27.556  23.685  1.00  0.00     0.035 C 
ATOM     11  C   UNL A   1      29.163  26.361  24.012  1.00  0.00     0.004 C 
BRANCH   7  12
ATOM     12  C   UNL A   1      32.804  26.859  26.217  1.00  0.00     0.322 C 
ATOM     13  N   UNL A   1      33.740  25.897  26.049  1.00  0.00    -0.305 N 
ATOM     14  H   UNL A   1      34.300  25.760  26.847  1.00  0.00     0.171 HD
ATOM     15  O   UNL A   1      33.045  27.721  27.069  1.00  0.00    -0.248 OA
BRANCH  13  16
ATOM     16  C   UNL A   1      34.083  25.055  24.980  1.00  0.00     0.082 A 
ATOM     17  C   UNL A   1      33.928  24.347  22.690  1.00  0.00     0.121 A 
ATOM     18  C   UNL A   1      34.531  23.128  22.997  1.00  0.00     0.049 A 
ATOM     19  C   UNL A   1      33.802  25.347  23.652  1.00  0.00     0.075 A 
ATOM     20  C   UNL A   1      34.968  22.892  24.298  1.00  0.00     0.045 A 
ATOM     21  C   UNL A   1      34.726  23.849  25.281  1.00  0.00     0.147 A 
ATOM     22  F   UNL A   1      35.080  23.581  26.548  1.00  0.00    -0.205 F 
BRANCH  17  23
ATOM     23  O   UNL A   1      33.403  24.601  21.451  1.00  0.00    -0.497 OA
ATOM     24  C   UNL A   1      32.539  25.744  21.502  1.00  0.00     0.278 C 
ENDBRANCH  17  23
ENDBRANCH  13  16
ENDBRANCH   7  12
ENDBRANCH   3   6
ENDBRANCH   1   2
BRANCH   1  25
ATOM     25  C   UNL A   1      31.535  32.081  26.627  1.00  0.00     0.042 C 
BRANCH  25  26
ATOM     26  C   UNL A   1      32.692  32.746  27.364  1.00  0.00     0.118 C 
BRANCH  26  27
ATOM     27  N   UNL A   1      32.429  34.150  27.650  1.00  0.00    -0.352 N 
ATOM     28  C   UNL A   1      33.000  34.966  28.595  1.00  0.00     0.251 C 
ATOM     29  H   UNL A   1      31.743  34.573  27.085  1.00  0.00     0.163 HD
ATOM     30  O   UNL A   1      32.507  36.055  28.854  1.00  0.00    -0.269 OA
BRANCH  28  31
ATOM     31  C   UNL A   1      34.202  34.503  29.316  1.00  0.00     0.039 A 
ATOM     32  C   UNL A   1      34.052  33.932  30.580  1.00  0.00     0.014 A 
ATOM     33  C   UNL A   1      35.465  34.603  28.725  1.00  0.00     0.014 A 
ATOM     34  C   UNL A   1      35.163  33.377  31.216  1.00  0.00     0.010 A 
ATOM     35  C   UNL A   1      36.553  33.977  29.321  1.00  0.00     0.010 A 
ATOM     36  C   UNL A   1      36.409  33.348  30.567  1.00  0.00    -0.014 A 
BRANCH  36  37
ATOM     37  C   UNL A   1      37.559  32.617  31.151  1.00  0.00     0.031 A 
ATOM     38  C   UNL A   1      38.215  33.108  32.410  1.00  0.00     0.074 A 
ATOM     39  C   UNL A   1      38.059  31.550  30.498  1.00  0.00     0.049 A 
ATOM     40  N   UNL A   1      39.265  32.633  33.031  1.00  0.00    -0.248 NA
ATOM     41  C   UNL A   1      37.631  34.301  33.043  1.00  0.00     0.031 C 
ATOM     42  C   UNL A   1      37.535  31.002  29.244  1.00  0.00     0.029 A 
ATOM     43  N   UNL A   1      39.124  30.738  30.794  1.00  0.00    -0.354 N 
ATOM     44  C   UNL A   1      39.472  33.470  34.118  1.00  0.00     0.074 A 
ATOM     45  C   UNL A   1      38.471  34.513  34.045  1.00  0.00     0.031 C 
ATOM     46  C   UNL A   1      38.261  29.928  28.895  1.00  0.00     0.029 A 
ATOM     47  C   UNL A   1      39.330  29.741  29.870  1.00  0.00     0.049 A 
ATOM     48  H   UNL A   1      39.687  30.857  31.592  1.00  0.00     0.167 HD
ATOM     49  C   UNL A   1      40.400  33.370  35.098  1.00  0.00     0.031 A 
ATOM     50  C   UNL A   1      40.282  28.793  29.804  1.00  0.00     0.031 A 
ATOM     51  C   UNL A   1      41.398  32.336  35.164  1.00  0.00     0.049 A 
ATOM     52  C   UNL A   1      41.328  28.732  30.882  1.00  0.00     0.074 A 
ATOM     53  C   UNL A   1      42.348  32.116  36.146  1.00  0.00     0.029 A 
ATOM     54  N   UNL A   1      41.584  31.355  34.200  1.00  0.00    -0.354 N 
ATOM     55  N   UNL A   1      41.462  29.484  31.947  1.00  0.00    -0.248 NA
ATOM     56  C   UNL A   1      42.354  27.688  30.748  1.00  0.00     0.031 C 
ATOM     57  C   UNL A   1      43.150  31.043  35.745  1.00  0.00     0.029 A 
ATOM     58  C   UNL A   1      42.658  30.553  34.545  1.00  0.00     0.049 A 
ATOM     59  H   UNL A   1      41.033  31.245  33.393  1.00  0.00     0.167 HD
ATOM     60  C   UNL A   1      42.573  28.993  32.620  1.00  0.00     0.074 A 
ATOM     61  C   UNL A   1      43.060  27.863  31.857  1.00  0.00     0.031 C 
ATOM     62  C   UNL A   1      43.140  29.440  33.767  1.00  0.00     0.031 A 
BRANCH  49  63
ATOM     63  C   UNL A   1      40.390  34.421  36.175  1.00  0.00    -0.014 A 
ATOM     64  C   UNL A   1      41.178  35.579  36.071  1.00  0.00     0.009 A 
ATOM     65  C   UNL A   1      39.548  34.272  37.288  1.00  0.00     0.009 A 
ATOM     66  C   UNL A   1      41.150  36.547  37.077  1.00  0.00     0.001 A 
ATOM     67  C   UNL A   1      39.499  35.257  38.277  1.00  0.00     0.001 A 
ATOM     68  C   UNL A   1      40.307  36.388  38.176  1.00  0.00     0.000 A 
ENDBRANCH  49  63
BRANCH  50  69
ATOM     69  C   UNL A   1      40.296  27.826  28.676  1.00  0.00    -0.014 A 
ATOM     70  C   UNL A   1      39.647  26.586  28.790  1.00  0.00     0.009 A 
ATOM     71  C   UNL A   1      40.962  28.134  27.478  1.00  0.00     0.009 A 
ATOM     72  C   UNL A   1      39.689  25.666  27.739  1.00  0.00     0.001 A 
ATOM     73  C   UNL A   1      40.975  27.225  26.419  1.00  0.00     0.001 A 
ATOM     74  C   UNL A   1      40.348  25.988  26.554  1.00  0.00     0.000 A 
ENDBRANCH  50  69
BRANCH  62  75
ATOM     75  C   UNL A   1      44.346  28.697  34.271  1.00  0.00    -0.014 A 
ATOM     76  C   UNL A   1      44.213  27.584  35.115  1.00  0.00     0.009 A 
ATOM     77  C   UNL A   1      45.630  29.093  33.864  1.00  0.00     0.009 A 
ATOM     78  C   UNL A   1      45.345  26.903  35.569  1.00  0.00     0.001 A 
ATOM     79  C   UNL A   1      46.756  28.390  34.292  1.00  0.00     0.001 A 
ATOM     80  C   UNL A   1      46.614  27.302  35.153  1.00  0.00     0.000 A 
ENDBRANCH  62  75
ENDBRANCH  36  37
ENDBRANCH  28  31
ENDBRANCH  26  27
ENDBRANCH  25  26
ENDBRANCH   1  25
TORSDOF 13
ENDMDL
MODEL 3
REMARK VINA RESULT:     -11.3      2.128      7.011
REMARK SMILES COc1ccc(F)c(NC(=O)N2CCCC[C@@H]2C(=O)NCCCNC(=O)c2ccc(-c3c4nc(c(-c5ccccc5)c5ccc([nH]5)c(-c5ccccc5)c5nc(c(-c6ccccc6)c6ccc3[nH]6)C=C5)C=C4)cc2)c1
REMARK SMILES IDX 21 1 20 2 18 3 19 4 17 6 12 7 13 8 14 9 16 10 15 11 10 12
REMARK SMILES IDX 9 13 11 15 8 16 3 17 4 18 75 19 5 20 6 21 7 22 2 23 1 24
REMARK SMILES IDX 22 25 23 26 24 27 25 28 26 30 27 31 28 32 74 33 29 34 73 35
REMARK SMILES IDX 30 36 31 37 32 38 67 39 33 40 72 41 66 42 68 43 34 44 71 45
REMARK SMILES IDX 65 46 64 47 35 49 57 50 42 51 56 52 43 53 46 54 55 55 69 56
REMARK SMILES IDX 44 57 45 58 54 60 70 61 47 62 36 63 37 64 41 65 38 66 40 67
REMARK SMILES IDX 39 68 58 69 59 70 63 71 60 72 62 73 61 74 48 75 49 76 53 77
REMARK SMILES IDX 50 78 52 79 51 80
REMARK H PARENT 20 5 9 14 24 29 68 48 46 59
REMARK Flexibility Score: inf
ROOT
ATOM      1  C   UNL A   1      35.991  20.958  25.327  1.00  0.00     0.117 C 
ENDROOT
BRANCH   1   2
ATOM      2  N   UNL A   1      36.031  22.331  25.791  1.00  0.00    -0.354 N 
ATOM      3  C   UNL A   1      35.087  23.303  25.678  1.00  0.00     0.242 C 
ATOM      4  O   UNL A   1      35.485  24.474  25.685  1.00  0.00    -0.273 OA
ATOM      5  H   UNL A   1      36.859  22.598  26.254  1.00  0.00     0.163 HD
BRANCH   3   6
ATOM      6  C   UNL A   1      33.605  22.968  25.405  1.00  0.00     0.176 C 
ATOM      7  N   UNL A   1      33.005  23.584  24.186  1.00  0.00    -0.313 N 
ATOM      8  C   UNL A   1      31.549  23.540  24.083  1.00  0.00     0.122 C 
ATOM      9  C   UNL A   1      30.838  23.975  25.352  1.00  0.00     0.022 C 
ATOM     10  C   UNL A   1      32.823  23.312  26.693  1.00  0.00     0.035 C 
ATOM     11  C   UNL A   1      31.319  23.147  26.532  1.00  0.00     0.004 C 
BRANCH   7  12
ATOM     12  C   UNL A   1      33.654  23.983  23.037  1.00  0.00     0.322 C 
ATOM     13  N   UNL A   1      33.451  25.187  22.456  1.00  0.00    -0.305 N 
ATOM     14  H   UNL A   1      33.590  25.175  21.481  1.00  0.00     0.171 HD
ATOM     15  O   UNL A   1      34.399  23.200  22.438  1.00  0.00    -0.248 OA
BRANCH  13  16
ATOM     16  C   UNL A   1      33.088  26.451  22.947  1.00  0.00     0.082 A 
ATOM     17  C   UNL A   1      33.237  28.242  24.540  1.00  0.00     0.121 A 
ATOM     18  C   UNL A   1      32.055  28.806  24.059  1.00  0.00     0.049 A 
ATOM     19  C   UNL A   1      33.807  27.134  23.918  1.00  0.00     0.075 A 
ATOM     20  C   UNL A   1      31.413  28.218  22.972  1.00  0.00     0.045 A 
ATOM     21  C   UNL A   1      31.924  27.039  22.436  1.00  0.00     0.147 A 
ATOM     22  F   UNL A   1      31.256  26.436  21.440  1.00  0.00    -0.205 F 
BRANCH  17  23
ATOM     23  O   UNL A   1      33.865  28.726  25.656  1.00  0.00    -0.497 OA
ATOM     24  C   UNL A   1      33.197  29.902  26.133  1.00  0.00     0.278 C 
ENDBRANCH  17  23
ENDBRANCH  13  16
ENDBRANCH   7  12
ENDBRANCH   3   6
ENDBRANCH   1   2
BRANCH   1  25
ATOM     25  C   UNL A   1      37.321  20.593  24.677  1.00  0.00     0.042 C 
BRANCH  25  26
ATOM     26  C   UNL A   1      38.527  20.923  25.549  1.00  0.00     0.118 C 
BRANCH  26  27
ATOM     27  N   UNL A   1      39.453  19.805  25.658  1.00  0.00    -0.352 N 
ATOM     28  C   UNL A   1      40.781  19.806  26.004  1.00  0.00     0.251 C 
ATOM     29  H   UNL A   1      39.071  18.921  25.453  1.00  0.00     0.163 HD
ATOM     30  O   UNL A   1      41.471  18.811  25.828  1.00  0.00    -0.269 OA
BRANCH  28  31
ATOM     31  C   UNL A   1      41.378  21.033  26.567  1.00  0.00     0.039 A 
ATOM     32  C   UNL A   1      41.987  21.944  25.704  1.00  0.00     0.014 A 
ATOM     33  C   UNL A   1      41.301  21.294  27.938  1.00  0.00     0.014 A 
ATOM     34  C   UNL A   1      42.441  23.164  26.206  1.00  0.00     0.010 A 
ATOM     35  C   UNL A   1      41.678  22.541  28.422  1.00  0.00     0.010 A 
ATOM     36  C   UNL A   1      42.241  23.492  27.558  1.00  0.00    -0.014 A 
BRANCH  36  37
ATOM     37  C   UNL A   1      42.563  24.844  28.074  1.00  0.00     0.031 A 
ATOM     38  C   UNL A   1      43.958  25.178  28.519  1.00  0.00     0.074 A 
ATOM     39  C   UNL A   1      41.573  25.748  28.211  1.00  0.00     0.049 A 
ATOM     40  N   UNL A   1      44.409  26.286  29.049  1.00  0.00    -0.248 NA
ATOM     41  C   UNL A   1      44.974  24.125  28.369  1.00  0.00     0.031 C 
ATOM     42  C   UNL A   1      40.169  25.527  27.853  1.00  0.00     0.029 A 
ATOM     43  N   UNL A   1      41.594  27.031  28.694  1.00  0.00    -0.354 N 
ATOM     44  C   UNL A   1      45.755  26.061  29.305  1.00  0.00     0.074 A 
ATOM     45  C   UNL A   1      46.036  24.695  28.919  1.00  0.00     0.031 C 
ATOM     46  C   UNL A   1      39.471  26.647  28.101  1.00  0.00     0.029 A 
ATOM     47  C   UNL A   1      40.363  27.644  28.681  1.00  0.00     0.049 A 
ATOM     48  H   UNL A   1      42.411  27.472  29.019  1.00  0.00     0.167 HD
ATOM     49  C   UNL A   1      46.677  26.919  29.800  1.00  0.00     0.031 A 
ATOM     50  C   UNL A   1      39.990  28.866  29.103  1.00  0.00     0.031 A 
ATOM     51  C   UNL A   1      46.393  28.275  30.190  1.00  0.00     0.049 A 
ATOM     52  C   UNL A   1      41.026  29.783  29.691  1.00  0.00     0.074 A 
ATOM     53  C   UNL A   1      47.270  29.241  30.651  1.00  0.00     0.029 A 
ATOM     54  N   UNL A   1      45.131  28.852  30.177  1.00  0.00    -0.354 N 
ATOM     55  N   UNL A   1      42.311  29.583  29.852  1.00  0.00    -0.248 NA
ATOM     56  C   UNL A   1      40.558  31.097  30.153  1.00  0.00     0.031 C 
ATOM     57  C   UNL A   1      46.530  30.381  30.978  1.00  0.00     0.029 A 
ATOM     58  C   UNL A   1      45.202  30.148  30.660  1.00  0.00     0.049 A 
ATOM     59  H   UNL A   1      44.310  28.408  29.869  1.00  0.00     0.167 HD
ATOM     60  C   UNL A   1      42.809  30.751  30.415  1.00  0.00     0.074 A 
ATOM     61  C   UNL A   1      41.692  31.663  30.544  1.00  0.00     0.031 C 
ATOM     62  C   UNL A   1      44.077  31.040  30.795  1.00  0.00     0.031 A 
BRANCH  49  63
ATOM     63  C   UNL A   1      48.083  26.410  29.965  1.00  0.00    -0.014 A 
ATOM     64  C   UNL A   1      49.029  26.534  28.935  1.00  0.00     0.009 A 
ATOM     65  C   UNL A   1      48.480  25.836  31.183  1.00  0.00     0.009 A 
ATOM     66  C   UNL A   1      50.332  26.061  29.108  1.00  0.00     0.001 A 
ATOM     67  C   UNL A   1      49.792  25.393  31.365  1.00  0.00     0.001 A 
ATOM     68  C   UNL A   1      50.713  25.497  30.325  1.00  0.00     0.000 A 
ENDBRANCH  49  63
BRANCH  50  69
ATOM     69  C   UNL A   1      38.571  29.293  28.992  1.00  0.00    -0.014 A 
ATOM     70  C   UNL A   1      38.074  29.810  27.785  1.00  0.00     0.009 A 
ATOM     71  C   UNL A   1      37.706  29.193  30.094  1.00  0.00     0.009 A 
ATOM     72  C   UNL A   1      36.747  30.241  27.693  1.00  0.00     0.001 A 
ATOM     73  C   UNL A   1      36.373  29.595  29.989  1.00  0.00     0.001 A 
ATOM     74  C   UNL A   1      35.898  30.128  28.792  1.00  0.00     0.000 A 
ENDBRANCH  50  69
BRANCH  62  75
ATOM     75  C   UNL A   1      44.325  32.404  31.374  1.00  0.00    -0.014 A 
ATOM     76  C   UNL A   1      44.636  33.498  30.550  1.00  0.00     0.009 A 
ATOM     77  C   UNL A   1      44.210  32.606  32.758  1.00  0.00     0.009 A 
ATOM     78  C   UNL A   1      44.858  34.760  31.106  1.00  0.00     0.001 A 
ATOM     79  C   UNL A   1      44.400  33.875  33.307  1.00  0.00     0.001 A 
ATOM     80  C   UNL A   1      44.734  34.949  32.482  1.00  0.00     0.000 A 
ENDBRANCH  62  75
ENDBRANCH  36  37
ENDBRANCH  28  31
ENDBRANCH  26  27
ENDBRANCH  25  26
ENDBRANCH   1  25
TORSDOF 13
ENDMDL
