MODEL 1
REMARK VINA RESULT:     -10.1      0.000      0.000
REMARK SMILES Nc1c(N2CCC(C(=O)NCCCNC(=O)c3ccc(-c4c5nc(c(-c6ccccc6)c6ccc([nH]6)c(-c6ccccc6)c6nc(c(-c7ccccc7)c7ccc4[nH]7)C=C6)C=C5)cc3)CC2)ncnc1N1CCN(c2ccccc2)CC1
REMARK SMILES IDX 11 1 10 2 8 3 9 4 7 6 4 7 5 8 66 9 6 10 65 11 3 12 2 13
REMARK SMILES IDX 70 14 67 15 69 16 68 17 1 18 71 21 72 22 82 23 73 24 81 25
REMARK SMILES IDX 74 26 75 27 76 28 80 29 77 30 79 31 78 32 12 33 13 34 14 35
REMARK SMILES IDX 15 36 16 38 17 39 18 40 64 41 19 42 63 43 20 44 21 45 22 46
REMARK SMILES IDX 57 47 23 48 62 49 56 50 58 51 24 52 61 53 55 54 54 55 25 57
REMARK SMILES IDX 47 58 32 59 46 60 33 61 36 62 45 63 59 64 34 65 35 66 44 68
REMARK SMILES IDX 60 69 37 70 26 71 27 72 31 73 28 74 30 75 29 76 48 77 49 78
REMARK SMILES IDX 53 79 50 80 52 81 51 82 38 83 39 84 43 85 40 86 42 87 41 88
REMARK H PARENT 10 5 1 19 1 20 14 37 58 56 36 67
REMARK Flexibility Score: inf
ROOT
ATOM      1  C   UNL A   1      33.820  34.532  30.016  1.00  0.00     0.117 C 
ENDROOT
BRANCH   1   2
ATOM      2  N   UNL A   1      34.417  35.180  31.177  1.00  0.00    -0.356 N 
ATOM      3  C   UNL A   1      35.350  34.740  32.064  1.00  0.00     0.223 C 
ATOM      4  O   UNL A   1      35.666  35.491  32.989  1.00  0.00    -0.275 OA
ATOM      5  H   UNL A   1      34.088  36.091  31.349  1.00  0.00     0.163 HD
BRANCH   3   6
ATOM      6  C   UNL A   1      36.005  33.378  31.919  1.00  0.00     0.082 C 
ATOM      7  N   UNL A   1      38.017  31.624  32.850  1.00  0.00    -0.355 N 
ATOM      8  C   UNL A   1      38.246  32.221  31.555  1.00  0.00     0.119 C 
ATOM      9  C   UNL A   1      36.658  31.306  33.250  1.00  0.00     0.119 C 
ATOM     10  C   UNL A   1      37.456  33.510  31.432  1.00  0.00     0.035 C 
ATOM     11  C   UNL A   1      35.785  32.545  33.189  1.00  0.00     0.035 C 
BRANCH   7  12
ATOM     12  C   UNL A   1      39.072  31.483  33.738  1.00  0.00     0.157 A 
ATOM     13  C   UNL A   1      39.834  30.308  33.729  1.00  0.00     0.118 A 
ATOM     14  C   UNL A   1      40.838  30.198  34.704  1.00  0.00     0.157 A 
ATOM     15  N   UNL A   1      39.313  32.476  34.613  1.00  0.00    -0.217 NA
ATOM     16  N   UNL A   1      41.036  31.144  35.634  1.00  0.00    -0.217 NA
ATOM     17  C   UNL A   1      40.279  32.246  35.518  1.00  0.00     0.226 A 
BRANCH  13  18
ATOM     18  N   UNL A   1      39.659  29.313  32.748  1.00  0.00    -0.393 N 
ATOM     19  H   UNL A   1      40.137  29.379  31.891  1.00  0.00     0.156 HD
ATOM     20  H   UNL A   1      39.060  28.552  32.921  1.00  0.00     0.156 HD
ENDBRANCH  13  18
BRANCH  14  21
ATOM     21  N   UNL A   1      41.621  29.064  34.724  1.00  0.00    -0.351 N 
ATOM     22  C   UNL A   1      41.586  28.143  35.855  1.00  0.00     0.139 C 
ATOM     23  C   UNL A   1      42.788  28.958  33.844  1.00  0.00     0.139 C 
ATOM     24  C   UNL A   1      41.623  26.694  35.299  1.00  0.00     0.138 C 
ATOM     25  C   UNL A   1      42.883  27.521  33.289  1.00  0.00     0.138 C 
ATOM     26  N   UNL A   1      42.762  26.535  34.378  1.00  0.00    -0.368 N 
BRANCH  26  27
ATOM     27  C   UNL A   1      43.465  25.355  34.297  1.00  0.00     0.037 A 
ATOM     28  C   UNL A   1      44.581  25.197  33.470  1.00  0.00     0.026 A 
ATOM     29  C   UNL A   1      43.043  24.250  35.049  1.00  0.00     0.026 A 
ATOM     30  C   UNL A   1      45.252  23.972  33.395  1.00  0.00     0.002 A 
ATOM     31  C   UNL A   1      43.694  23.021  34.965  1.00  0.00     0.002 A 
ATOM     32  C   UNL A   1      44.803  22.881  34.137  1.00  0.00     0.000 A 
ENDBRANCH  26  27
ENDBRANCH  14  21
ENDBRANCH   7  12
ENDBRANCH   3   6
ENDBRANCH   1   2
BRANCH   1  33
ATOM     33  C   UNL A   1      34.721  34.609  28.791  1.00  0.00     0.042 C 
BRANCH  33  34
ATOM     34  C   UNL A   1      35.386  33.286  28.444  1.00  0.00     0.118 C 
BRANCH  34  35
ATOM     35  N   UNL A   1      34.420  32.217  28.233  1.00  0.00    -0.352 N 
ATOM     36  C   UNL A   1      34.619  30.873  28.051  1.00  0.00     0.251 C 
ATOM     37  H   UNL A   1      33.477  32.503  28.220  1.00  0.00     0.163 HD
ATOM     38  O   UNL A   1      33.688  30.160  27.679  1.00  0.00    -0.269 OA
BRANCH  36  39
ATOM     39  C   UNL A   1      35.952  30.279  28.282  1.00  0.00     0.039 A 
ATOM     40  C   UNL A   1      36.884  30.284  27.242  1.00  0.00     0.014 A 
ATOM     41  C   UNL A   1      36.279  29.704  29.512  1.00  0.00     0.014 A 
ATOM     42  C   UNL A   1      38.163  29.771  27.457  1.00  0.00     0.010 A 
ATOM     43  C   UNL A   1      37.581  29.277  29.755  1.00  0.00     0.010 A 
ATOM     44  C   UNL A   1      38.533  29.296  28.727  1.00  0.00    -0.014 A 
BRANCH  44  45
ATOM     45  C   UNL A   1      39.904  28.794  28.991  1.00  0.00     0.031 A 
ATOM     46  C   UNL A   1      40.935  29.705  29.600  1.00  0.00     0.074 A 
ATOM     47  C   UNL A   1      40.233  27.533  28.641  1.00  0.00     0.049 A 
ATOM     48  N   UNL A   1      42.195  29.463  29.859  1.00  0.00    -0.248 NA
ATOM     49  C   UNL A   1      40.504  31.070  29.946  1.00  0.00     0.031 C 
ATOM     50  C   UNL A   1      39.332  26.564  28.013  1.00  0.00     0.029 A 
ATOM     51  N   UNL A   1      41.418  26.852  28.763  1.00  0.00    -0.354 N 
ATOM     52  C   UNL A   1      42.704  30.643  30.385  1.00  0.00     0.074 A 
ATOM     53  C   UNL A   1      41.636  31.617  30.364  1.00  0.00     0.031 C 
ATOM     54  C   UNL A   1      39.988  25.407  27.831  1.00  0.00     0.029 A 
ATOM     55  C   UNL A   1      41.365  25.563  28.287  1.00  0.00     0.049 A 
ATOM     56  H   UNL A   1      42.230  27.248  29.153  1.00  0.00     0.167 HD
ATOM     57  C   UNL A   1      43.946  30.887  30.865  1.00  0.00     0.031 A 
ATOM     58  C   UNL A   1      42.321  24.615  28.218  1.00  0.00     0.031 A 
ATOM     59  C   UNL A   1      45.000  29.911  30.910  1.00  0.00     0.049 A 
ATOM     60  C   UNL A   1      43.697  24.925  28.740  1.00  0.00     0.074 A 
ATOM     61  C   UNL A   1      46.273  30.051  31.433  1.00  0.00     0.029 A 
ATOM     62  N   UNL A   1      44.903  28.620  30.418  1.00  0.00    -0.354 N 
ATOM     63  N   UNL A   1      44.141  26.025  29.297  1.00  0.00    -0.248 NA
ATOM     64  C   UNL A   1      44.705  23.859  28.632  1.00  0.00     0.031 C 
ATOM     65  C   UNL A   1      46.969  28.863  31.202  1.00  0.00     0.029 A 
ATOM     66  C   UNL A   1      46.108  27.962  30.598  1.00  0.00     0.049 A 
ATOM     67  H   UNL A   1      44.101  28.229  30.002  1.00  0.00     0.167 HD
ATOM     68  C   UNL A   1      45.467  25.776  29.627  1.00  0.00     0.074 A 
ATOM     69  C   UNL A   1      45.750  24.413  29.230  1.00  0.00     0.031 C 
ATOM     70  C   UNL A   1      46.371  26.603  30.203  1.00  0.00     0.031 A 
BRANCH  57  71
ATOM     71  C   UNL A   1      44.244  32.257  31.402  1.00  0.00    -0.014 A 
ATOM     72  C   UNL A   1      44.721  33.274  30.563  1.00  0.00     0.009 A 
ATOM     73  C   UNL A   1      43.932  32.566  32.737  1.00  0.00     0.009 A 
ATOM     74  C   UNL A   1      44.884  34.573  31.050  1.00  0.00     0.001 A 
ATOM     75  C   UNL A   1      44.072  33.869  33.213  1.00  0.00     0.001 A 
ATOM     76  C   UNL A   1      44.549  34.872  32.369  1.00  0.00     0.000 A 
ENDBRANCH  57  71
BRANCH  58  77
ATOM     77  C   UNL A   1      42.014  23.283  27.632  1.00  0.00    -0.014 A 
ATOM     78  C   UNL A   1      41.411  22.280  28.406  1.00  0.00     0.009 A 
ATOM     79  C   UNL A   1      42.341  22.999  26.295  1.00  0.00     0.009 A 
ATOM     80  C   UNL A   1      41.171  21.014  27.866  1.00  0.00     0.001 A 
ATOM     81  C   UNL A   1      42.068  21.744  25.747  1.00  0.00     0.001 A 
ATOM     82  C   UNL A   1      41.494  20.749  26.536  1.00  0.00     0.000 A 
ENDBRANCH  58  77
BRANCH  70  83
ATOM     83  C   UNL A   1      47.747  26.062  30.465  1.00  0.00    -0.014 A 
ATOM     84  C   UNL A   1      48.721  26.033  29.455  1.00  0.00     0.009 A 
ATOM     85  C   UNL A   1      48.099  25.653  31.763  1.00  0.00     0.009 A 
ATOM     86  C   UNL A   1      50.013  25.584  29.736  1.00  0.00     0.001 A 
ATOM     87  C   UNL A   1      49.400  25.237  32.046  1.00  0.00     0.001 A 
ATOM     88  C   UNL A   1      50.353  25.197  31.031  1.00  0.00     0.000 A 
ENDBRANCH  70  83
ENDBRANCH  44  45
ENDBRANCH  36  39
ENDBRANCH  34  35
ENDBRANCH  33  34
ENDBRANCH   1  33
TORSDOF 14
ENDMDL
MODEL 2
REMARK VINA RESULT:      -9.8      0.317      5.651
REMARK SMILES Nc1c(N2CCC(C(=O)NCCCNC(=O)c3ccc(-c4c5nc(c(-c6ccccc6)c6ccc([nH]6)c(-c6ccccc6)c6nc(c(-c7ccccc7)c7ccc4[nH]7)C=C6)C=C5)cc3)CC2)ncnc1N1CCN(c2ccccc2)CC1
REMARK SMILES IDX 11 1 10 2 8 3 9 4 7 6 4 7 5 8 66 9 6 10 65 11 3 12 2 13
REMARK SMILES IDX 70 14 67 15 69 16 68 17 1 18 71 21 72 22 82 23 73 24 81 25
REMARK SMILES IDX 74 26 75 27 76 28 80 29 77 30 79 31 78 32 12 33 13 34 14 35
REMARK SMILES IDX 15 36 16 38 17 39 18 40 64 41 19 42 63 43 20 44 21 45 22 46
REMARK SMILES IDX 57 47 23 48 62 49 56 50 58 51 24 52 61 53 55 54 54 55 25 57
REMARK SMILES IDX 47 58 32 59 46 60 33 61 36 62 45 63 59 64 34 65 35 66 44 68
REMARK SMILES IDX 60 69 37 70 26 71 27 72 31 73 28 74 30 75 29 76 48 77 49 78
REMARK SMILES IDX 53 79 50 80 52 81 51 82 38 83 39 84 43 85 40 86 42 87 41 88
REMARK H PARENT 10 5 1 19 1 20 14 37 58 56 36 67
REMARK Flexibility Score: inf
ROOT
ATOM      1  C   UNL A   1      33.836  34.334  30.220  1.00  0.00     0.117 C 
ENDROOT
BRANCH   1   2
ATOM      2  N   UNL A   1      34.489  35.000  31.340  1.00  0.00    -0.356 N 
ATOM      3  C   UNL A   1      35.474  34.579  32.180  1.00  0.00     0.223 C 
ATOM      4  O   UNL A   1      35.832  35.345  33.077  1.00  0.00    -0.275 OA
ATOM      5  H   UNL A   1      34.161  35.911  31.520  1.00  0.00     0.163 HD
BRANCH   3   6
ATOM      6  C   UNL A   1      36.132  33.222  32.015  1.00  0.00     0.082 C 
ATOM      7  N   UNL A   1      38.238  31.516  32.820  1.00  0.00    -0.355 N 
ATOM      8  C   UNL A   1      38.352  32.083  31.496  1.00  0.00     0.119 C 
ATOM      9  C   UNL A   1      36.921  31.192  33.338  1.00  0.00     0.119 C 
ATOM     10  C   UNL A   1      37.537  33.359  31.407  1.00  0.00     0.035 C 
ATOM     11  C   UNL A   1      36.028  32.419  33.319  1.00  0.00     0.035 C 
BRANCH   7  12
ATOM     12  C   UNL A   1      39.364  31.409  33.621  1.00  0.00     0.157 A 
ATOM     13  C   UNL A   1      40.052  30.192  33.693  1.00  0.00     0.118 A 
ATOM     14  C   UNL A   1      41.138  30.131  34.580  1.00  0.00     0.157 A 
ATOM     15  N   UNL A   1      39.744  32.481  34.340  1.00  0.00    -0.217 NA
ATOM     16  N   UNL A   1      41.479  31.166  35.363  1.00  0.00    -0.217 NA
ATOM     17  C   UNL A   1      40.779  32.295  35.177  1.00  0.00     0.226 A 
BRANCH  13  18
ATOM     18  N   UNL A   1      39.727  29.102  32.864  1.00  0.00    -0.393 N 
ATOM     19  H   UNL A   1      39.664  29.226  31.890  1.00  0.00     0.156 HD
ATOM     20  H   UNL A   1      39.563  28.215  33.258  1.00  0.00     0.156 HD
ENDBRANCH  13  18
BRANCH  14  21
ATOM     21  N   UNL A   1      41.853  28.956  34.673  1.00  0.00    -0.351 N 
ATOM     22  C   UNL A   1      41.566  27.979  35.717  1.00  0.00     0.139 C 
ATOM     23  C   UNL A   1      43.159  28.834  34.019  1.00  0.00     0.139 C 
ATOM     24  C   UNL A   1      41.643  26.562  35.088  1.00  0.00     0.138 C 
ATOM     25  C   UNL A   1      43.293  27.426  33.401  1.00  0.00     0.138 C 
ATOM     26  N   UNL A   1      42.926  26.391  34.384  1.00  0.00    -0.368 N 
BRANCH  26  27
ATOM     27  C   UNL A   1      43.580  25.180  34.361  1.00  0.00     0.037 A 
ATOM     28  C   UNL A   1      44.270  24.717  33.236  1.00  0.00     0.026 A 
ATOM     29  C   UNL A   1      43.540  24.355  35.493  1.00  0.00     0.026 A 
ATOM     30  C   UNL A   1      44.897  23.467  33.243  1.00  0.00     0.002 A 
ATOM     31  C   UNL A   1      44.147  23.100  35.501  1.00  0.00     0.002 A 
ATOM     32  C   UNL A   1      44.829  22.655  34.374  1.00  0.00     0.000 A 
ENDBRANCH  26  27
ENDBRANCH  14  21
ENDBRANCH   7  12
ENDBRANCH   3   6
ENDBRANCH   1   2
BRANCH   1  33
ATOM     33  C   UNL A   1      34.644  34.448  28.935  1.00  0.00     0.042 C 
BRANCH  33  34
ATOM     34  C   UNL A   1      35.360  33.162  28.553  1.00  0.00     0.118 C 
BRANCH  34  35
ATOM     35  N   UNL A   1      34.436  32.071  28.281  1.00  0.00    -0.352 N 
ATOM     36  C   UNL A   1      34.685  30.744  28.043  1.00  0.00     0.251 C 
ATOM     37  H   UNL A   1      33.484  32.324  28.266  1.00  0.00     0.163 HD
ATOM     38  O   UNL A   1      33.784  30.016  27.626  1.00  0.00    -0.269 OA
BRANCH  36  39
ATOM     39  C   UNL A   1      36.034  30.186  28.267  1.00  0.00     0.039 A 
ATOM     40  C   UNL A   1      36.951  30.189  27.213  1.00  0.00     0.014 A 
ATOM     41  C   UNL A   1      36.393  29.649  29.505  1.00  0.00     0.014 A 
ATOM     42  C   UNL A   1      38.245  29.711  27.422  1.00  0.00     0.010 A 
ATOM     43  C   UNL A   1      37.707  29.258  29.739  1.00  0.00     0.010 A 
ATOM     44  C   UNL A   1      38.644  29.276  28.696  1.00  0.00    -0.014 A 
BRANCH  44  45
ATOM     45  C   UNL A   1      40.031  28.812  28.951  1.00  0.00     0.031 A 
ATOM     46  C   UNL A   1      40.430  27.406  28.594  1.00  0.00     0.074 A 
ATOM     47  C   UNL A   1      40.914  29.640  29.545  1.00  0.00     0.049 A 
ATOM     48  N   UNL A   1      41.577  26.804  28.785  1.00  0.00    -0.248 NA
ATOM     49  C   UNL A   1      39.409  26.558  27.957  1.00  0.00     0.031 C 
ATOM     50  C   UNL A   1      40.637  31.014  29.969  1.00  0.00     0.029 A 
ATOM     51  N   UNL A   1      42.226  29.444  29.896  1.00  0.00    -0.354 N 
ATOM     52  C   UNL A   1      41.409  25.512  28.305  1.00  0.00     0.074 A 
ATOM     53  C   UNL A   1      40.039  25.396  27.858  1.00  0.00     0.031 C 
ATOM     54  C   UNL A   1      41.752  31.545  30.496  1.00  0.00     0.029 A 
ATOM     55  C   UNL A   1      42.809  30.539  30.490  1.00  0.00     0.049 A 
ATOM     56  H   UNL A   1      42.706  28.598  29.740  1.00  0.00     0.167 HD
ATOM     57  C   UNL A   1      42.322  24.517  28.220  1.00  0.00     0.031 A 
ATOM     58  C   UNL A   1      44.051  30.711  30.981  1.00  0.00     0.031 A 
ATOM     59  C   UNL A   1      43.691  24.641  28.640  1.00  0.00     0.049 A 
ATOM     60  C   UNL A   1      45.036  29.578  30.893  1.00  0.00     0.074 A 
ATOM     61  C   UNL A   1      44.704  23.704  28.539  1.00  0.00     0.029 A 
ATOM     62  N   UNL A   1      44.237  25.765  29.235  1.00  0.00    -0.354 N 
ATOM     63  N   UNL A   1      44.879  28.385  30.373  1.00  0.00    -0.248 NA
ATOM     64  C   UNL A   1      46.376  29.816  31.453  1.00  0.00     0.031 C 
ATOM     65  C   UNL A   1      45.850  24.239  29.129  1.00  0.00     0.029 A 
ATOM     66  C   UNL A   1      45.569  25.533  29.535  1.00  0.00     0.049 A 
ATOM     67  H   UNL A   1      43.753  26.603  29.417  1.00  0.00     0.167 HD
ATOM     68  C   UNL A   1      46.102  27.743  30.519  1.00  0.00     0.074 A 
ATOM     69  C   UNL A   1      46.998  28.684  31.155  1.00  0.00     0.031 C 
ATOM     70  C   UNL A   1      46.450  26.483  30.163  1.00  0.00     0.031 A 
BRANCH  57  71
ATOM     71  C   UNL A   1      41.889  23.203  27.637  1.00  0.00    -0.014 A 
ATOM     72  C   UNL A   1      42.047  22.931  26.270  1.00  0.00     0.009 A 
ATOM     73  C   UNL A   1      41.427  22.182  28.485  1.00  0.00     0.009 A 
ATOM     74  C   UNL A   1      41.747  21.665  25.762  1.00  0.00     0.001 A 
ATOM     75  C   UNL A   1      41.154  20.912  27.980  1.00  0.00     0.001 A 
ATOM     76  C   UNL A   1      41.313  20.654  26.619  1.00  0.00     0.000 A 
ENDBRANCH  57  71
BRANCH  58  77
ATOM     77  C   UNL A   1      44.439  32.006  31.603  1.00  0.00    -0.014 A 
ATOM     78  C   UNL A   1      44.221  32.240  32.969  1.00  0.00     0.009 A 
ATOM     79  C   UNL A   1      45.016  33.026  30.827  1.00  0.00     0.009 A 
ATOM     80  C   UNL A   1      44.540  33.475  33.538  1.00  0.00     0.001 A 
ATOM     81  C   UNL A   1      45.367  34.247  31.406  1.00  0.00     0.001 A 
ATOM     82  C   UNL A   1      45.118  34.476  32.757  1.00  0.00     0.000 A 
ENDBRANCH  58  77
BRANCH  70  83
ATOM     83  C   UNL A   1      47.862  26.046  30.426  1.00  0.00    -0.014 A 
ATOM     84  C   UNL A   1      48.258  25.596  31.694  1.00  0.00     0.009 A 
ATOM     85  C   UNL A   1      48.786  26.006  29.369  1.00  0.00     0.009 A 
ATOM     86  C   UNL A   1      49.559  25.135  31.903  1.00  0.00     0.001 A 
ATOM     87  C   UNL A   1      50.076  25.514  29.574  1.00  0.00     0.001 A 
ATOM     88  C   UNL A   1      50.462  25.085  30.842  1.00  0.00     0.000 A 
ENDBRANCH  70  83
ENDBRANCH  44  45
ENDBRANCH  36  39
ENDBRANCH  34  35
ENDBRANCH  33  34
ENDBRANCH   1  33
TORSDOF 14
ENDMDL
MODEL 3
REMARK VINA RESULT:      -9.8      4.304     10.120
REMARK SMILES Nc1c(N2CCC(C(=O)NCCCNC(=O)c3ccc(-c4c5nc(c(-c6ccccc6)c6ccc([nH]6)c(-c6ccccc6)c6nc(c(-c7ccccc7)c7ccc4[nH]7)C=C6)C=C5)cc3)CC2)ncnc1N1CCN(c2ccccc2)CC1
REMARK SMILES IDX 11 1 10 2 8 3 9 4 7 6 4 7 5 8 66 9 6 10 65 11 3 12 2 13
REMARK SMILES IDX 70 14 67 15 69 16 68 17 1 18 71 21 72 22 82 23 73 24 81 25
REMARK SMILES IDX 74 26 75 27 76 28 80 29 77 30 79 31 78 32 12 33 13 34 14 35
REMARK SMILES IDX 15 36 16 38 17 39 18 40 64 41 19 42 63 43 20 44 21 45 22 46
REMARK SMILES IDX 57 47 23 48 62 49 56 50 58 51 24 52 61 53 55 54 54 55 25 57
REMARK SMILES IDX 47 58 32 59 46 60 33 61 36 62 45 63 59 64 34 65 35 66 44 68
REMARK SMILES IDX 60 69 37 70 26 71 27 72 31 73 28 74 30 75 29 76 48 77 49 78
REMARK SMILES IDX 53 79 50 80 52 81 51 82 38 83 39 84 43 85 40 86 42 87 41 88
REMARK H PARENT 10 5 1 19 1 20 14 37 58 56 36 67
REMARK Flexibility Score: inf
ROOT
ATOM      1  C   UNL A   1      31.358  31.005  26.482  1.00  0.00     0.117 C 
ENDROOT
BRANCH   1   2
ATOM      2  N   UNL A   1      32.636  30.332  26.290  1.00  0.00    -0.356 N 
ATOM      3  C   UNL A   1      32.939  29.135  25.718  1.00  0.00     0.223 C 
ATOM      4  O   UNL A   1      34.120  28.782  25.708  1.00  0.00    -0.275 OA
ATOM      5  H   UNL A   1      33.415  30.828  26.633  1.00  0.00     0.163 HD
BRANCH   3   6
ATOM      6  C   UNL A   1      31.868  28.261  25.089  1.00  0.00     0.082 C 
ATOM      7  N   UNL A   1      31.212  25.704  24.080  1.00  0.00    -0.355 N 
ATOM      8  C   UNL A   1      31.379  26.750  23.098  1.00  0.00     0.119 C 
ATOM      9  C   UNL A   1      30.657  26.038  25.378  1.00  0.00     0.119 C 
ATOM     10  C   UNL A   1      32.255  27.853  23.659  1.00  0.00     0.035 C 
ATOM     11  C   UNL A   1      31.484  27.123  26.044  1.00  0.00     0.035 C 
BRANCH   7  12
ATOM     12  C   UNL A   1      31.698  24.432  23.819  1.00  0.00     0.157 A 
ATOM     13  C   UNL A   1      32.999  24.092  24.207  1.00  0.00     0.118 A 
ATOM     14  C   UNL A   1      33.453  22.814  23.845  1.00  0.00     0.157 A 
ATOM     15  N   UNL A   1      30.905  23.565  23.162  1.00  0.00    -0.217 NA
ATOM     16  N   UNL A   1      32.705  21.969  23.121  1.00  0.00    -0.217 NA
ATOM     17  C   UNL A   1      31.459  22.382  22.844  1.00  0.00     0.226 A 
BRANCH  13  18
ATOM     18  N   UNL A   1      33.793  24.953  24.988  1.00  0.00    -0.393 N 
ATOM     19  H   UNL A   1      33.626  25.922  24.975  1.00  0.00     0.156 HD
ATOM     20  H   UNL A   1      34.514  24.585  25.548  1.00  0.00     0.156 HD
ENDBRANCH  13  18
BRANCH  14  21
ATOM     21  N   UNL A   1      34.724  22.432  24.218  1.00  0.00    -0.351 N 
ATOM     22  C   UNL A   1      35.889  22.813  23.428  1.00  0.00     0.139 C 
ATOM     23  C   UNL A   1      34.915  21.316  25.149  1.00  0.00     0.139 C 
ATOM     24  C   UNL A   1      37.028  23.208  24.406  1.00  0.00     0.138 C 
ATOM     25  C   UNL A   1      36.061  21.653  26.125  1.00  0.00     0.138 C 
ATOM     26  N   UNL A   1      37.245  22.134  25.390  1.00  0.00    -0.368 N 
BRANCH  26  27
ATOM     27  C   UNL A   1      38.501  21.836  25.869  1.00  0.00     0.037 A 
ATOM     28  C   UNL A   1      39.311  22.785  26.501  1.00  0.00     0.026 A 
ATOM     29  C   UNL A   1      39.012  20.543  25.700  1.00  0.00     0.026 A 
ATOM     30  C   UNL A   1      40.593  22.449  26.948  1.00  0.00     0.002 A 
ATOM     31  C   UNL A   1      40.296  20.206  26.126  1.00  0.00     0.002 A 
ATOM     32  C   UNL A   1      41.088  21.161  26.753  1.00  0.00     0.000 A 
ENDBRANCH  26  27
ENDBRANCH  14  21
ENDBRANCH   7  12
ENDBRANCH   3   6
ENDBRANCH   1   2
BRANCH   1  33
ATOM     33  C   UNL A   1      31.507  32.520  26.513  1.00  0.00     0.042 C 
BRANCH  33  34
ATOM     34  C   UNL A   1      32.625  33.002  27.424  1.00  0.00     0.118 C 
BRANCH  34  35
ATOM     35  N   UNL A   1      32.492  34.409  27.770  1.00  0.00    -0.352 N 
ATOM     36  C   UNL A   1      33.117  35.138  28.749  1.00  0.00     0.251 C 
ATOM     37  H   UNL A   1      31.855  34.917  27.217  1.00  0.00     0.163 HD
ATOM     38  O   UNL A   1      32.716  36.269  29.021  1.00  0.00    -0.269 OA
BRANCH  36  39
ATOM     39  C   UNL A   1      34.259  34.566  29.490  1.00  0.00     0.039 A 
ATOM     40  C   UNL A   1      34.029  33.967  30.731  1.00  0.00     0.014 A 
ATOM     41  C   UNL A   1      35.556  34.632  28.975  1.00  0.00     0.014 A 
ATOM     42  C   UNL A   1      35.088  33.378  31.422  1.00  0.00     0.010 A 
ATOM     43  C   UNL A   1      36.594  33.966  29.619  1.00  0.00     0.010 A 
ATOM     44  C   UNL A   1      36.372  33.341  30.855  1.00  0.00    -0.014 A 
BRANCH  44  45
ATOM     45  C   UNL A   1      37.502  32.676  31.550  1.00  0.00     0.031 A 
ATOM     46  C   UNL A   1      38.194  31.505  30.909  1.00  0.00     0.074 A 
ATOM     47  C   UNL A   1      37.873  33.097  32.776  1.00  0.00     0.049 A 
ATOM     48  N   UNL A   1      39.165  30.764  31.381  1.00  0.00    -0.248 NA
ATOM     49  C   UNL A   1      37.727  31.097  29.573  1.00  0.00     0.031 C 
ATOM     50  C   UNL A   1      37.258  34.201  33.517  1.00  0.00     0.029 A 
ATOM     51  N   UNL A   1      38.859  32.644  33.617  1.00  0.00    -0.354 N 
ATOM     52  C   UNL A   1      39.413  29.803  30.410  1.00  0.00     0.074 A 
ATOM     53  C   UNL A   1      38.462  30.018  29.343  1.00  0.00     0.031 C 
ATOM     54  C   UNL A   1      37.898  34.356  34.687  1.00  0.00     0.029 A 
ATOM     55  C   UNL A   1      38.937  33.338  34.801  1.00  0.00     0.049 A 
ATOM     56  H   UNL A   1      39.454  31.891  33.395  1.00  0.00     0.167 HD
ATOM     57  C   UNL A   1      40.365  28.842  30.397  1.00  0.00     0.031 A 
ATOM     58  C   UNL A   1      39.749  33.169  35.863  1.00  0.00     0.031 A 
ATOM     59  C   UNL A   1      41.327  28.645  31.447  1.00  0.00     0.049 A 
ATOM     60  C   UNL A   1      40.782  32.076  35.827  1.00  0.00     0.074 A 
ATOM     61  C   UNL A   1      42.366  27.732  31.494  1.00  0.00     0.029 A 
ATOM     62  N   UNL A   1      41.370  29.369  32.626  1.00  0.00    -0.354 N 
ATOM     63  N   UNL A   1      41.047  31.221  34.870  1.00  0.00    -0.248 NA
ATOM     64  C   UNL A   1      41.636  31.930  37.016  1.00  0.00     0.031 C 
ATOM     65  C   UNL A   1      43.002  27.863  32.730  1.00  0.00     0.029 A 
ATOM     66  C   UNL A   1      42.401  28.902  33.423  1.00  0.00     0.049 A 
ATOM     67  H   UNL A   1      40.760  30.104  32.863  1.00  0.00     0.167 HD
ATOM     68  C   UNL A   1      42.110  30.454  35.330  1.00  0.00     0.074 A 
ATOM     69  C   UNL A   1      42.458  30.959  36.640  1.00  0.00     0.031 C 
ATOM     70  C   UNL A   1      42.739  29.420  34.722  1.00  0.00     0.031 A 
BRANCH  57  71
ATOM     71  C   UNL A   1      40.437  27.929  29.207  1.00  0.00    -0.014 A 
ATOM     72  C   UNL A   1      39.669  26.756  29.148  1.00  0.00     0.009 A 
ATOM     73  C   UNL A   1      41.192  28.306  28.084  1.00  0.00     0.009 A 
ATOM     74  C   UNL A   1      39.658  25.977  27.989  1.00  0.00     0.001 A 
ATOM     75  C   UNL A   1      41.158  27.539  26.919  1.00  0.00     0.001 A 
ATOM     76  C   UNL A   1      40.393  26.375  26.873  1.00  0.00     0.000 A 
ENDBRANCH  57  71
BRANCH  58  77
ATOM     77  C   UNL A   1      39.622  34.053  37.053  1.00  0.00    -0.014 A 
ATOM     78  C   UNL A   1      38.839  33.668  38.152  1.00  0.00     0.009 A 
ATOM     79  C   UNL A   1      40.270  35.299  37.089  1.00  0.00     0.009 A 
ATOM     80  C   UNL A   1      38.682  34.523  39.246  1.00  0.00     0.001 A 
ATOM     81  C   UNL A   1      40.139  36.137  38.199  1.00  0.00     0.001 A 
ATOM     82  C   UNL A   1      39.336  35.754  39.270  1.00  0.00     0.000 A 
ENDBRANCH  58  77
BRANCH  70  83
ATOM     83  C   UNL A   1      43.884  28.773  35.448  1.00  0.00    -0.014 A 
ATOM     84  C   UNL A   1      45.194  29.255  35.312  1.00  0.00     0.009 A 
ATOM     85  C   UNL A   1      43.633  27.722  36.345  1.00  0.00     0.009 A 
ATOM     86  C   UNL A   1      46.235  28.681  36.045  1.00  0.00     0.001 A 
ATOM     87  C   UNL A   1      44.670  27.172  37.099  1.00  0.00     0.001 A 
ATOM     88  C   UNL A   1      45.971  27.648  36.944  1.00  0.00     0.000 A 
ENDBRANCH  70  83
ENDBRANCH  44  45
ENDBRANCH  36  39
ENDBRANCH  34  35
ENDBRANCH  33  34
ENDBRANCH   1  33
TORSDOF 14
ENDMDL
