MODEL 1
REMARK VINA RESULT:     -13.8      0.000      0.000
REMARK SMILES C[C@H]1[C@H](C)CC[C@@]2(C(=O)NCCCNC(=O)c3ccc(-c4c5nc(c(-c6ccccc6)c6ccc([nH]6)c(-c6ccccc6)c6nc(c(-c7ccccc7)c7ccc4[nH]7)C=C6)C=C5)cc3)CC[C@@]3(C)C(=CC[C@@H]4[C@@]5(C)CC[C@H](O)C(C)(C)[C@@H]5CC[C@]43C)[C@H]12
REMARK SMILES IDX 12 1 11 2 10 3 8 4 9 5 7 7 1 8 2 9 3 10 87 11 4 12 5 13
REMARK SMILES IDX 69 14 6 15 65 16 67 17 70 18 66 19 68 20 85 21 71 22 72 23
REMARK SMILES IDX 84 24 86 25 73 26 83 27 74 28 75 29 82 30 76 31 79 32 77 33
REMARK SMILES IDX 80 34 81 35 78 36 13 38 14 39 15 40 16 42 17 43 18 44 64 45
REMARK SMILES IDX 19 46 63 47 20 48 21 49 22 50 57 51 23 52 62 53 56 54 58 55
REMARK SMILES IDX 24 56 61 57 55 58 54 59 25 61 47 62 32 63 46 64 33 65 36 66
REMARK SMILES IDX 45 67 59 68 34 69 35 70 44 72 60 73 37 74 26 75 27 76 31 77
REMARK SMILES IDX 28 78 30 79 29 80 48 81 49 82 53 83 50 84 52 85 51 86 38 87
REMARK SMILES IDX 39 88 43 89 40 90 42 91 41 92
REMARK H PARENT 10 6 78 37 14 41 58 60 36 71
REMARK Flexibility Score: inf
ROOT
ATOM      1  C   UNL A   1      34.050  30.850  27.634  1.00  0.00     0.042 C 
ENDROOT
BRANCH   1   2
ATOM      2  C   UNL A   1      34.424  29.561  26.905  1.00  0.00     0.117 C 
BRANCH   2   3
ATOM      3  N   UNL A   1      34.063  29.591  25.504  1.00  0.00    -0.356 N 
ATOM      4  C   UNL A   1      32.934  29.362  24.796  1.00  0.00     0.226 C 
ATOM      5  O   UNL A   1      33.182  29.175  23.595  1.00  0.00    -0.274 OA
ATOM      6  H   UNL A   1      34.821  29.839  24.928  1.00  0.00     0.163 HD
BRANCH   4   7
ATOM      7  C   UNL A   1      31.456  29.331  25.329  1.00  0.00     0.056 C 
ATOM      8  C   UNL A   1      28.860  28.587  22.426  1.00  0.00     0.008 C 
ATOM      9  C   UNL A   1      29.919  29.402  23.205  1.00  0.00    -0.003 C 
ATOM     10  C   UNL A   1      29.335  30.771  23.658  1.00  0.00    -0.011 C 
ATOM     11  C   UNL A   1      30.434  28.592  24.425  1.00  0.00     0.034 C 
ATOM     12  C   UNL A   1      29.065  31.706  22.463  1.00  0.00     0.008 C 
ATOM     13  C   UNL A   1      30.195  31.545  24.675  1.00  0.00     0.005 C 
ATOM     14  C   UNL A   1      30.991  27.187  24.185  1.00  0.00    -0.063 C 
ATOM     15  C   UNL A   1      30.946  30.733  25.725  1.00  0.00     0.018 C 
ATOM     16  C   UNL A   1      31.503  28.488  26.677  1.00  0.00     0.018 C 
ATOM     17  C   UNL A   1      30.978  26.238  25.412  1.00  0.00    -0.006 C 
ATOM     18  C   UNL A   1      31.634  26.885  23.045  1.00  0.00    -0.027 C 
ATOM     19  C   UNL A   1      31.785  26.969  26.529  1.00  0.00     0.013 C 
ATOM     20  C   UNL A   1      29.525  26.059  25.943  1.00  0.00     0.017 C 
ATOM     21  C   UNL A   1      31.599  24.770  25.036  1.00  0.00    -0.020 C 
ATOM     22  C   UNL A   1      32.483  25.676  22.838  1.00  0.00     0.032 C 
ATOM     23  C   UNL A   1      32.891  24.986  24.159  1.00  0.00     0.006 C 
ATOM     24  C   UNL A   1      31.979  23.952  26.296  1.00  0.00     0.008 C 
ATOM     25  C   UNL A   1      30.519  23.945  24.271  1.00  0.00     0.012 C 
ATOM     26  C   UNL A   1      33.881  23.752  23.950  1.00  0.00    -0.025 C 
ATOM     27  C   UNL A   1      32.709  22.643  25.971  1.00  0.00     0.005 C 
ATOM     28  C   UNL A   1      33.444  22.901  22.735  1.00  0.00     0.012 C 
ATOM     29  C   UNL A   1      35.308  24.310  23.639  1.00  0.00     0.010 C 
ATOM     30  C   UNL A   1      34.052  22.936  25.285  1.00  0.00     0.003 C 
ATOM     31  C   UNL A   1      36.380  23.225  23.514  1.00  0.00     0.033 C 
ATOM     32  C   UNL A   1      35.048  21.713  25.199  1.00  0.00    -0.006 C 
ATOM     33  C   UNL A   1      36.427  22.250  24.695  1.00  0.00     0.120 C 
ATOM     34  C   UNL A   1      34.533  20.520  24.359  1.00  0.00     0.014 C 
ATOM     35  C   UNL A   1      35.288  21.120  26.616  1.00  0.00     0.014 C 
BRANCH  33  36
ATOM     36  O   UNL A   1      37.314  21.178  24.370  1.00  0.00    -0.393 OA
ATOM     37  H   UNL A   1      38.059  21.175  24.991  1.00  0.00     0.210 HD
ENDBRANCH  33  36
ENDBRANCH   4   7
ENDBRANCH   2   3
ENDBRANCH   1   2
BRANCH   1  38
ATOM     38  C   UNL A   1      35.240  31.473  28.364  1.00  0.00     0.118 C 
BRANCH  38  39
ATOM     39  N   UNL A   1      35.270  31.216  29.799  1.00  0.00    -0.352 N 
ATOM     40  C   UNL A   1      36.165  30.551  30.608  1.00  0.00     0.251 C 
ATOM     41  H   UNL A   1      34.501  31.593  30.284  1.00  0.00     0.163 HD
ATOM     42  O   UNL A   1      35.914  30.444  31.802  1.00  0.00    -0.269 OA
BRANCH  40  43
ATOM     43  C   UNL A   1      37.378  29.894  30.060  1.00  0.00     0.039 A 
ATOM     44  C   UNL A   1      37.697  30.105  28.712  1.00  0.00     0.014 A 
ATOM     45  C   UNL A   1      38.203  29.077  30.827  1.00  0.00     0.014 A 
ATOM     46  C   UNL A   1      38.891  29.600  28.181  1.00  0.00     0.010 A 
ATOM     47  C   UNL A   1      39.442  28.672  30.335  1.00  0.00     0.010 A 
ATOM     48  C   UNL A   1      39.812  28.943  29.010  1.00  0.00    -0.014 A 
BRANCH  48  49
ATOM     49  C   UNL A   1      41.176  28.567  28.546  1.00  0.00     0.031 A 
ATOM     50  C   UNL A   1      41.469  27.166  28.078  1.00  0.00     0.074 A 
ATOM     51  C   UNL A   1      42.191  29.447  28.682  1.00  0.00     0.049 A 
ATOM     52  N   UNL A   1      42.625  26.596  27.842  1.00  0.00    -0.248 NA
ATOM     53  C   UNL A   1      40.314  26.271  27.903  1.00  0.00     0.031 C 
ATOM     54  C   UNL A   1      42.072  30.816  29.189  1.00  0.00     0.029 A 
ATOM     55  N   UNL A   1      43.533  29.308  28.423  1.00  0.00    -0.354 N 
ATOM     56  C   UNL A   1      42.339  25.264  27.565  1.00  0.00     0.074 A 
ATOM     57  C   UNL A   1      40.907  25.106  27.685  1.00  0.00     0.031 C 
ATOM     58  C   UNL A   1      43.280  31.400  29.175  1.00  0.00     0.029 A 
ATOM     59  C   UNL A   1      44.268  30.434  28.710  1.00  0.00     0.049 A 
ATOM     60  H   UNL A   1      43.930  28.481  28.067  1.00  0.00     0.167 HD
ATOM     61  C   UNL A   1      43.191  24.264  27.230  1.00  0.00     0.031 A 
ATOM     62  C   UNL A   1      45.591  30.664  28.626  1.00  0.00     0.031 A 
ATOM     63  C   UNL A   1      44.606  24.435  27.034  1.00  0.00     0.049 A 
ATOM     64  C   UNL A   1      46.503  29.567  28.161  1.00  0.00     0.074 A 
ATOM     65  C   UNL A   1      45.533  23.510  26.586  1.00  0.00     0.029 A 
ATOM     66  N   UNL A   1      45.295  25.617  27.259  1.00  0.00    -0.354 N 
ATOM     67  N   UNL A   1      46.209  28.330  27.848  1.00  0.00    -0.248 NA
ATOM     68  C   UNL A   1      47.929  29.902  28.036  1.00  0.00     0.031 C 
ATOM     69  C   UNL A   1      46.789  24.125  26.565  1.00  0.00     0.029 A 
ATOM     70  C   UNL A   1      46.636  25.442  26.967  1.00  0.00     0.049 A 
ATOM     71  H   UNL A   1      44.890  26.455  27.580  1.00  0.00     0.167 HD
ATOM     72  C   UNL A   1      47.408  27.742  27.473  1.00  0.00     0.074 A 
ATOM     73  C   UNL A   1      48.431  28.762  27.580  1.00  0.00     0.031 C 
ATOM     74  C   UNL A   1      47.640  26.467  27.077  1.00  0.00     0.031 A 
BRANCH  61  75
ATOM     75  C   UNL A   1      42.608  22.889  27.055  1.00  0.00    -0.014 A 
ATOM     76  C   UNL A   1      42.248  22.400  25.789  1.00  0.00     0.009 A 
ATOM     77  C   UNL A   1      42.436  22.060  28.174  1.00  0.00     0.009 A 
ATOM     78  C   UNL A   1      41.680  21.132  25.655  1.00  0.00     0.001 A 
ATOM     79  C   UNL A   1      41.896  20.780  28.034  1.00  0.00     0.001 A 
ATOM     80  C   UNL A   1      41.507  20.323  26.777  1.00  0.00     0.000 A 
ENDBRANCH  61  75
BRANCH  62  81
ATOM     81  C   UNL A   1      46.128  32.004  28.971  1.00  0.00    -0.014 A 
ATOM     82  C   UNL A   1      46.231  32.997  27.985  1.00  0.00     0.009 A 
ATOM     83  C   UNL A   1      46.521  32.306  30.284  1.00  0.00     0.009 A 
ATOM     84  C   UNL A   1      46.734  34.261  28.303  1.00  0.00     0.001 A 
ATOM     85  C   UNL A   1      47.001  33.578  30.604  1.00  0.00     0.001 A 
ATOM     86  C   UNL A   1      47.114  34.551  29.612  1.00  0.00     0.000 A 
ENDBRANCH  62  81
BRANCH  74  87
ATOM     87  C   UNL A   1      49.051  26.111  26.708  1.00  0.00    -0.014 A 
ATOM     88  C   UNL A   1      49.545  26.359  25.420  1.00  0.00     0.009 A 
ATOM     89  C   UNL A   1      49.905  25.561  27.675  1.00  0.00     0.009 A 
ATOM     90  C   UNL A   1      50.867  26.040  25.100  1.00  0.00     0.001 A 
ATOM     91  C   UNL A   1      51.231  25.263  27.359  1.00  0.00     0.001 A 
ATOM     92  C   UNL A   1      51.709  25.497  26.071  1.00  0.00     0.000 A 
ENDBRANCH  74  87
ENDBRANCH  48  49
ENDBRANCH  40  43
ENDBRANCH  38  39
ENDBRANCH   1  38
TORSDOF 11
ENDMDL
MODEL 2
REMARK VINA RESULT:     -13.8      0.652      5.532
REMARK SMILES C[C@H]1[C@H](C)CC[C@@]2(C(=O)NCCCNC(=O)c3ccc(-c4c5nc(c(-c6ccccc6)c6ccc([nH]6)c(-c6ccccc6)c6nc(c(-c7ccccc7)c7ccc4[nH]7)C=C6)C=C5)cc3)CC[C@@]3(C)C(=CC[C@@H]4[C@@]5(C)CC[C@H](O)C(C)(C)[C@@H]5CC[C@]43C)[C@H]12
REMARK SMILES IDX 12 1 11 2 10 3 8 4 9 5 7 7 1 8 2 9 3 10 87 11 4 12 5 13
REMARK SMILES IDX 69 14 6 15 65 16 67 17 70 18 66 19 68 20 85 21 71 22 72 23
REMARK SMILES IDX 84 24 86 25 73 26 83 27 74 28 75 29 82 30 76 31 79 32 77 33
REMARK SMILES IDX 80 34 81 35 78 36 13 38 14 39 15 40 16 42 17 43 18 44 64 45
REMARK SMILES IDX 19 46 63 47 20 48 21 49 22 50 57 51 23 52 62 53 56 54 58 55
REMARK SMILES IDX 24 56 61 57 55 58 54 59 25 61 47 62 32 63 46 64 33 65 36 66
REMARK SMILES IDX 45 67 59 68 34 69 35 70 44 72 60 73 37 74 26 75 27 76 31 77
REMARK SMILES IDX 28 78 30 79 29 80 48 81 49 82 53 83 50 84 52 85 51 86 38 87
REMARK SMILES IDX 39 88 43 89 40 90 42 91 41 92
REMARK H PARENT 10 6 78 37 14 41 58 60 36 71
REMARK Flexibility Score: inf
ROOT
ATOM      1  C   UNL A   1      33.786  30.752  27.629  1.00  0.00     0.042 C 
ENDROOT
BRANCH   1   2
ATOM      2  C   UNL A   1      34.402  29.584  26.861  1.00  0.00     0.117 C 
BRANCH   2   3
ATOM      3  N   UNL A   1      34.038  29.589  25.461  1.00  0.00    -0.356 N 
ATOM      4  C   UNL A   1      32.910  29.341  24.758  1.00  0.00     0.226 C 
ATOM      5  O   UNL A   1      33.157  29.136  23.559  1.00  0.00    -0.274 OA
ATOM      6  H   UNL A   1      34.794  29.833  24.879  1.00  0.00     0.163 HD
BRANCH   4   7
ATOM      7  C   UNL A   1      31.433  29.308  25.294  1.00  0.00     0.056 C 
ATOM      8  C   UNL A   1      28.833  28.547  22.398  1.00  0.00     0.008 C 
ATOM      9  C   UNL A   1      29.891  29.368  23.173  1.00  0.00    -0.003 C 
ATOM     10  C   UNL A   1      29.306  30.737  23.621  1.00  0.00    -0.011 C 
ATOM     11  C   UNL A   1      30.411  28.564  24.394  1.00  0.00     0.034 C 
ATOM     12  C   UNL A   1      29.031  31.667  22.423  1.00  0.00     0.008 C 
ATOM     13  C   UNL A   1      30.166  31.517  24.633  1.00  0.00     0.005 C 
ATOM     14  C   UNL A   1      30.971  27.158  24.159  1.00  0.00    -0.063 C 
ATOM     15  C   UNL A   1      30.920  30.710  25.686  1.00  0.00     0.018 C 
ATOM     16  C   UNL A   1      31.484  28.470  26.644  1.00  0.00     0.018 C 
ATOM     17  C   UNL A   1      30.963  26.214  25.389  1.00  0.00    -0.006 C 
ATOM     18  C   UNL A   1      31.613  26.854  23.018  1.00  0.00    -0.027 C 
ATOM     19  C   UNL A   1      31.770  26.951  26.502  1.00  0.00     0.013 C 
ATOM     20  C   UNL A   1      29.511  26.034  25.924  1.00  0.00     0.017 C 
ATOM     21  C   UNL A   1      31.586  24.746  25.018  1.00  0.00    -0.020 C 
ATOM     22  C   UNL A   1      32.464  25.646  22.814  1.00  0.00     0.032 C 
ATOM     23  C   UNL A   1      32.876  24.962  24.137  1.00  0.00     0.006 C 
ATOM     24  C   UNL A   1      31.971  23.934  26.280  1.00  0.00     0.008 C 
ATOM     25  C   UNL A   1      30.507  23.916  24.258  1.00  0.00     0.012 C 
ATOM     26  C   UNL A   1      33.869  23.730  23.931  1.00  0.00    -0.025 C 
ATOM     27  C   UNL A   1      32.704  22.625  25.958  1.00  0.00     0.005 C 
ATOM     28  C   UNL A   1      33.432  22.873  22.720  1.00  0.00     0.012 C 
ATOM     29  C   UNL A   1      35.294  24.290  23.615  1.00  0.00     0.010 C 
ATOM     30  C   UNL A   1      34.044  22.919  25.269  1.00  0.00     0.003 C 
ATOM     31  C   UNL A   1      36.369  23.207  23.492  1.00  0.00     0.033 C 
ATOM     32  C   UNL A   1      35.043  21.698  25.185  1.00  0.00    -0.006 C 
ATOM     33  C   UNL A   1      36.420  22.237  24.677  1.00  0.00     0.120 C 
ATOM     34  C   UNL A   1      34.530  20.501  24.351  1.00  0.00     0.014 C 
ATOM     35  C   UNL A   1      35.287  21.112  26.605  1.00  0.00     0.014 C 
BRANCH  33  36
ATOM     36  O   UNL A   1      37.309  21.166  24.355  1.00  0.00    -0.393 OA
ATOM     37  H   UNL A   1      37.620  21.267  23.441  1.00  0.00     0.210 HD
ENDBRANCH  33  36
ENDBRANCH   4   7
ENDBRANCH   2   3
ENDBRANCH   1   2
BRANCH   1  38
ATOM     38  C   UNL A   1      34.843  31.723  28.156  1.00  0.00     0.118 C 
BRANCH  38  39
ATOM     39  N   UNL A   1      34.852  31.876  29.607  1.00  0.00    -0.352 N 
ATOM     40  C   UNL A   1      35.730  31.458  30.583  1.00  0.00     0.251 C 
ATOM     41  H   UNL A   1      34.081  32.378  29.957  1.00  0.00     0.163 HD
ATOM     42  O   UNL A   1      35.463  31.689  31.755  1.00  0.00    -0.269 OA
BRANCH  40  43
ATOM     43  C   UNL A   1      36.944  30.667  30.257  1.00  0.00     0.039 A 
ATOM     44  C   UNL A   1      37.443  30.723  28.950  1.00  0.00     0.014 A 
ATOM     45  C   UNL A   1      37.597  29.873  31.194  1.00  0.00     0.014 A 
ATOM     46  C   UNL A   1      38.648  30.086  28.625  1.00  0.00     0.010 A 
ATOM     47  C   UNL A   1      38.850  29.335  30.906  1.00  0.00     0.010 A 
ATOM     48  C   UNL A   1      39.402  29.449  29.622  1.00  0.00    -0.014 A 
BRANCH  48  49
ATOM     49  C   UNL A   1      40.778  28.935  29.376  1.00  0.00     0.031 A 
ATOM     50  C   UNL A   1      41.964  29.862  29.427  1.00  0.00     0.074 A 
ATOM     51  C   UNL A   1      40.948  27.662  28.963  1.00  0.00     0.049 A 
ATOM     52  N   UNL A   1      43.197  29.652  29.037  1.00  0.00    -0.248 NA
ATOM     53  C   UNL A   1      41.721  31.223  29.933  1.00  0.00     0.031 C 
ATOM     54  C   UNL A   1      39.885  26.668  28.797  1.00  0.00     0.029 A 
ATOM     55  N   UNL A   1      42.086  26.990  28.586  1.00  0.00    -0.354 N 
ATOM     56  C   UNL A   1      43.852  30.869  29.182  1.00  0.00     0.074 A 
ATOM     57  C   UNL A   1      42.876  31.818  29.671  1.00  0.00     0.031 C 
ATOM     58  C   UNL A   1      40.422  25.510  28.382  1.00  0.00     0.029 A 
ATOM     59  C   UNL A   1      41.857  25.691  28.202  1.00  0.00     0.049 A 
ATOM     60  H   UNL A   1      42.981  27.402  28.589  1.00  0.00     0.167 HD
ATOM     61  C   UNL A   1      45.152  31.169  28.940  1.00  0.00     0.031 A 
ATOM     62  C   UNL A   1      42.700  24.749  27.741  1.00  0.00     0.031 A 
ATOM     63  C   UNL A   1      46.142  30.212  28.527  1.00  0.00     0.049 A 
ATOM     64  C   UNL A   1      44.153  25.079  27.570  1.00  0.00     0.074 A 
ATOM     65  C   UNL A   1      47.505  30.394  28.365  1.00  0.00     0.029 A 
ATOM     66  N   UNL A   1      45.877  28.884  28.227  1.00  0.00    -0.354 N 
ATOM     67  N   UNL A   1      44.767  26.220  27.767  1.00  0.00    -0.248 NA
ATOM     68  C   UNL A   1      45.031  23.990  27.118  1.00  0.00     0.031 C 
ATOM     69  C   UNL A   1      48.061  29.183  27.941  1.00  0.00     0.029 A 
ATOM     70  C   UNL A   1      47.049  28.239  27.874  1.00  0.00     0.049 A 
ATOM     71  H   UNL A   1      44.988  28.464  28.261  1.00  0.00     0.167 HD
ATOM     72  C   UNL A   1      46.103  25.983  27.478  1.00  0.00     0.074 A 
ATOM     73  C   UNL A   1      46.215  24.586  27.111  1.00  0.00     0.031 C 
ATOM     74  C   UNL A   1      47.144  26.849  27.512  1.00  0.00     0.031 A 
BRANCH  61  75
ATOM     75  C   UNL A   1      45.575  32.602  29.116  1.00  0.00    -0.014 A 
ATOM     76  C   UNL A   1      45.980  33.099  30.365  1.00  0.00     0.009 A 
ATOM     77  C   UNL A   1      45.588  33.464  28.008  1.00  0.00     0.009 A 
ATOM     78  C   UNL A   1      46.339  34.440  30.510  1.00  0.00     0.001 A 
ATOM     79  C   UNL A   1      45.977  34.797  28.150  1.00  0.00     0.001 A 
ATOM     80  C   UNL A   1      46.339  35.287  29.403  1.00  0.00     0.000 A 
ENDBRANCH  61  75
BRANCH  62  81
ATOM     81  C   UNL A   1      42.187  23.391  27.427  1.00  0.00    -0.014 A 
ATOM     82  C   UNL A   1      41.982  22.462  28.458  1.00  0.00     0.009 A 
ATOM     83  C   UNL A   1      41.882  23.024  26.108  1.00  0.00     0.009 A 
ATOM     84  C   UNL A   1      41.498  21.183  28.171  1.00  0.00     0.001 A 
ATOM     85  C   UNL A   1      41.376  21.753  25.827  1.00  0.00     0.001 A 
ATOM     86  C   UNL A   1      41.191  20.832  26.858  1.00  0.00     0.000 A 
ENDBRANCH  62  81
BRANCH  74  87
ATOM     87  C   UNL A   1      48.499  26.304  27.166  1.00  0.00    -0.014 A 
ATOM     88  C   UNL A   1      49.027  26.448  25.875  1.00  0.00     0.009 A 
ATOM     89  C   UNL A   1      49.271  25.679  28.156  1.00  0.00     0.009 A 
ATOM     90  C   UNL A   1      50.299  25.952  25.577  1.00  0.00     0.001 A 
ATOM     91  C   UNL A   1      50.549  25.204  27.860  1.00  0.00     0.001 A 
ATOM     92  C   UNL A   1      51.059  25.335  26.570  1.00  0.00     0.000 A 
ENDBRANCH  74  87
ENDBRANCH  48  49
ENDBRANCH  40  43
ENDBRANCH  38  39
ENDBRANCH   1  38
TORSDOF 11
ENDMDL
MODEL 3
REMARK VINA RESULT:     -13.6      3.763      9.362
REMARK SMILES C[C@H]1[C@H](C)CC[C@@]2(C(=O)NCCCNC(=O)c3ccc(-c4c5nc(c(-c6ccccc6)c6ccc([nH]6)c(-c6ccccc6)c6nc(c(-c7ccccc7)c7ccc4[nH]7)C=C6)C=C5)cc3)CC[C@@]3(C)C(=CC[C@@H]4[C@@]5(C)CC[C@H](O)C(C)(C)[C@@H]5CC[C@]43C)[C@H]12
REMARK SMILES IDX 12 1 11 2 10 3 8 4 9 5 7 7 1 8 2 9 3 10 87 11 4 12 5 13
REMARK SMILES IDX 69 14 6 15 65 16 67 17 70 18 66 19 68 20 85 21 71 22 72 23
REMARK SMILES IDX 84 24 86 25 73 26 83 27 74 28 75 29 82 30 76 31 79 32 77 33
REMARK SMILES IDX 80 34 81 35 78 36 13 38 14 39 15 40 16 42 17 43 18 44 64 45
REMARK SMILES IDX 19 46 63 47 20 48 21 49 22 50 57 51 23 52 62 53 56 54 58 55
REMARK SMILES IDX 24 56 61 57 55 58 54 59 25 61 47 62 32 63 46 64 33 65 36 66
REMARK SMILES IDX 45 67 59 68 34 69 35 70 44 72 60 73 37 74 26 75 27 76 31 77
REMARK SMILES IDX 28 78 30 79 29 80 48 81 49 82 53 83 50 84 52 85 51 86 38 87
REMARK SMILES IDX 39 88 43 89 40 90 42 91 41 92
REMARK H PARENT 10 6 78 37 14 41 58 60 36 71
REMARK Flexibility Score: inf
ROOT
ATOM      1  C   UNL A   1      38.726  23.610  26.486  1.00  0.00     0.042 C 
ENDROOT
BRANCH   1   2
ATOM      2  C   UNL A   1      37.292  23.764  25.985  1.00  0.00     0.117 C 
BRANCH   2   3
ATOM      3  N   UNL A   1      36.387  22.812  26.592  1.00  0.00    -0.356 N 
ATOM      4  C   UNL A   1      35.533  21.869  26.135  1.00  0.00     0.226 C 
ATOM      5  O   UNL A   1      34.718  21.532  27.008  1.00  0.00    -0.274 OA
ATOM      6  H   UNL A   1      36.397  22.862  27.575  1.00  0.00     0.163 HD
BRANCH   4   7
ATOM      7  C   UNL A   1      35.503  21.212  24.707  1.00  0.00     0.056 C 
ATOM      8  C   UNL A   1      32.143  19.200  24.083  1.00  0.00     0.008 C 
ATOM      9  C   UNL A   1      33.512  19.505  24.738  1.00  0.00    -0.003 C 
ATOM     10  C   UNL A   1      34.502  18.326  24.516  1.00  0.00    -0.011 C 
ATOM     11  C   UNL A   1      34.096  20.829  24.177  1.00  0.00     0.034 C 
ATOM     12  C   UNL A   1      34.079  17.064  25.293  1.00  0.00     0.008 C 
ATOM     13  C   UNL A   1      35.969  18.628  24.874  1.00  0.00     0.005 C 
ATOM     14  C   UNL A   1      33.238  22.094  24.247  1.00  0.00    -0.063 C 
ATOM     15  C   UNL A   1      36.491  20.032  24.584  1.00  0.00     0.018 C 
ATOM     16  C   UNL A   1      36.033  22.330  23.708  1.00  0.00     0.018 C 
ATOM     17  C   UNL A   1      33.597  23.211  23.233  1.00  0.00    -0.006 C 
ATOM     18  C   UNL A   1      32.378  22.288  25.262  1.00  0.00    -0.027 C 
ATOM     19  C   UNL A   1      35.100  23.549  23.481  1.00  0.00     0.013 C 
ATOM     20  C   UNL A   1      33.485  22.675  21.774  1.00  0.00     0.017 C 
ATOM     21  C   UNL A   1      32.617  24.511  23.406  1.00  0.00    -0.020 C 
ATOM     22  C   UNL A   1      31.742  23.593  25.603  1.00  0.00     0.032 C 
ATOM     23  C   UNL A   1      32.444  24.803  24.946  1.00  0.00     0.006 C 
ATOM     24  C   UNL A   1      33.189  25.776  22.717  1.00  0.00     0.008 C 
ATOM     25  C   UNL A   1      31.247  24.206  22.725  1.00  0.00     0.012 C 
ATOM     26  C   UNL A   1      31.832  26.209  25.388  1.00  0.00    -0.025 C 
ATOM     27  C   UNL A   1      32.371  27.042  23.000  1.00  0.00     0.005 C 
ATOM     28  C   UNL A   1      30.288  26.141  25.434  1.00  0.00     0.012 C 
ATOM     29  C   UNL A   1      32.327  26.531  26.835  1.00  0.00     0.010 C 
ATOM     30  C   UNL A   1      32.403  27.375  24.499  1.00  0.00     0.003 C 
ATOM     31  C   UNL A   1      31.889  27.906  27.345  1.00  0.00     0.033 C 
ATOM     32  C   UNL A   1      31.891  28.820  24.882  1.00  0.00    -0.006 C 
ATOM     33  C   UNL A   1      32.216  29.061  26.392  1.00  0.00     0.120 C 
ATOM     34  C   UNL A   1      30.406  29.088  24.544  1.00  0.00     0.014 C 
ATOM     35  C   UNL A   1      32.677  29.893  24.077  1.00  0.00     0.014 C 
BRANCH  33  36
ATOM     36  O   UNL A   1      31.584  30.247  26.875  1.00  0.00    -0.393 OA
ATOM     37  H   UNL A   1      32.144  30.660  27.552  1.00  0.00     0.210 HD
ENDBRANCH  33  36
ENDBRANCH   4   7
ENDBRANCH   2   3
ENDBRANCH   1   2
BRANCH   1  38
ATOM     38  C   UNL A   1      39.210  22.161  26.428  1.00  0.00     0.118 C 
BRANCH  38  39
ATOM     39  N   UNL A   1      40.499  21.980  25.769  1.00  0.00    -0.352 N 
ATOM     40  C   UNL A   1      41.698  22.650  25.868  1.00  0.00     0.251 C 
ATOM     41  H   UNL A   1      40.515  21.233  25.130  1.00  0.00     0.163 HD
ATOM     42  O   UNL A   1      42.627  22.308  25.147  1.00  0.00    -0.269 OA
BRANCH  40  43
ATOM     43  C   UNL A   1      41.869  23.823  26.763  1.00  0.00     0.039 A 
ATOM     44  C   UNL A   1      42.038  25.085  26.180  1.00  0.00     0.014 A 
ATOM     45  C   UNL A   1      41.871  23.718  28.150  1.00  0.00     0.014 A 
ATOM     46  C   UNL A   1      42.088  26.234  26.980  1.00  0.00     0.010 A 
ATOM     47  C   UNL A   1      41.804  24.863  28.941  1.00  0.00     0.010 A 
ATOM     48  C   UNL A   1      41.894  26.139  28.366  1.00  0.00    -0.014 A 
BRANCH  48  49
ATOM     49  C   UNL A   1      41.735  27.338  29.234  1.00  0.00     0.031 A 
ATOM     50  C   UNL A   1      42.682  27.588  30.379  1.00  0.00     0.074 A 
ATOM     51  C   UNL A   1      40.653  28.129  29.084  1.00  0.00     0.049 A 
ATOM     52  N   UNL A   1      42.583  28.447  31.363  1.00  0.00    -0.248 NA
ATOM     53  C   UNL A   1      43.869  26.722  30.458  1.00  0.00     0.031 C 
ATOM     54  C   UNL A   1      39.612  27.969  28.066  1.00  0.00     0.029 A 
ATOM     55  N   UNL A   1      40.237  29.220  29.809  1.00  0.00    -0.354 N 
ATOM     56  C   UNL A   1      43.650  28.174  32.211  1.00  0.00     0.074 A 
ATOM     57  C   UNL A   1      44.368  27.056  31.639  1.00  0.00     0.031 C 
ATOM     58  C   UNL A   1      38.697  28.940  28.210  1.00  0.00     0.029 A 
ATOM     59  C   UNL A   1      39.055  29.761  29.361  1.00  0.00     0.049 A 
ATOM     60  H   UNL A   1      40.738  29.580  30.577  1.00  0.00     0.167 HD
ATOM     61  C   UNL A   1      44.007  28.803  33.357  1.00  0.00     0.031 A 
ATOM     62  C   UNL A   1      38.327  30.791  29.829  1.00  0.00     0.031 A 
ATOM     63  C   UNL A   1      43.342  29.962  33.888  1.00  0.00     0.049 A 
ATOM     64  C   UNL A   1      38.794  31.532  31.047  1.00  0.00     0.074 A 
ATOM     65  C   UNL A   1      43.695  30.736  34.979  1.00  0.00     0.029 A 
ATOM     66  N   UNL A   1      42.192  30.524  33.353  1.00  0.00    -0.354 N 
ATOM     67  N   UNL A   1      39.837  31.297  31.803  1.00  0.00    -0.248 NA
ATOM     68  C   UNL A   1      37.985  32.683  31.472  1.00  0.00     0.031 C 
ATOM     69  C   UNL A   1      42.744  31.752  35.121  1.00  0.00     0.029 A 
ATOM     70  C   UNL A   1      41.820  31.630  34.097  1.00  0.00     0.049 A 
ATOM     71  H   UNL A   1      41.714  30.186  32.562  1.00  0.00     0.167 HD
ATOM     72  C   UNL A   1      39.820  32.278  32.784  1.00  0.00     0.074 A 
ATOM     73  C   UNL A   1      38.674  33.123  32.516  1.00  0.00     0.031 C 
ATOM     74  C   UNL A   1      40.678  32.460  33.817  1.00  0.00     0.031 A 
BRANCH  61  75
ATOM     75  C   UNL A   1      45.179  28.243  34.118  1.00  0.00    -0.014 A 
ATOM     76  C   UNL A   1      45.010  27.256  35.101  1.00  0.00     0.009 A 
ATOM     77  C   UNL A   1      46.475  28.696  33.828  1.00  0.00     0.009 A 
ATOM     78  C   UNL A   1      46.109  26.773  35.815  1.00  0.00     0.001 A 
ATOM     79  C   UNL A   1      47.576  28.189  34.522  1.00  0.00     0.001 A 
ATOM     80  C   UNL A   1      47.390  27.238  35.523  1.00  0.00     0.000 A 
ENDBRANCH  61  75
BRANCH  62  81
ATOM     81  C   UNL A   1      37.085  31.195  29.124  1.00  0.00    -0.014 A 
ATOM     82  C   UNL A   1      36.968  32.488  28.589  1.00  0.00     0.009 A 
ATOM     83  C   UNL A   1      36.022  30.293  28.962  1.00  0.00     0.009 A 
ATOM     84  C   UNL A   1      35.803  32.875  27.923  1.00  0.00     0.001 A 
ATOM     85  C   UNL A   1      34.868  30.675  28.275  1.00  0.00     0.001 A 
ATOM     86  C   UNL A   1      34.757  31.968  27.763  1.00  0.00     0.000 A 
ENDBRANCH  62  81
BRANCH  74  87
ATOM     87  C   UNL A   1      40.423  33.631  34.720  1.00  0.00    -0.014 A 
ATOM     88  C   UNL A   1      40.940  34.900  34.422  1.00  0.00     0.009 A 
ATOM     89  C   UNL A   1      39.620  33.469  35.859  1.00  0.00     0.009 A 
ATOM     90  C   UNL A   1      40.675  35.982  35.264  1.00  0.00     0.001 A 
ATOM     91  C   UNL A   1      39.339  34.557  36.686  1.00  0.00     0.001 A 
ATOM     92  C   UNL A   1      39.871  35.811  36.391  1.00  0.00     0.000 A 
ENDBRANCH  74  87
ENDBRANCH  48  49
ENDBRANCH  40  43
ENDBRANCH  38  39
ENDBRANCH   1  38
TORSDOF 11
ENDMDL
