MODEL 1
REMARK VINA RESULT:      -8.7      0.000      0.000
REMARK SMILES C[C@@H](C(=O)NCCCNC(=O)c1ccc(-c2c3nc(c(-c4ccccc4)c4ccc([nH]4)c(-c4ccccc4)c4nc(c(-c5ccccc5)c5ccc2[nH]5)C=C4)C=C3)cc1)c1ccc(Cc2ccco2)cc1F
REMARK SMILES IDX 6 1 5 2 3 3 4 4 2 6 1 7 60 8 61 9 71 10 62 11 70 12 72 13
REMARK SMILES IDX 63 14 64 15 65 16 66 17 69 18 67 19 68 20 7 21 8 22 9 23
REMARK SMILES IDX 10 24 11 26 12 27 13 28 59 29 14 30 58 31 15 32 16 33 17 34
REMARK SMILES IDX 52 35 18 36 57 37 51 38 53 39 19 40 56 41 50 42 49 43 20 45
REMARK SMILES IDX 42 46 27 47 41 48 28 49 31 50 40 51 54 52 29 53 30 54 39 56
REMARK SMILES IDX 55 57 32 58 21 59 22 60 26 61 23 62 25 63 24 64 43 65 44 66
REMARK SMILES IDX 48 67 45 68 47 69 46 70 33 71 34 72 38 73 35 74 37 75 36 76
REMARK H PARENT 5 5 9 25 53 44 31 55
REMARK Flexibility Score: inf
ROOT
ATOM      1  C   UNL A   1      45.201  22.565  24.145  1.00  0.00     0.117 C 
ENDROOT
BRANCH   1   2
ATOM      2  N   UNL A   1      45.707  22.870  25.472  1.00  0.00    -0.356 N 
ATOM      3  C   UNL A   1      46.473  23.921  25.900  1.00  0.00     0.227 C 
ATOM      4  O   UNL A   1      47.073  23.774  26.965  1.00  0.00    -0.274 OA
ATOM      5  H   UNL A   1      45.463  22.222  26.170  1.00  0.00     0.163 HD
BRANCH   3   6
ATOM      6  C   UNL A   1      46.586  25.184  25.030  1.00  0.00     0.108 C 
ATOM      7  C   UNL A   1      48.085  25.515  24.928  1.00  0.00     0.023 C 
BRANCH   6   8
ATOM      8  C   UNL A   1      45.761  26.373  25.529  1.00  0.00    -0.000 A 
ATOM      9  C   UNL A   1      46.359  27.434  26.227  1.00  0.00     0.008 A 
ATOM     10  C   UNL A   1      44.387  26.481  25.276  1.00  0.00     0.127 A 
ATOM     11  C   UNL A   1      45.598  28.481  26.753  1.00  0.00     0.005 A 
ATOM     12  C   UNL A   1      43.612  27.502  25.837  1.00  0.00     0.043 A 
ATOM     13  F   UNL A   1      43.775  25.605  24.466  1.00  0.00    -0.207 F 
ATOM     14  C   UNL A   1      44.207  28.494  26.622  1.00  0.00    -0.038 A 
BRANCH  14  15
ATOM     15  C   UNL A   1      43.379  29.566  27.298  1.00  0.00     0.111 C 
BRANCH  15  16
ATOM     16  C   UNL A   1      43.968  30.938  27.198  1.00  0.00     0.108 A 
ATOM     17  C   UNL A   1      44.582  31.789  28.097  1.00  0.00     0.046 A 
ATOM     18  O   UNL A   1      43.953  31.517  25.961  1.00  0.00    -0.469 OA
ATOM     19  C   UNL A   1      44.941  32.953  27.377  1.00  0.00     0.042 A 
ATOM     20  C   UNL A   1      44.541  32.735  26.081  1.00  0.00     0.195 A 
ENDBRANCH  15  16
ENDBRANCH  14  15
ENDBRANCH   6   8
ENDBRANCH   3   6
ENDBRANCH   1   2
BRANCH   1  21
ATOM     21  C   UNL A   1      44.934  21.065  23.980  1.00  0.00     0.042 C 
BRANCH  21  22
ATOM     22  C   UNL A   1      44.647  20.326  25.283  1.00  0.00     0.118 C 
BRANCH  22  23
ATOM     23  N   UNL A   1      43.284  19.831  25.352  1.00  0.00    -0.352 N 
ATOM     24  C   UNL A   1      42.205  20.325  26.039  1.00  0.00     0.251 C 
ATOM     25  H   UNL A   1      43.108  19.016  24.827  1.00  0.00     0.163 HD
ATOM     26  O   UNL A   1      41.176  19.653  26.104  1.00  0.00    -0.269 OA
BRANCH  24  27
ATOM     27  C   UNL A   1      42.261  21.641  26.717  1.00  0.00     0.039 A 
ATOM     28  C   UNL A   1      42.238  22.795  25.926  1.00  0.00     0.014 A 
ATOM     29  C   UNL A   1      42.401  21.755  28.103  1.00  0.00     0.014 A 
ATOM     30  C   UNL A   1      42.324  24.056  26.523  1.00  0.00     0.010 A 
ATOM     31  C   UNL A   1      42.423  23.015  28.704  1.00  0.00     0.010 A 
ATOM     32  C   UNL A   1      42.403  24.178  27.919  1.00  0.00    -0.014 A 
BRANCH  32  33
ATOM     33  C   UNL A   1      42.501  25.513  28.561  1.00  0.00     0.031 A 
ATOM     34  C   UNL A   1      43.794  25.961  29.187  1.00  0.00     0.074 A 
ATOM     35  C   UNL A   1      41.420  26.315  28.613  1.00  0.00     0.049 A 
ATOM     36  N   UNL A   1      44.068  27.082  29.808  1.00  0.00    -0.248 NA
ATOM     37  C   UNL A   1      44.923  25.018  29.125  1.00  0.00     0.031 C 
ATOM     38  C   UNL A   1      40.097  25.992  28.078  1.00  0.00     0.029 A 
ATOM     39  N   UNL A   1      41.267  27.572  29.143  1.00  0.00    -0.354 N 
ATOM     40  C   UNL A   1      45.388  26.970  30.226  1.00  0.00     0.074 A 
ATOM     41  C   UNL A   1      45.849  25.658  29.826  1.00  0.00     0.031 C 
ATOM     42  C   UNL A   1      39.274  27.032  28.284  1.00  0.00     0.029 A 
ATOM     43  C   UNL A   1      40.002  28.084  28.989  1.00  0.00     0.049 A 
ATOM     44  H   UNL A   1      41.995  28.060  29.592  1.00  0.00     0.167 HD
ATOM     45  C   UNL A   1      46.157  27.880  30.870  1.00  0.00     0.031 A 
ATOM     46  C   UNL A   1      39.486  29.268  29.368  1.00  0.00     0.031 A 
ATOM     47  C   UNL A   1      45.712  29.193  31.255  1.00  0.00     0.049 A 
ATOM     48  C   UNL A   1      40.363  30.268  30.066  1.00  0.00     0.074 A 
ATOM     49  C   UNL A   1      46.435  30.205  31.864  1.00  0.00     0.029 A 
ATOM     50  N   UNL A   1      44.429  29.678  31.061  1.00  0.00    -0.354 N 
ATOM     51  N   UNL A   1      41.625  30.168  30.402  1.00  0.00    -0.248 NA
ATOM     52  C   UNL A   1      39.743  31.553  30.423  1.00  0.00     0.031 C 
ATOM     53  C   UNL A   1      45.578  31.291  32.071  1.00  0.00     0.029 A 
ATOM     54  C   UNL A   1      44.334  30.970  31.552  1.00  0.00     0.049 A 
ATOM     55  H   UNL A   1      43.694  29.178  30.639  1.00  0.00     0.167 HD
ATOM     56  C   UNL A   1      41.959  31.383  30.984  1.00  0.00     0.074 A 
ATOM     57  C   UNL A   1      40.770  32.209  30.945  1.00  0.00     0.031 C 
ATOM     58  C   UNL A   1      43.146  31.779  31.504  1.00  0.00     0.031 A 
BRANCH  45  59
ATOM     59  C   UNL A   1      47.566  27.478  31.205  1.00  0.00    -0.014 A 
ATOM     60  C   UNL A   1      48.622  27.733  30.317  1.00  0.00     0.009 A 
ATOM     61  C   UNL A   1      47.844  26.861  32.433  1.00  0.00     0.009 A 
ATOM     62  C   UNL A   1      49.925  27.344  30.638  1.00  0.00     0.001 A 
ATOM     63  C   UNL A   1      49.151  26.496  32.763  1.00  0.00     0.001 A 
ATOM     64  C   UNL A   1      50.187  26.730  31.861  1.00  0.00     0.000 A 
ENDBRANCH  45  59
BRANCH  46  65
ATOM     65  C   UNL A   1      38.067  29.588  29.068  1.00  0.00    -0.014 A 
ATOM     66  C   UNL A   1      37.083  29.442  30.057  1.00  0.00     0.009 A 
ATOM     67  C   UNL A   1      37.692  30.039  27.794  1.00  0.00     0.009 A 
ATOM     68  C   UNL A   1      35.745  29.718  29.768  1.00  0.00     0.001 A 
ATOM     69  C   UNL A   1      36.356  30.337  27.515  1.00  0.00     0.001 A 
ATOM     70  C   UNL A   1      35.383  30.169  28.500  1.00  0.00     0.000 A 
ENDBRANCH  46  65
BRANCH  58  71
ATOM     71  C   UNL A   1      43.225  33.180  32.040  1.00  0.00    -0.014 A 
ATOM     72  C   UNL A   1      43.673  34.241  31.238  1.00  0.00     0.009 A 
ATOM     73  C   UNL A   1      42.817  33.444  33.356  1.00  0.00     0.009 A 
ATOM     74  C   UNL A   1      43.740  35.535  31.757  1.00  0.00     0.001 A 
ATOM     75  C   UNL A   1      42.862  34.743  33.864  1.00  0.00     0.001 A 
ATOM     76  C   UNL A   1      43.332  35.786  33.067  1.00  0.00     0.000 A 
ENDBRANCH  58  71
ENDBRANCH  32  33
ENDBRANCH  24  27
ENDBRANCH  22  23
ENDBRANCH  21  22
ENDBRANCH   1  21
TORSDOF 13
ENDMDL
MODEL 2
REMARK VINA RESULT:      -8.5      4.188      9.905
REMARK SMILES C[C@@H](C(=O)NCCCNC(=O)c1ccc(-c2c3nc(c(-c4ccccc4)c4ccc([nH]4)c(-c4ccccc4)c4nc(c(-c5ccccc5)c5ccc2[nH]5)C=C4)C=C3)cc1)c1ccc(Cc2ccco2)cc1F
REMARK SMILES IDX 6 1 5 2 3 3 4 4 2 6 1 7 60 8 61 9 71 10 62 11 70 12 72 13
REMARK SMILES IDX 63 14 64 15 65 16 66 17 69 18 67 19 68 20 7 21 8 22 9 23
REMARK SMILES IDX 10 24 11 26 12 27 13 28 59 29 14 30 58 31 15 32 16 33 17 34
REMARK SMILES IDX 52 35 18 36 57 37 51 38 53 39 19 40 56 41 50 42 49 43 20 45
REMARK SMILES IDX 42 46 27 47 41 48 28 49 31 50 40 51 54 52 29 53 30 54 39 56
REMARK SMILES IDX 55 57 32 58 21 59 22 60 26 61 23 62 25 63 24 64 43 65 44 66
REMARK SMILES IDX 48 67 45 68 47 69 46 70 33 71 34 72 38 73 35 74 37 75 36 76
REMARK H PARENT 5 5 9 25 53 44 31 55
REMARK Flexibility Score: inf
ROOT
ATOM      1  C   UNL A   1      33.011  29.395  24.852  1.00  0.00     0.117 C 
ENDROOT
BRANCH   1   2
ATOM      2  N   UNL A   1      31.662  28.855  24.852  1.00  0.00    -0.356 N 
ATOM      3  C   UNL A   1      31.092  27.916  24.036  1.00  0.00     0.227 C 
ATOM      4  O   UNL A   1      29.861  27.892  23.990  1.00  0.00    -0.274 OA
ATOM      5  H   UNL A   1      31.067  29.222  25.544  1.00  0.00     0.163 HD
BRANCH   3   6
ATOM      6  C   UNL A   1      31.990  26.992  23.196  1.00  0.00     0.108 C 
ATOM      7  C   UNL A   1      31.124  26.470  22.037  1.00  0.00     0.023 C 
BRANCH   6   8
ATOM      8  C   UNL A   1      32.646  25.857  23.988  1.00  0.00    -0.000 A 
ATOM      9  C   UNL A   1      32.130  25.438  25.225  1.00  0.00     0.008 A 
ATOM     10  C   UNL A   1      33.756  25.155  23.499  1.00  0.00     0.127 A 
ATOM     11  C   UNL A   1      32.771  24.458  25.986  1.00  0.00     0.005 A 
ATOM     12  C   UNL A   1      34.428  24.205  24.274  1.00  0.00     0.043 A 
ATOM     13  F   UNL A   1      34.198  25.371  22.251  1.00  0.00    -0.207 F 
ATOM     14  C   UNL A   1      33.964  23.875  25.551  1.00  0.00    -0.038 A 
BRANCH  14  15
ATOM     15  C   UNL A   1      34.717  22.905  26.437  1.00  0.00     0.111 C 
BRANCH  15  16
ATOM     16  C   UNL A   1      36.182  22.831  26.144  1.00  0.00     0.108 A 
ATOM     17  C   UNL A   1      37.235  23.716  26.277  1.00  0.00     0.046 A 
ATOM     18  O   UNL A   1      36.648  21.638  25.667  1.00  0.00    -0.469 OA
ATOM     19  C   UNL A   1      38.397  23.036  25.840  1.00  0.00     0.042 A 
ATOM     20  C   UNL A   1      37.987  21.774  25.484  1.00  0.00     0.195 A 
ENDBRANCH  15  16
ENDBRANCH  14  15
ENDBRANCH   6   8
ENDBRANCH   3   6
ENDBRANCH   1   2
BRANCH   1  21
ATOM     21  C   UNL A   1      33.952  28.548  25.714  1.00  0.00     0.042 C 
BRANCH  21  22
ATOM     22  C   UNL A   1      33.708  28.657  27.216  1.00  0.00     0.118 C 
BRANCH  22  23
ATOM     23  N   UNL A   1      33.595  30.033  27.663  1.00  0.00    -0.352 N 
ATOM     24  C   UNL A   1      34.492  30.808  28.351  1.00  0.00     0.251 C 
ATOM     25  H   UNL A   1      32.745  30.478  27.438  1.00  0.00     0.163 HD
ATOM     26  O   UNL A   1      34.132  31.901  28.788  1.00  0.00    -0.269 OA
BRANCH  24  27
ATOM     27  C   UNL A   1      35.880  30.349  28.593  1.00  0.00     0.039 A 
ATOM     28  C   UNL A   1      36.809  30.468  27.553  1.00  0.00     0.014 A 
ATOM     29  C   UNL A   1      36.261  29.745  29.795  1.00  0.00     0.014 A 
ATOM     30  C   UNL A   1      38.119  30.015  27.728  1.00  0.00     0.010 A 
ATOM     31  C   UNL A   1      37.586  29.351  29.992  1.00  0.00     0.010 A 
ATOM     32  C   UNL A   1      38.523  29.465  28.954  1.00  0.00    -0.014 A 
BRANCH  32  33
ATOM     33  C   UNL A   1      39.912  28.974  29.146  1.00  0.00     0.031 A 
ATOM     34  C   UNL A   1      40.954  29.867  29.764  1.00  0.00     0.074 A 
ATOM     35  C   UNL A   1      40.249  27.735  28.738  1.00  0.00     0.049 A 
ATOM     36  N   UNL A   1      42.220  29.622  29.996  1.00  0.00    -0.248 NA
ATOM     37  C   UNL A   1      40.523  31.220  30.152  1.00  0.00     0.031 C 
ATOM     38  C   UNL A   1      39.348  26.779  28.094  1.00  0.00     0.029 A 
ATOM     39  N   UNL A   1      41.447  27.069  28.808  1.00  0.00    -0.354 N 
ATOM     40  C   UNL A   1      42.739  30.792  30.537  1.00  0.00     0.074 A 
ATOM     41  C   UNL A   1      41.663  31.760  30.561  1.00  0.00     0.031 C 
ATOM     42  C   UNL A   1      40.017  25.641  27.850  1.00  0.00     0.029 A 
ATOM     43  C   UNL A   1      41.400  25.796  28.295  1.00  0.00     0.049 A 
ATOM     44  H   UNL A   1      42.264  27.466  29.188  1.00  0.00     0.167 HD
ATOM     45  C   UNL A   1      43.991  31.038  30.989  1.00  0.00     0.031 A 
ATOM     46  C   UNL A   1      42.358  24.856  28.197  1.00  0.00     0.031 A 
ATOM     47  C   UNL A   1      45.060  30.076  30.987  1.00  0.00     0.049 A 
ATOM     48  C   UNL A   1      43.735  25.146  28.722  1.00  0.00     0.074 A 
ATOM     49  C   UNL A   1      46.349  30.217  31.474  1.00  0.00     0.029 A 
ATOM     50  N   UNL A   1      44.963  28.792  30.477  1.00  0.00    -0.354 N 
ATOM     51  N   UNL A   1      44.192  26.239  29.283  1.00  0.00    -0.248 NA
ATOM     52  C   UNL A   1      44.725  24.064  28.612  1.00  0.00     0.031 C 
ATOM     53  C   UNL A   1      47.042  29.027  31.226  1.00  0.00     0.029 A 
ATOM     54  C   UNL A   1      46.172  28.133  30.624  1.00  0.00     0.049 A 
ATOM     55  H   UNL A   1      44.154  28.406  30.070  1.00  0.00     0.167 HD
ATOM     56  C   UNL A   1      45.512  25.968  29.618  1.00  0.00     0.074 A 
ATOM     57  C   UNL A   1      45.780  24.605  29.208  1.00  0.00     0.031 C 
ATOM     58  C   UNL A   1      46.422  26.777  30.213  1.00  0.00     0.031 A 
BRANCH  45  59
ATOM     59  C   UNL A   1      44.271  32.415  31.524  1.00  0.00    -0.014 A 
ATOM     60  C   UNL A   1      44.214  32.683  32.900  1.00  0.00     0.009 A 
ATOM     61  C   UNL A   1      44.623  33.449  30.643  1.00  0.00     0.009 A 
ATOM     62  C   UNL A   1      44.467  33.970  33.381  1.00  0.00     0.001 A 
ATOM     63  C   UNL A   1      44.901  34.728  31.129  1.00  0.00     0.001 A 
ATOM     64  C   UNL A   1      44.814  34.989  32.495  1.00  0.00     0.000 A 
ENDBRANCH  45  59
BRANCH  46  65
ATOM     65  C   UNL A   1      42.042  23.534  27.600  1.00  0.00    -0.014 A 
ATOM     66  C   UNL A   1      42.316  23.282  26.248  1.00  0.00     0.009 A 
ATOM     67  C   UNL A   1      41.465  22.519  28.379  1.00  0.00     0.009 A 
ATOM     68  C   UNL A   1      41.994  22.047  25.680  1.00  0.00     0.001 A 
ATOM     69  C   UNL A   1      41.167  21.278  27.814  1.00  0.00     0.001 A 
ATOM     70  C   UNL A   1      41.425  21.045  26.463  1.00  0.00     0.000 A 
ENDBRANCH  46  65
BRANCH  58  71
ATOM     71  C   UNL A   1      47.779  26.196  30.488  1.00  0.00    -0.014 A 
ATOM     72  C   UNL A   1      48.113  25.695  31.756  1.00  0.00     0.009 A 
ATOM     73  C   UNL A   1      48.725  26.122  29.454  1.00  0.00     0.009 A 
ATOM     74  C   UNL A   1      49.380  25.161  31.990  1.00  0.00     0.001 A 
ATOM     75  C   UNL A   1      49.983  25.564  29.685  1.00  0.00     0.001 A 
ATOM     76  C   UNL A   1      50.313  25.092  30.955  1.00  0.00     0.000 A 
ENDBRANCH  58  71
ENDBRANCH  32  33
ENDBRANCH  24  27
ENDBRANCH  22  23
ENDBRANCH  21  22
ENDBRANCH   1  21
TORSDOF 13
ENDMDL
MODEL 3
REMARK VINA RESULT:      -8.4      2.313      4.123
REMARK SMILES C[C@@H](C(=O)NCCCNC(=O)c1ccc(-c2c3nc(c(-c4ccccc4)c4ccc([nH]4)c(-c4ccccc4)c4nc(c(-c5ccccc5)c5ccc2[nH]5)C=C4)C=C3)cc1)c1ccc(Cc2ccco2)cc1F
REMARK SMILES IDX 6 1 5 2 3 3 4 4 2 6 1 7 60 8 61 9 71 10 62 11 70 12 72 13
REMARK SMILES IDX 63 14 64 15 65 16 66 17 69 18 67 19 68 20 7 21 8 22 9 23
REMARK SMILES IDX 10 24 11 26 12 27 13 28 59 29 14 30 58 31 15 32 16 33 17 34
REMARK SMILES IDX 52 35 18 36 57 37 51 38 53 39 19 40 56 41 50 42 49 43 20 45
REMARK SMILES IDX 42 46 27 47 41 48 28 49 31 50 40 51 54 52 29 53 30 54 39 56
REMARK SMILES IDX 55 57 32 58 21 59 22 60 26 61 23 62 25 63 24 64 43 65 44 66
REMARK SMILES IDX 48 67 45 68 47 69 46 70 33 71 34 72 38 73 35 74 37 75 36 76
REMARK H PARENT 5 5 9 25 53 44 31 55
REMARK Flexibility Score: inf
ROOT
ATOM      1  C   UNL A   1      41.834  19.283  26.318  1.00  0.00     0.117 C 
ENDROOT
BRANCH   1   2
ATOM      2  N   UNL A   1      43.197  18.787  26.409  1.00  0.00    -0.356 N 
ATOM      3  C   UNL A   1      44.225  18.873  25.510  1.00  0.00     0.227 C 
ATOM      4  O   UNL A   1      45.154  18.075  25.648  1.00  0.00    -0.274 OA
ATOM      5  H   UNL A   1      43.414  18.317  27.245  1.00  0.00     0.163 HD
BRANCH   3   6
ATOM      6  C   UNL A   1      44.153  19.900  24.367  1.00  0.00     0.108 C 
ATOM      7  C   UNL A   1      44.947  19.306  23.191  1.00  0.00     0.023 C 
BRANCH   6   8
ATOM      8  C   UNL A   1      44.636  21.302  24.745  1.00  0.00    -0.000 A 
ATOM      9  C   UNL A   1      45.999  21.637  24.715  1.00  0.00     0.008 A 
ATOM     10  C   UNL A   1      43.744  22.326  25.092  1.00  0.00     0.127 A 
ATOM     11  C   UNL A   1      46.450  22.891  25.135  1.00  0.00     0.005 A 
ATOM     12  C   UNL A   1      44.190  23.568  25.556  1.00  0.00     0.043 A 
ATOM     13  F   UNL A   1      42.421  22.143  24.973  1.00  0.00    -0.207 F 
ATOM     14  C   UNL A   1      45.558  23.849  25.624  1.00  0.00    -0.038 A 
BRANCH  14  15
ATOM     15  C   UNL A   1      46.067  25.158  26.191  1.00  0.00     0.111 C 
BRANCH  15  16
ATOM     16  C   UNL A   1      47.298  25.672  25.513  1.00  0.00     0.108 A 
ATOM     17  C   UNL A   1      48.644  25.657  25.824  1.00  0.00     0.046 A 
ATOM     18  O   UNL A   1      47.118  26.272  24.299  1.00  0.00    -0.469 OA
ATOM     19  C   UNL A   1      49.316  26.297  24.756  1.00  0.00     0.042 A 
ATOM     20  C   UNL A   1      48.344  26.648  23.852  1.00  0.00     0.195 A 
ENDBRANCH  15  16
ENDBRANCH  14  15
ENDBRANCH   6   8
ENDBRANCH   3   6
ENDBRANCH   1   2
BRANCH   1  21
ATOM     21  C   UNL A   1      41.388  19.934  27.630  1.00  0.00     0.042 C 
BRANCH  21  22
ATOM     22  C   UNL A   1      40.960  21.392  27.501  1.00  0.00     0.118 C 
BRANCH  22  23
ATOM     23  N   UNL A   1      39.833  21.564  26.603  1.00  0.00    -0.352 N 
ATOM     24  C   UNL A   1      39.085  22.682  26.338  1.00  0.00     0.251 C 
ATOM     25  H   UNL A   1      39.565  20.755  26.108  1.00  0.00     0.163 HD
ATOM     26  O   UNL A   1      38.056  22.572  25.670  1.00  0.00    -0.269 OA
BRANCH  24  27
ATOM     27  C   UNL A   1      39.480  24.013  26.854  1.00  0.00     0.039 A 
ATOM     28  C   UNL A   1      40.130  24.895  25.984  1.00  0.00     0.014 A 
ATOM     29  C   UNL A   1      39.283  24.378  28.189  1.00  0.00     0.014 A 
ATOM     30  C   UNL A   1      40.551  26.147  26.440  1.00  0.00     0.010 A 
ATOM     31  C   UNL A   1      39.646  25.654  28.627  1.00  0.00     0.010 A 
ATOM     32  C   UNL A   1      40.300  26.543  27.762  1.00  0.00    -0.014 A 
BRANCH  32  33
ATOM     33  C   UNL A   1      40.750  27.869  28.257  1.00  0.00     0.031 A 
ATOM     34  C   UNL A   1      42.218  28.191  28.338  1.00  0.00     0.074 A 
ATOM     35  C   UNL A   1      39.843  28.777  28.666  1.00  0.00     0.049 A 
ATOM     36  N   UNL A   1      42.802  29.286  28.758  1.00  0.00    -0.248 NA
ATOM     37  C   UNL A   1      43.153  27.138  27.909  1.00  0.00     0.031 C 
ATOM     38  C   UNL A   1      38.392  28.583  28.675  1.00  0.00     0.029 A 
ATOM     39  N   UNL A   1      40.012  30.049  29.154  1.00  0.00    -0.354 N 
ATOM     40  C   UNL A   1      44.168  29.046  28.664  1.00  0.00     0.074 A 
ATOM     41  C   UNL A   1      44.327  27.689  28.185  1.00  0.00     0.031 C 
ATOM     42  C   UNL A   1      37.802  29.704  29.121  1.00  0.00     0.029 A 
ATOM     43  C   UNL A   1      38.832  30.684  29.454  1.00  0.00     0.049 A 
ATOM     44  H   UNL A   1      40.895  30.466  29.278  1.00  0.00     0.167 HD
ATOM     45  C   UNL A   1      45.199  29.881  28.933  1.00  0.00     0.031 A 
ATOM     46  C   UNL A   1      38.602  31.918  29.940  1.00  0.00     0.031 A 
ATOM     47  C   UNL A   1      45.050  31.236  29.391  1.00  0.00     0.049 A 
ATOM     48  C   UNL A   1      39.762  32.833  30.214  1.00  0.00     0.074 A 
ATOM     49  C   UNL A   1      46.035  32.177  29.640  1.00  0.00     0.029 A 
ATOM     50  N   UNL A   1      43.836  31.847  29.663  1.00  0.00    -0.354 N 
ATOM     51  N   UNL A   1      41.044  32.610  30.064  1.00  0.00    -0.248 NA
ATOM     52  C   UNL A   1      39.438  34.178  30.713  1.00  0.00     0.031 C 
ATOM     53  C   UNL A   1      45.418  33.346  30.097  1.00  0.00     0.029 A 
ATOM     54  C   UNL A   1      44.047  33.147  30.090  1.00  0.00     0.049 A 
ATOM     55  H   UNL A   1      42.955  31.419  29.567  1.00  0.00     0.167 HD
ATOM     56  C   UNL A   1      41.679  33.791  30.422  1.00  0.00     0.074 A 
ATOM     57  C   UNL A   1      40.640  34.733  30.786  1.00  0.00     0.031 C 
ATOM     58  C   UNL A   1      43.004  34.072  30.446  1.00  0.00     0.031 A 
BRANCH  45  59
ATOM     59  C   UNL A   1      46.589  29.342  28.742  1.00  0.00    -0.014 A 
ATOM     60  C   UNL A   1      47.268  29.505  27.524  1.00  0.00     0.009 A 
ATOM     61  C   UNL A   1      47.237  28.688  29.800  1.00  0.00     0.009 A 
ATOM     62  C   UNL A   1      48.556  28.989  27.358  1.00  0.00     0.001 A 
ATOM     63  C   UNL A   1      48.535  28.196  29.640  1.00  0.00     0.001 A 
ATOM     64  C   UNL A   1      49.188  28.340  28.417  1.00  0.00     0.000 A 
ENDBRANCH  45  59
BRANCH  46  65
ATOM     65  C   UNL A   1      37.209  32.377  30.171  1.00  0.00    -0.014 A 
ATOM     66  C   UNL A   1      36.568  32.108  31.389  1.00  0.00     0.009 A 
ATOM     67  C   UNL A   1      36.516  33.083  29.176  1.00  0.00     0.009 A 
ATOM     68  C   UNL A   1      35.248  32.517  31.597  1.00  0.00     0.001 A 
ATOM     69  C   UNL A   1      35.206  33.510  29.396  1.00  0.00     0.001 A 
ATOM     70  C   UNL A   1      34.570  33.220  30.604  1.00  0.00     0.000 A 
ENDBRANCH  46  65
BRANCH  58  71
ATOM     71  C   UNL A   1      43.403  35.463  30.846  1.00  0.00    -0.014 A 
ATOM     72  C   UNL A   1      43.552  36.480  29.891  1.00  0.00     0.009 A 
ATOM     73  C   UNL A   1      43.602  35.765  32.202  1.00  0.00     0.009 A 
ATOM     74  C   UNL A   1      43.924  37.766  30.285  1.00  0.00     0.001 A 
ATOM     75  C   UNL A   1      43.950  37.059  32.595  1.00  0.00     0.001 A 
ATOM     76  C   UNL A   1      44.119  38.056  31.635  1.00  0.00     0.000 A 
ENDBRANCH  58  71
ENDBRANCH  32  33
ENDBRANCH  24  27
ENDBRANCH  22  23
ENDBRANCH  21  22
ENDBRANCH   1  21
TORSDOF 13
ENDMDL
