MODEL 1
REMARK VINA RESULT:     -12.1      0.000      0.000
REMARK SMILES Cc1cc(-n2nc(C)c(C(=O)NCCCNC(=O)c3ccc(-c4c5nc(c(-c6ccccc6)c6ccc([nH]6)c(-c6ccccc6)c6nc(c(-c7ccccc7)c7ccc4[nH]7)C=C6)C=C5)cc3)c2Cl)nc(C)n1
REMARK SMILES IDX 14 1 13 2 12 3 10 4 11 5 9 7 5 8 6 9 67 10 7 11 68 12 8 13
REMARK SMILES IDX 4 14 1 15 2 16 3 17 72 18 70 19 69 20 71 21 15 22 16 23
REMARK SMILES IDX 17 24 18 26 19 27 20 28 66 29 21 30 65 31 22 32 23 33 24 34
REMARK SMILES IDX 59 35 25 36 64 37 58 38 60 39 26 40 63 41 57 42 56 43 27 45
REMARK SMILES IDX 49 46 34 47 48 48 35 49 38 50 47 51 61 52 36 53 37 54 46 56
REMARK SMILES IDX 62 57 39 58 28 59 29 60 33 61 30 62 32 63 31 64 50 65 51 66
REMARK SMILES IDX 55 67 52 68 54 69 53 70 40 71 41 72 45 73 42 74 44 75 43 76
REMARK H PARENT 12 6 16 25 60 44 38 55
REMARK Flexibility Score: inf
ROOT
ATOM      1  C   UNL A   1      31.307  31.927  26.342  1.00  0.00     0.042 C 
ENDROOT
BRANCH   1   2
ATOM      2  C   UNL A   1      31.569  30.512  25.792  1.00  0.00     0.118 C 
BRANCH   2   3
ATOM      3  N   UNL A   1      30.841  30.262  24.569  1.00  0.00    -0.352 N 
ATOM      4  C   UNL A   1      30.699  29.182  23.741  1.00  0.00     0.256 C 
ATOM      5  O   UNL A   1      29.919  29.392  22.808  1.00  0.00    -0.269 OA
ATOM      6  H   UNL A   1      30.330  31.046  24.263  1.00  0.00     0.163 HD
BRANCH   4   7
ATOM      7  C   UNL A   1      31.384  27.893  23.869  1.00  0.00     0.100 A 
ATOM      8  N   UNL A   1      32.107  25.800  24.278  1.00  0.00    -0.203 N 
ATOM      9  N   UNL A   1      33.227  26.468  23.930  1.00  0.00    -0.170 NA
ATOM     10  C   UNL A   1      31.011  26.640  24.317  1.00  0.00     0.147 A 
ATOM     11  C   UNL A   1      32.784  27.682  23.562  1.00  0.00     0.074 A 
ATOM     12  Cl  UNL A   1      29.615  25.975  25.035  1.00  0.00    -0.061 Cl
ATOM     13  C   UNL A   1      33.775  28.611  22.945  1.00  0.00     0.070 C 
BRANCH   8  14
ATOM     14  C   UNL A   1      32.132  24.448  24.746  1.00  0.00     0.159 A 
ATOM     15  C   UNL A   1      32.287  21.095  23.140  1.00  0.00     0.067 C 
ATOM     16  C   UNL A   1      32.339  22.209  24.142  1.00  0.00     0.043 A 
ATOM     17  C   UNL A   1      31.839  23.459  23.832  1.00  0.00     0.072 A 
ATOM     18  N   UNL A   1      33.038  21.953  25.272  1.00  0.00    -0.238 NA
ATOM     19  C   UNL A   1      33.212  22.967  26.134  1.00  0.00     0.128 A 
ATOM     20  N   UNL A   1      32.763  24.209  25.922  1.00  0.00    -0.214 NA
ATOM     21  C   UNL A   1      34.126  22.767  27.303  1.00  0.00     0.090 C 
ENDBRANCH   8  14
ENDBRANCH   4   7
ENDBRANCH   2   3
ENDBRANCH   1   2
BRANCH   1  22
ATOM     22  C   UNL A   1      32.408  32.384  27.256  1.00  0.00     0.118 C 
BRANCH  22  23
ATOM     23  N   UNL A   1      32.256  33.817  27.559  1.00  0.00    -0.352 N 
ATOM     24  C   UNL A   1      32.965  34.602  28.447  1.00  0.00     0.251 C 
ATOM     25  H   UNL A   1      31.548  34.282  27.058  1.00  0.00     0.163 HD
ATOM     26  O   UNL A   1      32.558  35.685  28.814  1.00  0.00    -0.269 OA
BRANCH  24  27
ATOM     27  C   UNL A   1      34.248  34.071  28.920  1.00  0.00     0.039 A 
ATOM     28  C   UNL A   1      34.404  33.479  30.174  1.00  0.00     0.014 A 
ATOM     29  C   UNL A   1      35.288  34.107  28.003  1.00  0.00     0.014 A 
ATOM     30  C   UNL A   1      35.641  32.919  30.467  1.00  0.00     0.010 A 
ATOM     31  C   UNL A   1      36.324  33.249  28.153  1.00  0.00     0.010 A 
ATOM     32  C   UNL A   1      36.589  32.828  29.436  1.00  0.00    -0.014 A 
BRANCH  32  33
ATOM     33  C   UNL A   1      37.926  32.327  29.629  1.00  0.00     0.031 A 
ATOM     34  C   UNL A   1      38.088  30.895  29.332  1.00  0.00     0.074 A 
ATOM     35  C   UNL A   1      38.972  33.155  29.833  1.00  0.00     0.049 A 
ATOM     36  N   UNL A   1      38.204  29.943  30.189  1.00  0.00    -0.248 NA
ATOM     37  C   UNL A   1      37.947  30.450  27.937  1.00  0.00     0.031 C 
ATOM     38  C   UNL A   1      39.046  34.625  29.799  1.00  0.00     0.029 A 
ATOM     39  N   UNL A   1      40.258  32.806  30.044  1.00  0.00    -0.354 N 
ATOM     40  C   UNL A   1      38.336  28.782  29.446  1.00  0.00     0.074 A 
ATOM     41  C   UNL A   1      37.991  29.125  28.087  1.00  0.00     0.031 C 
ATOM     42  C   UNL A   1      40.344  35.015  29.778  1.00  0.00     0.029 A 
ATOM     43  C   UNL A   1      41.175  33.843  29.981  1.00  0.00     0.049 A 
ATOM     44  H   UNL A   1      40.526  31.877  30.231  1.00  0.00     0.167 HD
ATOM     45  C   UNL A   1      38.940  27.678  29.961  1.00  0.00     0.031 A 
ATOM     46  C   UNL A   1      42.520  33.699  30.071  1.00  0.00     0.031 A 
ATOM     47  C   UNL A   1      39.148  27.793  31.382  1.00  0.00     0.049 A 
ATOM     48  C   UNL A   1      42.754  32.396  30.747  1.00  0.00     0.074 A 
ATOM     49  C   UNL A   1      38.308  27.924  32.471  1.00  0.00     0.029 A 
ATOM     50  N   UNL A   1      40.376  28.260  31.797  1.00  0.00    -0.354 N 
ATOM     51  N   UNL A   1      42.402  32.157  31.979  1.00  0.00    -0.248 NA
ATOM     52  C   UNL A   1      42.938  31.220  29.909  1.00  0.00     0.031 C 
ATOM     53  C   UNL A   1      38.931  28.905  33.299  1.00  0.00     0.029 A 
ATOM     54  C   UNL A   1      40.147  29.261  32.710  1.00  0.00     0.049 A 
ATOM     55  H   UNL A   1      41.255  27.935  31.496  1.00  0.00     0.167 HD
ATOM     56  C   UNL A   1      41.920  30.855  31.967  1.00  0.00     0.074 A 
ATOM     57  C   UNL A   1      42.350  30.303  30.683  1.00  0.00     0.031 C 
ATOM     58  C   UNL A   1      40.977  30.438  32.861  1.00  0.00     0.031 A 
BRANCH  45  59
ATOM     59  C   UNL A   1      39.656  26.668  29.119  1.00  0.00    -0.014 A 
ATOM     60  C   UNL A   1      40.932  26.969  28.621  1.00  0.00     0.009 A 
ATOM     61  C   UNL A   1      39.017  25.522  28.604  1.00  0.00     0.009 A 
ATOM     62  C   UNL A   1      41.530  26.170  27.641  1.00  0.00     0.001 A 
ATOM     63  C   UNL A   1      39.626  24.701  27.655  1.00  0.00     0.001 A 
ATOM     64  C   UNL A   1      40.877  25.037  27.159  1.00  0.00     0.000 A 
ENDBRANCH  45  59
BRANCH  46  65
ATOM     65  C   UNL A   1      43.581  34.364  29.279  1.00  0.00    -0.014 A 
ATOM     66  C   UNL A   1      43.441  34.469  27.883  1.00  0.00     0.009 A 
ATOM     67  C   UNL A   1      44.543  35.179  29.901  1.00  0.00     0.009 A 
ATOM     68  C   UNL A   1      44.170  35.416  27.152  1.00  0.00     0.001 A 
ATOM     69  C   UNL A   1      45.276  36.121  29.168  1.00  0.00     0.001 A 
ATOM     70  C   UNL A   1      45.070  36.257  27.799  1.00  0.00     0.000 A 
ENDBRANCH  46  65
BRANCH  58  71
ATOM     71  C   UNL A   1      40.581  31.392  33.966  1.00  0.00    -0.014 A 
ATOM     72  C   UNL A   1      39.572  32.362  33.813  1.00  0.00     0.009 A 
ATOM     73  C   UNL A   1      41.100  31.172  35.249  1.00  0.00     0.009 A 
ATOM     74  C   UNL A   1      39.098  33.086  34.914  1.00  0.00     0.001 A 
ATOM     75  C   UNL A   1      40.617  31.885  36.349  1.00  0.00     0.001 A 
ATOM     76  C   UNL A   1      39.615  32.839  36.183  1.00  0.00     0.000 A 
ENDBRANCH  58  71
ENDBRANCH  32  33
ENDBRANCH  24  27
ENDBRANCH  22  23
ENDBRANCH   1  22
TORSDOF 11
ENDMDL
MODEL 2
REMARK VINA RESULT:     -12.0      4.484      9.404
REMARK SMILES Cc1cc(-n2nc(C)c(C(=O)NCCCNC(=O)c3ccc(-c4c5nc(c(-c6ccccc6)c6ccc([nH]6)c(-c6ccccc6)c6nc(c(-c7ccccc7)c7ccc4[nH]7)C=C6)C=C5)cc3)c2Cl)nc(C)n1
REMARK SMILES IDX 14 1 13 2 12 3 10 4 11 5 9 7 5 8 6 9 67 10 7 11 68 12 8 13
REMARK SMILES IDX 4 14 1 15 2 16 3 17 72 18 70 19 69 20 71 21 15 22 16 23
REMARK SMILES IDX 17 24 18 26 19 27 20 28 66 29 21 30 65 31 22 32 23 33 24 34
REMARK SMILES IDX 59 35 25 36 64 37 58 38 60 39 26 40 63 41 57 42 56 43 27 45
REMARK SMILES IDX 49 46 34 47 48 48 35 49 38 50 47 51 61 52 36 53 37 54 46 56
REMARK SMILES IDX 62 57 39 58 28 59 29 60 33 61 30 62 32 63 31 64 50 65 51 66
REMARK SMILES IDX 55 67 52 68 54 69 53 70 40 71 41 72 45 73 42 74 44 75 43 76
REMARK H PARENT 12 6 16 25 60 44 38 55
REMARK Flexibility Score: inf
ROOT
ATOM      1  C   UNL A   1      37.704  19.543  24.973  1.00  0.00     0.042 C 
ENDROOT
BRANCH   1   2
ATOM      2  C   UNL A   1      36.488  20.487  25.022  1.00  0.00     0.118 C 
BRANCH   2   3
ATOM      3  N   UNL A   1      35.239  19.761  25.070  1.00  0.00    -0.352 N 
ATOM      4  C   UNL A   1      33.920  20.121  25.043  1.00  0.00     0.256 C 
ATOM      5  O   UNL A   1      33.157  19.150  25.053  1.00  0.00    -0.269 OA
ATOM      6  H   UNL A   1      35.367  18.787  25.136  1.00  0.00     0.163 HD
BRANCH   4   7
ATOM      7  C   UNL A   1      33.391  21.488  25.028  1.00  0.00     0.100 A 
ATOM      8  N   UNL A   1      32.567  23.539  24.600  1.00  0.00    -0.203 N 
ATOM      9  N   UNL A   1      33.062  23.642  25.852  1.00  0.00    -0.170 NA
ATOM     10  C   UNL A   1      32.812  22.290  24.064  1.00  0.00     0.147 A 
ATOM     11  C   UNL A   1      33.439  22.390  26.160  1.00  0.00     0.074 A 
ATOM     12  Cl  UNL A   1      32.506  22.148  22.392  1.00  0.00    -0.061 Cl
ATOM     13  C   UNL A   1      33.869  22.135  27.566  1.00  0.00     0.070 C 
BRANCH   8  14
ATOM     14  C   UNL A   1      32.054  24.664  23.881  1.00  0.00     0.159 A 
ATOM     15  C   UNL A   1      28.836  26.532  23.835  1.00  0.00     0.067 C 
ATOM     16  C   UNL A   1      30.270  26.142  23.642  1.00  0.00     0.043 A 
ATOM     17  C   UNL A   1      30.688  24.849  23.889  1.00  0.00     0.072 A 
ATOM     18  N   UNL A   1      31.126  27.156  23.377  1.00  0.00    -0.238 NA
ATOM     19  C   UNL A   1      32.434  26.862  23.324  1.00  0.00     0.128 A 
ATOM     20  N   UNL A   1      32.932  25.641  23.545  1.00  0.00    -0.214 NA
ATOM     21  C   UNL A   1      33.419  27.985  23.210  1.00  0.00     0.090 C 
ENDBRANCH   8  14
ENDBRANCH   4   7
ENDBRANCH   2   3
ENDBRANCH   1   2
BRANCH   1  22
ATOM     22  C   UNL A   1      38.909  20.148  25.634  1.00  0.00     0.118 C 
BRANCH  22  23
ATOM     23  N   UNL A   1      39.994  19.157  25.723  1.00  0.00    -0.352 N 
ATOM     24  C   UNL A   1      41.343  19.354  25.943  1.00  0.00     0.251 C 
ATOM     25  H   UNL A   1      39.718  18.218  25.609  1.00  0.00     0.163 HD
ATOM     26  O   UNL A   1      42.165  18.493  25.707  1.00  0.00    -0.269 OA
BRANCH  24  27
ATOM     27  C   UNL A   1      41.739  20.656  26.492  1.00  0.00     0.039 A 
ATOM     28  C   UNL A   1      42.358  21.642  25.725  1.00  0.00     0.014 A 
ATOM     29  C   UNL A   1      41.374  20.888  27.810  1.00  0.00     0.014 A 
ATOM     30  C   UNL A   1      42.590  22.871  26.328  1.00  0.00     0.010 A 
ATOM     31  C   UNL A   1      41.261  22.166  28.243  1.00  0.00     0.010 A 
ATOM     32  C   UNL A   1      42.038  23.101  27.597  1.00  0.00    -0.014 A 
BRANCH  32  33
ATOM     33  C   UNL A   1      42.259  24.308  28.353  1.00  0.00     0.031 A 
ATOM     34  C   UNL A   1      41.232  25.344  28.159  1.00  0.00     0.074 A 
ATOM     35  C   UNL A   1      43.193  24.376  29.324  1.00  0.00     0.049 A 
ATOM     36  N   UNL A   1      41.351  26.419  27.463  1.00  0.00    -0.248 NA
ATOM     37  C   UNL A   1      39.874  25.085  28.659  1.00  0.00     0.031 C 
ATOM     38  C   UNL A   1      44.057  23.329  29.893  1.00  0.00     0.029 A 
ATOM     39  N   UNL A   1      43.503  25.449  30.082  1.00  0.00    -0.354 N 
ATOM     40  C   UNL A   1      40.138  27.078  27.579  1.00  0.00     0.074 A 
ATOM     41  C   UNL A   1      39.216  26.137  28.167  1.00  0.00     0.031 C 
ATOM     42  C   UNL A   1      44.632  23.782  31.034  1.00  0.00     0.029 A 
ATOM     43  C   UNL A   1      44.323  25.193  31.170  1.00  0.00     0.049 A 
ATOM     44  H   UNL A   1      43.170  26.352  29.875  1.00  0.00     0.167 HD
ATOM     45  C   UNL A   1      40.044  28.421  27.393  1.00  0.00     0.031 A 
ATOM     46  C   UNL A   1      44.679  26.105  32.107  1.00  0.00     0.031 A 
ATOM     47  C   UNL A   1      41.246  28.971  26.819  1.00  0.00     0.049 A 
ATOM     48  C   UNL A   1      44.487  27.440  31.482  1.00  0.00     0.074 A 
ATOM     49  C   UNL A   1      41.914  28.785  25.624  1.00  0.00     0.029 A 
ATOM     50  N   UNL A   1      42.177  29.485  27.695  1.00  0.00    -0.354 N 
ATOM     51  N   UNL A   1      45.181  27.858  30.462  1.00  0.00    -0.248 NA
ATOM     52  C   UNL A   1      43.208  28.105  31.685  1.00  0.00     0.031 C 
ATOM     53  C   UNL A   1      43.294  28.723  25.983  1.00  0.00     0.029 A 
ATOM     54  C   UNL A   1      43.397  28.949  27.358  1.00  0.00     0.049 A 
ATOM     55  H   UNL A   1      42.001  30.120  28.425  1.00  0.00     0.167 HD
ATOM     56  C   UNL A   1      44.268  28.531  29.661  1.00  0.00     0.074 A 
ATOM     57  C   UNL A   1      43.088  28.720  30.505  1.00  0.00     0.031 C 
ATOM     58  C   UNL A   1      44.436  28.618  28.309  1.00  0.00     0.031 A 
BRANCH  45  59
ATOM     59  C   UNL A   1      39.008  29.270  28.063  1.00  0.00    -0.014 A 
ATOM     60  C   UNL A   1      37.865  29.653  27.345  1.00  0.00     0.009 A 
ATOM     61  C   UNL A   1      39.231  29.900  29.303  1.00  0.00     0.009 A 
ATOM     62  C   UNL A   1      36.999  30.635  27.839  1.00  0.00     0.001 A 
ATOM     63  C   UNL A   1      38.349  30.851  29.817  1.00  0.00     0.001 A 
ATOM     64  C   UNL A   1      37.241  31.232  29.075  1.00  0.00     0.000 A 
ENDBRANCH  45  59
BRANCH  46  65
ATOM     65  C   UNL A   1      44.767  25.941  33.577  1.00  0.00    -0.014 A 
ATOM     66  C   UNL A   1      43.751  25.247  34.259  1.00  0.00     0.009 A 
ATOM     67  C   UNL A   1      45.979  26.158  34.257  1.00  0.00     0.009 A 
ATOM     68  C   UNL A   1      43.972  24.712  35.535  1.00  0.00     0.001 A 
ATOM     69  C   UNL A   1      46.196  25.627  35.535  1.00  0.00     0.001 A 
ATOM     70  C   UNL A   1      45.202  24.883  36.162  1.00  0.00     0.000 A 
ENDBRANCH  46  65
BRANCH  58  71
ATOM     71  C   UNL A   1      45.727  28.090  27.724  1.00  0.00    -0.014 A 
ATOM     72  C   UNL A   1      46.881  28.884  27.577  1.00  0.00     0.009 A 
ATOM     73  C   UNL A   1      45.840  26.711  27.503  1.00  0.00     0.009 A 
ATOM     74  C   UNL A   1      48.108  28.311  27.220  1.00  0.00     0.001 A 
ATOM     75  C   UNL A   1      47.067  26.138  27.162  1.00  0.00     0.001 A 
ATOM     76  C   UNL A   1      48.202  26.936  27.023  1.00  0.00     0.000 A 
ENDBRANCH  58  71
ENDBRANCH  32  33
ENDBRANCH  24  27
ENDBRANCH  22  23
ENDBRANCH   1  22
TORSDOF 11
ENDMDL
MODEL 3
REMARK VINA RESULT:     -11.6      4.582      6.858
REMARK SMILES Cc1cc(-n2nc(C)c(C(=O)NCCCNC(=O)c3ccc(-c4c5nc(c(-c6ccccc6)c6ccc([nH]6)c(-c6ccccc6)c6nc(c(-c7ccccc7)c7ccc4[nH]7)C=C6)C=C5)cc3)c2Cl)nc(C)n1
REMARK SMILES IDX 14 1 13 2 12 3 10 4 11 5 9 7 5 8 6 9 67 10 7 11 68 12 8 13
REMARK SMILES IDX 4 14 1 15 2 16 3 17 72 18 70 19 69 20 71 21 15 22 16 23
REMARK SMILES IDX 17 24 18 26 19 27 20 28 66 29 21 30 65 31 22 32 23 33 24 34
REMARK SMILES IDX 59 35 25 36 64 37 58 38 60 39 26 40 63 41 57 42 56 43 27 45
REMARK SMILES IDX 49 46 34 47 48 48 35 49 38 50 47 51 61 52 36 53 37 54 46 56
REMARK SMILES IDX 62 57 39 58 28 59 29 60 33 61 30 62 32 63 31 64 50 65 51 66
REMARK SMILES IDX 55 67 52 68 54 69 53 70 40 71 41 72 45 73 42 74 44 75 43 76
REMARK H PARENT 12 6 16 25 60 44 38 55
REMARK Flexibility Score: inf
ROOT
ATOM      1  C   UNL A   1      35.228  29.784  27.122  1.00  0.00     0.042 C 
ENDROOT
BRANCH   1   2
ATOM      2  C   UNL A   1      33.964  28.925  27.319  1.00  0.00     0.118 C 
BRANCH   2   3
ATOM      3  N   UNL A   1      32.902  29.307  26.416  1.00  0.00    -0.352 N 
ATOM      4  C   UNL A   1      32.254  28.690  25.383  1.00  0.00     0.256 C 
ATOM      5  O   UNL A   1      31.348  29.379  24.905  1.00  0.00    -0.269 OA
ATOM      6  H   UNL A   1      32.570  30.218  26.585  1.00  0.00     0.163 HD
BRANCH   4   7
ATOM      7  C   UNL A   1      32.559  27.367  24.830  1.00  0.00     0.100 A 
ATOM      8  N   UNL A   1      32.870  25.194  24.330  1.00  0.00    -0.203 N 
ATOM      9  N   UNL A   1      33.695  25.844  23.481  1.00  0.00    -0.170 NA
ATOM     10  C   UNL A   1      32.238  26.072  25.188  1.00  0.00     0.147 A 
ATOM     11  C   UNL A   1      33.419  27.143  23.686  1.00  0.00     0.074 A 
ATOM     12  Cl  UNL A   1      31.415  25.343  26.492  1.00  0.00    -0.061 Cl
ATOM     13  C   UNL A   1      34.047  28.128  22.758  1.00  0.00     0.070 C 
BRANCH   8  14
ATOM     14  C   UNL A   1      32.847  23.768  24.437  1.00  0.00     0.159 A 
ATOM     15  C   UNL A   1      31.934  20.959  22.174  1.00  0.00     0.067 C 
ATOM     16  C   UNL A   1      32.493  21.761  23.310  1.00  0.00     0.043 A 
ATOM     17  C   UNL A   1      32.114  23.077  23.497  1.00  0.00     0.072 A 
ATOM     18  N   UNL A   1      33.486  21.172  24.016  1.00  0.00    -0.238 NA
ATOM     19  C   UNL A   1      34.095  21.908  24.958  1.00  0.00     0.128 A 
ATOM     20  N   UNL A   1      33.796  23.187  25.212  1.00  0.00    -0.214 NA
ATOM     21  C   UNL A   1      35.310  21.350  25.632  1.00  0.00     0.090 C 
ENDBRANCH   8  14
ENDBRANCH   4   7
ENDBRANCH   2   3
ENDBRANCH   1   2
BRANCH   1  22
ATOM     22  C   UNL A   1      36.377  29.286  27.952  1.00  0.00     0.118 C 
BRANCH  22  23
ATOM     23  N   UNL A   1      36.976  30.395  28.712  1.00  0.00    -0.352 N 
ATOM     24  C   UNL A   1      38.266  30.536  29.185  1.00  0.00     0.251 C 
ATOM     25  H   UNL A   1      36.369  31.145  28.913  1.00  0.00     0.163 HD
ATOM     26  O   UNL A   1      38.552  31.351  30.037  1.00  0.00    -0.269 OA
BRANCH  24  27
ATOM     27  C   UNL A   1      39.283  29.658  28.598  1.00  0.00     0.039 A 
ATOM     28  C   UNL A   1      39.403  29.453  27.223  1.00  0.00     0.014 A 
ATOM     29  C   UNL A   1      40.189  29.106  29.492  1.00  0.00     0.014 A 
ATOM     30  C   UNL A   1      40.471  28.683  26.782  1.00  0.00     0.010 A 
ATOM     31  C   UNL A   1      41.395  28.696  29.034  1.00  0.00     0.010 A 
ATOM     32  C   UNL A   1      41.448  28.307  27.715  1.00  0.00    -0.014 A 
BRANCH  32  33
ATOM     33  C   UNL A   1      42.567  27.457  27.395  1.00  0.00     0.031 A 
ATOM     34  C   UNL A   1      42.235  26.028  27.289  1.00  0.00     0.074 A 
ATOM     35  C   UNL A   1      43.753  27.965  26.998  1.00  0.00     0.049 A 
ATOM     36  N   UNL A   1      42.500  25.114  28.154  1.00  0.00    -0.248 NA
ATOM     37  C   UNL A   1      41.375  25.589  26.180  1.00  0.00     0.031 C 
ATOM     38  C   UNL A   1      44.146  29.351  26.701  1.00  0.00     0.029 A 
ATOM     39  N   UNL A   1      44.872  27.275  26.691  1.00  0.00    -0.354 N 
ATOM     40  C   UNL A   1      42.003  23.936  27.622  1.00  0.00     0.074 A 
ATOM     41  C   UNL A   1      41.170  24.312  26.506  1.00  0.00     0.031 C 
ATOM     42  C   UNL A   1      45.344  29.359  26.066  1.00  0.00     0.029 A 
ATOM     43  C   UNL A   1      45.874  28.009  26.077  1.00  0.00     0.049 A 
ATOM     44  H   UNL A   1      44.969  26.316  26.891  1.00  0.00     0.167 HD
ATOM     45  C   UNL A   1      42.497  22.726  27.999  1.00  0.00     0.031 A 
ATOM     46  C   UNL A   1      47.037  27.496  25.606  1.00  0.00     0.031 A 
ATOM     47  C   UNL A   1      43.349  22.830  29.156  1.00  0.00     0.049 A 
ATOM     48  C   UNL A   1      47.239  26.205  26.316  1.00  0.00     0.074 A 
ATOM     49  C   UNL A   1      43.152  23.232  30.463  1.00  0.00     0.029 A 
ATOM     50  N   UNL A   1      44.702  22.947  28.925  1.00  0.00    -0.354 N 
ATOM     51  N   UNL A   1      47.441  26.120  27.600  1.00  0.00    -0.248 NA
ATOM     52  C   UNL A   1      46.740  24.995  25.678  1.00  0.00     0.031 C 
ATOM     53  C   UNL A   1      44.295  24.028  30.776  1.00  0.00     0.029 A 
ATOM     54  C   UNL A   1      45.156  24.005  29.677  1.00  0.00     0.049 A 
ATOM     55  H   UNL A   1      45.244  22.377  28.334  1.00  0.00     0.167 HD
ATOM     56  C   UNL A   1      46.716  25.007  28.003  1.00  0.00     0.074 A 
ATOM     57  C   UNL A   1      46.371  24.309  26.765  1.00  0.00     0.031 C 
ATOM     58  C   UNL A   1      46.213  24.905  29.268  1.00  0.00     0.031 A 
BRANCH  45  59
ATOM     59  C   UNL A   1      42.492  21.525  27.104  1.00  0.00    -0.014 A 
ATOM     60  C   UNL A   1      41.734  20.402  27.467  1.00  0.00     0.009 A 
ATOM     61  C   UNL A   1      43.394  21.375  26.033  1.00  0.00     0.009 A 
ATOM     62  C   UNL A   1      41.890  19.182  26.800  1.00  0.00     0.001 A 
ATOM     63  C   UNL A   1      43.524  20.171  25.340  1.00  0.00     0.001 A 
ATOM     64  C   UNL A   1      42.782  19.068  25.737  1.00  0.00     0.000 A 
ENDBRANCH  45  59
BRANCH  46  65
ATOM     65  C   UNL A   1      47.744  27.805  24.341  1.00  0.00    -0.014 A 
ATOM     66  C   UNL A   1      49.070  27.368  24.164  1.00  0.00     0.009 A 
ATOM     67  C   UNL A   1      47.036  28.219  23.200  1.00  0.00     0.009 A 
ATOM     68  C   UNL A   1      49.632  27.263  22.885  1.00  0.00     0.001 A 
ATOM     69  C   UNL A   1      47.602  28.119  21.922  1.00  0.00     0.001 A 
ATOM     70  C   UNL A   1      48.889  27.617  21.763  1.00  0.00     0.000 A 
ENDBRANCH  46  65
BRANCH  58  71
ATOM     71  C   UNL A   1      46.600  25.972  30.268  1.00  0.00    -0.014 A 
ATOM     72  C   UNL A   1      45.845  27.144  30.466  1.00  0.00     0.009 A 
ATOM     73  C   UNL A   1      47.636  25.692  31.169  1.00  0.00     0.009 A 
ATOM     74  C   UNL A   1      46.121  28.006  31.534  1.00  0.00     0.001 A 
ATOM     75  C   UNL A   1      47.902  26.544  32.243  1.00  0.00     0.001 A 
ATOM     76  C   UNL A   1      47.144  27.699  32.428  1.00  0.00     0.000 A 
ENDBRANCH  58  71
ENDBRANCH  32  33
ENDBRANCH  24  27
ENDBRANCH  22  23
ENDBRANCH   1  22
TORSDOF 11
ENDMDL
