MODEL 1
REMARK VINA RESULT:     -10.4      0.000      0.000
REMARK SMILES C[C@@H](Sc1nncn1C)[C@@H](C)C(=O)NCCCNC(=O)c1ccc(-c2c3nc(c(-c4ccccc4)c4ccc([nH]4)c(-c4ccccc4)c4nc(c(-c5ccccc5)c5ccc2[nH]5)C=C4)C=C3)cc1
REMARK SMILES IDX 15 1 14 2 12 3 13 4 10 6 11 7 2 8 1 9 3 10 4 11 5 12 8 13
REMARK SMILES IDX 6 14 7 15 9 16 16 17 17 18 18 19 19 20 20 22 21 23 22 24
REMARK SMILES IDX 68 25 23 26 67 27 24 28 25 29 26 30 61 31 27 32 66 33 60 34
REMARK SMILES IDX 62 35 28 36 65 37 59 38 58 39 29 41 51 42 36 43 50 44 37 45
REMARK SMILES IDX 40 46 49 47 63 48 38 49 39 50 48 52 64 53 41 54 30 55 31 56
REMARK SMILES IDX 35 57 32 58 34 59 33 60 52 61 53 62 57 63 54 64 56 65 55 66
REMARK SMILES IDX 42 67 43 68 47 69 44 70 46 71 45 72
REMARK H PARENT 14 5 18 21 62 40 40 51
REMARK Flexibility Score: inf
ROOT
ATOM      1  C   UNL A   1      36.457  21.087  24.818  1.00  0.00     0.117 C 
ENDROOT
BRANCH   1   2
ATOM      2  N   UNL A   1      35.717  21.085  26.067  1.00  0.00    -0.356 N 
ATOM      3  C   UNL A   1      34.627  21.783  26.476  1.00  0.00     0.223 C 
ATOM      4  O   UNL A   1      34.241  21.600  27.633  1.00  0.00    -0.275 OA
ATOM      5  H   UNL A   1      36.073  20.463  26.743  1.00  0.00     0.163 HD
BRANCH   3   6
ATOM      6  C   UNL A   1      33.840  22.685  25.532  1.00  0.00     0.088 C 
ATOM      7  C   UNL A   1      33.866  24.116  26.091  1.00  0.00     0.019 C 
BRANCH   6   8
ATOM      8  C   UNL A   1      32.443  22.131  25.155  1.00  0.00     0.064 C 
ATOM      9  C   UNL A   1      31.450  23.244  24.819  1.00  0.00     0.021 C 
BRANCH   8  10
ATOM     10  S   UNL A   1      32.577  21.045  23.673  1.00  0.00    -0.082 SA
BRANCH  10  11
ATOM     11  C   UNL A   1      32.469  19.452  24.337  1.00  0.00     0.191 A 
ATOM     12  N   UNL A   1      32.448  19.168  25.620  1.00  0.00    -0.124 NA
ATOM     13  N   UNL A   1      32.537  18.292  23.619  1.00  0.00    -0.312 N 
ATOM     14  N   UNL A   1      32.528  17.798  25.752  1.00  0.00    -0.138 NA
ATOM     15  C   UNL A   1      32.597  17.288  24.544  1.00  0.00     0.226 A 
ATOM     16  C   UNL A   1      32.524  18.080  22.198  1.00  0.00     0.153 C 
ENDBRANCH  10  11
ENDBRANCH   8  10
ENDBRANCH   6   8
ENDBRANCH   3   6
ENDBRANCH   1   2
BRANCH   1  17
ATOM     17  C   UNL A   1      37.603  20.085  24.846  1.00  0.00     0.042 C 
BRANCH  17  18
ATOM     18  C   UNL A   1      38.755  20.501  25.751  1.00  0.00     0.118 C 
BRANCH  18  19
ATOM     19  N   UNL A   1      39.794  19.481  25.837  1.00  0.00    -0.352 N 
ATOM     20  C   UNL A   1      41.135  19.605  26.103  1.00  0.00     0.251 C 
ATOM     21  H   UNL A   1      39.486  18.560  25.679  1.00  0.00     0.163 HD
ATOM     22  O   UNL A   1      41.883  18.651  25.927  1.00  0.00    -0.269 OA
BRANCH  20  23
ATOM     23  C   UNL A   1      41.682  20.893  26.582  1.00  0.00     0.039 A 
ATOM     24  C   UNL A   1      42.144  21.822  25.646  1.00  0.00     0.014 A 
ATOM     25  C   UNL A   1      41.753  21.180  27.947  1.00  0.00     0.014 A 
ATOM     26  C   UNL A   1      42.609  23.066  26.078  1.00  0.00     0.010 A 
ATOM     27  C   UNL A   1      42.126  22.451  28.369  1.00  0.00     0.010 A 
ATOM     28  C   UNL A   1      42.565  23.406  27.440  1.00  0.00    -0.014 A 
BRANCH  28  29
ATOM     29  C   UNL A   1      42.973  24.752  27.912  1.00  0.00     0.031 A 
ATOM     30  C   UNL A   1      41.935  25.807  28.185  1.00  0.00     0.074 A 
ATOM     31  C   UNL A   1      44.283  25.047  28.033  1.00  0.00     0.049 A 
ATOM     32  N   UNL A   1      42.100  27.053  28.549  1.00  0.00    -0.248 NA
ATOM     33  C   UNL A   1      40.527  25.418  28.000  1.00  0.00     0.031 C 
ATOM     34  C   UNL A   1      45.388  24.127  27.759  1.00  0.00     0.029 A 
ATOM     35  N   UNL A   1      44.906  26.209  28.413  1.00  0.00    -0.354 N 
ATOM     36  C   UNL A   1      40.824  27.597  28.619  1.00  0.00     0.074 A 
ATOM     37  C   UNL A   1      39.900  26.564  28.208  1.00  0.00     0.031 C 
ATOM     38  C   UNL A   1      46.551  24.749  28.010  1.00  0.00     0.029 A 
ATOM     39  C   UNL A   1      46.277  26.124  28.415  1.00  0.00     0.049 A 
ATOM     40  H   UNL A   1      44.416  27.027  28.662  1.00  0.00     0.167 HD
ATOM     41  C   UNL A   1      40.452  28.840  29.008  1.00  0.00     0.031 A 
ATOM     42  C   UNL A   1      47.210  27.051  28.699  1.00  0.00     0.031 A 
ATOM     43  C   UNL A   1      41.373  29.866  29.417  1.00  0.00     0.049 A 
ATOM     44  C   UNL A   1      46.772  28.432  29.102  1.00  0.00     0.074 A 
ATOM     45  C   UNL A   1      41.092  31.140  29.882  1.00  0.00     0.029 A 
ATOM     46  N   UNL A   1      42.753  29.740  29.404  1.00  0.00    -0.354 N 
ATOM     47  N   UNL A   1      45.558  28.908  29.237  1.00  0.00    -0.248 NA
ATOM     48  C   UNL A   1      47.835  29.400  29.404  1.00  0.00     0.031 C 
ATOM     49  C   UNL A   1      42.304  31.805  30.091  1.00  0.00     0.029 A 
ATOM     50  C   UNL A   1      43.339  30.922  29.825  1.00  0.00     0.049 A 
ATOM     51  H   UNL A   1      43.244  28.930  29.135  1.00  0.00     0.167 HD
ATOM     52  C   UNL A   1      45.711  30.220  29.669  1.00  0.00     0.074 A 
ATOM     53  C   UNL A   1      47.134  30.456  29.790  1.00  0.00     0.031 C 
ATOM     54  C   UNL A   1      44.757  31.144  29.941  1.00  0.00     0.031 A 
BRANCH  41  55
ATOM     55  C   UNL A   1      38.982  29.159  28.997  1.00  0.00    -0.014 A 
ATOM     56  C   UNL A   1      38.198  29.031  30.156  1.00  0.00     0.009 A 
ATOM     57  C   UNL A   1      38.378  29.630  27.820  1.00  0.00     0.009 A 
ATOM     58  C   UNL A   1      36.833  29.327  30.125  1.00  0.00     0.001 A 
ATOM     59  C   UNL A   1      37.021  29.957  27.802  1.00  0.00     0.001 A 
ATOM     60  C   UNL A   1      36.248  29.796  28.951  1.00  0.00     0.000 A 
ENDBRANCH  41  55
BRANCH  42  61
ATOM     61  C   UNL A   1      48.655  26.705  28.623  1.00  0.00    -0.014 A 
ATOM     62  C   UNL A   1      49.367  26.880  27.427  1.00  0.00     0.009 A 
ATOM     63  C   UNL A   1      49.327  26.189  29.742  1.00  0.00     0.009 A 
ATOM     64  C   UNL A   1      50.713  26.516  27.343  1.00  0.00     0.001 A 
ATOM     65  C   UNL A   1      50.681  25.857  29.666  1.00  0.00     0.001 A 
ATOM     66  C   UNL A   1      51.370  26.010  28.464  1.00  0.00     0.000 A 
ENDBRANCH  42  61
BRANCH  54  67
ATOM     67  C   UNL A   1      45.220  32.484  30.440  1.00  0.00    -0.014 A 
ATOM     68  C   UNL A   1      45.475  33.548  29.559  1.00  0.00     0.009 A 
ATOM     69  C   UNL A   1      45.364  32.696  31.820  1.00  0.00     0.009 A 
ATOM     70  C   UNL A   1      45.899  34.784  30.051  1.00  0.00     0.001 A 
ATOM     71  C   UNL A   1      45.755  33.942  32.311  1.00  0.00     0.001 A 
ATOM     72  C   UNL A   1      46.033  34.982  31.425  1.00  0.00     0.000 A 
ENDBRANCH  54  67
ENDBRANCH  28  29
ENDBRANCH  20  23
ENDBRANCH  18  19
ENDBRANCH  17  18
ENDBRANCH   1  17
TORSDOF 13
ENDMDL
MODEL 2
REMARK VINA RESULT:     -10.3      5.135      9.615
REMARK SMILES C[C@@H](Sc1nncn1C)[C@@H](C)C(=O)NCCCNC(=O)c1ccc(-c2c3nc(c(-c4ccccc4)c4ccc([nH]4)c(-c4ccccc4)c4nc(c(-c5ccccc5)c5ccc2[nH]5)C=C4)C=C3)cc1
REMARK SMILES IDX 15 1 14 2 12 3 13 4 10 6 11 7 2 8 1 9 3 10 4 11 5 12 8 13
REMARK SMILES IDX 6 14 7 15 9 16 16 17 17 18 18 19 19 20 20 22 21 23 22 24
REMARK SMILES IDX 68 25 23 26 67 27 24 28 25 29 26 30 61 31 27 32 66 33 60 34
REMARK SMILES IDX 62 35 28 36 65 37 59 38 58 39 29 41 51 42 36 43 50 44 37 45
REMARK SMILES IDX 40 46 49 47 63 48 38 49 39 50 48 52 64 53 41 54 30 55 31 56
REMARK SMILES IDX 35 57 32 58 34 59 33 60 52 61 53 62 57 63 54 64 56 65 55 66
REMARK SMILES IDX 42 67 43 68 47 69 44 70 46 71 45 72
REMARK H PARENT 14 5 18 21 62 40 40 51
REMARK Flexibility Score: inf
ROOT
ATOM      1  C   UNL A   1      31.689  29.855  25.794  1.00  0.00     0.117 C 
ENDROOT
BRANCH   1   2
ATOM      2  N   UNL A   1      32.649  29.742  24.711  1.00  0.00    -0.356 N 
ATOM      3  C   UNL A   1      33.134  28.666  24.040  1.00  0.00     0.223 C 
ATOM      4  O   UNL A   1      33.993  28.878  23.180  1.00  0.00    -0.275 OA
ATOM      5  H   UNL A   1      33.016  30.604  24.408  1.00  0.00     0.163 HD
BRANCH   3   6
ATOM      6  C   UNL A   1      32.585  27.260  24.254  1.00  0.00     0.088 C 
ATOM      7  C   UNL A   1      33.760  26.322  24.574  1.00  0.00     0.019 C 
BRANCH   6   8
ATOM      8  C   UNL A   1      31.624  26.785  23.136  1.00  0.00     0.064 C 
ATOM      9  C   UNL A   1      31.779  25.293  22.834  1.00  0.00     0.021 C 
BRANCH   8  10
ATOM     10  S   UNL A   1      29.877  27.067  23.647  1.00  0.00    -0.082 SA
BRANCH  10  11
ATOM     11  C   UNL A   1      29.387  28.403  22.666  1.00  0.00     0.191 A 
ATOM     12  N   UNL A   1      30.181  29.094  21.879  1.00  0.00    -0.124 NA
ATOM     13  N   UNL A   1      28.155  28.993  22.695  1.00  0.00    -0.312 N 
ATOM     14  N   UNL A   1      29.468  30.173  21.400  1.00  0.00    -0.138 NA
ATOM     15  C   UNL A   1      28.261  30.107  21.911  1.00  0.00     0.226 A 
ATOM     16  C   UNL A   1      26.947  28.583  23.357  1.00  0.00     0.153 C 
ENDBRANCH  10  11
ENDBRANCH   8  10
ENDBRANCH   6   8
ENDBRANCH   3   6
ENDBRANCH   1   2
BRANCH   1  17
ATOM     17  C   UNL A   1      31.470  31.308  26.196  1.00  0.00     0.042 C 
BRANCH  17  18
ATOM     18  C   UNL A   1      32.626  31.901  26.992  1.00  0.00     0.118 C 
BRANCH  18  19
ATOM     19  N   UNL A   1      32.375  33.280  27.394  1.00  0.00    -0.352 N 
ATOM     20  C   UNL A   1      33.068  34.087  28.263  1.00  0.00     0.251 C 
ATOM     21  H   UNL A   1      31.587  33.698  26.979  1.00  0.00     0.163 HD
ATOM     22  O   UNL A   1      32.581  35.151  28.629  1.00  0.00    -0.269 OA
BRANCH  20  23
ATOM     23  C   UNL A   1      34.391  33.667  28.775  1.00  0.00     0.039 A 
ATOM     24  C   UNL A   1      34.468  33.062  30.032  1.00  0.00     0.014 A 
ATOM     25  C   UNL A   1      35.551  33.879  28.027  1.00  0.00     0.014 A 
ATOM     26  C   UNL A   1      35.700  32.607  30.505  1.00  0.00     0.010 A 
ATOM     27  C   UNL A   1      36.759  33.341  28.455  1.00  0.00     0.010 A 
ATOM     28  C   UNL A   1      36.849  32.705  29.702  1.00  0.00    -0.014 A 
BRANCH  28  29
ATOM     29  C   UNL A   1      38.152  32.151  30.148  1.00  0.00     0.031 A 
ATOM     30  C   UNL A   1      38.635  30.829  29.614  1.00  0.00     0.074 A 
ATOM     31  C   UNL A   1      38.869  32.804  31.083  1.00  0.00     0.049 A 
ATOM     32  N   UNL A   1      39.716  30.159  29.925  1.00  0.00    -0.248 NA
ATOM     33  C   UNL A   1      37.780  30.161  28.619  1.00  0.00     0.031 C 
ATOM     34  C   UNL A   1      38.489  34.072  31.710  1.00  0.00     0.029 A 
ATOM     35  N   UNL A   1      40.066  32.488  31.673  1.00  0.00    -0.354 N 
ATOM     36  C   UNL A   1      39.660  28.989  29.180  1.00  0.00     0.074 A 
ATOM     37  C   UNL A   1      38.416  29.013  28.443  1.00  0.00     0.031 C 
ATOM     38  C   UNL A   1      39.450  34.440  32.573  1.00  0.00     0.029 A 
ATOM     39  C   UNL A   1      40.487  33.414  32.597  1.00  0.00     0.049 A 
ATOM     40  H   UNL A   1      40.577  31.674  31.455  1.00  0.00     0.167 HD
ATOM     41  C   UNL A   1      40.572  27.990  29.101  1.00  0.00     0.031 A 
ATOM     42  C   UNL A   1      41.580  33.432  33.383  1.00  0.00     0.031 A 
ATOM     43  C   UNL A   1      41.809  27.967  29.833  1.00  0.00     0.049 A 
ATOM     44  C   UNL A   1      42.563  32.297  33.296  1.00  0.00     0.074 A 
ATOM     45  C   UNL A   1      42.824  27.027  29.779  1.00  0.00     0.029 A 
ATOM     46  N   UNL A   1      42.197  28.924  30.757  1.00  0.00    -0.354 N 
ATOM     47  N   UNL A   1      42.533  31.234  32.529  1.00  0.00    -0.248 NA
ATOM     48  C   UNL A   1      43.737  32.372  34.175  1.00  0.00     0.031 C 
ATOM     49  C   UNL A   1      43.798  27.383  30.717  1.00  0.00     0.029 A 
ATOM     50  C   UNL A   1      43.423  28.582  31.303  1.00  0.00     0.049 A 
ATOM     51  H   UNL A   1      41.677  29.727  30.992  1.00  0.00     0.167 HD
ATOM     52  C   UNL A   1      43.697  30.530  32.811  1.00  0.00     0.074 A 
ATOM     53  C   UNL A   1      44.419  31.298  33.805  1.00  0.00     0.031 C 
ATOM     54  C   UNL A   1      44.130  29.356  32.292  1.00  0.00     0.031 A 
BRANCH  41  55
ATOM     55  C   UNL A   1      40.254  26.831  28.194  1.00  0.00    -0.014 A 
ATOM     56  C   UNL A   1      40.755  26.772  26.883  1.00  0.00     0.009 A 
ATOM     57  C   UNL A   1      39.472  25.767  28.669  1.00  0.00     0.009 A 
ATOM     58  C   UNL A   1      40.445  25.691  26.054  1.00  0.00     0.001 A 
ATOM     59  C   UNL A   1      39.192  24.672  27.849  1.00  0.00     0.001 A 
ATOM     60  C   UNL A   1      39.670  24.639  26.540  1.00  0.00     0.000 A 
ENDBRANCH  41  55
BRANCH  42  61
ATOM     61  C   UNL A   1      41.810  34.566  34.317  1.00  0.00    -0.014 A 
ATOM     62  C   UNL A   1      41.346  34.504  35.640  1.00  0.00     0.009 A 
ATOM     63  C   UNL A   1      42.486  35.719  33.889  1.00  0.00     0.009 A 
ATOM     64  C   UNL A   1      41.525  35.586  36.505  1.00  0.00     0.001 A 
ATOM     65  C   UNL A   1      42.693  36.786  34.766  1.00  0.00     0.001 A 
ATOM     66  C   UNL A   1      42.204  36.723  36.070  1.00  0.00     0.000 A 
ENDBRANCH  42  61
BRANCH  54  67
ATOM     67  C   UNL A   1      45.467  28.848  32.756  1.00  0.00    -0.014 A 
ATOM     68  C   UNL A   1      45.581  27.979  33.853  1.00  0.00     0.009 A 
ATOM     69  C   UNL A   1      46.627  29.216  32.057  1.00  0.00     0.009 A 
ATOM     70  C   UNL A   1      46.835  27.519  34.261  1.00  0.00     0.001 A 
ATOM     71  C   UNL A   1      47.875  28.727  32.445  1.00  0.00     0.001 A 
ATOM     72  C   UNL A   1      47.979  27.888  33.553  1.00  0.00     0.000 A 
ENDBRANCH  54  67
ENDBRANCH  28  29
ENDBRANCH  20  23
ENDBRANCH  18  19
ENDBRANCH  17  18
ENDBRANCH   1  17
TORSDOF 13
ENDMDL
MODEL 3
REMARK VINA RESULT:     -10.1      1.994      2.546
REMARK SMILES C[C@@H](Sc1nncn1C)[C@@H](C)C(=O)NCCCNC(=O)c1ccc(-c2c3nc(c(-c4ccccc4)c4ccc([nH]4)c(-c4ccccc4)c4nc(c(-c5ccccc5)c5ccc2[nH]5)C=C4)C=C3)cc1
REMARK SMILES IDX 15 1 14 2 12 3 13 4 10 6 11 7 2 8 1 9 3 10 4 11 5 12 8 13
REMARK SMILES IDX 6 14 7 15 9 16 16 17 17 18 18 19 19 20 20 22 21 23 22 24
REMARK SMILES IDX 68 25 23 26 67 27 24 28 25 29 26 30 61 31 27 32 66 33 60 34
REMARK SMILES IDX 62 35 28 36 65 37 59 38 58 39 29 41 51 42 36 43 50 44 37 45
REMARK SMILES IDX 40 46 49 47 63 48 38 49 39 50 48 52 64 53 41 54 30 55 31 56
REMARK SMILES IDX 35 57 32 58 34 59 33 60 52 61 53 62 57 63 54 64 56 65 55 66
REMARK SMILES IDX 42 67 43 68 47 69 44 70 46 71 45 72
REMARK H PARENT 14 5 18 21 62 40 40 51
REMARK Flexibility Score: inf
ROOT
ATOM      1  C   UNL A   1      36.793  20.622  25.029  1.00  0.00     0.117 C 
ENDROOT
BRANCH   1   2
ATOM      2  N   UNL A   1      36.902  21.599  23.960  1.00  0.00    -0.356 N 
ATOM      3  C   UNL A   1      36.562  22.912  23.894  1.00  0.00     0.223 C 
ATOM      4  O   UNL A   1      36.735  23.485  22.816  1.00  0.00    -0.275 OA
ATOM      5  H   UNL A   1      37.295  21.243  23.131  1.00  0.00     0.163 HD
BRANCH   3   6
ATOM      6  C   UNL A   1      36.077  23.687  25.114  1.00  0.00     0.088 C 
ATOM      7  C   UNL A   1      37.196  23.686  26.167  1.00  0.00     0.019 C 
BRANCH   6   8
ATOM      8  C   UNL A   1      34.675  23.256  25.614  1.00  0.00     0.064 C 
ATOM      9  C   UNL A   1      34.688  22.845  27.087  1.00  0.00     0.021 C 
BRANCH   8  10
ATOM     10  S   UNL A   1      33.489  24.655  25.440  1.00  0.00    -0.082 SA
BRANCH  10  11
ATOM     11  C   UNL A   1      31.992  23.975  25.974  1.00  0.00     0.191 A 
ATOM     12  N   UNL A   1      31.391  24.269  27.105  1.00  0.00    -0.124 NA
ATOM     13  N   UNL A   1      31.327  22.952  25.361  1.00  0.00    -0.312 N 
ATOM     14  N   UNL A   1      30.324  23.408  27.253  1.00  0.00    -0.138 NA
ATOM     15  C   UNL A   1      30.309  22.614  26.208  1.00  0.00     0.226 A 
ATOM     16  C   UNL A   1      31.561  22.325  24.090  1.00  0.00     0.153 C 
ENDBRANCH  10  11
ENDBRANCH   8  10
ENDBRANCH   6   8
ENDBRANCH   3   6
ENDBRANCH   1   2
BRANCH   1  17
ATOM     17  C   UNL A   1      37.952  19.635  25.004  1.00  0.00     0.042 C 
BRANCH  17  18
ATOM     18  C   UNL A   1      39.188  20.125  25.748  1.00  0.00     0.118 C 
BRANCH  18  19
ATOM     19  N   UNL A   1      40.201  19.086  25.892  1.00  0.00    -0.352 N 
ATOM     20  C   UNL A   1      41.556  19.194  26.087  1.00  0.00     0.251 C 
ATOM     21  H   UNL A   1      39.861  18.163  25.841  1.00  0.00     0.163 HD
ATOM     22  O   UNL A   1      42.269  18.203  25.976  1.00  0.00    -0.269 OA
BRANCH  20  23
ATOM     23  C   UNL A   1      42.159  20.504  26.410  1.00  0.00     0.039 A 
ATOM     24  C   UNL A   1      42.645  21.300  25.368  1.00  0.00     0.014 A 
ATOM     25  C   UNL A   1      42.258  20.944  27.731  1.00  0.00     0.014 A 
ATOM     26  C   UNL A   1      43.164  22.565  25.650  1.00  0.00     0.010 A 
ATOM     27  C   UNL A   1      42.686  22.238  28.001  1.00  0.00     0.010 A 
ATOM     28  C   UNL A   1      43.151  23.061  26.965  1.00  0.00    -0.014 A 
BRANCH  28  29
ATOM     29  C   UNL A   1      43.618  24.435  27.275  1.00  0.00     0.031 A 
ATOM     30  C   UNL A   1      42.631  25.497  27.680  1.00  0.00     0.074 A 
ATOM     31  C   UNL A   1      44.921  24.745  27.128  1.00  0.00     0.049 A 
ATOM     32  N   UNL A   1      42.841  26.764  27.936  1.00  0.00    -0.248 NA
ATOM     33  C   UNL A   1      41.221  25.089  27.787  1.00  0.00     0.031 C 
ATOM     34  C   UNL A   1      45.970  23.817  26.702  1.00  0.00     0.029 A 
ATOM     35  N   UNL A   1      45.584  25.931  27.319  1.00  0.00    -0.354 N 
ATOM     36  C   UNL A   1      41.592  27.303  28.215  1.00  0.00     0.074 A 
ATOM     37  C   UNL A   1      40.624  26.242  28.046  1.00  0.00     0.031 C 
ATOM     38  C   UNL A   1      47.149  24.461  26.693  1.00  0.00     0.029 A 
ATOM     39  C   UNL A   1      46.932  25.855  27.065  1.00  0.00     0.049 A 
ATOM     40  H   UNL A   1      45.137  26.759  27.610  1.00  0.00     0.167 HD
ATOM     41  C   UNL A   1      41.279  28.564  28.598  1.00  0.00     0.031 A 
ATOM     42  C   UNL A   1      47.887  26.803  27.115  1.00  0.00     0.031 A 
ATOM     43  C   UNL A   1      42.242  29.618  28.767  1.00  0.00     0.049 A 
ATOM     44  C   UNL A   1      47.509  28.202  27.516  1.00  0.00     0.074 A 
ATOM     45  C   UNL A   1      42.032  30.914  29.205  1.00  0.00     0.029 A 
ATOM     46  N   UNL A   1      43.597  29.500  28.501  1.00  0.00    -0.354 N 
ATOM     47  N   UNL A   1      46.334  28.677  27.852  1.00  0.00    -0.248 NA
ATOM     48  C   UNL A   1      48.593  29.192  27.557  1.00  0.00     0.031 C 
ATOM     49  C   UNL A   1      43.250  31.598  29.143  1.00  0.00     0.029 A 
ATOM     50  C   UNL A   1      44.231  30.708  28.736  1.00  0.00     0.049 A 
ATOM     51  H   UNL A   1      44.042  28.678  28.189  1.00  0.00     0.167 HD
ATOM     52  C   UNL A   1      46.543  30.013  28.172  1.00  0.00     0.074 A 
ATOM     53  C   UNL A   1      47.959  30.265  28.009  1.00  0.00     0.031 C 
ATOM     54  C   UNL A   1      45.642  30.945  28.569  1.00  0.00     0.031 A 
BRANCH  41  55
ATOM     55  C   UNL A   1      39.827  28.873  28.848  1.00  0.00    -0.014 A 
ATOM     56  C   UNL A   1      38.989  29.326  27.816  1.00  0.00     0.009 A 
ATOM     57  C   UNL A   1      39.281  28.674  30.127  1.00  0.00     0.009 A 
ATOM     58  C   UNL A   1      37.645  29.612  28.069  1.00  0.00     0.001 A 
ATOM     59  C   UNL A   1      37.930  28.929  30.368  1.00  0.00     0.001 A 
ATOM     60  C   UNL A   1      37.116  29.407  29.342  1.00  0.00     0.000 A 
ENDBRANCH  41  55
BRANCH  42  61
ATOM     61  C   UNL A   1      49.297  26.462  26.786  1.00  0.00    -0.014 A 
ATOM     62  C   UNL A   1      49.772  26.590  25.472  1.00  0.00     0.009 A 
ATOM     63  C   UNL A   1      50.171  25.998  27.781  1.00  0.00     0.009 A 
ATOM     64  C   UNL A   1      51.084  26.231  25.155  1.00  0.00     0.001 A 
ATOM     65  C   UNL A   1      51.492  25.671  27.468  1.00  0.00     0.001 A 
ATOM     66  C   UNL A   1      51.945  25.776  26.154  1.00  0.00     0.000 A 
ENDBRANCH  42  61
BRANCH  54  67
ATOM     67  C   UNL A   1      46.168  32.315  28.896  1.00  0.00    -0.014 A 
ATOM     68  C   UNL A   1      46.471  32.691  30.214  1.00  0.00     0.009 A 
ATOM     69  C   UNL A   1      46.402  33.231  27.858  1.00  0.00     0.009 A 
ATOM     70  C   UNL A   1      46.963  33.969  30.489  1.00  0.00     0.001 A 
ATOM     71  C   UNL A   1      46.926  34.495  28.131  1.00  0.00     0.001 A 
ATOM     72  C   UNL A   1      47.195  34.866  29.447  1.00  0.00     0.000 A 
ENDBRANCH  54  67
ENDBRANCH  28  29
ENDBRANCH  20  23
ENDBRANCH  18  19
ENDBRANCH  17  18
ENDBRANCH   1  17
TORSDOF 13
ENDMDL
