MODEL 1
REMARK VINA RESULT:      -9.9      0.000      0.000
REMARK SMILES C[C@@H](CC(=O)NCCCNC(=O)c1ccc(-c2c3nc(c(-c4ccccc4)c4ccc([nH]4)c(-c4ccccc4)c4nc(c(-c5ccccc5)c5ccc2[nH]5)C=C4)C=C3)cc1)NC(=O)CN(C)c1ncccn1
REMARK SMILES IDX 4 1 5 2 6 3 3 5 2 6 1 7 61 8 62 9 63 11 64 12 65 13 66 14
REMARK SMILES IDX 67 15 68 16 72 17 69 18 71 19 70 20 7 21 8 22 9 23 10 24
REMARK SMILES IDX 11 25 12 27 13 28 14 29 60 30 15 31 59 32 16 33 17 34 18 35
REMARK SMILES IDX 53 36 19 37 58 38 52 39 54 40 20 41 57 42 51 43 50 44 21 46
REMARK SMILES IDX 43 47 28 48 42 49 29 50 32 51 41 52 55 53 30 54 31 55 40 57
REMARK SMILES IDX 56 58 33 59 22 60 23 61 27 62 24 63 26 64 25 65 44 66 45 67
REMARK SMILES IDX 49 68 46 69 48 70 47 71 34 72 35 73 39 74 36 75 38 76 37 77
REMARK H PARENT 6 4 61 10 10 26 54 45 32 56
REMARK Flexibility Score: inf
ROOT
ATOM      1  C   UNL A   1      32.645  28.581  26.708  1.00  0.00     0.222 C 
ATOM      2  O   UNL A   1      33.760  28.186  27.058  1.00  0.00    -0.275 OA
ATOM      3  N   UNL A   1      32.570  29.795  26.102  1.00  0.00    -0.356 N 
ATOM      4  H   UNL A   1      33.443  30.209  25.914  1.00  0.00     0.163 HD
ENDROOT
BRANCH   1   5
ATOM      5  C   UNL A   1      31.416  27.728  26.948  1.00  0.00     0.124 C 
BRANCH   5   6
ATOM      6  C   UNL A   1      31.077  26.759  25.803  1.00  0.00     0.088 C 
ATOM      7  C   UNL A   1      30.220  25.602  26.297  1.00  0.00     0.031 C 
BRANCH   6   8
ATOM      8  N   UNL A   1      32.271  26.257  25.133  1.00  0.00    -0.352 N 
ATOM      9  C   UNL A   1      32.532  26.114  23.797  1.00  0.00     0.239 C 
ATOM     10  H   UNL A   1      33.000  25.977  25.732  1.00  0.00     0.163 HD
ATOM     11  O   UNL A   1      33.598  25.577  23.479  1.00  0.00    -0.273 OA
BRANCH   9  12
ATOM     12  C   UNL A   1      31.618  26.753  22.743  1.00  0.00     0.219 C 
BRANCH  12  13
ATOM     13  N   UNL A   1      31.560  28.214  22.742  1.00  0.00    -0.335 N 
ATOM     14  C   UNL A   1      32.757  28.988  22.500  1.00  0.00     0.147 C 
BRANCH  13  15
ATOM     15  C   UNL A   1      30.342  28.833  22.539  1.00  0.00     0.225 A 
ATOM     16  N   UNL A   1      29.237  28.282  23.073  1.00  0.00    -0.221 NA
ATOM     17  N   UNL A   1      30.292  29.922  21.761  1.00  0.00    -0.221 NA
ATOM     18  C   UNL A   1      28.054  28.873  22.821  1.00  0.00     0.117 A 
ATOM     19  C   UNL A   1      29.086  30.464  21.505  1.00  0.00     0.117 A 
ATOM     20  C   UNL A   1      27.915  29.976  22.021  1.00  0.00     0.040 A 
ENDBRANCH  13  15
ENDBRANCH  12  13
ENDBRANCH   9  12
ENDBRANCH   6   8
ENDBRANCH   5   6
ENDBRANCH   1   5
BRANCH   3  21
ATOM     21  C   UNL A   1      31.428  30.591  25.681  1.00  0.00     0.117 C 
BRANCH  21  22
ATOM     22  C   UNL A   1      31.278  31.858  26.522  1.00  0.00     0.042 C 
BRANCH  22  23
ATOM     23  C   UNL A   1      32.590  32.402  27.074  1.00  0.00     0.118 C 
BRANCH  23  24
ATOM     24  N   UNL A   1      32.446  33.757  27.574  1.00  0.00    -0.352 N 
ATOM     25  C   UNL A   1      33.187  34.425  28.516  1.00  0.00     0.251 C 
ATOM     26  H   UNL A   1      31.707  34.274  27.179  1.00  0.00     0.163 HD
ATOM     27  O   UNL A   1      32.760  35.486  28.976  1.00  0.00    -0.269 OA
BRANCH  25  28
ATOM     28  C   UNL A   1      34.481  33.888  29.001  1.00  0.00     0.039 A 
ATOM     29  C   UNL A   1      34.481  33.043  30.116  1.00  0.00     0.014 A 
ATOM     30  C   UNL A   1      35.695  34.248  28.409  1.00  0.00     0.014 A 
ATOM     31  C   UNL A   1      35.685  32.525  30.603  1.00  0.00     0.010 A 
ATOM     32  C   UNL A   1      36.886  33.666  28.843  1.00  0.00     0.010 A 
ATOM     33  C   UNL A   1      36.897  32.810  29.954  1.00  0.00    -0.014 A 
BRANCH  33  34
ATOM     34  C   UNL A   1      38.181  32.238  30.438  1.00  0.00     0.031 A 
ATOM     35  C   UNL A   1      38.697  30.940  29.875  1.00  0.00     0.074 A 
ATOM     36  C   UNL A   1      38.863  32.859  31.420  1.00  0.00     0.049 A 
ATOM     37  N   UNL A   1      39.773  30.268  30.201  1.00  0.00    -0.248 NA
ATOM     38  C   UNL A   1      37.887  30.302  28.825  1.00  0.00     0.031 C 
ATOM     39  C   UNL A   1      38.459  34.102  32.080  1.00  0.00     0.029 A 
ATOM     40  N   UNL A   1      40.044  32.526  32.035  1.00  0.00    -0.354 N 
ATOM     41  C   UNL A   1      39.758  29.123  29.414  1.00  0.00     0.074 A 
ATOM     42  C   UNL A   1      38.543  29.168  28.627  1.00  0.00     0.031 C 
ATOM     43  C   UNL A   1      39.390  34.442  32.985  1.00  0.00     0.029 A 
ATOM     44  C   UNL A   1      40.436  33.424  32.999  1.00  0.00     0.049 A 
ATOM     45  H   UNL A   1      40.561  31.719  31.808  1.00  0.00     0.167 HD
ATOM     46  C   UNL A   1      40.677  28.133  29.334  1.00  0.00     0.031 A 
ATOM     47  C   UNL A   1      41.513  33.427  33.806  1.00  0.00     0.031 A 
ATOM     48  C   UNL A   1      41.894  28.091  30.099  1.00  0.00     0.049 A 
ATOM     49  C   UNL A   1      42.515  32.312  33.705  1.00  0.00     0.074 A 
ATOM     50  C   UNL A   1      42.919  27.162  30.041  1.00  0.00     0.029 A 
ATOM     51  N   UNL A   1      42.251  29.020  31.063  1.00  0.00    -0.354 N 
ATOM     52  N   UNL A   1      42.516  31.273  32.909  1.00  0.00    -0.248 NA
ATOM     53  C   UNL A   1      43.670  32.378  34.614  1.00  0.00     0.031 C 
ATOM     54  C   UNL A   1      43.873  27.502  31.005  1.00  0.00     0.029 A 
ATOM     55  C   UNL A   1      43.467  28.672  31.627  1.00  0.00     0.049 A 
ATOM     56  H   UNL A   1      41.718  29.810  31.311  1.00  0.00     0.167 HD
ATOM     57  C   UNL A   1      43.678  30.571  33.203  1.00  0.00     0.074 A 
ATOM     58  C   UNL A   1      44.366  31.313  34.239  1.00  0.00     0.031 C 
ATOM     59  C   UNL A   1      44.135  29.415  32.663  1.00  0.00     0.031 A 
BRANCH  46  60
ATOM     60  C   UNL A   1      40.396  27.002  28.384  1.00  0.00    -0.014 A 
ATOM     61  C   UNL A   1      39.619  25.899  28.773  1.00  0.00     0.009 A 
ATOM     62  C   UNL A   1      40.884  27.056  27.069  1.00  0.00     0.009 A 
ATOM     63  C   UNL A   1      39.371  24.857  27.878  1.00  0.00     0.001 A 
ATOM     64  C   UNL A   1      40.611  26.025  26.167  1.00  0.00     0.001 A 
ATOM     65  C   UNL A   1      39.862  24.923  26.576  1.00  0.00     0.000 A 
ENDBRANCH  46  60
BRANCH  47  66
ATOM     66  C   UNL A   1      41.709  34.535  34.777  1.00  0.00    -0.014 A 
ATOM     67  C   UNL A   1      41.186  34.442  36.075  1.00  0.00     0.009 A 
ATOM     68  C   UNL A   1      42.417  35.690  34.411  1.00  0.00     0.009 A 
ATOM     69  C   UNL A   1      41.348  35.494  36.980  1.00  0.00     0.001 A 
ATOM     70  C   UNL A   1      42.600  36.728  35.326  1.00  0.00     0.001 A 
ATOM     71  C   UNL A   1      42.059  36.634  36.606  1.00  0.00     0.000 A 
ENDBRANCH  47  66
BRANCH  59  72
ATOM     72  C   UNL A   1      45.449  28.894  33.170  1.00  0.00    -0.014 A 
ATOM     73  C   UNL A   1      46.661  29.297  32.591  1.00  0.00     0.009 A 
ATOM     74  C   UNL A   1      45.474  28.017  34.265  1.00  0.00     0.009 A 
ATOM     75  C   UNL A   1      47.873  28.806  33.080  1.00  0.00     0.001 A 
ATOM     76  C   UNL A   1      46.689  27.549  34.770  1.00  0.00     0.001 A 
ATOM     77  C   UNL A   1      47.887  27.937  34.171  1.00  0.00     0.000 A 
ENDBRANCH  59  72
ENDBRANCH  33  34
ENDBRANCH  25  28
ENDBRANCH  23  24
ENDBRANCH  22  23
ENDBRANCH  21  22
ENDBRANCH   3  21
TORSDOF 15
ENDMDL
MODEL 2
REMARK VINA RESULT:      -9.9      1.953      7.033
REMARK SMILES C[C@@H](CC(=O)NCCCNC(=O)c1ccc(-c2c3nc(c(-c4ccccc4)c4ccc([nH]4)c(-c4ccccc4)c4nc(c(-c5ccccc5)c5ccc2[nH]5)C=C4)C=C3)cc1)NC(=O)CN(C)c1ncccn1
REMARK SMILES IDX 4 1 5 2 6 3 3 5 2 6 1 7 61 8 62 9 63 11 64 12 65 13 66 14
REMARK SMILES IDX 67 15 68 16 72 17 69 18 71 19 70 20 7 21 8 22 9 23 10 24
REMARK SMILES IDX 11 25 12 27 13 28 14 29 60 30 15 31 59 32 16 33 17 34 18 35
REMARK SMILES IDX 53 36 19 37 58 38 52 39 54 40 20 41 57 42 51 43 50 44 21 46
REMARK SMILES IDX 43 47 28 48 42 49 29 50 32 51 41 52 55 53 30 54 31 55 40 57
REMARK SMILES IDX 56 58 33 59 22 60 23 61 27 62 24 63 26 64 25 65 44 66 45 67
REMARK SMILES IDX 49 68 46 69 48 70 47 71 34 72 35 73 39 74 36 75 38 76 37 77
REMARK H PARENT 6 4 61 10 10 26 54 45 32 56
REMARK Flexibility Score: inf
ROOT
ATOM      1  C   UNL A   1      33.527  26.319  25.549  1.00  0.00     0.222 C 
ATOM      2  O   UNL A   1      33.757  27.486  25.224  1.00  0.00    -0.275 OA
ATOM      3  N   UNL A   1      34.515  25.406  25.354  1.00  0.00    -0.356 N 
ATOM      4  H   UNL A   1      35.369  25.791  25.051  1.00  0.00     0.163 HD
ENDROOT
BRANCH   1   5
ATOM      5  C   UNL A   1      32.189  25.936  26.146  1.00  0.00     0.124 C 
BRANCH   5   6
ATOM      6  C   UNL A   1      31.115  25.552  25.115  1.00  0.00     0.088 C 
ATOM      7  C   UNL A   1      30.843  24.054  25.136  1.00  0.00     0.031 C 
BRANCH   6   8
ATOM      8  N   UNL A   1      31.465  25.986  23.767  1.00  0.00    -0.352 N 
ATOM      9  C   UNL A   1      30.781  26.795  22.901  1.00  0.00     0.239 C 
ATOM     10  H   UNL A   1      32.323  25.642  23.427  1.00  0.00     0.163 HD
ATOM     11  O   UNL A   1      31.252  26.945  21.768  1.00  0.00    -0.273 OA
BRANCH   9  12
ATOM     12  C   UNL A   1      29.578  27.620  23.377  1.00  0.00     0.219 C 
BRANCH  12  13
ATOM     13  N   UNL A   1      29.842  29.022  23.691  1.00  0.00    -0.335 N 
ATOM     14  C   UNL A   1      31.058  29.395  24.381  1.00  0.00     0.147 C 
BRANCH  13  15
ATOM     15  C   UNL A   1      29.183  30.002  22.975  1.00  0.00     0.225 A 
ATOM     16  N   UNL A   1      28.793  29.734  21.716  1.00  0.00    -0.221 NA
ATOM     17  N   UNL A   1      29.016  31.209  23.533  1.00  0.00    -0.221 NA
ATOM     18  C   UNL A   1      28.198  30.720  21.019  1.00  0.00     0.117 A 
ATOM     19  C   UNL A   1      28.447  32.177  22.791  1.00  0.00     0.117 A 
ATOM     20  C   UNL A   1      28.006  31.985  21.508  1.00  0.00     0.040 A 
ENDBRANCH  13  15
ENDBRANCH  12  13
ENDBRANCH   9  12
ENDBRANCH   6   8
ENDBRANCH   5   6
ENDBRANCH   1   5
BRANCH   3  21
ATOM     21  C   UNL A   1      34.534  23.961  25.512  1.00  0.00     0.117 C 
BRANCH  21  22
ATOM     22  C   UNL A   1      35.857  23.472  26.103  1.00  0.00     0.042 C 
BRANCH  22  23
ATOM     23  C   UNL A   1      37.057  23.651  25.183  1.00  0.00     0.118 C 
BRANCH  23  24
ATOM     24  N   UNL A   1      38.121  22.713  25.492  1.00  0.00    -0.352 N 
ATOM     25  C   UNL A   1      39.331  22.931  26.100  1.00  0.00     0.251 C 
ATOM     26  H   UNL A   1      37.949  21.781  25.225  1.00  0.00     0.163 HD
ATOM     27  O   UNL A   1      40.194  22.053  26.056  1.00  0.00    -0.269 OA
BRANCH  25  28
ATOM     28  C   UNL A   1      39.625  24.208  26.795  1.00  0.00     0.039 A 
ATOM     29  C   UNL A   1      39.176  24.376  28.108  1.00  0.00     0.014 A 
ATOM     30  C   UNL A   1      40.287  25.258  26.153  1.00  0.00     0.014 A 
ATOM     31  C   UNL A   1      39.432  25.570  28.789  1.00  0.00     0.010 A 
ATOM     32  C   UNL A   1      40.614  26.416  26.858  1.00  0.00     0.010 A 
ATOM     33  C   UNL A   1      40.177  26.592  28.179  1.00  0.00    -0.014 A 
BRANCH  33  34
ATOM     34  C   UNL A   1      40.487  27.853  28.902  1.00  0.00     0.031 A 
ATOM     35  C   UNL A   1      41.814  28.030  29.591  1.00  0.00     0.074 A 
ATOM     36  C   UNL A   1      39.558  28.826  28.982  1.00  0.00     0.049 A 
ATOM     37  N   UNL A   1      42.247  29.040  30.304  1.00  0.00    -0.248 NA
ATOM     38  C   UNL A   1      42.772  26.916  29.487  1.00  0.00     0.031 C 
ATOM     39  C   UNL A   1      38.219  28.772  28.392  1.00  0.00     0.029 A 
ATOM     40  N   UNL A   1      39.601  30.054  29.595  1.00  0.00    -0.354 N 
ATOM     41  C   UNL A   1      43.514  28.676  30.746  1.00  0.00     0.074 A 
ATOM     42  C   UNL A   1      43.761  27.335  30.262  1.00  0.00     0.031 C 
ATOM     43  C   UNL A   1      37.579  29.925  28.646  1.00  0.00     0.029 A 
ATOM     44  C   UNL A   1      38.445  30.783  29.448  1.00  0.00     0.049 A 
ATOM     45  H   UNL A   1      40.385  30.380  30.093  1.00  0.00     0.167 HD
ATOM     46  C   UNL A   1      44.401  29.397  31.473  1.00  0.00     0.031 A 
ATOM     47  C   UNL A   1      38.117  32.004  29.909  1.00  0.00     0.031 A 
ATOM     48  C   UNL A   1      44.168  30.736  31.941  1.00  0.00     0.049 A 
ATOM     49  C   UNL A   1      39.115  32.781  30.720  1.00  0.00     0.074 A 
ATOM     50  C   UNL A   1      45.032  31.571  32.630  1.00  0.00     0.029 A 
ATOM     51  N   UNL A   1      42.986  31.437  31.771  1.00  0.00    -0.354 N 
ATOM     52  N   UNL A   1      40.332  32.447  31.073  1.00  0.00    -0.248 NA
ATOM     53  C   UNL A   1      38.694  34.109  31.191  1.00  0.00     0.031 C 
ATOM     54  C   UNL A   1      44.354  32.760  32.918  1.00  0.00     0.029 A 
ATOM     55  C   UNL A   1      43.086  32.684  32.364  1.00  0.00     0.049 A 
ATOM     56  H   UNL A   1      42.191  31.098  31.299  1.00  0.00     0.167 HD
ATOM     57  C   UNL A   1      40.830  33.528  31.788  1.00  0.00     0.074 A 
ATOM     58  C   UNL A   1      39.790  34.536  31.803  1.00  0.00     0.031 C 
ATOM     59  C   UNL A   1      42.040  33.673  32.379  1.00  0.00     0.031 A 
BRANCH  46  60
ATOM     60  C   UNL A   1      45.711  28.742  31.811  1.00  0.00    -0.014 A 
ATOM     61  C   UNL A   1      46.826  28.864  30.967  1.00  0.00     0.009 A 
ATOM     62  C   UNL A   1      45.843  28.021  33.008  1.00  0.00     0.009 A 
ATOM     63  C   UNL A   1      48.034  28.245  31.295  1.00  0.00     0.001 A 
ATOM     64  C   UNL A   1      47.061  27.426  33.348  1.00  0.00     0.001 A 
ATOM     65  C   UNL A   1      48.151  27.532  32.487  1.00  0.00     0.000 A 
ENDBRANCH  46  60
BRANCH  47  66
ATOM     66  C   UNL A   1      36.781  32.579  29.603  1.00  0.00    -0.014 A 
ATOM     67  C   UNL A   1      36.565  33.273  28.403  1.00  0.00     0.009 A 
ATOM     68  C   UNL A   1      35.719  32.439  30.508  1.00  0.00     0.009 A 
ATOM     69  C   UNL A   1      35.317  33.836  28.126  1.00  0.00     0.001 A 
ATOM     70  C   UNL A   1      34.465  32.980  30.217  1.00  0.00     0.001 A 
ATOM     71  C   UNL A   1      34.266  33.685  29.031  1.00  0.00     0.000 A 
ENDBRANCH  47  66
BRANCH  59  72
ATOM     72  C   UNL A   1      42.312  34.976  33.075  1.00  0.00    -0.014 A 
ATOM     73  C   UNL A   1      41.814  35.228  34.362  1.00  0.00     0.009 A 
ATOM     74  C   UNL A   1      43.106  35.948  32.447  1.00  0.00     0.009 A 
ATOM     75  C   UNL A   1      42.082  36.443  34.995  1.00  0.00     0.001 A 
ATOM     76  C   UNL A   1      43.395  37.151  33.094  1.00  0.00     0.001 A 
ATOM     77  C   UNL A   1      42.875  37.401  34.364  1.00  0.00     0.000 A 
ENDBRANCH  59  72
ENDBRANCH  33  34
ENDBRANCH  25  28
ENDBRANCH  23  24
ENDBRANCH  22  23
ENDBRANCH  21  22
ENDBRANCH   3  21
TORSDOF 15
ENDMDL
MODEL 3
REMARK VINA RESULT:      -9.9      1.533      3.187
REMARK SMILES C[C@@H](CC(=O)NCCCNC(=O)c1ccc(-c2c3nc(c(-c4ccccc4)c4ccc([nH]4)c(-c4ccccc4)c4nc(c(-c5ccccc5)c5ccc2[nH]5)C=C4)C=C3)cc1)NC(=O)CN(C)c1ncccn1
REMARK SMILES IDX 4 1 5 2 6 3 3 5 2 6 1 7 61 8 62 9 63 11 64 12 65 13 66 14
REMARK SMILES IDX 67 15 68 16 72 17 69 18 71 19 70 20 7 21 8 22 9 23 10 24
REMARK SMILES IDX 11 25 12 27 13 28 14 29 60 30 15 31 59 32 16 33 17 34 18 35
REMARK SMILES IDX 53 36 19 37 58 38 52 39 54 40 20 41 57 42 51 43 50 44 21 46
REMARK SMILES IDX 43 47 28 48 42 49 29 50 32 51 41 52 55 53 30 54 31 55 40 57
REMARK SMILES IDX 56 58 33 59 22 60 23 61 27 62 24 63 26 64 25 65 44 66 45 67
REMARK SMILES IDX 49 68 46 69 48 70 47 71 34 72 35 73 39 74 36 75 38 76 37 77
REMARK H PARENT 6 4 61 10 10 26 54 45 32 56
REMARK Flexibility Score: inf
ROOT
ATOM      1  C   UNL A   1      31.351  29.162  24.193  1.00  0.00     0.222 C 
ATOM      2  O   UNL A   1      31.400  29.307  22.970  1.00  0.00    -0.275 OA
ATOM      3  N   UNL A   1      31.420  30.280  24.963  1.00  0.00    -0.356 N 
ATOM      4  H   UNL A   1      31.409  31.123  24.454  1.00  0.00     0.163 HD
ENDROOT
BRANCH   1   5
ATOM      5  C   UNL A   1      31.215  27.780  24.799  1.00  0.00     0.124 C 
BRANCH   5   6
ATOM      6  C   UNL A   1      32.487  26.919  24.721  1.00  0.00     0.088 C 
ATOM      7  C   UNL A   1      33.565  27.444  25.660  1.00  0.00     0.031 C 
BRANCH   6   8
ATOM      8  N   UNL A   1      33.003  26.820  23.361  1.00  0.00    -0.352 N 
ATOM      9  C   UNL A   1      33.173  25.719  22.565  1.00  0.00     0.239 C 
ATOM     10  H   UNL A   1      33.272  27.675  22.952  1.00  0.00     0.163 HD
ATOM     11  O   UNL A   1      33.717  25.887  21.469  1.00  0.00    -0.273 OA
BRANCH   9  12
ATOM     12  C   UNL A   1      32.553  24.369  22.947  1.00  0.00     0.219 C 
BRANCH  12  13
ATOM     13  N   UNL A   1      33.100  23.724  24.139  1.00  0.00    -0.335 N 
ATOM     14  C   UNL A   1      32.277  22.831  24.924  1.00  0.00     0.147 C 
BRANCH  13  15
ATOM     15  C   UNL A   1      34.471  23.615  24.270  1.00  0.00     0.225 A 
ATOM     16  N   UNL A   1      35.165  22.969  23.315  1.00  0.00    -0.221 NA
ATOM     17  N   UNL A   1      35.056  24.095  25.375  1.00  0.00    -0.221 NA
ATOM     18  C   UNL A   1      36.493  22.830  23.487  1.00  0.00     0.117 A 
ATOM     19  C   UNL A   1      36.380  23.906  25.525  1.00  0.00     0.117 A 
ATOM     20  C   UNL A   1      37.163  23.275  24.596  1.00  0.00     0.040 A 
ENDBRANCH  13  15
ENDBRANCH  12  13
ENDBRANCH   9  12
ENDBRANCH   6   8
ENDBRANCH   5   6
ENDBRANCH   1   5
BRANCH   3  21
ATOM     21  C   UNL A   1      31.508  30.453  26.404  1.00  0.00     0.117 C 
BRANCH  21  22
ATOM     22  C   UNL A   1      31.372  31.920  26.809  1.00  0.00     0.042 C 
BRANCH  22  23
ATOM     23  C   UNL A   1      32.699  32.635  27.026  1.00  0.00     0.118 C 
BRANCH  23  24
ATOM     24  N   UNL A   1      32.517  33.949  27.617  1.00  0.00    -0.352 N 
ATOM     25  C   UNL A   1      33.209  34.554  28.635  1.00  0.00     0.251 C 
ATOM     26  H   UNL A   1      31.787  34.485  27.230  1.00  0.00     0.163 HD
ATOM     27  O   UNL A   1      32.749  35.573  29.153  1.00  0.00    -0.269 OA
BRANCH  25  28
ATOM     28  C   UNL A   1      34.489  33.997  29.134  1.00  0.00     0.039 A 
ATOM     29  C   UNL A   1      34.465  33.160  30.254  1.00  0.00     0.014 A 
ATOM     30  C   UNL A   1      35.714  34.330  28.548  1.00  0.00     0.014 A 
ATOM     31  C   UNL A   1      35.656  32.623  30.753  1.00  0.00     0.010 A 
ATOM     32  C   UNL A   1      36.891  33.730  28.995  1.00  0.00     0.010 A 
ATOM     33  C   UNL A   1      36.878  32.881  30.112  1.00  0.00    -0.014 A 
BRANCH  33  34
ATOM     34  C   UNL A   1      38.147  32.290  30.609  1.00  0.00     0.031 A 
ATOM     35  C   UNL A   1      38.672  31.007  30.021  1.00  0.00     0.074 A 
ATOM     36  C   UNL A   1      38.809  32.879  31.625  1.00  0.00     0.049 A 
ATOM     37  N   UNL A   1      39.737  30.320  30.353  1.00  0.00    -0.248 NA
ATOM     38  C   UNL A   1      37.884  30.402  28.934  1.00  0.00     0.031 C 
ATOM     39  C   UNL A   1      38.394  34.104  32.311  1.00  0.00     0.029 A 
ATOM     40  N   UNL A   1      39.973  32.523  32.258  1.00  0.00    -0.354 N 
ATOM     41  C   UNL A   1      39.736  29.199  29.532  1.00  0.00     0.074 A 
ATOM     42  C   UNL A   1      38.541  29.272  28.719  1.00  0.00     0.031 C 
ATOM     43  C   UNL A   1      39.305  34.414  33.248  1.00  0.00     0.029 A 
ATOM     44  C   UNL A   1      40.345  33.390  33.256  1.00  0.00     0.049 A 
ATOM     45  H   UNL A   1      40.492  31.720  32.020  1.00  0.00     0.167 HD
ATOM     46  C   UNL A   1      40.653  28.206  29.446  1.00  0.00     0.031 A 
ATOM     47  C   UNL A   1      41.403  33.365  34.088  1.00  0.00     0.031 A 
ATOM     48  C   UNL A   1      41.851  28.137  30.238  1.00  0.00     0.049 A 
ATOM     49  C   UNL A   1      42.403  32.249  33.979  1.00  0.00     0.074 A 
ATOM     50  C   UNL A   1      42.873  27.205  30.177  1.00  0.00     0.029 A 
ATOM     51  N   UNL A   1      42.189  29.036  31.237  1.00  0.00    -0.354 N 
ATOM     52  N   UNL A   1      42.419  31.233  33.153  1.00  0.00    -0.248 NA
ATOM     53  C   UNL A   1      43.536  32.283  34.917  1.00  0.00     0.031 C 
ATOM     54  C   UNL A   1      43.805  27.513  31.173  1.00  0.00     0.029 A 
ATOM     55  C   UNL A   1      43.390  28.666  31.819  1.00  0.00     0.049 A 
ATOM     56  H   UNL A   1      41.653  29.821  31.495  1.00  0.00     0.167 HD
ATOM     57  C   UNL A   1      43.571  30.518  33.454  1.00  0.00     0.074 A 
ATOM     58  C   UNL A   1      44.236  31.226  34.527  1.00  0.00     0.031 C 
ATOM     59  C   UNL A   1      44.035  29.375  32.892  1.00  0.00     0.031 A 
BRANCH  46  60
ATOM     60  C   UNL A   1      40.390  27.105  28.457  1.00  0.00    -0.014 A 
ATOM     61  C   UNL A   1      39.608  25.990  28.799  1.00  0.00     0.009 A 
ATOM     62  C   UNL A   1      40.900  27.200  27.153  1.00  0.00     0.009 A 
ATOM     63  C   UNL A   1      39.377  24.975  27.868  1.00  0.00     0.001 A 
ATOM     64  C   UNL A   1      40.644  26.197  26.216  1.00  0.00     0.001 A 
ATOM     65  C   UNL A   1      39.891  25.082  26.577  1.00  0.00     0.000 A 
ENDBRANCH  46  60
BRANCH  47  66
ATOM     66  C   UNL A   1      41.581  34.443  35.095  1.00  0.00    -0.014 A 
ATOM     67  C   UNL A   1      42.313  35.597  34.779  1.00  0.00     0.009 A 
ATOM     68  C   UNL A   1      41.023  34.323  36.377  1.00  0.00     0.009 A 
ATOM     69  C   UNL A   1      42.502  36.599  35.734  1.00  0.00     0.001 A 
ATOM     70  C   UNL A   1      41.191  35.338  37.321  1.00  0.00     0.001 A 
ATOM     71  C   UNL A   1      41.938  36.471  37.002  1.00  0.00     0.000 A 
ENDBRANCH  47  66
BRANCH  59  72
ATOM     72  C   UNL A   1      45.335  28.834  33.415  1.00  0.00    -0.014 A 
ATOM     73  C   UNL A   1      45.362  27.896  34.458  1.00  0.00     0.009 A 
ATOM     74  C   UNL A   1      46.544  29.239  32.829  1.00  0.00     0.009 A 
ATOM     75  C   UNL A   1      46.580  27.399  34.927  1.00  0.00     0.001 A 
ATOM     76  C   UNL A   1      47.758  28.720  33.282  1.00  0.00     0.001 A 
ATOM     77  C   UNL A   1      47.776  27.807  34.336  1.00  0.00     0.000 A 
ENDBRANCH  59  72
ENDBRANCH  33  34
ENDBRANCH  25  28
ENDBRANCH  23  24
ENDBRANCH  22  23
ENDBRANCH  21  22
ENDBRANCH   3  21
TORSDOF 15
ENDMDL
