MODEL 1
REMARK VINA RESULT:      -9.9      0.000      0.000
REMARK SMILES CC(C)=CC[N@H+]1CCCC[C@H]1C(=O)NCCCNC(=O)c1ccc(-c2c3nc(c(-c4ccccc4)c4ccc([nH]4)c(-c4ccccc4)c4nc(c(-c5ccccc5)c5ccc2[nH]5)C=C4)C=C3)cc1
REMARK SMILES IDX 16 1 15 2 14 3 12 4 13 5 11 7 6 8 7 9 8 11 10 12 9 13 5 14
REMARK SMILES IDX 4 15 1 16 2 17 3 18 17 19 18 20 19 21 20 23 21 24 22 25
REMARK SMILES IDX 68 26 23 27 67 28 24 29 25 30 26 31 61 32 27 33 66 34 60 35
REMARK SMILES IDX 62 36 28 37 65 38 59 39 58 40 29 42 51 43 36 44 50 45 37 46
REMARK SMILES IDX 40 47 49 48 63 49 38 50 39 51 48 53 64 54 41 55 30 56 31 57
REMARK SMILES IDX 35 58 32 59 34 60 33 61 52 62 53 63 57 64 54 65 56 66 55 67
REMARK SMILES IDX 42 68 43 69 47 70 44 71 46 72 45 73
REMARK H PARENT 14 6 6 10 18 22 62 41 40 52
REMARK Flexibility Score: inf
ROOT
ATOM      1  C   UNL A   1      33.875  28.482  25.763  1.00  0.00     0.042 C 
ENDROOT
BRANCH   1   2
ATOM      2  C   UNL A   1      33.238  27.219  25.178  1.00  0.00     0.118 C 
BRANCH   2   3
ATOM      3  N   UNL A   1      33.749  26.023  25.811  1.00  0.00    -0.351 N 
ATOM      4  C   UNL A   1      33.987  24.766  25.345  1.00  0.00     0.278 C 
ATOM      5  O   UNL A   1      34.318  23.955  26.217  1.00  0.00    -0.268 OA
ATOM      6  H   UNL A   1      33.968  26.140  26.763  1.00  0.00     0.163 HD
BRANCH   4   7
ATOM      7  C   UNL A   1      33.925  24.412  23.820  1.00  0.00     0.274 C 
ATOM      8  N   UNL A   1      34.729  23.201  23.472  1.00  0.00    -0.321 N 
ATOM      9  C   UNL A   1      34.205  21.969  24.077  1.00  0.00     0.263 C 
ATOM     10  H   UNL A   1      34.619  23.094  22.463  1.00  0.00     0.349 HD
ATOM     11  C   UNL A   1      32.756  21.712  23.658  1.00  0.00     0.062 C 
ATOM     12  C   UNL A   1      32.512  24.165  23.270  1.00  0.00     0.076 C 
ATOM     13  C   UNL A   1      31.870  22.928  23.889  1.00  0.00     0.012 C 
BRANCH   8  14
ATOM     14  C   UNL A   1      36.167  23.366  23.699  1.00  0.00     0.291 C 
BRANCH  14  15
ATOM     15  C   UNL A   1      36.794  22.028  23.974  1.00  0.00     0.032 C 
ATOM     16  C   UNL A   1      38.162  22.729  25.951  1.00  0.00     0.039 C 
ATOM     17  C   UNL A   1      37.647  21.716  24.970  1.00  0.00    -0.075 C 
ATOM     18  C   UNL A   1      38.105  20.294  25.143  1.00  0.00     0.039 C 
ENDBRANCH  14  15
ENDBRANCH   8  14
ENDBRANCH   4   7
ENDBRANCH   2   3
ENDBRANCH   1   2
BRANCH   1  19
ATOM     19  C   UNL A   1      33.657  28.665  27.266  1.00  0.00     0.118 C 
BRANCH  19  20
ATOM     20  N   UNL A   1      33.602  30.063  27.655  1.00  0.00    -0.352 N 
ATOM     21  C   UNL A   1      34.533  30.830  28.312  1.00  0.00     0.251 C 
ATOM     22  H   UNL A   1      32.772  30.532  27.411  1.00  0.00     0.163 HD
ATOM     23  O   UNL A   1      34.220  31.947  28.713  1.00  0.00    -0.269 OA
BRANCH  21  24
ATOM     24  C   UNL A   1      35.904  30.326  28.553  1.00  0.00     0.039 A 
ATOM     25  C   UNL A   1      36.818  30.347  27.495  1.00  0.00     0.014 A 
ATOM     26  C   UNL A   1      36.279  29.775  29.783  1.00  0.00     0.014 A 
ATOM     27  C   UNL A   1      38.115  29.858  27.679  1.00  0.00     0.010 A 
ATOM     28  C   UNL A   1      37.588  29.334  29.981  1.00  0.00     0.010 A 
ATOM     29  C   UNL A   1      38.517  29.365  28.929  1.00  0.00    -0.014 A 
BRANCH  29  30
ATOM     30  C   UNL A   1      39.902  28.874  29.148  1.00  0.00     0.031 A 
ATOM     31  C   UNL A   1      40.946  29.776  29.749  1.00  0.00     0.074 A 
ATOM     32  C   UNL A   1      40.238  27.630  28.760  1.00  0.00     0.049 A 
ATOM     33  N   UNL A   1      42.215  29.539  29.968  1.00  0.00    -0.248 NA
ATOM     34  C   UNL A   1      40.512  31.127  30.136  1.00  0.00     0.031 C 
ATOM     35  C   UNL A   1      39.333  26.663  28.135  1.00  0.00     0.029 A 
ATOM     36  N   UNL A   1      41.439  26.966  28.827  1.00  0.00    -0.354 N 
ATOM     37  C   UNL A   1      42.735  30.713  30.498  1.00  0.00     0.074 A 
ATOM     38  C   UNL A   1      41.651  31.674  30.535  1.00  0.00     0.031 C 
ATOM     39  C   UNL A   1      40.005  25.527  27.893  1.00  0.00     0.029 A 
ATOM     40  C   UNL A   1      41.393  25.693  28.313  1.00  0.00     0.049 A 
ATOM     41  H   UNL A   1      42.254  27.365  29.207  1.00  0.00     0.167 HD
ATOM     42  C   UNL A   1      43.994  30.969  30.926  1.00  0.00     0.031 A 
ATOM     43  C   UNL A   1      42.360  24.765  28.188  1.00  0.00     0.031 A 
ATOM     44  C   UNL A   1      45.070  30.014  30.907  1.00  0.00     0.049 A 
ATOM     45  C   UNL A   1      43.748  25.070  28.675  1.00  0.00     0.074 A 
ATOM     46  C   UNL A   1      46.366  30.165  31.374  1.00  0.00     0.029 A 
ATOM     47  N   UNL A   1      44.977  28.731  30.393  1.00  0.00    -0.354 N 
ATOM     48  N   UNL A   1      44.206  26.167  29.228  1.00  0.00    -0.248 NA
ATOM     49  C   UNL A   1      44.749  24.003  28.531  1.00  0.00     0.031 C 
ATOM     50  C   UNL A   1      47.067  28.984  31.106  1.00  0.00     0.029 A 
ATOM     51  C   UNL A   1      46.197  28.085  30.514  1.00  0.00     0.049 A 
ATOM     52  H   UNL A   1      44.165  28.337  30.000  1.00  0.00     0.167 HD
ATOM     53  C   UNL A   1      45.540  25.915  29.518  1.00  0.00     0.074 A 
ATOM     54  C   UNL A   1      45.814  24.557  29.094  1.00  0.00     0.031 C 
ATOM     55  C   UNL A   1      46.456  26.735  30.087  1.00  0.00     0.031 A 
BRANCH  42  56
ATOM     56  C   UNL A   1      44.279  32.349  31.448  1.00  0.00    -0.014 A 
ATOM     57  C   UNL A   1      44.132  32.656  32.809  1.00  0.00     0.009 A 
ATOM     58  C   UNL A   1      44.740  33.344  30.573  1.00  0.00     0.009 A 
ATOM     59  C   UNL A   1      44.405  33.943  33.278  1.00  0.00     0.001 A 
ATOM     60  C   UNL A   1      45.037  34.623  31.047  1.00  0.00     0.001 A 
ATOM     61  C   UNL A   1      44.861  34.924  32.398  1.00  0.00     0.000 A 
ENDBRANCH  42  56
BRANCH  43  62
ATOM     62  C   UNL A   1      42.044  23.444  27.587  1.00  0.00    -0.014 A 
ATOM     63  C   UNL A   1      41.534  22.406  28.379  1.00  0.00     0.009 A 
ATOM     64  C   UNL A   1      42.249  23.218  26.216  1.00  0.00     0.009 A 
ATOM     65  C   UNL A   1      41.258  21.158  27.817  1.00  0.00     0.001 A 
ATOM     66  C   UNL A   1      41.948  21.976  25.653  1.00  0.00     0.001 A 
ATOM     67  C   UNL A   1      41.460  20.946  26.454  1.00  0.00     0.000 A 
ENDBRANCH  43  62
BRANCH  55  68
ATOM     68  C   UNL A   1      47.831  26.176  30.312  1.00  0.00    -0.014 A 
ATOM     69  C   UNL A   1      48.778  26.139  29.277  1.00  0.00     0.009 A 
ATOM     70  C   UNL A   1      48.195  25.716  31.586  1.00  0.00     0.009 A 
ATOM     71  C   UNL A   1      50.054  25.622  29.508  1.00  0.00     0.001 A 
ATOM     72  C   UNL A   1      49.479  25.223  31.821  1.00  0.00     0.001 A 
ATOM     73  C   UNL A   1      50.405  25.169  30.780  1.00  0.00     0.000 A 
ENDBRANCH  55  68
ENDBRANCH  29  30
ENDBRANCH  21  24
ENDBRANCH  19  20
ENDBRANCH   1  19
TORSDOF 12
ENDMDL
MODEL 2
REMARK VINA RESULT:      -9.9      3.003      5.054
REMARK SMILES CC(C)=CC[N@H+]1CCCC[C@H]1C(=O)NCCCNC(=O)c1ccc(-c2c3nc(c(-c4ccccc4)c4ccc([nH]4)c(-c4ccccc4)c4nc(c(-c5ccccc5)c5ccc2[nH]5)C=C4)C=C3)cc1
REMARK SMILES IDX 16 1 15 2 14 3 12 4 13 5 11 7 6 8 7 9 8 11 10 12 9 13 5 14
REMARK SMILES IDX 4 15 1 16 2 17 3 18 17 19 18 20 19 21 20 23 21 24 22 25
REMARK SMILES IDX 68 26 23 27 67 28 24 29 25 30 26 31 61 32 27 33 66 34 60 35
REMARK SMILES IDX 62 36 28 37 65 38 59 39 58 40 29 42 51 43 36 44 50 45 37 46
REMARK SMILES IDX 40 47 49 48 63 49 38 50 39 51 48 53 64 54 41 55 30 56 31 57
REMARK SMILES IDX 35 58 32 59 34 60 33 61 52 62 53 63 57 64 54 65 56 66 55 67
REMARK SMILES IDX 42 68 43 69 47 70 44 71 46 72 45 73
REMARK H PARENT 14 6 6 10 18 22 62 41 40 52
REMARK Flexibility Score: inf
ROOT
ATOM      1  C   UNL A   1      31.370  32.180  26.799  1.00  0.00     0.042 C 
ENDROOT
BRANCH   1   2
ATOM      2  C   UNL A   1      31.530  30.672  26.595  1.00  0.00     0.118 C 
BRANCH   2   3
ATOM      3  N   UNL A   1      32.278  30.375  25.392  1.00  0.00    -0.351 N 
ATOM      4  C   UNL A   1      32.472  29.224  24.691  1.00  0.00     0.278 C 
ATOM      5  O   UNL A   1      33.283  29.325  23.763  1.00  0.00    -0.268 OA
ATOM      6  H   UNL A   1      32.734  31.156  25.005  1.00  0.00     0.163 HD
BRANCH   4   7
ATOM      7  C   UNL A   1      31.668  27.914  24.992  1.00  0.00     0.274 C 
ATOM      8  N   UNL A   1      31.647  26.967  23.835  1.00  0.00    -0.321 N 
ATOM      9  C   UNL A   1      32.973  26.425  23.511  1.00  0.00     0.263 C 
ATOM     10  H   UNL A   1      31.085  26.177  24.154  1.00  0.00     0.349 HD
ATOM     11  C   UNL A   1      33.589  25.697  24.708  1.00  0.00     0.062 C 
ATOM     12  C   UNL A   1      32.172  27.109  26.200  1.00  0.00     0.076 C 
ATOM     13  C   UNL A   1      33.572  26.552  25.967  1.00  0.00     0.012 C 
BRANCH   8  14
ATOM     14  C   UNL A   1      30.957  27.496  22.656  1.00  0.00     0.291 C 
BRANCH  14  15
ATOM     15  C   UNL A   1      29.540  27.848  23.014  1.00  0.00     0.032 C 
ATOM     16  C   UNL A   1      29.497  30.101  21.921  1.00  0.00     0.039 C 
ATOM     17  C   UNL A   1      28.868  28.969  22.680  1.00  0.00    -0.075 C 
ATOM     18  C   UNL A   1      27.419  29.110  23.054  1.00  0.00     0.039 C 
ENDBRANCH  14  15
ENDBRANCH   8  14
ENDBRANCH   4   7
ENDBRANCH   2   3
ENDBRANCH   1   2
BRANCH   1  19
ATOM     19  C   UNL A   1      32.685  32.941  26.978  1.00  0.00     0.118 C 
BRANCH  19  20
ATOM     20  N   UNL A   1      32.522  34.161  27.750  1.00  0.00    -0.352 N 
ATOM     21  C   UNL A   1      33.230  34.614  28.836  1.00  0.00     0.251 C 
ATOM     22  H   UNL A   1      31.795  34.751  27.449  1.00  0.00     0.163 HD
ATOM     23  O   UNL A   1      32.817  35.584  29.463  1.00  0.00    -0.269 OA
BRANCH  21  24
ATOM     24  C   UNL A   1      34.477  33.943  29.269  1.00  0.00     0.039 A 
ATOM     25  C   UNL A   1      35.653  34.198  28.556  1.00  0.00     0.014 A 
ATOM     26  C   UNL A   1      34.489  33.019  30.320  1.00  0.00     0.014 A 
ATOM     27  C   UNL A   1      36.845  33.566  28.921  1.00  0.00     0.010 A 
ATOM     28  C   UNL A   1      35.689  32.428  30.716  1.00  0.00     0.010 A 
ATOM     29  C   UNL A   1      36.878  32.690  30.016  1.00  0.00    -0.014 A 
BRANCH  29  30
ATOM     30  C   UNL A   1      38.145  32.037  30.436  1.00  0.00     0.031 A 
ATOM     31  C   UNL A   1      39.044  32.694  31.447  1.00  0.00     0.074 A 
ATOM     32  C   UNL A   1      38.515  30.872  29.870  1.00  0.00     0.049 A 
ATOM     33  N   UNL A   1      40.209  32.300  31.896  1.00  0.00    -0.248 NA
ATOM     34  C   UNL A   1      38.583  33.972  32.012  1.00  0.00     0.031 C 
ATOM     35  C   UNL A   1      37.753  30.143  28.855  1.00  0.00     0.029 A 
ATOM     36  N   UNL A   1      39.633  30.100  30.065  1.00  0.00    -0.354 N 
ATOM     37  C   UNL A   1      40.629  33.287  32.779  1.00  0.00     0.074 A 
ATOM     38  C   UNL A   1      39.611  34.316  32.775  1.00  0.00     0.031 C 
ATOM     39  C   UNL A   1      38.417  29.023  28.529  1.00  0.00     0.029 A 
ATOM     40  C   UNL A   1      39.664  28.970  29.285  1.00  0.00     0.049 A 
ATOM     41  H   UNL A   1      40.345  30.335  30.703  1.00  0.00     0.167 HD
ATOM     42  C   UNL A   1      41.753  33.330  33.533  1.00  0.00     0.031 A 
ATOM     43  C   UNL A   1      40.593  28.001  29.185  1.00  0.00     0.031 A 
ATOM     44  C   UNL A   1      42.761  32.304  33.553  1.00  0.00     0.049 A 
ATOM     45  C   UNL A   1      41.829  28.068  30.037  1.00  0.00     0.074 A 
ATOM     46  C   UNL A   1      43.906  32.233  34.329  1.00  0.00     0.029 A 
ATOM     47  N   UNL A   1      42.745  31.168  32.760  1.00  0.00    -0.354 N 
ATOM     48  N   UNL A   1      42.181  28.980  30.909  1.00  0.00    -0.248 NA
ATOM     49  C   UNL A   1      42.790  26.965  29.896  1.00  0.00     0.031 C 
ATOM     50  C   UNL A   1      44.603  31.073  33.977  1.00  0.00     0.029 A 
ATOM     51  C   UNL A   1      43.870  30.399  33.015  1.00  0.00     0.049 A 
ATOM     52  H   UNL A   1      42.040  30.940  32.113  1.00  0.00     0.167 HD
ATOM     53  C   UNL A   1      43.391  28.550  31.438  1.00  0.00     0.074 A 
ATOM     54  C   UNL A   1      43.705  27.289  30.799  1.00  0.00     0.031 C 
ATOM     55  C   UNL A   1      44.170  29.148  32.371  1.00  0.00     0.031 A 
BRANCH  42  56
ATOM     56  C   UNL A   1      41.957  34.541  34.400  1.00  0.00    -0.014 A 
ATOM     57  C   UNL A   1      41.537  34.556  35.738  1.00  0.00     0.009 A 
ATOM     58  C   UNL A   1      42.615  35.667  33.881  1.00  0.00     0.009 A 
ATOM     59  C   UNL A   1      41.738  35.689  36.530  1.00  0.00     0.001 A 
ATOM     60  C   UNL A   1      42.838  36.789  34.682  1.00  0.00     0.001 A 
ATOM     61  C   UNL A   1      42.392  36.802  36.003  1.00  0.00     0.000 A 
ENDBRANCH  42  56
BRANCH  43  62
ATOM     62  C   UNL A   1      40.381  26.867  28.250  1.00  0.00    -0.014 A 
ATOM     63  C   UNL A   1      40.905  26.910  26.950  1.00  0.00     0.009 A 
ATOM     64  C   UNL A   1      39.656  25.736  28.655  1.00  0.00     0.009 A 
ATOM     65  C   UNL A   1      40.687  25.852  26.064  1.00  0.00     0.001 A 
ATOM     66  C   UNL A   1      39.461  24.669  27.775  1.00  0.00     0.001 A 
ATOM     67  C   UNL A   1      39.970  24.731  26.479  1.00  0.00     0.000 A 
ENDBRANCH  43  62
BRANCH  55  68
ATOM     68  C   UNL A   1      45.424  28.428  32.779  1.00  0.00    -0.014 A 
ATOM     69  C   UNL A   1      46.652  28.701  32.158  1.00  0.00     0.009 A 
ATOM     70  C   UNL A   1      45.380  27.494  33.825  1.00  0.00     0.009 A 
ATOM     71  C   UNL A   1      47.808  28.026  32.558  1.00  0.00     0.001 A 
ATOM     72  C   UNL A   1      46.541  26.839  34.238  1.00  0.00     0.001 A 
ATOM     73  C   UNL A   1      47.753  27.100  33.599  1.00  0.00     0.000 A 
ENDBRANCH  55  68
ENDBRANCH  29  30
ENDBRANCH  21  24
ENDBRANCH  19  20
ENDBRANCH   1  19
TORSDOF 12
ENDMDL
MODEL 3
REMARK VINA RESULT:      -9.8      1.917      7.406
REMARK SMILES CC(C)=CC[N@H+]1CCCC[C@H]1C(=O)NCCCNC(=O)c1ccc(-c2c3nc(c(-c4ccccc4)c4ccc([nH]4)c(-c4ccccc4)c4nc(c(-c5ccccc5)c5ccc2[nH]5)C=C4)C=C3)cc1
REMARK SMILES IDX 16 1 15 2 14 3 12 4 13 5 11 7 6 8 7 9 8 11 10 12 9 13 5 14
REMARK SMILES IDX 4 15 1 16 2 17 3 18 17 19 18 20 19 21 20 23 21 24 22 25
REMARK SMILES IDX 68 26 23 27 67 28 24 29 25 30 26 31 61 32 27 33 66 34 60 35
REMARK SMILES IDX 62 36 28 37 65 38 59 39 58 40 29 42 51 43 36 44 50 45 37 46
REMARK SMILES IDX 40 47 49 48 63 49 38 50 39 51 48 53 64 54 41 55 30 56 31 57
REMARK SMILES IDX 35 58 32 59 34 60 33 61 52 62 53 63 57 64 54 65 56 66 55 67
REMARK SMILES IDX 42 68 43 69 47 70 44 71 46 72 45 73
REMARK H PARENT 14 6 6 10 18 22 62 41 40 52
REMARK Flexibility Score: inf
ROOT
ATOM      1  C   UNL A   1      37.524  19.541  25.020  1.00  0.00     0.042 C 
ENDROOT
BRANCH   1   2
ATOM      2  C   UNL A   1      36.363  20.491  24.716  1.00  0.00     0.118 C 
BRANCH   2   3
ATOM      3  N   UNL A   1      36.283  21.561  25.687  1.00  0.00    -0.351 N 
ATOM      4  C   UNL A   1      35.553  22.710  25.730  1.00  0.00     0.278 C 
ATOM      5  O   UNL A   1      35.837  23.457  26.674  1.00  0.00    -0.268 OA
ATOM      6  H   UNL A   1      36.869  21.434  26.467  1.00  0.00     0.163 HD
BRANCH   4   7
ATOM      7  C   UNL A   1      34.399  23.008  24.714  1.00  0.00     0.274 C 
ATOM      8  N   UNL A   1      33.041  22.760  25.289  1.00  0.00    -0.321 N 
ATOM      9  C   UNL A   1      32.705  23.676  26.387  1.00  0.00     0.263 C 
ATOM     10  H   UNL A   1      32.393  22.972  24.530  1.00  0.00     0.349 HD
ATOM     11  C   UNL A   1      32.768  25.137  25.938  1.00  0.00     0.062 C 
ATOM     12  C   UNL A   1      34.378  24.442  24.162  1.00  0.00     0.076 C 
ATOM     13  C   UNL A   1      34.087  25.467  25.252  1.00  0.00     0.012 C 
BRANCH   8  14
ATOM     14  C   UNL A   1      32.799  21.358  25.638  1.00  0.00     0.291 C 
BRANCH  14  15
ATOM     15  C   UNL A   1      32.657  20.541  24.384  1.00  0.00     0.032 C 
ATOM     16  C   UNL A   1      32.751  18.287  25.472  1.00  0.00     0.039 C 
ATOM     17  C   UNL A   1      32.604  19.197  24.287  1.00  0.00    -0.075 C 
ATOM     18  C   UNL A   1      32.368  18.554  22.949  1.00  0.00     0.039 C 
ENDBRANCH  14  15
ENDBRANCH   8  14
ENDBRANCH   4   7
ENDBRANCH   2   3
ENDBRANCH   1   2
BRANCH   1  19
ATOM     19  C   UNL A   1      38.768  20.222  25.594  1.00  0.00     0.118 C 
BRANCH  19  20
ATOM     20  N   UNL A   1      39.895  19.314  25.712  1.00  0.00    -0.352 N 
ATOM     21  C   UNL A   1      41.198  19.571  26.065  1.00  0.00     0.251 C 
ATOM     22  H   UNL A   1      39.696  18.372  25.508  1.00  0.00     0.163 HD
ATOM     23  O   UNL A   1      42.045  18.694  25.926  1.00  0.00    -0.269 OA
BRANCH  21  24
ATOM     24  C   UNL A   1      41.597  20.892  26.600  1.00  0.00     0.039 A 
ATOM     25  C   UNL A   1      42.072  21.857  25.707  1.00  0.00     0.014 A 
ATOM     26  C   UNL A   1      41.571  21.168  27.972  1.00  0.00     0.014 A 
ATOM     27  C   UNL A   1      42.480  23.108  26.178  1.00  0.00     0.010 A 
ATOM     28  C   UNL A   1      41.930  22.435  28.436  1.00  0.00     0.010 A 
ATOM     29  C   UNL A   1      42.394  23.415  27.545  1.00  0.00    -0.014 A 
BRANCH  29  30
ATOM     30  C   UNL A   1      42.792  24.752  28.055  1.00  0.00     0.031 A 
ATOM     31  C   UNL A   1      41.757  25.818  28.293  1.00  0.00     0.074 A 
ATOM     32  C   UNL A   1      44.094  25.029  28.259  1.00  0.00     0.049 A 
ATOM     33  N   UNL A   1      41.921  27.056  28.687  1.00  0.00    -0.248 NA
ATOM     34  C   UNL A   1      40.356  25.450  28.035  1.00  0.00     0.031 C 
ATOM     35  C   UNL A   1      45.203  24.099  28.038  1.00  0.00     0.029 A 
ATOM     36  N   UNL A   1      44.706  26.179  28.692  1.00  0.00    -0.354 N 
ATOM     37  C   UNL A   1      40.652  27.620  28.705  1.00  0.00     0.074 A 
ATOM     38  C   UNL A   1      39.731  26.599  28.249  1.00  0.00     0.031 C 
ATOM     39  C   UNL A   1      46.356  24.709  28.352  1.00  0.00     0.029 A 
ATOM     40  C   UNL A   1      46.074  26.081  28.765  1.00  0.00     0.049 A 
ATOM     41  H   UNL A   1      44.211  26.997  28.927  1.00  0.00     0.167 HD
ATOM     42  C   UNL A   1      40.281  28.868  29.078  1.00  0.00     0.031 A 
ATOM     43  C   UNL A   1      46.999  26.992  29.119  1.00  0.00     0.031 A 
ATOM     44  C   UNL A   1      41.188  29.881  29.547  1.00  0.00     0.049 A 
ATOM     45  C   UNL A   1      46.563  28.369  29.534  1.00  0.00     0.074 A 
ATOM     46  C   UNL A   1      40.897  31.157  30.002  1.00  0.00     0.029 A 
ATOM     47  N   UNL A   1      42.564  29.734  29.621  1.00  0.00    -0.354 N 
ATOM     48  N   UNL A   1      45.352  28.865  29.601  1.00  0.00    -0.248 NA
ATOM     49  C   UNL A   1      47.623  29.306  29.932  1.00  0.00     0.031 C 
ATOM     50  C   UNL A   1      42.103  31.795  30.315  1.00  0.00     0.029 A 
ATOM     51  C   UNL A   1      43.138  30.902  30.097  1.00  0.00     0.049 A 
ATOM     52  H   UNL A   1      43.060  28.921  29.374  1.00  0.00     0.167 HD
ATOM     53  C   UNL A   1      45.502  30.163  30.070  1.00  0.00     0.074 A 
ATOM     54  C   UNL A   1      46.919  30.373  30.285  1.00  0.00     0.031 C 
ATOM     55  C   UNL A   1      44.549  31.097  30.304  1.00  0.00     0.031 A 
BRANCH  42  56
ATOM     56  C   UNL A   1      38.821  29.212  28.984  1.00  0.00    -0.014 A 
ATOM     57  C   UNL A   1      38.259  29.670  27.783  1.00  0.00     0.009 A 
ATOM     58  C   UNL A   1      37.989  29.038  30.101  1.00  0.00     0.009 A 
ATOM     59  C   UNL A   1      36.899  29.982  27.711  1.00  0.00     0.001 A 
ATOM     60  C   UNL A   1      36.626  29.326  30.020  1.00  0.00     0.001 A 
ATOM     61  C   UNL A   1      36.083  29.806  28.828  1.00  0.00     0.000 A 
ENDBRANCH  42  56
BRANCH  43  62
ATOM     62  C   UNL A   1      48.438  26.625  29.114  1.00  0.00    -0.014 A 
ATOM     63  C   UNL A   1      49.227  26.857  27.978  1.00  0.00     0.009 A 
ATOM     64  C   UNL A   1      49.029  26.043  30.247  1.00  0.00     0.009 A 
ATOM     65  C   UNL A   1      50.575  26.492  27.967  1.00  0.00     0.001 A 
ATOM     66  C   UNL A   1      50.383  25.703  30.240  1.00  0.00     0.001 A 
ATOM     67  C   UNL A   1      51.153  25.921  29.099  1.00  0.00     0.000 A 
ENDBRANCH  43  62
BRANCH  55  68
ATOM     68  C   UNL A   1      45.005  32.420  30.848  1.00  0.00    -0.014 A 
ATOM     69  C   UNL A   1      45.143  32.629  32.229  1.00  0.00     0.009 A 
ATOM     70  C   UNL A   1      45.338  33.458  29.964  1.00  0.00     0.009 A 
ATOM     71  C   UNL A   1      45.576  33.865  32.714  1.00  0.00     0.001 A 
ATOM     72  C   UNL A   1      45.794  34.684  30.451  1.00  0.00     0.001 A 
ATOM     73  C   UNL A   1      45.905  34.889  31.826  1.00  0.00     0.000 A 
ENDBRANCH  55  68
ENDBRANCH  29  30
ENDBRANCH  21  24
ENDBRANCH  19  20
ENDBRANCH   1  19
TORSDOF 12
ENDMDL
