MODEL 1
REMARK VINA RESULT:     -10.9      0.000      0.000
REMARK SMILES Cc1nc(C(=O)N[C@H](CCC(N)=O)C(=O)NCCCNC(=O)c2ccc(-c3c4nc(c(-c5ccccc5)c5ccc([nH]5)c(-c5ccccc5)c5nc(c(-c6ccccc6)c6ccc3[nH]6)C=C5)C=C4)cc2)ccc1C#N
REMARK SMILES IDX 17 1 16 2 14 3 15 4 8 6 7 7 5 8 6 9 4 11 1 12 2 13 3 14
REMARK SMILES IDX 73 15 72 16 71 17 74 18 75 19 9 20 10 21 11 22 12 23 13 24
REMARK SMILES IDX 18 27 19 28 20 29 21 30 22 32 23 33 24 34 70 35 25 36 69 37
REMARK SMILES IDX 26 38 27 39 28 40 63 41 29 42 68 43 62 44 64 45 30 46 67 47
REMARK SMILES IDX 61 48 60 49 31 51 53 52 38 53 52 54 39 55 42 56 51 57 65 58
REMARK SMILES IDX 40 59 41 60 50 62 66 63 43 64 32 65 33 66 37 67 34 68 36 69
REMARK SMILES IDX 35 70 54 71 55 72 59 73 56 74 58 75 57 76 44 77 45 78 49 79
REMARK SMILES IDX 46 80 48 81 47 82
REMARK H PARENT 16 5 7 10 12 25 12 26 20 31 64 50 42 61
REMARK Flexibility Score: inf
ROOT
ATOM      1  C   UNL A   1      31.622  30.350  25.803  1.00  0.00     0.117 C 
ENDROOT
BRANCH   1   2
ATOM      2  N   UNL A   1      30.961  30.201  24.515  1.00  0.00    -0.354 N 
ATOM      3  C   UNL A   1      30.932  29.170  23.616  1.00  0.00     0.242 C 
ATOM      4  O   UNL A   1      30.299  29.361  22.574  1.00  0.00    -0.273 OA
ATOM      5  H   UNL A   1      30.438  30.988  24.241  1.00  0.00     0.163 HD
BRANCH   3   6
ATOM      6  C   UNL A   1      31.621  27.804  23.904  1.00  0.00     0.172 C 
BRANCH   6   7
ATOM      7  N   UNL A   1      32.217  27.367  22.635  1.00  0.00    -0.339 N 
ATOM      8  C   UNL A   1      32.975  26.273  22.302  1.00  0.00     0.270 C 
ATOM      9  O   UNL A   1      33.295  26.137  21.118  1.00  0.00    -0.267 OA
ATOM     10  H   UNL A   1      32.038  27.974  21.880  1.00  0.00     0.164 HD
BRANCH   8  11
ATOM     11  C   UNL A   1      33.358  25.214  23.286  1.00  0.00     0.128 A 
ATOM     12  C   UNL A   1      32.917  21.569  23.647  1.00  0.00     0.068 C 
ATOM     13  C   UNL A   1      33.387  22.971  23.930  1.00  0.00     0.056 A 
ATOM     14  N   UNL A   1      32.930  23.943  23.090  1.00  0.00    -0.247 NA
ATOM     15  C   UNL A   1      34.304  23.240  24.948  1.00  0.00     0.073 A 
ATOM     16  C   UNL A   1      34.695  24.564  25.161  1.00  0.00     0.024 A 
ATOM     17  C   UNL A   1      34.206  25.568  24.328  1.00  0.00     0.035 A 
BRANCH  15  18
ATOM     18  C   UNL A   1      34.906  22.193  25.719  1.00  0.00     0.101 C 
ATOM     19  N   UNL A   1      35.365  21.365  26.387  1.00  0.00    -0.192 NA
ENDBRANCH  15  18
ENDBRANCH   8  11
ENDBRANCH   6   7
BRANCH   6  20
ATOM     20  C   UNL A   1      30.603  26.822  24.503  1.00  0.00     0.045 C 
BRANCH  20  21
ATOM     21  C   UNL A   1      30.816  26.311  25.917  1.00  0.00     0.102 C 
BRANCH  21  22
ATOM     22  C   UNL A   1      30.704  24.818  26.050  1.00  0.00     0.217 C 
ATOM     23  N   UNL A   1      30.274  24.201  24.909  1.00  0.00    -0.370 N 
ATOM     24  O   UNL A   1      30.926  24.189  27.075  1.00  0.00    -0.275 OA
ATOM     25  H   UNL A   1      30.103  24.731  24.098  1.00  0.00     0.159 HD
ATOM     26  H   UNL A   1      30.138  23.226  24.898  1.00  0.00     0.159 HD
ENDBRANCH  21  22
ENDBRANCH  20  21
ENDBRANCH   6  20
ENDBRANCH   3   6
ENDBRANCH   1   2
BRANCH   1  27
ATOM     27  C   UNL A   1      31.404  31.738  26.408  1.00  0.00     0.042 C 
BRANCH  27  28
ATOM     28  C   UNL A   1      32.598  32.253  27.195  1.00  0.00     0.118 C 
BRANCH  28  29
ATOM     29  N   UNL A   1      32.431  33.644  27.583  1.00  0.00    -0.352 N 
ATOM     30  C   UNL A   1      33.158  34.386  28.479  1.00  0.00     0.251 C 
ATOM     31  H   UNL A   1      31.693  34.121  27.140  1.00  0.00     0.163 HD
ATOM     32  O   UNL A   1      32.737  35.465  28.876  1.00  0.00    -0.269 OA
BRANCH  30  33
ATOM     33  C   UNL A   1      34.450  33.868  28.970  1.00  0.00     0.039 A 
ATOM     34  C   UNL A   1      34.483  33.132  30.156  1.00  0.00     0.014 A 
ATOM     35  C   UNL A   1      35.626  34.117  28.254  1.00  0.00     0.014 A 
ATOM     36  C   UNL A   1      35.693  32.598  30.598  1.00  0.00     0.010 A 
ATOM     37  C   UNL A   1      36.816  33.526  28.657  1.00  0.00     0.010 A 
ATOM     38  C   UNL A   1      36.860  32.773  29.838  1.00  0.00    -0.014 A 
BRANCH  38  39
ATOM     39  C   UNL A   1      38.156  32.207  30.277  1.00  0.00     0.031 A 
ATOM     40  C   UNL A   1      38.615  30.891  29.724  1.00  0.00     0.074 A 
ATOM     41  C   UNL A   1      38.889  32.852  31.203  1.00  0.00     0.049 A 
ATOM     42  N   UNL A   1      39.690  30.207  30.021  1.00  0.00    -0.248 NA
ATOM     43  C   UNL A   1      37.753  30.250  28.715  1.00  0.00     0.031 C 
ATOM     44  C   UNL A   1      38.537  34.133  31.819  1.00  0.00     0.029 A 
ATOM     45  N   UNL A   1      40.083  32.515  31.790  1.00  0.00    -0.354 N 
ATOM     46  C   UNL A   1      39.633  29.063  29.238  1.00  0.00     0.074 A 
ATOM     47  C   UNL A   1      38.399  29.115  28.488  1.00  0.00     0.031 C 
ATOM     48  C   UNL A   1      39.507  34.485  32.678  1.00  0.00     0.029 A 
ATOM     49  C   UNL A   1      40.526  33.438  32.703  1.00  0.00     0.049 A 
ATOM     50  H   UNL A   1      40.574  31.688  31.576  1.00  0.00     0.167 HD
ATOM     51  C   UNL A   1      40.544  28.069  29.138  1.00  0.00     0.031 A 
ATOM     52  C   UNL A   1      41.627  33.442  33.479  1.00  0.00     0.031 A 
ATOM     53  C   UNL A   1      41.772  28.022  29.880  1.00  0.00     0.049 A 
ATOM     54  C   UNL A   1      42.600  32.301  33.386  1.00  0.00     0.074 A 
ATOM     55  C   UNL A   1      42.770  27.067  29.817  1.00  0.00     0.029 A 
ATOM     56  N   UNL A   1      42.170  28.965  30.814  1.00  0.00    -0.354 N 
ATOM     57  N   UNL A   1      42.547  31.240  32.620  1.00  0.00    -0.248 NA
ATOM     58  C   UNL A   1      43.785  32.360  34.254  1.00  0.00     0.031 C 
ATOM     59  C   UNL A   1      43.748  27.400  30.756  1.00  0.00     0.029 A 
ATOM     60  C   UNL A   1      43.391  28.600  31.351  1.00  0.00     0.049 A 
ATOM     61  H   UNL A   1      41.661  29.771  31.058  1.00  0.00     0.167 HD
ATOM     62  C   UNL A   1      43.705  30.520  32.887  1.00  0.00     0.074 A 
ATOM     63  C   UNL A   1      44.441  31.264  33.887  1.00  0.00     0.031 C 
ATOM     64  C   UNL A   1      44.119  29.352  32.340  1.00  0.00     0.031 A 
BRANCH  51  65
ATOM     65  C   UNL A   1      40.266  26.949  28.180  1.00  0.00    -0.014 A 
ATOM     66  C   UNL A   1      40.796  26.969  26.880  1.00  0.00     0.009 A 
ATOM     67  C   UNL A   1      39.579  25.807  28.620  1.00  0.00     0.009 A 
ATOM     68  C   UNL A   1      40.645  25.864  26.041  1.00  0.00     0.001 A 
ATOM     69  C   UNL A   1      39.451  24.695  27.787  1.00  0.00     0.001 A 
ATOM     70  C   UNL A   1      39.985  24.724  26.500  1.00  0.00     0.000 A 
ENDBRANCH  51  65
BRANCH  52  71
ATOM     71  C   UNL A   1      41.874  34.597  34.379  1.00  0.00    -0.014 A 
ATOM     72  C   UNL A   1      41.452  34.553  35.716  1.00  0.00     0.009 A 
ATOM     73  C   UNL A   1      42.594  35.716  33.929  1.00  0.00     0.009 A 
ATOM     74  C   UNL A   1      41.749  35.606  36.585  1.00  0.00     0.001 A 
ATOM     75  C   UNL A   1      42.909  36.755  34.806  1.00  0.00     0.001 A 
ATOM     76  C   UNL A   1      42.486  36.700  36.132  1.00  0.00     0.000 A 
ENDBRANCH  52  71
BRANCH  64  77
ATOM     77  C   UNL A   1      45.448  28.799  32.767  1.00  0.00    -0.014 A 
ATOM     78  C   UNL A   1      45.546  27.864  33.808  1.00  0.00     0.009 A 
ATOM     79  C   UNL A   1      46.596  29.115  32.021  1.00  0.00     0.009 A 
ATOM     80  C   UNL A   1      46.771  27.260  34.095  1.00  0.00     0.001 A 
ATOM     81  C   UNL A   1      47.812  28.487  32.294  1.00  0.00     0.001 A 
ATOM     82  C   UNL A   1      47.899  27.562  33.332  1.00  0.00     0.000 A 
ENDBRANCH  64  77
ENDBRANCH  38  39
ENDBRANCH  30  33
ENDBRANCH  28  29
ENDBRANCH  27  28
ENDBRANCH   1  27
TORSDOF 16
ENDMDL
MODEL 2
REMARK VINA RESULT:     -10.9      3.502      8.734
REMARK SMILES Cc1nc(C(=O)N[C@H](CCC(N)=O)C(=O)NCCCNC(=O)c2ccc(-c3c4nc(c(-c5ccccc5)c5ccc([nH]5)c(-c5ccccc5)c5nc(c(-c6ccccc6)c6ccc3[nH]6)C=C5)C=C4)cc2)ccc1C#N
REMARK SMILES IDX 17 1 16 2 14 3 15 4 8 6 7 7 5 8 6 9 4 11 1 12 2 13 3 14
REMARK SMILES IDX 73 15 72 16 71 17 74 18 75 19 9 20 10 21 11 22 12 23 13 24
REMARK SMILES IDX 18 27 19 28 20 29 21 30 22 32 23 33 24 34 70 35 25 36 69 37
REMARK SMILES IDX 26 38 27 39 28 40 63 41 29 42 68 43 62 44 64 45 30 46 67 47
REMARK SMILES IDX 61 48 60 49 31 51 53 52 38 53 52 54 39 55 42 56 51 57 65 58
REMARK SMILES IDX 40 59 41 60 50 62 66 63 43 64 32 65 33 66 37 67 34 68 36 69
REMARK SMILES IDX 35 70 54 71 55 72 59 73 56 74 58 75 57 76 44 77 45 78 49 79
REMARK SMILES IDX 46 80 48 81 47 82
REMARK H PARENT 16 5 7 10 12 25 12 26 20 31 64 50 42 61
REMARK Flexibility Score: inf
ROOT
ATOM      1  C   UNL A   1      36.055  21.268  24.998  1.00  0.00     0.117 C 
ENDROOT
BRANCH   1   2
ATOM      2  N   UNL A   1      35.514  21.443  26.337  1.00  0.00    -0.354 N 
ATOM      3  C   UNL A   1      34.229  21.548  26.798  1.00  0.00     0.242 C 
ATOM      4  O   UNL A   1      34.089  21.731  28.011  1.00  0.00    -0.273 OA
ATOM      5  H   UNL A   1      36.199  21.496  27.042  1.00  0.00     0.163 HD
BRANCH   3   6
ATOM      6  C   UNL A   1      32.999  21.399  25.855  1.00  0.00     0.172 C 
BRANCH   6   7
ATOM      7  N   UNL A   1      31.858  21.983  26.572  1.00  0.00    -0.339 N 
ATOM      8  C   UNL A   1      31.242  23.206  26.482  1.00  0.00     0.270 C 
ATOM      9  O   UNL A   1      30.249  23.400  27.186  1.00  0.00    -0.267 OA
ATOM     10  H   UNL A   1      31.459  21.383  27.243  1.00  0.00     0.164 HD
BRANCH   8  11
ATOM     11  C   UNL A   1      31.673  24.269  25.521  1.00  0.00     0.128 A 
ATOM     12  C   UNL A   1      33.929  27.188  25.547  1.00  0.00     0.068 C 
ATOM     13  C   UNL A   1      32.978  26.140  25.031  1.00  0.00     0.056 A 
ATOM     14  N   UNL A   1      32.503  25.251  25.949  1.00  0.00    -0.247 NA
ATOM     15  C   UNL A   1      32.671  26.041  23.672  1.00  0.00     0.073 A 
ATOM     16  C   UNL A   1      31.778  25.049  23.261  1.00  0.00     0.024 A 
ATOM     17  C   UNL A   1      31.260  24.157  24.198  1.00  0.00     0.035 A 
BRANCH  15  18
ATOM     18  C   UNL A   1      33.303  26.873  22.692  1.00  0.00     0.101 C 
ATOM     19  N   UNL A   1      33.780  27.587  21.915  1.00  0.00    -0.192 NA
ENDBRANCH  15  18
ENDBRANCH   8  11
ENDBRANCH   6   7
BRANCH   6  20
ATOM     20  C   UNL A   1      32.820  19.925  25.460  1.00  0.00     0.045 C 
BRANCH  20  21
ATOM     21  C   UNL A   1      32.863  19.546  23.990  1.00  0.00     0.102 C 
BRANCH  21  22
ATOM     22  C   UNL A   1      32.472  18.121  23.716  1.00  0.00     0.217 C 
ATOM     23  N   UNL A   1      31.935  17.933  22.474  1.00  0.00    -0.370 N 
ATOM     24  O   UNL A   1      32.570  17.203  24.518  1.00  0.00    -0.275 OA
ATOM     25  H   UNL A   1      31.868  18.690  21.848  1.00  0.00     0.159 HD
ATOM     26  H   UNL A   1      31.618  17.041  22.204  1.00  0.00     0.159 HD
ENDBRANCH  21  22
ENDBRANCH  20  21
ENDBRANCH   6  20
ENDBRANCH   3   6
ENDBRANCH   1   2
BRANCH   1  27
ATOM     27  C   UNL A   1      37.173  20.224  24.957  1.00  0.00     0.042 C 
BRANCH  27  28
ATOM     28  C   UNL A   1      38.537  20.777  25.335  1.00  0.00     0.118 C 
BRANCH  28  29
ATOM     29  N   UNL A   1      39.499  19.718  25.589  1.00  0.00    -0.352 N 
ATOM     30  C   UNL A   1      40.793  19.812  26.034  1.00  0.00     0.251 C 
ATOM     31  H   UNL A   1      39.176  18.804  25.418  1.00  0.00     0.163 HD
ATOM     32  O   UNL A   1      41.547  18.850  25.958  1.00  0.00    -0.269 OA
BRANCH  30  33
ATOM     33  C   UNL A   1      41.275  21.089  26.596  1.00  0.00     0.039 A 
ATOM     34  C   UNL A   1      41.867  22.027  25.747  1.00  0.00     0.014 A 
ATOM     35  C   UNL A   1      41.143  21.350  27.964  1.00  0.00     0.014 A 
ATOM     36  C   UNL A   1      42.278  23.255  26.265  1.00  0.00     0.010 A 
ATOM     37  C   UNL A   1      41.488  22.599  28.464  1.00  0.00     0.010 A 
ATOM     38  C   UNL A   1      42.069  23.556  27.620  1.00  0.00    -0.014 A 
BRANCH  38  39
ATOM     39  C   UNL A   1      42.485  24.855  28.193  1.00  0.00     0.031 A 
ATOM     40  C   UNL A   1      41.475  25.952  28.354  1.00  0.00     0.074 A 
ATOM     41  C   UNL A   1      43.774  25.061  28.520  1.00  0.00     0.049 A 
ATOM     42  N   UNL A   1      41.653  27.174  28.786  1.00  0.00    -0.248 NA
ATOM     43  C   UNL A   1      40.086  25.644  27.971  1.00  0.00     0.031 C 
ATOM     44  C   UNL A   1      44.847  24.072  28.397  1.00  0.00     0.029 A 
ATOM     45  N   UNL A   1      44.401  26.174  29.021  1.00  0.00    -0.354 N 
ATOM     46  C   UNL A   1      40.404  27.776  28.728  1.00  0.00     0.074 A 
ATOM     47  C   UNL A   1      39.484  26.808  28.175  1.00  0.00     0.031 C 
ATOM     48  C   UNL A   1      45.993  24.615  28.836  1.00  0.00     0.029 A 
ATOM     49  C   UNL A   1      45.746  26.000  29.232  1.00  0.00     0.049 A 
ATOM     50  H   UNL A   1      43.930  27.018  29.211  1.00  0.00     0.167 HD
ATOM     51  C   UNL A   1      40.053  29.020  29.124  1.00  0.00     0.031 A 
ATOM     52  C   UNL A   1      46.679  26.857  29.689  1.00  0.00     0.031 A 
ATOM     53  C   UNL A   1      40.968  29.978  29.678  1.00  0.00     0.049 A 
ATOM     54  C   UNL A   1      46.274  28.251  30.075  1.00  0.00     0.074 A 
ATOM     55  C   UNL A   1      40.693  31.253  30.136  1.00  0.00     0.029 A 
ATOM     56  N   UNL A   1      42.327  29.769  29.849  1.00  0.00    -0.354 N 
ATOM     57  N   UNL A   1      45.083  28.798  30.042  1.00  0.00    -0.248 NA
ATOM     58  C   UNL A   1      47.333  29.143  30.569  1.00  0.00     0.031 C 
ATOM     59  C   UNL A   1      41.896  31.840  30.533  1.00  0.00     0.029 A 
ATOM     60  C   UNL A   1      42.908  30.903  30.387  1.00  0.00     0.049 A 
ATOM     61  H   UNL A   1      42.806  28.940  29.622  1.00  0.00     0.167 HD
ATOM     62  C   UNL A   1      45.242  30.084  30.540  1.00  0.00     0.074 A 
ATOM     63  C   UNL A   1      46.643  30.238  30.867  1.00  0.00     0.031 C 
ATOM     64  C   UNL A   1      44.302  31.044  30.717  1.00  0.00     0.031 A 
BRANCH  51  65
ATOM     65  C   UNL A   1      38.615  29.425  28.993  1.00  0.00    -0.014 A 
ATOM     66  C   UNL A   1      38.108  29.885  27.768  1.00  0.00     0.009 A 
ATOM     67  C   UNL A   1      37.733  29.227  30.066  1.00  0.00     0.009 A 
ATOM     68  C   UNL A   1      36.744  30.133  27.619  1.00  0.00     0.001 A 
ATOM     69  C   UNL A   1      36.366  29.453  29.907  1.00  0.00     0.001 A 
ATOM     70  C   UNL A   1      35.872  29.904  28.683  1.00  0.00     0.000 A 
ENDBRANCH  51  65
BRANCH  52  71
ATOM     71  C   UNL A   1      48.080  26.390  29.838  1.00  0.00    -0.014 A 
ATOM     72  C   UNL A   1      48.494  25.764  31.023  1.00  0.00     0.009 A 
ATOM     73  C   UNL A   1      48.990  26.503  28.774  1.00  0.00     0.009 A 
ATOM     74  C   UNL A   1      49.791  25.256  31.138  1.00  0.00     0.001 A 
ATOM     75  C   UNL A   1      50.277  25.973  28.885  1.00  0.00     0.001 A 
ATOM     76  C   UNL A   1      50.676  25.352  30.066  1.00  0.00     0.000 A 
ENDBRANCH  52  71
BRANCH  64  77
ATOM     77  C   UNL A   1      44.725  32.349  31.327  1.00  0.00    -0.014 A 
ATOM     78  C   UNL A   1      45.084  33.443  30.526  1.00  0.00     0.009 A 
ATOM     79  C   UNL A   1      44.624  32.523  32.717  1.00  0.00     0.009 A 
ATOM     80  C   UNL A   1      45.339  34.686  31.109  1.00  0.00     0.001 A 
ATOM     81  C   UNL A   1      44.852  33.774  33.293  1.00  0.00     0.001 A 
ATOM     82  C   UNL A   1      45.211  34.853  32.488  1.00  0.00     0.000 A 
ENDBRANCH  64  77
ENDBRANCH  38  39
ENDBRANCH  30  33
ENDBRANCH  28  29
ENDBRANCH  27  28
ENDBRANCH   1  27
TORSDOF 16
ENDMDL
MODEL 3
REMARK VINA RESULT:     -10.8      3.580      8.744
REMARK SMILES Cc1nc(C(=O)N[C@H](CCC(N)=O)C(=O)NCCCNC(=O)c2ccc(-c3c4nc(c(-c5ccccc5)c5ccc([nH]5)c(-c5ccccc5)c5nc(c(-c6ccccc6)c6ccc3[nH]6)C=C5)C=C4)cc2)ccc1C#N
REMARK SMILES IDX 17 1 16 2 14 3 15 4 8 6 7 7 5 8 6 9 4 11 1 12 2 13 3 14
REMARK SMILES IDX 73 15 72 16 71 17 74 18 75 19 9 20 10 21 11 22 12 23 13 24
REMARK SMILES IDX 18 27 19 28 20 29 21 30 22 32 23 33 24 34 70 35 25 36 69 37
REMARK SMILES IDX 26 38 27 39 28 40 63 41 29 42 68 43 62 44 64 45 30 46 67 47
REMARK SMILES IDX 61 48 60 49 31 51 53 52 38 53 52 54 39 55 42 56 51 57 65 58
REMARK SMILES IDX 40 59 41 60 50 62 66 63 43 64 32 65 33 66 37 67 34 68 36 69
REMARK SMILES IDX 35 70 54 71 55 72 59 73 56 74 58 75 57 76 44 77 45 78 49 79
REMARK SMILES IDX 46 80 48 81 47 82
REMARK H PARENT 16 5 7 10 12 25 12 26 20 31 64 50 42 61
REMARK Flexibility Score: inf
ROOT
ATOM      1  C   UNL A   1      36.114  20.908  24.797  1.00  0.00     0.117 C 
ENDROOT
BRANCH   1   2
ATOM      2  N   UNL A   1      35.462  21.174  26.070  1.00  0.00    -0.354 N 
ATOM      3  C   UNL A   1      34.145  21.156  26.443  1.00  0.00     0.242 C 
ATOM      4  O   UNL A   1      33.896  21.471  27.611  1.00  0.00    -0.273 OA
ATOM      5  H   UNL A   1      36.082  21.413  26.796  1.00  0.00     0.163 HD
BRANCH   3   6
ATOM      6  C   UNL A   1      33.016  20.716  25.467  1.00  0.00     0.172 C 
BRANCH   6   7
ATOM      7  N   UNL A   1      31.758  21.210  26.041  1.00  0.00    -0.339 N 
ATOM      8  C   UNL A   1      31.072  22.387  25.879  1.00  0.00     0.270 C 
ATOM      9  O   UNL A   1      29.990  22.504  26.459  1.00  0.00    -0.267 OA
ATOM     10  H   UNL A   1      31.326  20.578  26.659  1.00  0.00     0.164 HD
BRANCH   8  11
ATOM     11  C   UNL A   1      31.537  23.487  24.978  1.00  0.00     0.128 A 
ATOM     12  C   UNL A   1      33.847  26.356  25.179  1.00  0.00     0.068 C 
ATOM     13  C   UNL A   1      32.885  25.353  24.599  1.00  0.00     0.056 A 
ATOM     14  N   UNL A   1      32.378  24.430  25.465  1.00  0.00    -0.247 NA
ATOM     15  C   UNL A   1      32.596  25.327  23.233  1.00  0.00     0.073 A 
ATOM     16  C   UNL A   1      31.691  24.374  22.761  1.00  0.00     0.024 A 
ATOM     17  C   UNL A   1      31.142  23.448  23.646  1.00  0.00     0.035 A 
BRANCH  15  18
ATOM     18  C   UNL A   1      33.258  26.193  22.304  1.00  0.00     0.101 C 
ATOM     19  N   UNL A   1      33.803  26.850  21.519  1.00  0.00    -0.192 NA
ENDBRANCH  15  18
ENDBRANCH   8  11
ENDBRANCH   6   7
BRANCH   6  20
ATOM     20  C   UNL A   1      33.069  19.194  25.259  1.00  0.00     0.045 C 
BRANCH  20  21
ATOM     21  C   UNL A   1      33.108  18.645  23.843  1.00  0.00     0.102 C 
BRANCH  21  22
ATOM     22  C   UNL A   1      34.012  17.457  23.674  1.00  0.00     0.217 C 
ATOM     23  N   UNL A   1      34.803  17.215  24.762  1.00  0.00    -0.370 N 
ATOM     24  O   UNL A   1      34.089  16.776  22.661  1.00  0.00    -0.275 OA
ATOM     25  H   UNL A   1      34.720  17.779  25.565  1.00  0.00     0.159 HD
ATOM     26  H   UNL A   1      35.453  16.477  24.744  1.00  0.00     0.159 HD
ENDBRANCH  21  22
ENDBRANCH  20  21
ENDBRANCH   6  20
ENDBRANCH   3   6
ENDBRANCH   1   2
BRANCH   1  27
ATOM     27  C   UNL A   1      37.263  19.906  24.934  1.00  0.00     0.042 C 
BRANCH  27  28
ATOM     28  C   UNL A   1      38.554  20.526  25.442  1.00  0.00     0.118 C 
BRANCH  28  29
ATOM     29  N   UNL A   1      39.591  19.527  25.644  1.00  0.00    -0.352 N 
ATOM     30  C   UNL A   1      40.898  19.701  26.022  1.00  0.00     0.251 C 
ATOM     31  H   UNL A   1      39.316  18.595  25.489  1.00  0.00     0.163 HD
ATOM     32  O   UNL A   1      41.704  18.786  25.906  1.00  0.00    -0.269 OA
BRANCH  30  33
ATOM     33  C   UNL A   1      41.330  21.006  26.561  1.00  0.00     0.039 A 
ATOM     34  C   UNL A   1      41.893  21.947  25.697  1.00  0.00     0.014 A 
ATOM     35  C   UNL A   1      41.180  21.290  27.922  1.00  0.00     0.014 A 
ATOM     36  C   UNL A   1      42.256  23.200  26.191  1.00  0.00     0.010 A 
ATOM     37  C   UNL A   1      41.475  22.560  28.398  1.00  0.00     0.010 A 
ATOM     38  C   UNL A   1      42.028  23.520  27.538  1.00  0.00    -0.014 A 
BRANCH  38  39
ATOM     39  C   UNL A   1      42.393  24.845  28.087  1.00  0.00     0.031 A 
ATOM     40  C   UNL A   1      43.819  25.127  28.456  1.00  0.00     0.074 A 
ATOM     41  C   UNL A   1      41.438  25.770  28.295  1.00  0.00     0.049 A 
ATOM     42  N   UNL A   1      44.328  26.204  28.997  1.00  0.00    -0.248 NA
ATOM     43  C   UNL A   1      44.802  24.061  28.196  1.00  0.00     0.031 C 
ATOM     44  C   UNL A   1      40.016  25.604  27.984  1.00  0.00     0.029 A 
ATOM     45  N   UNL A   1      41.519  27.035  28.822  1.00  0.00    -0.354 N 
ATOM     46  C   UNL A   1      45.683  25.945  29.139  1.00  0.00     0.074 A 
ATOM     47  C   UNL A   1      45.916  24.596  28.677  1.00  0.00     0.031 C 
ATOM     48  C   UNL A   1      39.365  26.734  28.302  1.00  0.00     0.029 A 
ATOM     49  C   UNL A   1      40.313  27.687  28.875  1.00  0.00     0.049 A 
ATOM     50  H   UNL A   1      42.364  27.435  29.131  1.00  0.00     0.167 HD
ATOM     51  C   UNL A   1      46.652  26.770  29.595  1.00  0.00     0.031 A 
ATOM     52  C   UNL A   1      40.001  28.913  29.337  1.00  0.00     0.031 A 
ATOM     53  C   UNL A   1      46.420  28.112  30.051  1.00  0.00     0.049 A 
ATOM     54  C   UNL A   1      41.087  29.794  29.886  1.00  0.00     0.074 A 
ATOM     55  C   UNL A   1      47.349  29.033  30.500  1.00  0.00     0.029 A 
ATOM     56  N   UNL A   1      45.179  28.724  30.113  1.00  0.00    -0.354 N 
ATOM     57  N   UNL A   1      42.370  29.545  29.988  1.00  0.00    -0.248 NA
ATOM     58  C   UNL A   1      40.689  31.121  30.374  1.00  0.00     0.031 C 
ATOM     59  C   UNL A   1      46.663  30.184  30.890  1.00  0.00     0.029 A 
ATOM     60  C   UNL A   1      45.316  30.005  30.616  1.00  0.00     0.049 A 
ATOM     61  H   UNL A   1      44.328  28.310  29.841  1.00  0.00     0.167 HD
ATOM     62  C   UNL A   1      42.938  30.696  30.520  1.00  0.00     0.074 A 
ATOM     63  C   UNL A   1      41.861  31.642  30.721  1.00  0.00     0.031 C 
ATOM     64  C   UNL A   1      44.239  30.942  30.804  1.00  0.00     0.031 A 
BRANCH  51  65
ATOM     65  C   UNL A   1      48.063  26.263  29.615  1.00  0.00    -0.014 A 
ATOM     66  C   UNL A   1      48.932  26.517  28.542  1.00  0.00     0.009 A 
ATOM     67  C   UNL A   1      48.565  25.639  30.767  1.00  0.00     0.009 A 
ATOM     68  C   UNL A   1      50.277  26.158  28.625  1.00  0.00     0.001 A 
ATOM     69  C   UNL A   1      49.917  25.304  30.856  1.00  0.00     0.001 A 
ATOM     70  C   UNL A   1      50.772  25.565  29.787  1.00  0.00     0.000 A 
ENDBRANCH  51  65
BRANCH  52  71
ATOM     71  C   UNL A   1      38.594  29.381  29.255  1.00  0.00    -0.014 A 
ATOM     72  C   UNL A   1      37.724  29.198  30.340  1.00  0.00     0.009 A 
ATOM     73  C   UNL A   1      38.135  30.075  28.124  1.00  0.00     0.009 A 
ATOM     74  C   UNL A   1      36.422  29.704  30.295  1.00  0.00     0.001 A 
ATOM     75  C   UNL A   1      36.841  30.599  28.093  1.00  0.00     0.001 A 
ATOM     76  C   UNL A   1      35.987  30.412  29.177  1.00  0.00     0.000 A 
ENDBRANCH  52  71
BRANCH  64  77
ATOM     77  C   UNL A   1      44.608  32.299  31.332  1.00  0.00    -0.014 A 
ATOM     78  C   UNL A   1      44.873  33.369  30.465  1.00  0.00     0.009 A 
ATOM     79  C   UNL A   1      44.548  32.538  32.716  1.00  0.00     0.009 A 
ATOM     80  C   UNL A   1      45.077  34.652  30.977  1.00  0.00     0.001 A 
ATOM     81  C   UNL A   1      44.725  33.827  33.220  1.00  0.00     0.001 A 
ATOM     82  C   UNL A   1      44.990  34.882  32.350  1.00  0.00     0.000 A 
ENDBRANCH  64  77
ENDBRANCH  38  39
ENDBRANCH  30  33
ENDBRANCH  28  29
ENDBRANCH  27  28
ENDBRANCH   1  27
TORSDOF 16
ENDMDL
