MODEL 1
REMARK VINA RESULT:     -12.1      0.000      0.000
REMARK SMILES O=C(NCCCNC(=O)[C@H]1CC[C@@H]2CCCC[C@H]2N1C(=O)N1CCSCC1)c1ccc(-c2c3nc(c(-c4ccccc4)c4ccc([nH]4)c(-c4ccccc4)c4nc(c(-c5ccccc5)c5ccc2[nH]5)C=C4)C=C3)cc1
REMARK SMILES IDX 4 1 3 2 1 3 2 4 28 6 29 7 75 8 30 9 74 10 31 11 32 12 33 13
REMARK SMILES IDX 68 14 34 15 73 16 67 17 69 18 35 19 72 20 66 21 65 22 36 24
REMARK SMILES IDX 58 25 43 26 57 27 44 28 47 29 56 30 70 31 45 32 46 33 55 35
REMARK SMILES IDX 71 36 48 37 37 38 38 39 42 40 39 41 41 42 40 43 59 44 60 45
REMARK SMILES IDX 64 46 61 47 63 48 62 49 49 50 50 51 54 52 51 53 53 54 52 55
REMARK SMILES IDX 5 56 6 57 7 58 8 59 9 61 10 62 11 63 19 64 12 65 18 66 13 67
REMARK SMILES IDX 17 68 14 69 16 70 15 71 20 72 21 73 22 74 23 75 27 76 24 77
REMARK SMILES IDX 26 78 25 79
REMARK H PARENT 3 5 69 23 47 34 7 60
REMARK Flexibility Score: inf
ROOT
ATOM      1  C   UNL A   1      33.780  28.780  27.375  1.00  0.00     0.118 C 
ENDROOT
BRANCH   1   2
ATOM      2  N   UNL A   1      33.796  30.095  28.001  1.00  0.00    -0.352 N 
ATOM      3  O   UNL A   1      34.533  31.825  29.230  1.00  0.00    -0.269 OA
ATOM      4  C   UNL A   1      34.795  30.771  28.656  1.00  0.00     0.251 C 
ATOM      5  H   UNL A   1      32.942  30.582  27.946  1.00  0.00     0.163 HD
BRANCH   4   6
ATOM      6  C   UNL A   1      36.176  30.238  28.701  1.00  0.00     0.039 A 
ATOM      7  C   UNL A   1      37.016  30.313  27.591  1.00  0.00     0.014 A 
ATOM      8  C   UNL A   1      36.655  29.694  29.898  1.00  0.00     0.014 A 
ATOM      9  C   UNL A   1      38.264  29.703  27.626  1.00  0.00     0.010 A 
ATOM     10  C   UNL A   1      37.950  29.169  29.962  1.00  0.00     0.010 A 
ATOM     11  C   UNL A   1      38.756  29.138  28.816  1.00  0.00    -0.014 A 
BRANCH  11  12
ATOM     12  C   UNL A   1      40.138  28.596  28.832  1.00  0.00     0.031 A 
ATOM     13  C   UNL A   1      40.428  27.165  28.468  1.00  0.00     0.074 A 
ATOM     14  C   UNL A   1      41.153  29.436  29.118  1.00  0.00     0.049 A 
ATOM     15  N   UNL A   1      41.589  26.573  28.337  1.00  0.00    -0.248 NA
ATOM     16  C   UNL A   1      39.275  26.284  28.227  1.00  0.00     0.031 C 
ATOM     17  C   UNL A   1      40.999  30.841  29.508  1.00  0.00     0.029 A 
ATOM     18  N   UNL A   1      42.511  29.249  29.088  1.00  0.00    -0.354 N 
ATOM     19  C   UNL A   1      41.309  25.253  28.004  1.00  0.00     0.074 A 
ATOM     20  C   UNL A   1      39.868  25.122  27.985  1.00  0.00     0.031 C 
ATOM     21  C   UNL A   1      42.210  31.404  29.613  1.00  0.00     0.029 A 
ATOM     22  C   UNL A   1      43.226  30.391  29.357  1.00  0.00     0.049 A 
ATOM     23  H   UNL A   1      42.933  28.381  28.892  1.00  0.00     0.167 HD
ATOM     24  C   UNL A   1      42.174  24.246  27.729  1.00  0.00     0.031 A 
ATOM     25  C   UNL A   1      44.554  30.603  29.399  1.00  0.00     0.031 A 
ATOM     26  C   UNL A   1      43.608  24.373  27.755  1.00  0.00     0.049 A 
ATOM     27  C   UNL A   1      45.484  29.465  29.102  1.00  0.00     0.074 A 
ATOM     28  C   UNL A   1      44.565  23.409  27.483  1.00  0.00     0.029 A 
ATOM     29  N   UNL A   1      44.293  25.536  28.071  1.00  0.00    -0.354 N 
ATOM     30  N   UNL A   1      45.198  28.234  28.759  1.00  0.00    -0.248 NA
ATOM     31  C   UNL A   1      46.922  29.750  29.193  1.00  0.00     0.031 C 
ATOM     32  C   UNL A   1      45.828  23.978  27.676  1.00  0.00     0.029 A 
ATOM     33  C   UNL A   1      45.659  25.309  28.018  1.00  0.00     0.049 A 
ATOM     34  H   UNL A   1      43.871  26.396  28.300  1.00  0.00     0.167 HD
ATOM     35  C   UNL A   1      46.419  27.597  28.591  1.00  0.00     0.074 A 
ATOM     36  C   UNL A   1      47.446  28.589  28.832  1.00  0.00     0.031 C 
ATOM     37  C   UNL A   1      46.668  26.302  28.276  1.00  0.00     0.031 A 
BRANCH  24  38
ATOM     38  C   UNL A   1      41.592  22.902  27.386  1.00  0.00    -0.014 A 
ATOM     39  C   UNL A   1      41.074  22.642  26.108  1.00  0.00     0.009 A 
ATOM     40  C   UNL A   1      41.625  21.863  28.330  1.00  0.00     0.009 A 
ATOM     41  C   UNL A   1      40.581  21.374  25.789  1.00  0.00     0.001 A 
ATOM     42  C   UNL A   1      41.153  20.591  28.001  1.00  0.00     0.001 A 
ATOM     43  C   UNL A   1      40.627  20.349  26.733  1.00  0.00     0.000 A 
ENDBRANCH  24  38
BRANCH  25  44
ATOM     44  C   UNL A   1      45.078  31.946  29.755  1.00  0.00    -0.014 A 
ATOM     45  C   UNL A   1      45.334  32.906  28.763  1.00  0.00     0.009 A 
ATOM     46  C   UNL A   1      45.329  32.274  31.097  1.00  0.00     0.009 A 
ATOM     47  C   UNL A   1      45.855  34.155  29.108  1.00  0.00     0.001 A 
ATOM     48  C   UNL A   1      45.817  33.535  31.441  1.00  0.00     0.001 A 
ATOM     49  C   UNL A   1      46.091  34.471  30.444  1.00  0.00     0.000 A 
ENDBRANCH  25  44
BRANCH  37  50
ATOM     50  C   UNL A   1      48.110  25.902  28.170  1.00  0.00    -0.014 A 
ATOM     51  C   UNL A   1      48.846  25.537  29.308  1.00  0.00     0.009 A 
ATOM     52  C   UNL A   1      48.741  25.888  26.916  1.00  0.00     0.009 A 
ATOM     53  C   UNL A   1      50.199  25.210  29.199  1.00  0.00     0.001 A 
ATOM     54  C   UNL A   1      50.086  25.533  26.806  1.00  0.00     0.001 A 
ATOM     55  C   UNL A   1      50.817  25.206  27.949  1.00  0.00     0.000 A 
ENDBRANCH  37  50
ENDBRANCH  11  12
ENDBRANCH   4   6
ENDBRANCH   1   2
BRANCH   1  56
ATOM     56  C   UNL A   1      32.456  28.041  27.541  1.00  0.00     0.042 C 
BRANCH  56  57
ATOM     57  C   UNL A   1      32.066  27.186  26.342  1.00  0.00     0.117 C 
BRANCH  57  58
ATOM     58  N   UNL A   1      31.242  26.044  26.702  1.00  0.00    -0.354 N 
ATOM     59  C   UNL A   1      31.544  24.707  26.762  1.00  0.00     0.242 C 
ATOM     60  H   UNL A   1      30.314  26.267  26.944  1.00  0.00     0.163 HD
ATOM     61  O   UNL A   1      30.691  23.963  27.251  1.00  0.00    -0.273 OA
BRANCH  59  62
ATOM     62  C   UNL A   1      32.940  24.214  26.309  1.00  0.00     0.176 C 
ATOM     63  C   UNL A   1      33.208  23.032  27.262  1.00  0.00     0.036 C 
ATOM     64  N   UNL A   1      33.312  23.824  24.918  1.00  0.00    -0.309 N 
ATOM     65  C   UNL A   1      34.654  22.582  27.203  1.00  0.00     0.008 C 
ATOM     66  C   UNL A   1      34.752  23.404  24.796  1.00  0.00     0.091 C 
ATOM     67  C   UNL A   1      35.044  22.226  25.768  1.00  0.00     0.012 C 
ATOM     68  C   UNL A   1      35.289  23.049  23.392  1.00  0.00     0.025 C 
ATOM     69  C   UNL A   1      36.517  21.796  25.751  1.00  0.00     0.006 C 
ATOM     70  C   UNL A   1      36.755  22.613  23.402  1.00  0.00     0.002 C 
ATOM     71  C   UNL A   1      36.989  21.448  24.349  1.00  0.00     0.000 C 
BRANCH  64  72
ATOM     72  C   UNL A   1      32.523  24.012  23.790  1.00  0.00     0.321 C 
ATOM     73  O   UNL A   1      32.140  23.113  23.043  1.00  0.00    -0.248 OA
ATOM     74  N   UNL A   1      32.073  25.296  23.541  1.00  0.00    -0.323 N 
ATOM     75  C   UNL A   1      30.612  25.410  23.534  1.00  0.00     0.132 C 
ATOM     76  C   UNL A   1      32.730  25.998  22.441  1.00  0.00     0.132 C 
ATOM     77  C   UNL A   1      30.084  26.839  23.619  1.00  0.00     0.091 C 
ATOM     78  C   UNL A   1      32.429  27.497  22.376  1.00  0.00     0.091 C 
ATOM     79  S   UNL A   1      30.653  27.848  22.211  1.00  0.00    -0.158 SA
ENDBRANCH  64  72
ENDBRANCH  59  62
ENDBRANCH  57  58
ENDBRANCH  56  57
ENDBRANCH   1  56
TORSDOF 11
ENDMDL
MODEL 2
REMARK VINA RESULT:     -11.5      3.593      6.717
REMARK SMILES O=C(NCCCNC(=O)[C@H]1CC[C@@H]2CCCC[C@H]2N1C(=O)N1CCSCC1)c1ccc(-c2c3nc(c(-c4ccccc4)c4ccc([nH]4)c(-c4ccccc4)c4nc(c(-c5ccccc5)c5ccc2[nH]5)C=C4)C=C3)cc1
REMARK SMILES IDX 4 1 3 2 1 3 2 4 28 6 29 7 75 8 30 9 74 10 31 11 32 12 33 13
REMARK SMILES IDX 68 14 34 15 73 16 67 17 69 18 35 19 72 20 66 21 65 22 36 24
REMARK SMILES IDX 58 25 43 26 57 27 44 28 47 29 56 30 70 31 45 32 46 33 55 35
REMARK SMILES IDX 71 36 48 37 37 38 38 39 42 40 39 41 41 42 40 43 59 44 60 45
REMARK SMILES IDX 64 46 61 47 63 48 62 49 49 50 50 51 54 52 51 53 53 54 52 55
REMARK SMILES IDX 5 56 6 57 7 58 8 59 9 61 10 62 11 63 19 64 12 65 18 66 13 67
REMARK SMILES IDX 17 68 14 69 16 70 15 71 20 72 21 73 22 74 23 75 27 76 24 77
REMARK SMILES IDX 26 78 25 79
REMARK H PARENT 3 5 69 23 47 34 7 60
REMARK Flexibility Score: inf
ROOT
ATOM      1  C   UNL A   1      32.266  29.928  26.000  1.00  0.00     0.118 C 
ENDROOT
BRANCH   1   2
ATOM      2  N   UNL A   1      31.987  31.326  26.294  1.00  0.00    -0.352 N 
ATOM      3  O   UNL A   1      32.123  33.324  27.313  1.00  0.00    -0.269 OA
ATOM      4  C   UNL A   1      32.628  32.222  27.114  1.00  0.00     0.251 C 
ATOM      5  H   UNL A   1      31.202  31.692  25.826  1.00  0.00     0.163 HD
BRANCH   4   6
ATOM      6  C   UNL A   1      33.904  31.872  27.777  1.00  0.00     0.039 A 
ATOM      7  C   UNL A   1      34.187  30.560  28.154  1.00  0.00     0.014 A 
ATOM      8  C   UNL A   1      34.858  32.874  27.985  1.00  0.00     0.014 A 
ATOM      9  C   UNL A   1      35.341  30.281  28.877  1.00  0.00     0.010 A 
ATOM     10  C   UNL A   1      36.066  32.573  28.625  1.00  0.00     0.010 A 
ATOM     11  C   UNL A   1      36.304  31.279  29.108  1.00  0.00    -0.014 A 
BRANCH  11  12
ATOM     12  C   UNL A   1      37.570  30.908  29.790  1.00  0.00     0.031 A 
ATOM     13  C   UNL A   1      37.826  31.268  31.228  1.00  0.00     0.074 A 
ATOM     14  C   UNL A   1      38.472  30.172  29.110  1.00  0.00     0.049 A 
ATOM     15  N   UNL A   1      38.835  30.927  31.991  1.00  0.00    -0.248 NA
ATOM     16  C   UNL A   1      36.832  32.124  31.895  1.00  0.00     0.031 C 
ATOM     17  C   UNL A   1      38.349  29.777  27.704  1.00  0.00     0.029 A 
ATOM     18  N   UNL A   1      39.647  29.592  29.514  1.00  0.00    -0.354 N 
ATOM     19  C   UNL A   1      38.602  31.527  33.223  1.00  0.00     0.074 A 
ATOM     20  C   UNL A   1      37.373  32.282  33.097  1.00  0.00     0.031 C 
ATOM     21  C   UNL A   1      39.367  28.966  27.384  1.00  0.00     0.029 A 
ATOM     22  C   UNL A   1      40.244  28.831  28.539  1.00  0.00     0.049 A 
ATOM     23  H   UNL A   1      40.026  29.710  30.416  1.00  0.00     0.167 HD
ATOM     24  C   UNL A   1      39.340  31.449  34.357  1.00  0.00     0.031 A 
ATOM     25  C   UNL A   1      41.377  28.105  28.566  1.00  0.00     0.031 A 
ATOM     26  C   UNL A   1      40.567  30.706  34.481  1.00  0.00     0.049 A 
ATOM     27  C   UNL A   1      42.177  28.048  29.833  1.00  0.00     0.074 A 
ATOM     28  C   UNL A   1      41.380  30.561  35.594  1.00  0.00     0.029 A 
ATOM     29  N   UNL A   1      41.159  29.980  33.459  1.00  0.00    -0.354 N 
ATOM     30  N   UNL A   1      41.923  28.598  30.994  1.00  0.00    -0.248 NA
ATOM     31  C   UNL A   1      43.419  27.265  29.792  1.00  0.00     0.031 C 
ATOM     32  C   UNL A   1      42.485  29.784  35.233  1.00  0.00     0.029 A 
ATOM     33  C   UNL A   1      42.335  29.402  33.910  1.00  0.00     0.049 A 
ATOM     34  H   UNL A   1      40.798  29.891  32.547  1.00  0.00     0.167 HD
ATOM     35  C   UNL A   1      42.971  28.225  31.824  1.00  0.00     0.074 A 
ATOM     36  C   UNL A   1      43.842  27.372  31.042  1.00  0.00     0.031 C 
ATOM     37  C   UNL A   1      43.198  28.569  33.115  1.00  0.00     0.031 A 
BRANCH  24  38
ATOM     38  C   UNL A   1      38.847  32.201  35.563  1.00  0.00    -0.014 A 
ATOM     39  C   UNL A   1      38.142  31.548  36.585  1.00  0.00     0.009 A 
ATOM     40  C   UNL A   1      39.150  33.564  35.710  1.00  0.00     0.009 A 
ATOM     41  C   UNL A   1      37.732  32.249  37.722  1.00  0.00     0.001 A 
ATOM     42  C   UNL A   1      38.760  34.257  36.858  1.00  0.00     0.001 A 
ATOM     43  C   UNL A   1      38.047  33.601  37.860  1.00  0.00     0.000 A 
ENDBRANCH  24  38
BRANCH  25  44
ATOM     44  C   UNL A   1      41.828  27.390  27.344  1.00  0.00    -0.014 A 
ATOM     45  C   UNL A   1      41.455  26.057  27.112  1.00  0.00     0.009 A 
ATOM     46  C   UNL A   1      42.639  28.042  26.403  1.00  0.00     0.009 A 
ATOM     47  C   UNL A   1      41.909  25.386  25.973  1.00  0.00     0.001 A 
ATOM     48  C   UNL A   1      43.063  27.380  25.250  1.00  0.00     0.001 A 
ATOM     49  C   UNL A   1      42.707  26.048  25.042  1.00  0.00     0.000 A 
ENDBRANCH  25  44
BRANCH  37  50
ATOM     50  C   UNL A   1      44.436  28.008  33.752  1.00  0.00    -0.014 A 
ATOM     51  C   UNL A   1      45.648  28.714  33.723  1.00  0.00     0.009 A 
ATOM     52  C   UNL A   1      44.389  26.758  34.389  1.00  0.00     0.009 A 
ATOM     53  C   UNL A   1      46.802  28.159  34.282  1.00  0.00     0.001 A 
ATOM     54  C   UNL A   1      45.537  26.218  34.971  1.00  0.00     0.001 A 
ATOM     55  C   UNL A   1      46.744  26.913  34.906  1.00  0.00     0.000 A 
ENDBRANCH  37  50
ENDBRANCH  11  12
ENDBRANCH   4   6
ENDBRANCH   1   2
BRANCH   1  56
ATOM     56  C   UNL A   1      31.604  28.956  26.972  1.00  0.00     0.042 C 
BRANCH  56  57
ATOM     57  C   UNL A   1      32.205  27.556  26.959  1.00  0.00     0.117 C 
BRANCH  57  58
ATOM     58  N   UNL A   1      31.205  26.508  26.848  1.00  0.00    -0.354 N 
ATOM     59  C   UNL A   1      31.336  25.175  26.555  1.00  0.00     0.242 C 
ATOM     60  H   UNL A   1      30.280  26.804  27.011  1.00  0.00     0.163 HD
ATOM     61  O   UNL A   1      30.328  24.474  26.678  1.00  0.00    -0.273 OA
BRANCH  59  62
ATOM     62  C   UNL A   1      32.724  24.603  26.179  1.00  0.00     0.176 C 
ATOM     63  C   UNL A   1      32.790  23.300  27.002  1.00  0.00     0.036 C 
ATOM     64  N   UNL A   1      33.206  24.339  24.792  1.00  0.00    -0.309 N 
ATOM     65  C   UNL A   1      34.191  22.723  27.024  1.00  0.00     0.008 C 
ATOM     66  C   UNL A   1      34.610  23.798  24.756  1.00  0.00     0.091 C 
ATOM     67  C   UNL A   1      34.698  22.496  25.600  1.00  0.00     0.012 C 
ATOM     68  C   UNL A   1      35.260  23.554  23.376  1.00  0.00     0.025 C 
ATOM     69  C   UNL A   1      36.123  21.931  25.670  1.00  0.00     0.006 C 
ATOM     70  C   UNL A   1      36.674  22.981  23.471  1.00  0.00     0.002 C 
ATOM     71  C   UNL A   1      36.708  21.699  24.286  1.00  0.00     0.000 C 
BRANCH  64  72
ATOM     72  C   UNL A   1      32.558  24.728  23.626  1.00  0.00     0.321 C 
ATOM     73  O   UNL A   1      32.208  23.964  22.728  1.00  0.00    -0.248 OA
ATOM     74  N   UNL A   1      32.215  26.063  23.511  1.00  0.00    -0.323 N 
ATOM     75  C   UNL A   1      30.772  26.283  23.371  1.00  0.00     0.132 C 
ATOM     76  C   UNL A   1      33.029  26.852  22.589  1.00  0.00     0.132 C 
ATOM     77  C   UNL A   1      30.323  27.723  23.596  1.00  0.00     0.091 C 
ATOM     78  C   UNL A   1      32.825  28.364  22.699  1.00  0.00     0.091 C 
ATOM     79  S   UNL A   1      31.101  28.862  22.404  1.00  0.00    -0.158 SA
ENDBRANCH  64  72
ENDBRANCH  59  62
ENDBRANCH  57  58
ENDBRANCH  56  57
ENDBRANCH   1  56
TORSDOF 11
ENDMDL
MODEL 3
REMARK VINA RESULT:     -11.5      2.820      6.236
REMARK SMILES O=C(NCCCNC(=O)[C@H]1CC[C@@H]2CCCC[C@H]2N1C(=O)N1CCSCC1)c1ccc(-c2c3nc(c(-c4ccccc4)c4ccc([nH]4)c(-c4ccccc4)c4nc(c(-c5ccccc5)c5ccc2[nH]5)C=C4)C=C3)cc1
REMARK SMILES IDX 4 1 3 2 1 3 2 4 28 6 29 7 75 8 30 9 74 10 31 11 32 12 33 13
REMARK SMILES IDX 68 14 34 15 73 16 67 17 69 18 35 19 72 20 66 21 65 22 36 24
REMARK SMILES IDX 58 25 43 26 57 27 44 28 47 29 56 30 70 31 45 32 46 33 55 35
REMARK SMILES IDX 71 36 48 37 37 38 38 39 42 40 39 41 41 42 40 43 59 44 60 45
REMARK SMILES IDX 64 46 61 47 63 48 62 49 49 50 50 51 54 52 51 53 53 54 52 55
REMARK SMILES IDX 5 56 6 57 7 58 8 59 9 61 10 62 11 63 19 64 12 65 18 66 13 67
REMARK SMILES IDX 17 68 14 69 16 70 15 71 20 72 21 73 22 74 23 75 27 76 24 77
REMARK SMILES IDX 26 78 25 79
REMARK H PARENT 3 5 69 23 47 34 7 60
REMARK Flexibility Score: inf
ROOT
ATOM      1  C   UNL A   1      33.934  29.290  26.413  1.00  0.00     0.118 C 
ENDROOT
BRANCH   1   2
ATOM      2  N   UNL A   1      33.731  30.623  26.963  1.00  0.00    -0.352 N 
ATOM      3  O   UNL A   1      34.005  32.402  28.307  1.00  0.00    -0.269 OA
ATOM      4  C   UNL A   1      34.451  31.336  27.890  1.00  0.00     0.251 C 
ATOM      5  H   UNL A   1      32.941  31.093  26.610  1.00  0.00     0.163 HD
BRANCH   4   6
ATOM      6  C   UNL A   1      35.741  30.830  28.410  1.00  0.00     0.039 A 
ATOM      7  C   UNL A   1      36.952  31.396  28.014  1.00  0.00     0.014 A 
ATOM      8  C   UNL A   1      35.734  29.796  29.352  1.00  0.00     0.014 A 
ATOM      9  C   UNL A   1      38.150  30.827  28.429  1.00  0.00     0.010 A 
ATOM     10  C   UNL A   1      36.941  29.288  29.848  1.00  0.00     0.010 A 
ATOM     11  C   UNL A   1      38.162  29.777  29.364  1.00  0.00    -0.014 A 
BRANCH  11  12
ATOM     12  C   UNL A   1      39.469  29.275  29.859  1.00  0.00     0.031 A 
ATOM     13  C   UNL A   1      40.112  29.839  31.097  1.00  0.00     0.074 A 
ATOM     14  C   UNL A   1      40.048  28.245  29.211  1.00  0.00     0.049 A 
ATOM     15  N   UNL A   1      41.197  29.438  31.712  1.00  0.00    -0.248 NA
ATOM     16  C   UNL A   1      39.464  31.002  31.723  1.00  0.00     0.031 C 
ATOM     17  C   UNL A   1      39.533  27.625  27.986  1.00  0.00     0.029 A 
ATOM     18  N   UNL A   1      41.167  27.511  29.507  1.00  0.00    -0.354 N 
ATOM     19  C   UNL A   1      41.366  30.298  32.790  1.00  0.00     0.074 A 
ATOM     20  C   UNL A   1      40.289  31.264  32.728  1.00  0.00     0.031 C 
ATOM     21  C   UNL A   1      40.293  26.566  27.675  1.00  0.00     0.029 A 
ATOM     22  C   UNL A   1      41.380  26.466  28.641  1.00  0.00     0.049 A 
ATOM     23  H   UNL A   1      41.760  27.713  30.267  1.00  0.00     0.167 HD
ATOM     24  C   UNL A   1      42.323  30.279  33.748  1.00  0.00     0.031 A 
ATOM     25  C   UNL A   1      42.346  25.529  28.620  1.00  0.00     0.031 A 
ATOM     26  C   UNL A   1      43.399  29.323  33.807  1.00  0.00     0.049 A 
ATOM     27  C   UNL A   1      43.398  25.541  29.688  1.00  0.00     0.074 A 
ATOM     28  C   UNL A   1      44.412  29.220  34.746  1.00  0.00     0.029 A 
ATOM     29  N   UNL A   1      43.602  28.305  32.889  1.00  0.00    -0.354 N 
ATOM     30  N   UNL A   1      43.520  26.345  30.716  1.00  0.00    -0.248 NA
ATOM     31  C   UNL A   1      44.442  24.513  29.595  1.00  0.00     0.031 C 
ATOM     32  C   UNL A   1      45.252  28.166  34.372  1.00  0.00     0.029 A 
ATOM     33  C   UNL A   1      44.733  27.581  33.229  1.00  0.00     0.049 A 
ATOM     34  H   UNL A   1      43.029  28.124  32.109  1.00  0.00     0.167 HD
ATOM     35  C   UNL A   1      44.653  25.918  31.394  1.00  0.00     0.074 A 
ATOM     36  C   UNL A   1      45.158  24.762  30.682  1.00  0.00     0.031 C 
ATOM     37  C   UNL A   1      45.231  26.444  32.501  1.00  0.00     0.031 A 
BRANCH  24  38
ATOM     38  C   UNL A   1      42.262  31.336  34.817  1.00  0.00    -0.014 A 
ATOM     39  C   UNL A   1      41.580  31.110  36.021  1.00  0.00     0.009 A 
ATOM     40  C   UNL A   1      42.953  32.547  34.644  1.00  0.00     0.009 A 
ATOM     41  C   UNL A   1      41.572  32.083  37.024  1.00  0.00     0.001 A 
ATOM     42  C   UNL A   1      42.963  33.508  35.657  1.00  0.00     0.001 A 
ATOM     43  C   UNL A   1      42.268  33.277  36.844  1.00  0.00     0.000 A 
ENDBRANCH  24  38
BRANCH  25  44
ATOM     44  C   UNL A   1      42.369  24.513  27.537  1.00  0.00    -0.014 A 
ATOM     45  C   UNL A   1      43.071  24.747  26.345  1.00  0.00     0.009 A 
ATOM     46  C   UNL A   1      41.680  23.299  27.692  1.00  0.00     0.009 A 
ATOM     47  C   UNL A   1      43.061  23.795  25.321  1.00  0.00     0.001 A 
ATOM     48  C   UNL A   1      41.700  22.337  26.682  1.00  0.00     0.001 A 
ATOM     49  C   UNL A   1      42.381  22.591  25.492  1.00  0.00     0.000 A 
ENDBRANCH  25  44
BRANCH  37  50
ATOM     50  C   UNL A   1      46.468  25.758  33.003  1.00  0.00    -0.014 A 
ATOM     51  C   UNL A   1      47.742  26.143  32.555  1.00  0.00     0.009 A 
ATOM     52  C   UNL A   1      46.360  24.715  33.936  1.00  0.00     0.009 A 
ATOM     53  C   UNL A   1      48.880  25.467  32.998  1.00  0.00     0.001 A 
ATOM     54  C   UNL A   1      47.501  24.059  34.398  1.00  0.00     0.001 A 
ATOM     55  C   UNL A   1      48.759  24.427  33.920  1.00  0.00     0.000 A 
ENDBRANCH  37  50
ENDBRANCH  11  12
ENDBRANCH   4   6
ENDBRANCH   1   2
BRANCH   1  56
ATOM     56  C   UNL A   1      32.640  28.505  26.224  1.00  0.00     0.042 C 
BRANCH  56  57
ATOM     57  C   UNL A   1      32.324  27.544  27.363  1.00  0.00     0.117 C 
BRANCH  57  58
ATOM     58  N   UNL A   1      31.279  26.590  27.028  1.00  0.00    -0.354 N 
ATOM     59  C   UNL A   1      31.359  25.314  26.532  1.00  0.00     0.242 C 
ATOM     60  H   UNL A   1      30.362  26.914  27.184  1.00  0.00     0.163 HD
ATOM     61  O   UNL A   1      30.310  24.667  26.485  1.00  0.00    -0.273 OA
BRANCH  59  62
ATOM     62  C   UNL A   1      32.737  24.723  26.149  1.00  0.00     0.176 C 
ATOM     63  C   UNL A   1      32.805  23.438  26.999  1.00  0.00     0.036 C 
ATOM     64  N   UNL A   1      33.197  24.425  24.761  1.00  0.00    -0.309 N 
ATOM     65  C   UNL A   1      34.201  22.849  27.014  1.00  0.00     0.008 C 
ATOM     66  C   UNL A   1      34.595  23.872  24.717  1.00  0.00     0.091 C 
ATOM     67  C   UNL A   1      34.685  22.587  25.587  1.00  0.00     0.012 C 
ATOM     68  C   UNL A   1      35.223  23.593  23.333  1.00  0.00     0.025 C 
ATOM     69  C   UNL A   1      36.107  22.012  25.649  1.00  0.00     0.006 C 
ATOM     70  C   UNL A   1      36.634  23.010  23.420  1.00  0.00     0.002 C 
ATOM     71  C   UNL A   1      36.669  21.746  24.262  1.00  0.00     0.000 C 
BRANCH  64  72
ATOM     72  C   UNL A   1      32.535  24.794  23.597  1.00  0.00     0.321 C 
ATOM     73  O   UNL A   1      32.196  24.018  22.705  1.00  0.00    -0.248 OA
ATOM     74  N   UNL A   1      32.163  26.120  23.476  1.00  0.00    -0.323 N 
ATOM     75  C   UNL A   1      30.715  26.309  23.342  1.00  0.00     0.132 C 
ATOM     76  C   UNL A   1      32.955  26.921  22.546  1.00  0.00     0.132 C 
ATOM     77  C   UNL A   1      30.236  27.741  23.562  1.00  0.00     0.091 C 
ATOM     78  C   UNL A   1      32.720  28.430  22.648  1.00  0.00     0.091 C 
ATOM     79  S   UNL A   1      30.985  28.889  22.360  1.00  0.00    -0.158 SA
ENDBRANCH  64  72
ENDBRANCH  59  62
ENDBRANCH  57  58
ENDBRANCH  56  57
ENDBRANCH   1  56
TORSDOF 11
ENDMDL
