MODEL 1
REMARK VINA RESULT:     -11.4      0.000      0.000
REMARK SMILES O=C(C[C@H](C(=O)Nc1ccc([N+](=O)[O-])cc1)[C@H]1CCCO1)NCCCNC(=O)c1ccc(-c2c3nc(c(-c4ccccc4)c4ccc([nH]4)c(-c4ccccc4)c4nc(c(-c5ccccc5)c5ccc2[nH]5)C=C4)C=C3)cc1
REMARK SMILES IDX 23 1 22 2 1 3 2 4 3 6 4 7 5 8 6 9 7 10 8 12 9 13 16 14 10 15
REMARK SMILES IDX 15 16 11 17 12 18 13 19 14 20 17 21 18 22 21 23 19 24 20 25
REMARK SMILES IDX 24 26 25 27 26 28 27 29 28 31 29 32 30 33 76 34 31 35 75 36
REMARK SMILES IDX 32 37 33 38 34 39 69 40 35 41 74 42 68 43 70 44 36 45 73 46
REMARK SMILES IDX 67 47 66 48 37 50 59 51 44 52 58 53 45 54 48 55 57 56 71 57
REMARK SMILES IDX 46 58 47 59 56 61 72 62 49 63 38 64 39 65 43 66 40 67 42 68
REMARK SMILES IDX 41 69 60 70 61 71 65 72 62 73 64 74 63 75 50 76 51 77 55 78
REMARK SMILES IDX 52 79 54 80 53 81
REMARK H PARENT 22 5 7 11 26 30 70 49 48 60
REMARK Flexibility Score: inf
ROOT
ATOM      1  C   UNL A   1      37.426  21.054  24.601  1.00  0.00     0.117 C 
ENDROOT
BRANCH   1   2
ATOM      2  N   UNL A   1      36.191  21.814  24.664  1.00  0.00    -0.356 N 
ATOM      3  O   UNL A   1      36.637  23.012  22.755  1.00  0.00    -0.275 OA
ATOM      4  C   UNL A   1      35.847  22.658  23.626  1.00  0.00     0.220 C 
ATOM      5  H   UNL A   1      35.598  21.727  25.445  1.00  0.00     0.163 HD
BRANCH   4   6
ATOM      6  C   UNL A   1      34.414  23.143  23.648  1.00  0.00     0.116 C 
BRANCH   6   7
ATOM      7  C   UNL A   1      33.393  22.300  24.441  1.00  0.00     0.117 C 
BRANCH   7   8
ATOM      8  C   UNL A   1      32.333  21.674  23.514  1.00  0.00     0.230 C 
ATOM      9  O   UNL A   1      31.521  22.447  22.977  1.00  0.00    -0.274 OA
ATOM     10  N   UNL A   1      32.187  20.374  23.156  1.00  0.00    -0.326 N 
ATOM     11  H   UNL A   1      31.655  20.271  22.334  1.00  0.00     0.169 HD
BRANCH  10  12
ATOM     12  C   UNL A   1      32.611  19.142  23.670  1.00  0.00     0.041 A 
ATOM     13  C   UNL A   1      32.980  18.130  22.778  1.00  0.00     0.033 A 
ATOM     14  C   UNL A   1      32.592  18.841  25.019  1.00  0.00     0.033 A 
ATOM     15  C   UNL A   1      33.394  16.873  23.249  1.00  0.00     0.088 A 
ATOM     16  C   UNL A   1      33.009  17.607  25.517  1.00  0.00     0.088 A 
ATOM     17  C   UNL A   1      33.420  16.623  24.625  1.00  0.00     0.269 A 
BRANCH  17  18
ATOM     18  N   UNL A   1      33.873  15.330  25.145  1.00  0.00     0.062 N 
ATOM     19  O   UNL A   1      35.085  15.185  25.353  1.00  0.00    -0.258 OA
ATOM     20  O   UNL A   1      33.011  14.466  25.370  1.00  0.00    -0.258 OA
ENDBRANCH  17  18
ENDBRANCH  10  12
ENDBRANCH   7   8
BRANCH   7  21
ATOM     21  C   UNL A   1      33.001  22.725  25.872  1.00  0.00     0.131 C 
ATOM     22  C   UNL A   1      33.091  24.231  26.145  1.00  0.00     0.035 C 
ATOM     23  O   UNL A   1      31.653  22.363  26.196  1.00  0.00    -0.377 OA
ATOM     24  C   UNL A   1      31.655  24.688  26.232  1.00  0.00     0.031 C 
ATOM     25  C   UNL A   1      30.970  23.469  26.784  1.00  0.00     0.160 C 
ENDBRANCH   7  21
ENDBRANCH   6   7
ENDBRANCH   4   6
ENDBRANCH   1   2
BRANCH   1  26
ATOM     26  C   UNL A   1      38.603  21.621  25.380  1.00  0.00     0.042 C 
BRANCH  26  27
ATOM     27  C   UNL A   1      39.240  20.748  26.451  1.00  0.00     0.118 C 
BRANCH  27  28
ATOM     28  N   UNL A   1      40.225  19.779  25.991  1.00  0.00    -0.352 N 
ATOM     29  C   UNL A   1      41.603  19.840  26.031  1.00  0.00     0.251 C 
ATOM     30  H   UNL A   1      39.851  18.959  25.594  1.00  0.00     0.163 HD
ATOM     31  O   UNL A   1      42.273  18.905  25.597  1.00  0.00    -0.269 OA
BRANCH  29  32
ATOM     32  C   UNL A   1      42.278  21.064  26.529  1.00  0.00     0.039 A 
ATOM     33  C   UNL A   1      42.669  22.041  25.610  1.00  0.00     0.014 A 
ATOM     34  C   UNL A   1      42.434  21.294  27.896  1.00  0.00     0.014 A 
ATOM     35  C   UNL A   1      43.079  23.299  26.067  1.00  0.00     0.010 A 
ATOM     36  C   UNL A   1      42.730  22.578  28.346  1.00  0.00     0.010 A 
ATOM     37  C   UNL A   1      43.034  23.604  27.438  1.00  0.00    -0.014 A 
BRANCH  37  38
ATOM     38  C   UNL A   1      43.255  24.988  27.944  1.00  0.00     0.031 A 
ATOM     39  C   UNL A   1      44.632  25.439  28.353  1.00  0.00     0.074 A 
ATOM     40  C   UNL A   1      42.202  25.808  28.141  1.00  0.00     0.049 A 
ATOM     41  N   UNL A   1      45.000  26.559  28.924  1.00  0.00    -0.248 NA
ATOM     42  C   UNL A   1      45.736  24.493  28.124  1.00  0.00     0.031 C 
ATOM     43  C   UNL A   1      40.801  25.486  27.854  1.00  0.00     0.029 A 
ATOM     44  N   UNL A   1      42.146  27.086  28.643  1.00  0.00    -0.354 N 
ATOM     45  C   UNL A   1      46.365  26.434  29.155  1.00  0.00     0.074 A 
ATOM     46  C   UNL A   1      46.749  25.113  28.708  1.00  0.00     0.031 C 
ATOM     47  C   UNL A   1      40.034  26.547  28.148  1.00  0.00     0.029 A 
ATOM     48  C   UNL A   1      40.875  27.609  28.686  1.00  0.00     0.049 A 
ATOM     49  H   UNL A   1      42.942  27.582  28.944  1.00  0.00     0.167 HD
ATOM     50  C   UNL A   1      47.228  27.341  29.671  1.00  0.00     0.031 A 
ATOM     51  C   UNL A   1      40.432  28.806  29.113  1.00  0.00     0.031 A 
ATOM     52  C   UNL A   1      46.861  28.669  30.082  1.00  0.00     0.049 A 
ATOM     53  C   UNL A   1      41.413  29.809  29.654  1.00  0.00     0.074 A 
ATOM     54  C   UNL A   1      47.680  29.685  30.546  1.00  0.00     0.029 A 
ATOM     55  N   UNL A   1      45.569  29.169  30.071  1.00  0.00    -0.354 N 
ATOM     56  N   UNL A   1      42.710  29.696  29.802  1.00  0.00    -0.248 NA
ATOM     57  C   UNL A   1      40.868  31.107  30.077  1.00  0.00     0.031 C 
ATOM     58  C   UNL A   1      46.877  30.789  30.850  1.00  0.00     0.029 A 
ATOM     59  C   UNL A   1      45.565  30.475  30.532  1.00  0.00     0.049 A 
ATOM     60  H   UNL A   1      44.773  28.671  29.779  1.00  0.00     0.167 HD
ATOM     61  C   UNL A   1      43.139  30.915  30.309  1.00  0.00     0.074 A 
ATOM     62  C   UNL A   1      41.968  31.757  30.429  1.00  0.00     0.031 C 
ATOM     63  C   UNL A   1      44.394  31.302  30.644  1.00  0.00     0.031 A 
BRANCH  50  64
ATOM     64  C   UNL A   1      48.664  26.921  29.813  1.00  0.00    -0.014 A 
ATOM     65  C   UNL A   1      49.123  26.286  30.979  1.00  0.00     0.009 A 
ATOM     66  C   UNL A   1      49.565  27.143  28.761  1.00  0.00     0.009 A 
ATOM     67  C   UNL A   1      50.465  25.921  31.103  1.00  0.00     0.001 A 
ATOM     68  C   UNL A   1      50.900  26.751  28.876  1.00  0.00     0.001 A 
ATOM     69  C   UNL A   1      51.351  26.151  30.051  1.00  0.00     0.000 A 
ENDBRANCH  50  64
BRANCH  51  70
ATOM     70  C   UNL A   1      38.987  29.144  29.023  1.00  0.00    -0.014 A 
ATOM     71  C   UNL A   1      38.147  28.957  30.132  1.00  0.00     0.009 A 
ATOM     72  C   UNL A   1      38.439  29.645  27.833  1.00  0.00     0.009 A 
ATOM     73  C   UNL A   1      36.781  29.238  30.042  1.00  0.00     0.001 A 
ATOM     74  C   UNL A   1      37.078  29.950  27.754  1.00  0.00     0.001 A 
ATOM     75  C   UNL A   1      36.249  29.738  28.855  1.00  0.00     0.000 A 
ENDBRANCH  51  70
BRANCH  63  76
ATOM     76  C   UNL A   1      44.570  32.710  31.136  1.00  0.00    -0.014 A 
ATOM     77  C   UNL A   1      44.520  33.014  32.505  1.00  0.00     0.009 A 
ATOM     78  C   UNL A   1      44.830  33.739  30.218  1.00  0.00     0.009 A 
ATOM     79  C   UNL A   1      44.699  34.327  32.942  1.00  0.00     0.001 A 
ATOM     80  C   UNL A   1      45.033  35.047  30.659  1.00  0.00     0.001 A 
ATOM     81  C   UNL A   1      44.959  35.342  32.020  1.00  0.00     0.000 A 
ENDBRANCH  63  76
ENDBRANCH  37  38
ENDBRANCH  29  32
ENDBRANCH  27  28
ENDBRANCH  26  27
ENDBRANCH   1  26
TORSDOF 15
ENDMDL
MODEL 2
REMARK VINA RESULT:     -11.2      0.511      5.930
REMARK SMILES O=C(C[C@H](C(=O)Nc1ccc([N+](=O)[O-])cc1)[C@H]1CCCO1)NCCCNC(=O)c1ccc(-c2c3nc(c(-c4ccccc4)c4ccc([nH]4)c(-c4ccccc4)c4nc(c(-c5ccccc5)c5ccc2[nH]5)C=C4)C=C3)cc1
REMARK SMILES IDX 23 1 22 2 1 3 2 4 3 6 4 7 5 8 6 9 7 10 8 12 9 13 16 14 10 15
REMARK SMILES IDX 15 16 11 17 12 18 13 19 14 20 17 21 18 22 21 23 19 24 20 25
REMARK SMILES IDX 24 26 25 27 26 28 27 29 28 31 29 32 30 33 76 34 31 35 75 36
REMARK SMILES IDX 32 37 33 38 34 39 69 40 35 41 74 42 68 43 70 44 36 45 73 46
REMARK SMILES IDX 67 47 66 48 37 50 59 51 44 52 58 53 45 54 48 55 57 56 71 57
REMARK SMILES IDX 46 58 47 59 56 61 72 62 49 63 38 64 39 65 43 66 40 67 42 68
REMARK SMILES IDX 41 69 60 70 61 71 65 72 62 73 64 74 63 75 50 76 51 77 55 78
REMARK SMILES IDX 52 79 54 80 53 81
REMARK H PARENT 22 5 7 11 26 30 70 49 48 60
REMARK Flexibility Score: inf
ROOT
ATOM      1  C   UNL A   1      37.439  21.108  24.650  1.00  0.00     0.117 C 
ENDROOT
BRANCH   1   2
ATOM      2  N   UNL A   1      36.162  21.798  24.658  1.00  0.00    -0.356 N 
ATOM      3  O   UNL A   1      36.596  22.973  22.733  1.00  0.00    -0.275 OA
ATOM      4  C   UNL A   1      35.802  22.596  23.590  1.00  0.00     0.220 C 
ATOM      5  H   UNL A   1      35.552  21.696  25.425  1.00  0.00     0.163 HD
BRANCH   4   6
ATOM      6  C   UNL A   1      34.344  23.000  23.559  1.00  0.00     0.116 C 
BRANCH   6   7
ATOM      7  C   UNL A   1      33.353  22.135  24.367  1.00  0.00     0.117 C 
BRANCH   7   8
ATOM      8  C   UNL A   1      32.285  21.497  23.458  1.00  0.00     0.230 C 
ATOM      9  O   UNL A   1      31.450  22.260  22.940  1.00  0.00    -0.274 OA
ATOM     10  N   UNL A   1      32.153  20.196  23.095  1.00  0.00    -0.326 N 
ATOM     11  H   UNL A   1      31.607  20.089  22.283  1.00  0.00     0.169 HD
BRANCH  10  12
ATOM     12  C   UNL A   1      32.607  18.969  23.594  1.00  0.00     0.041 A 
ATOM     13  C   UNL A   1      32.537  18.735  24.971  1.00  0.00     0.033 A 
ATOM     14  C   UNL A   1      33.212  18.010  22.805  1.00  0.00     0.033 A 
ATOM     15  C   UNL A   1      32.998  17.526  25.519  1.00  0.00     0.088 A 
ATOM     16  C   UNL A   1      33.668  16.796  23.317  1.00  0.00     0.088 A 
ATOM     17  C   UNL A   1      33.551  16.552  24.681  1.00  0.00     0.269 A 
BRANCH  17  18
ATOM     18  N   UNL A   1      34.014  15.271  25.221  1.00  0.00     0.062 N 
ATOM     19  O   UNL A   1      33.158  14.428  25.521  1.00  0.00    -0.258 OA
ATOM     20  O   UNL A   1      35.239  15.099  25.322  1.00  0.00    -0.258 OA
ENDBRANCH  17  18
ENDBRANCH  10  12
ENDBRANCH   7   8
BRANCH   7  21
ATOM     21  C   UNL A   1      32.982  22.546  25.808  1.00  0.00     0.131 C 
ATOM     22  C   UNL A   1      33.154  24.038  26.118  1.00  0.00     0.035 C 
ATOM     23  O   UNL A   1      31.616  22.250  26.122  1.00  0.00    -0.377 OA
ATOM     24  C   UNL A   1      31.745  24.569  26.216  1.00  0.00     0.031 C 
ATOM     25  C   UNL A   1      30.993  23.376  26.737  1.00  0.00     0.160 C 
ENDBRANCH   7  21
ENDBRANCH   6   7
ENDBRANCH   4   6
ENDBRANCH   1   2
BRANCH   1  26
ATOM     26  C   UNL A   1      38.584  21.808  25.364  1.00  0.00     0.042 C 
BRANCH  26  27
ATOM     27  C   UNL A   1      39.332  21.039  26.444  1.00  0.00     0.118 C 
BRANCH  27  28
ATOM     28  N   UNL A   1      40.247  20.005  25.983  1.00  0.00    -0.352 N 
ATOM     29  C   UNL A   1      41.625  19.956  26.052  1.00  0.00     0.251 C 
ATOM     30  H   UNL A   1      39.819  19.225  25.560  1.00  0.00     0.163 HD
ATOM     31  O   UNL A   1      42.228  18.980  25.610  1.00  0.00    -0.269 OA
BRANCH  29  32
ATOM     32  C   UNL A   1      42.382  21.112  26.589  1.00  0.00     0.039 A 
ATOM     33  C   UNL A   1      42.863  22.078  25.701  1.00  0.00     0.014 A 
ATOM     34  C   UNL A   1      42.533  21.298  27.963  1.00  0.00     0.014 A 
ATOM     35  C   UNL A   1      43.360  23.289  26.195  1.00  0.00     0.010 A 
ATOM     36  C   UNL A   1      42.919  22.544  28.450  1.00  0.00     0.010 A 
ATOM     37  C   UNL A   1      43.316  23.565  27.571  1.00  0.00    -0.014 A 
BRANCH  37  38
ATOM     38  C   UNL A   1      43.634  24.915  28.114  1.00  0.00     0.031 A 
ATOM     39  C   UNL A   1      42.534  25.911  28.373  1.00  0.00     0.074 A 
ATOM     40  C   UNL A   1      44.920  25.291  28.274  1.00  0.00     0.049 A 
ATOM     41  N   UNL A   1      42.624  27.169  28.729  1.00  0.00    -0.248 NA
ATOM     42  C   UNL A   1      41.154  25.444  28.166  1.00  0.00     0.031 C 
ATOM     43  C   UNL A   1      46.094  24.457  28.002  1.00  0.00     0.029 A 
ATOM     44  N   UNL A   1      45.458  26.482  28.697  1.00  0.00    -0.354 N 
ATOM     45  C   UNL A   1      41.320  27.648  28.752  1.00  0.00     0.074 A 
ATOM     46  C   UNL A   1      40.464  26.562  28.328  1.00  0.00     0.031 C 
ATOM     47  C   UNL A   1      47.206  25.147  28.299  1.00  0.00     0.029 A 
ATOM     48  C   UNL A   1      46.832  26.486  28.740  1.00  0.00     0.049 A 
ATOM     49  H   UNL A   1      44.910  27.261  28.947  1.00  0.00     0.167 HD
ATOM     50  C   UNL A   1      40.869  28.872  29.115  1.00  0.00     0.031 A 
ATOM     51  C   UNL A   1      47.698  27.456  29.090  1.00  0.00     0.031 A 
ATOM     52  C   UNL A   1      41.709  29.944  29.576  1.00  0.00     0.049 A 
ATOM     53  C   UNL A   1      47.172  28.797  29.518  1.00  0.00     0.074 A 
ATOM     54  C   UNL A   1      41.335  31.195  30.037  1.00  0.00     0.029 A 
ATOM     55  N   UNL A   1      43.092  29.890  29.640  1.00  0.00    -0.354 N 
ATOM     56  N   UNL A   1      45.930  29.209  29.598  1.00  0.00    -0.248 NA
ATOM     57  C   UNL A   1      48.169  29.803  29.915  1.00  0.00     0.031 C 
ATOM     58  C   UNL A   1      42.496  31.911  30.348  1.00  0.00     0.029 A 
ATOM     59  C   UNL A   1      43.589  31.089  30.122  1.00  0.00     0.049 A 
ATOM     60  H   UNL A   1      43.639  29.114  29.382  1.00  0.00     0.167 HD
ATOM     61  C   UNL A   1      45.995  30.511  30.078  1.00  0.00     0.074 A 
ATOM     62  C   UNL A   1      47.396  30.814  30.285  1.00  0.00     0.031 C 
ATOM     63  C   UNL A   1      44.983  31.376  30.326  1.00  0.00     0.031 A 
BRANCH  50  64
ATOM     64  C   UNL A   1      39.387  29.111  29.033  1.00  0.00    -0.014 A 
ATOM     65  C   UNL A   1      38.792  29.582  27.851  1.00  0.00     0.009 A 
ATOM     66  C   UNL A   1      38.572  28.844  30.144  1.00  0.00     0.009 A 
ATOM     67  C   UNL A   1      37.417  29.819  27.797  1.00  0.00     0.001 A 
ATOM     68  C   UNL A   1      37.194  29.055  30.078  1.00  0.00     0.001 A 
ATOM     69  C   UNL A   1      36.619  29.552  28.909  1.00  0.00     0.000 A 
ENDBRANCH  50  64
BRANCH  51  70
ATOM     70  C   UNL A   1      49.160  27.192  29.080  1.00  0.00    -0.014 A 
ATOM     71  C   UNL A   1      49.799  26.709  30.232  1.00  0.00     0.009 A 
ATOM     72  C   UNL A   1      49.926  27.429  27.928  1.00  0.00     0.009 A 
ATOM     73  C   UNL A   1      51.180  26.494  30.240  1.00  0.00     0.001 A 
ATOM     74  C   UNL A   1      51.302  27.187  27.931  1.00  0.00     0.001 A 
ATOM     75  C   UNL A   1      51.929  26.729  29.089  1.00  0.00     0.000 A 
ENDBRANCH  51  70
BRANCH  63  76
ATOM     76  C   UNL A   1      45.350  32.721  30.885  1.00  0.00    -0.014 A 
ATOM     77  C   UNL A   1      45.514  33.837  30.050  1.00  0.00     0.009 A 
ATOM     78  C   UNL A   1      45.495  32.880  32.272  1.00  0.00     0.009 A 
ATOM     79  C   UNL A   1      45.843  35.080  30.592  1.00  0.00     0.001 A 
ATOM     80  C   UNL A   1      45.801  34.129  32.814  1.00  0.00     0.001 A 
ATOM     81  C   UNL A   1      45.982  35.226  31.973  1.00  0.00     0.000 A 
ENDBRANCH  63  76
ENDBRANCH  37  38
ENDBRANCH  29  32
ENDBRANCH  27  28
ENDBRANCH  26  27
ENDBRANCH   1  26
TORSDOF 15
ENDMDL
MODEL 3
REMARK VINA RESULT:     -11.2      2.471      7.387
REMARK SMILES O=C(C[C@H](C(=O)Nc1ccc([N+](=O)[O-])cc1)[C@H]1CCCO1)NCCCNC(=O)c1ccc(-c2c3nc(c(-c4ccccc4)c4ccc([nH]4)c(-c4ccccc4)c4nc(c(-c5ccccc5)c5ccc2[nH]5)C=C4)C=C3)cc1
REMARK SMILES IDX 23 1 22 2 1 3 2 4 3 6 4 7 5 8 6 9 7 10 8 12 9 13 16 14 10 15
REMARK SMILES IDX 15 16 11 17 12 18 13 19 14 20 17 21 18 22 21 23 19 24 20 25
REMARK SMILES IDX 24 26 25 27 26 28 27 29 28 31 29 32 30 33 76 34 31 35 75 36
REMARK SMILES IDX 32 37 33 38 34 39 69 40 35 41 74 42 68 43 70 44 36 45 73 46
REMARK SMILES IDX 67 47 66 48 37 50 59 51 44 52 58 53 45 54 48 55 57 56 71 57
REMARK SMILES IDX 46 58 47 59 56 61 72 62 49 63 38 64 39 65 43 66 40 67 42 68
REMARK SMILES IDX 41 69 60 70 61 71 65 72 62 73 64 74 63 75 50 76 51 77 55 78
REMARK SMILES IDX 52 79 54 80 53 81
REMARK H PARENT 22 5 7 11 26 30 70 49 48 60
REMARK Flexibility Score: inf
ROOT
ATOM      1  C   UNL A   1      35.898  21.539  24.649  1.00  0.00     0.117 C 
ENDROOT
BRANCH   1   2
ATOM      2  N   UNL A   1      35.054  22.714  24.760  1.00  0.00    -0.356 N 
ATOM      3  O   UNL A   1      35.736  23.598  22.753  1.00  0.00    -0.275 OA
ATOM      4  C   UNL A   1      34.957  23.597  23.702  1.00  0.00     0.220 C 
ATOM      5  H   UNL A   1      34.549  22.883  25.589  1.00  0.00     0.163 HD
BRANCH   4   6
ATOM      6  C   UNL A   1      33.823  24.594  23.805  1.00  0.00     0.116 C 
BRANCH   6   7
ATOM      7  C   UNL A   1      32.808  24.395  24.950  1.00  0.00     0.117 C 
BRANCH   7   8
ATOM      8  C   UNL A   1      31.465  23.848  24.430  1.00  0.00     0.230 C 
ATOM      9  O   UNL A   1      31.328  22.613  24.401  1.00  0.00    -0.274 OA
ATOM     10  N   UNL A   1      30.367  24.541  24.037  1.00  0.00    -0.326 N 
ATOM     11  H   UNL A   1      29.553  23.988  24.049  1.00  0.00     0.169 HD
BRANCH  10  12
ATOM     12  C   UNL A   1      30.111  25.853  23.619  1.00  0.00     0.041 A 
ATOM     13  C   UNL A   1      28.889  26.442  23.960  1.00  0.00     0.033 A 
ATOM     14  C   UNL A   1      30.967  26.565  22.801  1.00  0.00     0.033 A 
ATOM     15  C   UNL A   1      28.581  27.749  23.546  1.00  0.00     0.088 A 
ATOM     16  C   UNL A   1      30.695  27.868  22.385  1.00  0.00     0.088 A 
ATOM     17  C   UNL A   1      29.498  28.464  22.768  1.00  0.00     0.269 A 
BRANCH  17  18
ATOM     18  N   UNL A   1      29.215  29.838  22.346  1.00  0.00     0.062 N 
ATOM     19  O   UNL A   1      29.116  30.060  21.132  1.00  0.00    -0.258 OA
ATOM     20  O   UNL A   1      29.067  30.692  23.234  1.00  0.00    -0.258 OA
ENDBRANCH  17  18
ENDBRANCH  10  12
ENDBRANCH   7   8
BRANCH   7  21
ATOM     21  C   UNL A   1      32.825  25.356  26.158  1.00  0.00     0.131 C 
ATOM     22  C   UNL A   1      33.554  26.684  25.916  1.00  0.00     0.035 C 
ATOM     23  O   UNL A   1      31.505  25.722  26.579  1.00  0.00    -0.377 OA
ATOM     24  C   UNL A   1      32.452  27.713  25.843  1.00  0.00     0.031 C 
ATOM     25  C   UNL A   1      31.416  27.133  26.765  1.00  0.00     0.160 C 
ENDBRANCH   7  21
ENDBRANCH   6   7
ENDBRANCH   4   6
ENDBRANCH   1   2
BRANCH   1  26
ATOM     26  C   UNL A   1      36.853  21.288  25.805  1.00  0.00     0.042 C 
BRANCH  26  27
ATOM     27  C   UNL A   1      38.344  21.465  25.554  1.00  0.00     0.118 C 
BRANCH  27  28
ATOM     28  N   UNL A   1      39.130  20.243  25.452  1.00  0.00    -0.352 N 
ATOM     29  C   UNL A   1      40.403  19.976  25.916  1.00  0.00     0.251 C 
ATOM     30  H   UNL A   1      38.687  19.499  24.984  1.00  0.00     0.163 HD
ATOM     31  O   UNL A   1      40.900  18.865  25.739  1.00  0.00    -0.269 OA
BRANCH  29  32
ATOM     32  C   UNL A   1      41.198  21.049  26.559  1.00  0.00     0.039 A 
ATOM     33  C   UNL A   1      41.925  21.928  25.753  1.00  0.00     0.014 A 
ATOM     34  C   UNL A   1      41.151  21.251  27.939  1.00  0.00     0.014 A 
ATOM     35  C   UNL A   1      42.480  23.085  26.312  1.00  0.00     0.010 A 
ATOM     36  C   UNL A   1      41.601  22.455  28.472  1.00  0.00     0.010 A 
ATOM     37  C   UNL A   1      42.252  23.400  27.662  1.00  0.00    -0.014 A 
BRANCH  37  38
ATOM     38  C   UNL A   1      42.639  24.717  28.240  1.00  0.00     0.031 A 
ATOM     39  C   UNL A   1      41.605  25.793  28.447  1.00  0.00     0.074 A 
ATOM     40  C   UNL A   1      43.939  24.992  28.478  1.00  0.00     0.049 A 
ATOM     41  N   UNL A   1      41.769  27.036  28.824  1.00  0.00    -0.248 NA
ATOM     42  C   UNL A   1      40.207  25.434  28.156  1.00  0.00     0.031 C 
ATOM     43  C   UNL A   1      45.060  24.073  28.263  1.00  0.00     0.029 A 
ATOM     44  N   UNL A   1      44.540  26.135  28.947  1.00  0.00    -0.354 N 
ATOM     45  C   UNL A   1      40.506  27.614  28.779  1.00  0.00     0.074 A 
ATOM     46  C   UNL A   1      39.596  26.601  28.291  1.00  0.00     0.031 C 
ATOM     47  C   UNL A   1      46.201  24.673  28.634  1.00  0.00     0.029 A 
ATOM     48  C   UNL A   1      45.905  26.033  29.069  1.00  0.00     0.049 A 
ATOM     49  H   UNL A   1      44.039  26.952  29.175  1.00  0.00     0.167 HD
ATOM     50  C   UNL A   1      40.129  28.866  29.131  1.00  0.00     0.031 A 
ATOM     51  C   UNL A   1      46.820  26.930  29.480  1.00  0.00     0.031 A 
ATOM     52  C   UNL A   1      41.020  29.867  29.652  1.00  0.00     0.049 A 
ATOM     53  C   UNL A   1      46.374  28.305  29.895  1.00  0.00     0.074 A 
ATOM     54  C   UNL A   1      40.716  31.138  30.108  1.00  0.00     0.029 A 
ATOM     55  N   UNL A   1      42.388  29.705  29.796  1.00  0.00    -0.354 N 
ATOM     56  N   UNL A   1      45.165  28.810  29.908  1.00  0.00    -0.248 NA
ATOM     57  C   UNL A   1      47.419  29.228  30.361  1.00  0.00     0.031 C 
ATOM     58  C   UNL A   1      41.907  31.761  30.494  1.00  0.00     0.029 A 
ATOM     59  C   UNL A   1      42.946  30.859  30.320  1.00  0.00     0.049 A 
ATOM     60  H   UNL A   1      42.890  28.892  29.560  1.00  0.00     0.167 HD
ATOM     61  C   UNL A   1      45.300  30.098  30.409  1.00  0.00     0.074 A 
ATOM     62  C   UNL A   1      46.705  30.292  30.700  1.00  0.00     0.031 C 
ATOM     63  C   UNL A   1      44.344  31.037  30.609  1.00  0.00     0.031 A 
BRANCH  50  64
ATOM     64  C   UNL A   1      38.677  29.219  28.966  1.00  0.00    -0.014 A 
ATOM     65  C   UNL A   1      38.179  29.694  27.742  1.00  0.00     0.009 A 
ATOM     66  C   UNL A   1      37.791  29.054  30.042  1.00  0.00     0.009 A 
ATOM     67  C   UNL A   1      36.833  30.038  27.611  1.00  0.00     0.001 A 
ATOM     68  C   UNL A   1      36.438  29.371  29.900  1.00  0.00     0.001 A 
ATOM     69  C   UNL A   1      35.963  29.873  28.689  1.00  0.00     0.000 A 
ENDBRANCH  50  64
BRANCH  51  70
ATOM     70  C   UNL A   1      48.256  26.555  29.551  1.00  0.00    -0.014 A 
ATOM     71  C   UNL A   1      48.742  25.817  30.643  1.00  0.00     0.009 A 
ATOM     72  C   UNL A   1      49.150  26.938  28.540  1.00  0.00     0.009 A 
ATOM     73  C   UNL A   1      50.098  25.494  30.733  1.00  0.00     0.001 A 
ATOM     74  C   UNL A   1      50.501  26.589  28.620  1.00  0.00     0.001 A 
ATOM     75  C   UNL A   1      50.975  25.876  29.720  1.00  0.00     0.000 A 
ENDBRANCH  51  70
BRANCH  63  76
ATOM     76  C   UNL A   1      44.779  32.345  31.205  1.00  0.00    -0.014 A 
ATOM     77  C   UNL A   1      44.794  32.542  32.594  1.00  0.00     0.009 A 
ATOM     78  C   UNL A   1      45.218  33.379  30.365  1.00  0.00     0.009 A 
ATOM     79  C   UNL A   1      45.214  33.761  33.128  1.00  0.00     0.001 A 
ATOM     80  C   UNL A   1      45.660  34.589  30.902  1.00  0.00     0.001 A 
ATOM     81  C   UNL A   1      45.650  34.782  32.283  1.00  0.00     0.000 A 
ENDBRANCH  63  76
ENDBRANCH  37  38
ENDBRANCH  29  32
ENDBRANCH  27  28
ENDBRANCH  26  27
ENDBRANCH   1  26
TORSDOF 15
ENDMDL
