MODEL 1
REMARK VINA RESULT:     -11.6      0.000      0.000
REMARK SMILES C[C@H](CNS(=O)(=O)c1ccc(C(=O)NCCCNC(=O)c2ccc(-c3c4nc(c(-c5ccccc5)c5ccc([nH]5)c(-c5ccccc5)c5nc(c(-c6ccccc6)c6ccc3[nH]6)C=C5)C=C4)cc2)o1)c1ccccc1
REMARK SMILES IDX 12 1 13 2 14 3 11 5 8 6 9 7 69 8 10 9 5 10 6 11 7 12 4 13
REMARK SMILES IDX 3 15 2 16 1 17 70 18 71 19 75 20 72 21 74 22 73 23 15 24
REMARK SMILES IDX 16 25 17 26 18 27 19 28 20 30 21 31 22 32 68 33 23 34 67 35
REMARK SMILES IDX 24 36 25 37 26 38 61 39 27 40 66 41 60 42 62 43 28 44 65 45
REMARK SMILES IDX 59 46 58 47 29 49 51 50 36 51 50 52 37 53 40 54 49 55 63 56
REMARK SMILES IDX 38 57 39 58 48 60 64 61 41 62 30 63 31 64 35 65 32 66 34 67
REMARK SMILES IDX 33 68 52 69 53 70 57 71 54 72 56 73 55 74 42 75 43 76 47 77
REMARK SMILES IDX 44 78 46 79 45 80
REMARK H PARENT 14 4 4 14 18 29 62 48 40 59
REMARK Flexibility Score: inf
ROOT
ATOM      1  C   UNL A   1      32.723  23.410  25.764  1.00  0.00     0.287 C 
ATOM      2  O   UNL A   1      31.655  23.649  26.333  1.00  0.00    -0.266 OA
ATOM      3  N   UNL A   1      33.784  23.161  26.602  1.00  0.00    -0.349 N 
ATOM      4  H   UNL A   1      33.560  23.212  27.560  1.00  0.00     0.163 HD
ENDROOT
BRANCH   1   5
ATOM      5  C   UNL A   1      32.855  23.377  24.317  1.00  0.00     0.193 A 
ATOM      6  C   UNL A   1      32.922  24.405  22.321  1.00  0.00     0.234 A 
ATOM      7  C   UNL A   1      32.999  23.039  22.097  1.00  0.00     0.065 A 
ATOM      8  O   UNL A   1      32.816  24.594  23.679  1.00  0.00    -0.438 OA
ATOM      9  C   UNL A   1      33.030  22.399  23.356  1.00  0.00     0.058 A 
BRANCH   6  10
ATOM     10  S   UNL A   1      32.976  25.783  21.177  1.00  0.00     0.274 S 
ATOM     11  O   UNL A   1      33.005  25.197  19.853  1.00  0.00    -0.204 OA
ATOM     12  O   UNL A   1      34.007  26.664  21.665  1.00  0.00    -0.204 OA
BRANCH  10  13
ATOM     13  N   UNL A   1      31.506  26.622  21.318  1.00  0.00    -0.208 NA
ATOM     14  H   UNL A   1      31.434  27.262  20.526  1.00  0.00     0.141 HD
BRANCH  13  15
ATOM     15  C   UNL A   1      31.327  27.416  22.557  1.00  0.00     0.107 C 
BRANCH  15  16
ATOM     16  C   UNL A   1      29.888  27.270  23.107  1.00  0.00     0.031 C 
ATOM     17  C   UNL A   1      29.886  26.395  24.372  1.00  0.00     0.014 C 
BRANCH  16  18
ATOM     18  C   UNL A   1      29.188  28.619  23.238  1.00  0.00    -0.044 A 
ATOM     19  C   UNL A   1      29.865  29.810  23.539  1.00  0.00     0.004 A 
ATOM     20  C   UNL A   1      27.791  28.680  23.078  1.00  0.00     0.004 A 
ATOM     21  C   UNL A   1      29.173  31.019  23.649  1.00  0.00     0.000 A 
ATOM     22  C   UNL A   1      27.102  29.890  23.174  1.00  0.00     0.000 A 
ATOM     23  C   UNL A   1      27.795  31.061  23.459  1.00  0.00     0.000 A 
ENDBRANCH  16  18
ENDBRANCH  15  16
ENDBRANCH  13  15
ENDBRANCH  10  13
ENDBRANCH   6  10
ENDBRANCH   1   5
BRANCH   3  24
ATOM     24  C   UNL A   1      35.171  22.838  26.338  1.00  0.00     0.118 C 
BRANCH  24  25
ATOM     25  C   UNL A   1      35.948  24.058  25.846  1.00  0.00     0.042 C 
BRANCH  25  26
ATOM     26  C   UNL A   1      37.042  23.698  24.840  1.00  0.00     0.118 C 
BRANCH  26  27
ATOM     27  N   UNL A   1      37.933  22.672  25.364  1.00  0.00    -0.352 N 
ATOM     28  C   UNL A   1      39.074  22.785  26.115  1.00  0.00     0.251 C 
ATOM     29  H   UNL A   1      37.674  21.747  25.143  1.00  0.00     0.163 HD
ATOM     30  O   UNL A   1      39.800  21.804  26.257  1.00  0.00    -0.269 OA
BRANCH  28  31
ATOM     31  C   UNL A   1      39.444  24.066  26.750  1.00  0.00     0.039 A 
ATOM     32  C   UNL A   1      40.188  24.989  26.007  1.00  0.00     0.014 A 
ATOM     33  C   UNL A   1      39.131  24.334  28.085  1.00  0.00     0.014 A 
ATOM     34  C   UNL A   1      40.583  26.196  26.587  1.00  0.00     0.010 A 
ATOM     35  C   UNL A   1      39.478  25.561  28.648  1.00  0.00     0.010 A 
ATOM     36  C   UNL A   1      40.213  26.499  27.906  1.00  0.00    -0.014 A 
BRANCH  36  37
ATOM     37  C   UNL A   1      40.593  27.790  28.530  1.00  0.00     0.031 A 
ATOM     38  C   UNL A   1      41.991  28.001  29.043  1.00  0.00     0.074 A 
ATOM     39  C   UNL A   1      39.664  28.752  28.683  1.00  0.00     0.049 A 
ATOM     40  N   UNL A   1      42.486  29.030  29.681  1.00  0.00    -0.248 NA
ATOM     41  C   UNL A   1      42.949  26.906  28.827  1.00  0.00     0.031 C 
ATOM     42  C   UNL A   1      38.269  28.661  28.247  1.00  0.00     0.029 A 
ATOM     43  N   UNL A   1      39.756  29.995  29.253  1.00  0.00    -0.354 N 
ATOM     44  C   UNL A   1      43.806  28.698  29.964  1.00  0.00     0.074 A 
ATOM     45  C   UNL A   1      44.024  27.361  29.455  1.00  0.00     0.031 C 
ATOM     46  C   UNL A   1      37.642  29.811  28.544  1.00  0.00     0.029 A 
ATOM     47  C   UNL A   1      38.579  30.702  29.221  1.00  0.00     0.049 A 
ATOM     48  H   UNL A   1      40.585  30.349  29.648  1.00  0.00     0.167 HD
ATOM     49  C   UNL A   1      44.754  29.443  30.580  1.00  0.00     0.031 A 
ATOM     50  C   UNL A   1      38.285  31.929  29.689  1.00  0.00     0.031 A 
ATOM     51  C   UNL A   1      44.546  30.779  31.069  1.00  0.00     0.049 A 
ATOM     52  C   UNL A   1      39.353  32.734  30.371  1.00  0.00     0.074 A 
ATOM     53  C   UNL A   1      45.458  31.631  31.667  1.00  0.00     0.029 A 
ATOM     54  N   UNL A   1      43.340  31.459  31.012  1.00  0.00    -0.354 N 
ATOM     55  N   UNL A   1      40.604  32.418  30.598  1.00  0.00    -0.248 NA
ATOM     56  C   UNL A   1      38.968  34.067  30.855  1.00  0.00     0.031 C 
ATOM     57  C   UNL A   1      44.796  32.817  32.002  1.00  0.00     0.029 A 
ATOM     58  C   UNL A   1      43.482  32.716  31.575  1.00  0.00     0.049 A 
ATOM     59  H   UNL A   1      42.508  31.102  30.628  1.00  0.00     0.167 HD
ATOM     60  C   UNL A   1      41.163  33.520  31.229  1.00  0.00     0.074 A 
ATOM     61  C   UNL A   1      40.117  34.517  31.339  1.00  0.00     0.031 C 
ATOM     62  C   UNL A   1      42.430  33.694  31.675  1.00  0.00     0.031 A 
BRANCH  49  63
ATOM     63  C   UNL A   1      46.108  28.820  30.764  1.00  0.00    -0.014 A 
ATOM     64  C   UNL A   1      46.417  28.083  31.918  1.00  0.00     0.009 A 
ATOM     65  C   UNL A   1      47.077  28.943  29.755  1.00  0.00     0.009 A 
ATOM     66  C   UNL A   1      47.681  27.510  32.073  1.00  0.00     0.001 A 
ATOM     67  C   UNL A   1      48.331  28.348  29.902  1.00  0.00     0.001 A 
ATOM     68  C   UNL A   1      48.634  27.638  31.064  1.00  0.00     0.000 A 
ENDBRANCH  49  63
BRANCH  50  69
ATOM     69  C   UNL A   1      36.921  32.484  29.505  1.00  0.00    -0.014 A 
ATOM     70  C   UNL A   1      35.942  32.290  30.493  1.00  0.00     0.009 A 
ATOM     71  C   UNL A   1      36.591  33.211  28.351  1.00  0.00     0.009 A 
ATOM     72  C   UNL A   1      34.653  32.797  30.318  1.00  0.00     0.001 A 
ATOM     73  C   UNL A   1      35.307  33.736  28.191  1.00  0.00     0.001 A 
ATOM     74  C   UNL A   1      34.338  33.523  29.171  1.00  0.00     0.000 A 
ENDBRANCH  50  69
BRANCH  62  75
ATOM     75  C   UNL A   1      42.761  35.021  32.294  1.00  0.00    -0.014 A 
ATOM     76  C   UNL A   1      42.443  35.297  33.631  1.00  0.00     0.009 A 
ATOM     77  C   UNL A   1      43.433  35.991  31.535  1.00  0.00     0.009 A 
ATOM     78  C   UNL A   1      42.768  36.534  34.190  1.00  0.00     0.001 A 
ATOM     79  C   UNL A   1      43.776  37.218  32.103  1.00  0.00     0.001 A 
ATOM     80  C   UNL A   1      43.437  37.492  33.428  1.00  0.00     0.000 A 
ENDBRANCH  62  75
ENDBRANCH  36  37
ENDBRANCH  28  31
ENDBRANCH  26  27
ENDBRANCH  25  26
ENDBRANCH  24  25
ENDBRANCH   3  24
TORSDOF 15
ENDMDL
MODEL 2
REMARK VINA RESULT:     -11.6      1.187      2.065
REMARK SMILES C[C@H](CNS(=O)(=O)c1ccc(C(=O)NCCCNC(=O)c2ccc(-c3c4nc(c(-c5ccccc5)c5ccc([nH]5)c(-c5ccccc5)c5nc(c(-c6ccccc6)c6ccc3[nH]6)C=C5)C=C4)cc2)o1)c1ccccc1
REMARK SMILES IDX 12 1 13 2 14 3 11 5 8 6 9 7 69 8 10 9 5 10 6 11 7 12 4 13
REMARK SMILES IDX 3 15 2 16 1 17 70 18 71 19 75 20 72 21 74 22 73 23 15 24
REMARK SMILES IDX 16 25 17 26 18 27 19 28 20 30 21 31 22 32 68 33 23 34 67 35
REMARK SMILES IDX 24 36 25 37 26 38 61 39 27 40 66 41 60 42 62 43 28 44 65 45
REMARK SMILES IDX 59 46 58 47 29 49 51 50 36 51 50 52 37 53 40 54 49 55 63 56
REMARK SMILES IDX 38 57 39 58 48 60 64 61 41 62 30 63 31 64 35 65 32 66 34 67
REMARK SMILES IDX 33 68 52 69 53 70 57 71 54 72 56 73 55 74 42 75 43 76 47 77
REMARK SMILES IDX 44 78 46 79 45 80
REMARK H PARENT 14 4 4 14 18 29 62 48 40 59
REMARK Flexibility Score: inf
ROOT
ATOM      1  C   UNL A   1      32.516  23.757  26.386  1.00  0.00     0.287 C 
ATOM      2  O   UNL A   1      31.691  24.071  27.247  1.00  0.00    -0.266 OA
ATOM      3  N   UNL A   1      33.744  23.375  26.871  1.00  0.00    -0.349 N 
ATOM      4  H   UNL A   1      33.816  23.407  27.853  1.00  0.00     0.163 HD
ENDROOT
BRANCH   1   5
ATOM      5  C   UNL A   1      32.215  23.771  24.964  1.00  0.00     0.193 A 
ATOM      6  C   UNL A   1      32.247  24.773  22.954  1.00  0.00     0.234 A 
ATOM      7  C   UNL A   1      31.562  23.576  22.820  1.00  0.00     0.065 A 
ATOM      8  O   UNL A   1      32.624  24.887  24.272  1.00  0.00    -0.438 OA
ATOM      9  C   UNL A   1      31.606  22.914  24.068  1.00  0.00     0.058 A 
BRANCH   6  10
ATOM     10  S   UNL A   1      32.676  26.018  21.739  1.00  0.00     0.274 S 
ATOM     11  O   UNL A   1      32.158  25.534  20.476  1.00  0.00    -0.204 OA
ATOM     12  O   UNL A   1      34.070  26.315  21.949  1.00  0.00    -0.204 OA
BRANCH  10  13
ATOM     13  N   UNL A   1      31.811  27.428  22.125  1.00  0.00    -0.208 NA
ATOM     14  H   UNL A   1      31.541  27.879  21.250  1.00  0.00     0.141 HD
BRANCH  13  15
ATOM     15  C   UNL A   1      32.532  28.429  22.945  1.00  0.00     0.107 C 
BRANCH  15  16
ATOM     16  C   UNL A   1      31.700  28.838  24.183  1.00  0.00     0.031 C 
ATOM     17  C   UNL A   1      30.657  27.754  24.506  1.00  0.00     0.014 C 
BRANCH  16  18
ATOM     18  C   UNL A   1      32.585  29.269  25.349  1.00  0.00    -0.044 A 
ATOM     19  C   UNL A   1      33.754  28.587  25.719  1.00  0.00     0.004 A 
ATOM     20  C   UNL A   1      32.206  30.387  26.115  1.00  0.00     0.004 A 
ATOM     21  C   UNL A   1      34.526  29.025  26.798  1.00  0.00     0.000 A 
ATOM     22  C   UNL A   1      32.985  30.832  27.184  1.00  0.00     0.000 A 
ATOM     23  C   UNL A   1      34.148  30.150  27.524  1.00  0.00     0.000 A 
ENDBRANCH  16  18
ENDBRANCH  15  16
ENDBRANCH  13  15
ENDBRANCH  10  13
ENDBRANCH   6  10
ENDBRANCH   1   5
BRANCH   3  24
ATOM     24  C   UNL A   1      34.953  22.935  26.207  1.00  0.00     0.118 C 
BRANCH  24  25
ATOM     25  C   UNL A   1      35.809  24.117  25.757  1.00  0.00     0.042 C 
BRANCH  25  26
ATOM     26  C   UNL A   1      36.930  23.708  24.800  1.00  0.00     0.118 C 
BRANCH  26  27
ATOM     27  N   UNL A   1      37.771  22.667  25.375  1.00  0.00    -0.352 N 
ATOM     28  C   UNL A   1      38.900  22.762  26.146  1.00  0.00     0.251 C 
ATOM     29  H   UNL A   1      37.481  21.746  25.178  1.00  0.00     0.163 HD
ATOM     30  O   UNL A   1      39.585  21.759  26.335  1.00  0.00    -0.269 OA
BRANCH  28  31
ATOM     31  C   UNL A   1      39.306  24.049  26.747  1.00  0.00     0.039 A 
ATOM     32  C   UNL A   1      40.101  24.917  25.992  1.00  0.00     0.014 A 
ATOM     33  C   UNL A   1      38.975  24.372  28.066  1.00  0.00     0.014 A 
ATOM     34  C   UNL A   1      40.529  26.127  26.541  1.00  0.00     0.010 A 
ATOM     35  C   UNL A   1      39.358  25.603  28.596  1.00  0.00     0.010 A 
ATOM     36  C   UNL A   1      40.143  26.488  27.841  1.00  0.00    -0.014 A 
BRANCH  36  37
ATOM     37  C   UNL A   1      40.560  27.783  28.431  1.00  0.00     0.031 A 
ATOM     38  C   UNL A   1      41.982  27.992  28.873  1.00  0.00     0.074 A 
ATOM     39  C   UNL A   1      39.644  28.752  28.618  1.00  0.00     0.049 A 
ATOM     40  N   UNL A   1      42.513  29.025  29.475  1.00  0.00    -0.248 NA
ATOM     41  C   UNL A   1      42.923  26.889  28.624  1.00  0.00     0.031 C 
ATOM     42  C   UNL A   1      38.230  28.665  28.250  1.00  0.00     0.029 A 
ATOM     43  N   UNL A   1      39.770  30.001  29.168  1.00  0.00    -0.354 N 
ATOM     44  C   UNL A   1      43.843  28.689  29.698  1.00  0.00     0.074 A 
ATOM     45  C   UNL A   1      44.029  27.345  29.194  1.00  0.00     0.031 C 
ATOM     46  C   UNL A   1      37.623  29.821  28.564  1.00  0.00     0.029 A 
ATOM     47  C   UNL A   1      38.596  30.715  29.185  1.00  0.00     0.049 A 
ATOM     48  H   UNL A   1      40.619  30.355  29.519  1.00  0.00     0.167 HD
ATOM     49  C   UNL A   1      44.823  29.435  30.259  1.00  0.00     0.031 A 
ATOM     50  C   UNL A   1      38.332  31.948  29.652  1.00  0.00     0.031 A 
ATOM     51  C   UNL A   1      44.647  30.778  30.742  1.00  0.00     0.049 A 
ATOM     52  C   UNL A   1      39.435  32.754  30.273  1.00  0.00     0.074 A 
ATOM     53  C   UNL A   1      45.591  31.632  31.285  1.00  0.00     0.029 A 
ATOM     54  N   UNL A   1      43.443  31.464  30.735  1.00  0.00    -0.354 N 
ATOM     55  N   UNL A   1      40.695  32.434  30.442  1.00  0.00    -0.248 NA
ATOM     56  C   UNL A   1      39.081  34.095  30.759  1.00  0.00     0.031 C 
ATOM     57  C   UNL A   1      44.951  32.825  31.638  1.00  0.00     0.029 A 
ATOM     58  C   UNL A   1      43.618  32.726  31.276  1.00  0.00     0.049 A 
ATOM     59  H   UNL A   1      42.591  31.107  30.396  1.00  0.00     0.167 HD
ATOM     60  C   UNL A   1      41.289  33.540  31.033  1.00  0.00     0.074 A 
ATOM     61  C   UNL A   1      40.255  34.544  31.182  1.00  0.00     0.031 C 
ATOM     62  C   UNL A   1      42.577  33.711  31.416  1.00  0.00     0.031 A 
BRANCH  49  63
ATOM     63  C   UNL A   1      46.182  28.807  30.384  1.00  0.00    -0.014 A 
ATOM     64  C   UNL A   1      47.140  28.939  29.367  1.00  0.00     0.009 A 
ATOM     65  C   UNL A   1      46.520  28.101  31.551  1.00  0.00     0.009 A 
ATOM     66  C   UNL A   1      48.399  28.350  29.500  1.00  0.00     0.001 A 
ATOM     67  C   UNL A   1      47.788  27.534  31.691  1.00  0.00     0.001 A 
ATOM     68  C   UNL A   1      48.723  27.652  30.663  1.00  0.00     0.000 A 
ENDBRANCH  49  63
BRANCH  50  69
ATOM     69  C   UNL A   1      36.963  32.509  29.528  1.00  0.00    -0.014 A 
ATOM     70  C   UNL A   1      36.592  33.215  28.373  1.00  0.00     0.009 A 
ATOM     71  C   UNL A   1      36.023  32.340  30.556  1.00  0.00     0.009 A 
ATOM     72  C   UNL A   1      35.311  33.757  28.258  1.00  0.00     0.001 A 
ATOM     73  C   UNL A   1      34.736  32.865  30.428  1.00  0.00     0.001 A 
ATOM     74  C   UNL A   1      34.383  33.579  29.283  1.00  0.00     0.000 A 
ENDBRANCH  50  69
BRANCH  62  75
ATOM     75  C   UNL A   1      42.944  35.043  32.002  1.00  0.00    -0.014 A 
ATOM     76  C   UNL A   1      43.503  36.056  31.209  1.00  0.00     0.009 A 
ATOM     77  C   UNL A   1      42.692  35.297  33.359  1.00  0.00     0.009 A 
ATOM     78  C   UNL A   1      43.829  37.290  31.772  1.00  0.00     0.001 A 
ATOM     79  C   UNL A   1      43.000  36.540  33.914  1.00  0.00     0.001 A 
ATOM     80  C   UNL A   1      43.575  37.533  33.121  1.00  0.00     0.000 A 
ENDBRANCH  62  75
ENDBRANCH  36  37
ENDBRANCH  28  31
ENDBRANCH  26  27
ENDBRANCH  25  26
ENDBRANCH  24  25
ENDBRANCH   3  24
TORSDOF 15
ENDMDL
MODEL 3
REMARK VINA RESULT:     -11.5      2.254      6.940
REMARK SMILES C[C@H](CNS(=O)(=O)c1ccc(C(=O)NCCCNC(=O)c2ccc(-c3c4nc(c(-c5ccccc5)c5ccc([nH]5)c(-c5ccccc5)c5nc(c(-c6ccccc6)c6ccc3[nH]6)C=C5)C=C4)cc2)o1)c1ccccc1
REMARK SMILES IDX 12 1 13 2 14 3 11 5 8 6 9 7 69 8 10 9 5 10 6 11 7 12 4 13
REMARK SMILES IDX 3 15 2 16 1 17 70 18 71 19 75 20 72 21 74 22 73 23 15 24
REMARK SMILES IDX 16 25 17 26 18 27 19 28 20 30 21 31 22 32 68 33 23 34 67 35
REMARK SMILES IDX 24 36 25 37 26 38 61 39 27 40 66 41 60 42 62 43 28 44 65 45
REMARK SMILES IDX 59 46 58 47 29 49 51 50 36 51 50 52 37 53 40 54 49 55 63 56
REMARK SMILES IDX 38 57 39 58 48 60 64 61 41 62 30 63 31 64 35 65 32 66 34 67
REMARK SMILES IDX 33 68 52 69 53 70 57 71 54 72 56 73 55 74 42 75 43 76 47 77
REMARK SMILES IDX 44 78 46 79 45 80
REMARK H PARENT 14 4 4 14 18 29 62 48 40 59
REMARK Flexibility Score: inf
ROOT
ATOM      1  C   UNL A   1      35.774  23.096  24.955  1.00  0.00     0.287 C 
ATOM      2  O   UNL A   1      36.296  24.076  25.492  1.00  0.00    -0.266 OA
ATOM      3  N   UNL A   1      36.326  21.884  25.299  1.00  0.00    -0.349 N 
ATOM      4  H   UNL A   1      37.079  21.950  25.930  1.00  0.00     0.163 HD
ENDROOT
BRANCH   1   5
ATOM      5  C   UNL A   1      34.651  23.203  24.038  1.00  0.00     0.193 A 
ATOM      6  C   UNL A   1      33.413  24.365  22.569  1.00  0.00     0.234 A 
ATOM      7  C   UNL A   1      32.804  23.135  22.757  1.00  0.00     0.065 A 
ATOM      8  O   UNL A   1      34.529  24.400  23.372  1.00  0.00    -0.438 OA
ATOM      9  C   UNL A   1      33.623  22.379  23.624  1.00  0.00     0.058 A 
BRANCH   6  10
ATOM     10  S   UNL A   1      32.977  25.735  21.499  1.00  0.00     0.274 S 
ATOM     11  O   UNL A   1      32.993  25.204  20.151  1.00  0.00    -0.204 OA
ATOM     12  O   UNL A   1      33.804  26.841  21.912  1.00  0.00    -0.204 OA
BRANCH  10  13
ATOM     13  N   UNL A   1      31.372  26.165  21.846  1.00  0.00    -0.208 NA
ATOM     14  H   UNL A   1      30.858  26.192  20.965  1.00  0.00     0.141 HD
BRANCH  13  15
ATOM     15  C   UNL A   1      31.181  27.471  22.520  1.00  0.00     0.107 C 
BRANCH  15  16
ATOM     16  C   UNL A   1      30.411  27.301  23.852  1.00  0.00     0.031 C 
ATOM     17  C   UNL A   1      28.922  27.033  23.578  1.00  0.00     0.014 C 
BRANCH  16  18
ATOM     18  C   UNL A   1      31.099  26.309  24.785  1.00  0.00    -0.044 A 
ATOM     19  C   UNL A   1      30.520  25.091  25.172  1.00  0.00     0.004 A 
ATOM     20  C   UNL A   1      32.364  26.632  25.311  1.00  0.00     0.004 A 
ATOM     21  C   UNL A   1      31.194  24.220  26.032  1.00  0.00     0.000 A 
ATOM     22  C   UNL A   1      33.042  25.755  26.158  1.00  0.00     0.000 A 
ATOM     23  C   UNL A   1      32.457  24.547  26.518  1.00  0.00     0.000 A 
ENDBRANCH  16  18
ENDBRANCH  15  16
ENDBRANCH  13  15
ENDBRANCH  10  13
ENDBRANCH   6  10
ENDBRANCH   1   5
BRANCH   3  24
ATOM     24  C   UNL A   1      36.006  20.529  24.904  1.00  0.00     0.118 C 
BRANCH  24  25
ATOM     25  C   UNL A   1      37.251  19.645  24.867  1.00  0.00     0.042 C 
BRANCH  25  26
ATOM     26  C   UNL A   1      38.493  20.347  25.420  1.00  0.00     0.118 C 
BRANCH  26  27
ATOM     27  N   UNL A   1      39.585  19.408  25.637  1.00  0.00    -0.352 N 
ATOM     28  C   UNL A   1      40.879  19.627  26.033  1.00  0.00     0.251 C 
ATOM     29  H   UNL A   1      39.358  18.464  25.473  1.00  0.00     0.163 HD
ATOM     30  O   UNL A   1      41.700  18.718  25.934  1.00  0.00    -0.269 OA
BRANCH  28  31
ATOM     31  C   UNL A   1      41.299  20.936  26.573  1.00  0.00     0.039 A 
ATOM     32  C   UNL A   1      41.135  21.178  27.942  1.00  0.00     0.014 A 
ATOM     33  C   UNL A   1      41.781  21.947  25.738  1.00  0.00     0.014 A 
ATOM     34  C   UNL A   1      41.492  22.416  28.479  1.00  0.00     0.010 A 
ATOM     35  C   UNL A   1      42.187  23.164  26.283  1.00  0.00     0.010 A 
ATOM     36  C   UNL A   1      42.039  23.411  27.656  1.00  0.00    -0.014 A 
BRANCH  36  37
ATOM     37  C   UNL A   1      42.455  24.722  28.214  1.00  0.00     0.031 A 
ATOM     38  C   UNL A   1      41.442  25.812  28.423  1.00  0.00     0.074 A 
ATOM     39  C   UNL A   1      43.755  24.946  28.481  1.00  0.00     0.049 A 
ATOM     40  N   UNL A   1      41.628  27.042  28.829  1.00  0.00    -0.248 NA
ATOM     41  C   UNL A   1      40.041  25.484  28.117  1.00  0.00     0.031 C 
ATOM     42  C   UNL A   1      44.838  23.976  28.302  1.00  0.00     0.029 A 
ATOM     43  N   UNL A   1      44.386  26.067  28.957  1.00  0.00    -0.354 N 
ATOM     44  C   UNL A   1      40.374  27.641  28.805  1.00  0.00     0.074 A 
ATOM     45  C   UNL A   1      39.441  26.649  28.316  1.00  0.00     0.031 C 
ATOM     46  C   UNL A   1      45.995  24.536  28.687  1.00  0.00     0.029 A 
ATOM     47  C   UNL A   1      45.742  25.912  29.105  1.00  0.00     0.049 A 
ATOM     48  H   UNL A   1      43.912  26.902  29.174  1.00  0.00     0.167 HD
ATOM     49  C   UNL A   1      40.029  28.898  29.170  1.00  0.00     0.031 A 
ATOM     50  C   UNL A   1      46.678  26.782  29.525  1.00  0.00     0.031 A 
ATOM     51  C   UNL A   1      40.950  29.880  29.675  1.00  0.00     0.049 A 
ATOM     52  C   UNL A   1      46.270  28.171  29.920  1.00  0.00     0.074 A 
ATOM     53  C   UNL A   1      40.687  31.166  30.113  1.00  0.00     0.029 A 
ATOM     54  N   UNL A   1      42.314  29.681  29.812  1.00  0.00    -0.354 N 
ATOM     55  N   UNL A   1      45.074  28.709  29.926  1.00  0.00    -0.248 NA
ATOM     56  C   UNL A   1      47.340  29.071  30.374  1.00  0.00     0.031 C 
ATOM     57  C   UNL A   1      41.898  31.758  30.486  1.00  0.00     0.029 A 
ATOM     58  C   UNL A   1      42.908  30.825  30.317  1.00  0.00     0.049 A 
ATOM     59  H   UNL A   1      42.790  28.850  29.585  1.00  0.00     0.167 HD
ATOM     60  C   UNL A   1      45.244  30.000  30.405  1.00  0.00     0.074 A 
ATOM     61  C   UNL A   1      46.655  30.162  30.690  1.00  0.00     0.031 C 
ATOM     62  C   UNL A   1      44.314  30.966  30.594  1.00  0.00     0.031 A 
BRANCH  49  63
ATOM     63  C   UNL A   1      38.584  29.284  29.028  1.00  0.00    -0.014 A 
ATOM     64  C   UNL A   1      37.705  29.219  30.120  1.00  0.00     0.009 A 
ATOM     65  C   UNL A   1      38.104  29.752  27.794  1.00  0.00     0.009 A 
ATOM     66  C   UNL A   1      36.365  29.583  29.972  1.00  0.00     0.001 A 
ATOM     67  C   UNL A   1      36.769  30.138  27.655  1.00  0.00     0.001 A 
ATOM     68  C   UNL A   1      35.900  30.046  28.742  1.00  0.00     0.000 A 
ENDBRANCH  49  63
BRANCH  50  69
ATOM     69  C   UNL A   1      48.097  26.356  29.618  1.00  0.00    -0.014 A 
ATOM     70  C   UNL A   1      48.948  26.493  28.510  1.00  0.00     0.009 A 
ATOM     71  C   UNL A   1      48.608  25.816  30.808  1.00  0.00     0.009 A 
ATOM     72  C   UNL A   1      50.279  26.080  28.587  1.00  0.00     0.001 A 
ATOM     73  C   UNL A   1      49.945  25.425  30.888  1.00  0.00     0.001 A 
ATOM     74  C   UNL A   1      50.778  25.550  29.776  1.00  0.00     0.000 A 
ENDBRANCH  50  69
BRANCH  62  75
ATOM     75  C   UNL A   1      44.789  32.270  31.165  1.00  0.00    -0.014 A 
ATOM     76  C   UNL A   1      44.690  32.540  32.538  1.00  0.00     0.009 A 
ATOM     77  C   UNL A   1      45.377  33.224  30.321  1.00  0.00     0.009 A 
ATOM     78  C   UNL A   1      45.146  33.756  33.051  1.00  0.00     0.001 A 
ATOM     79  C   UNL A   1      45.852  34.429  30.840  1.00  0.00     0.001 A 
ATOM     80  C   UNL A   1      45.730  34.697  32.203  1.00  0.00     0.000 A 
ENDBRANCH  62  75
ENDBRANCH  36  37
ENDBRANCH  28  31
ENDBRANCH  26  27
ENDBRANCH  25  26
ENDBRANCH  24  25
ENDBRANCH   3  24
TORSDOF 15
ENDMDL
