MODEL 1
REMARK VINA RESULT:     -12.6      0.000      0.000
REMARK SMILES O=C(NCCCNC(=O)c1ccc(-c2c3nc(c(-c4ccccc4)c4ccc([nH]4)c(-c4ccccc4)c4nc(c(-c5ccccc5)c5ccc2[nH]5)C=C4)C=C3)cc1)C1=Cc2cc(Cl)cc(-c3ccc(O)cc3)c2O[C@@H]1C(F)(F)F
REMARK SMILES IDX 5 1 4 2 3 3 1 4 2 5 58 7 59 8 75 9 60 10 74 11 61 12 73 13
REMARK SMILES IDX 62 14 65 15 63 16 64 17 76 18 77 19 78 20 79 21 66 22 67 23
REMARK SMILES IDX 72 24 68 25 71 26 69 27 70 28 6 30 7 31 8 32 9 34 10 35
REMARK SMILES IDX 11 36 57 37 12 38 56 39 13 40 14 41 15 42 50 43 16 44 55 45
REMARK SMILES IDX 49 46 51 47 17 48 54 49 48 50 47 51 18 53 40 54 25 55 39 56
REMARK SMILES IDX 26 57 29 58 38 59 52 60 27 61 28 62 37 64 53 65 30 66 19 67
REMARK SMILES IDX 20 68 24 69 21 70 23 71 22 72 41 73 42 74 46 75 43 76 45 77
REMARK SMILES IDX 44 78 31 79 32 80 36 81 33 82 35 83 34 84
REMARK H PARENT 3 6 70 29 7 33 51 52 29 63
REMARK Flexibility Score: inf
ROOT
ATOM      1  C   UNL A   1      33.397  29.442  25.832  1.00  0.00     0.042 C 
ENDROOT
BRANCH   1   2
ATOM      2  C   UNL A   1      33.587  27.991  25.384  1.00  0.00     0.118 C 
BRANCH   2   3
ATOM      3  N   UNL A   1      32.673  27.069  26.066  1.00  0.00    -0.352 N 
ATOM      4  O   UNL A   1      31.916  25.062  26.812  1.00  0.00    -0.270 OA
ATOM      5  C   UNL A   1      32.625  25.699  26.045  1.00  0.00     0.251 C 
ATOM      6  H   UNL A   1      31.986  27.501  26.623  1.00  0.00     0.163 HD
BRANCH   5   7
ATOM      7  C   UNL A   1      33.519  25.027  25.093  1.00  0.00     0.067 C 
ATOM      8  C   UNL A   1      34.833  25.072  25.340  1.00  0.00     0.025 C 
ATOM      9  C   UNL A   1      32.907  24.059  24.133  1.00  0.00     0.314 C 
ATOM     10  C   UNL A   1      35.552  23.836  25.023  1.00  0.00     0.019 A 
ATOM     11  O   UNL A   1      33.494  22.743  24.279  1.00  0.00    -0.475 OA
ATOM     12  C   UNL A   1      36.879  23.724  25.441  1.00  0.00     0.032 A 
ATOM     13  C   UNL A   1      34.808  22.683  24.689  1.00  0.00     0.135 A 
ATOM     14  C   UNL A   1      37.432  22.461  25.624  1.00  0.00     0.042 A 
ATOM     15  C   UNL A   1      35.343  21.406  24.933  1.00  0.00     0.026 A 
ATOM     16  Cl  UNL A   1      39.015  22.321  26.284  1.00  0.00    -0.084 Cl
ATOM     17  C   UNL A   1      36.668  21.316  25.399  1.00  0.00     0.033 A 
BRANCH   9  18
ATOM     18  C   UNL A   1      32.971  24.572  22.682  1.00  0.00     0.429 C 
ATOM     19  F   UNL A   1      33.331  23.583  21.829  1.00  0.00    -0.167 F 
ATOM     20  F   UNL A   1      31.769  25.031  22.260  1.00  0.00    -0.167 F 
ATOM     21  F   UNL A   1      33.862  25.580  22.524  1.00  0.00    -0.167 F 
ENDBRANCH   9  18
BRANCH  15  22
ATOM     22  C   UNL A   1      34.514  20.190  24.917  1.00  0.00    -0.014 A 
ATOM     23  C   UNL A   1      35.084  18.962  24.533  1.00  0.00     0.012 A 
ATOM     24  C   UNL A   1      33.147  20.216  25.217  1.00  0.00     0.012 A 
ATOM     25  C   UNL A   1      34.314  17.812  24.390  1.00  0.00     0.047 A 
ATOM     26  C   UNL A   1      32.368  19.058  25.080  1.00  0.00     0.047 A 
ATOM     27  C   UNL A   1      32.957  17.873  24.648  1.00  0.00     0.115 A 
BRANCH  27  28
ATOM     28  O   UNL A   1      32.227  16.739  24.451  1.00  0.00    -0.508 OA
ATOM     29  H   UNL A   1      32.315  16.017  25.043  1.00  0.00     0.293 HD
ENDBRANCH  27  28
ENDBRANCH  15  22
ENDBRANCH   5   7
ENDBRANCH   2   3
ENDBRANCH   1   2
BRANCH   1  30
ATOM     30  C   UNL A   1      33.228  29.582  27.342  1.00  0.00     0.118 C 
BRANCH  30  31
ATOM     31  N   UNL A   1      33.665  30.851  27.903  1.00  0.00    -0.352 N 
ATOM     32  C   UNL A   1      34.918  31.203  28.373  1.00  0.00     0.251 C 
ATOM     33  H   UNL A   1      32.977  31.553  27.956  1.00  0.00     0.163 HD
ATOM     34  O   UNL A   1      35.114  32.323  28.834  1.00  0.00    -0.269 OA
BRANCH  32  35
ATOM     35  C   UNL A   1      35.986  30.180  28.446  1.00  0.00     0.039 A 
ATOM     36  C   UNL A   1      36.833  30.039  27.341  1.00  0.00     0.014 A 
ATOM     37  C   UNL A   1      36.266  29.502  29.629  1.00  0.00     0.014 A 
ATOM     38  C   UNL A   1      38.058  29.389  27.490  1.00  0.00     0.010 A 
ATOM     39  C   UNL A   1      37.528  28.952  29.810  1.00  0.00     0.010 A 
ATOM     40  C   UNL A   1      38.459  28.948  28.760  1.00  0.00    -0.014 A 
BRANCH  40  41
ATOM     41  C   UNL A   1      39.868  28.587  29.056  1.00  0.00     0.031 A 
ATOM     42  C   UNL A   1      40.804  29.612  29.625  1.00  0.00     0.074 A 
ATOM     43  C   UNL A   1      40.335  27.385  28.661  1.00  0.00     0.049 A 
ATOM     44  N   UNL A   1      42.106  29.566  29.741  1.00  0.00    -0.248 NA
ATOM     45  C   UNL A   1      40.200  30.875  30.075  1.00  0.00     0.031 C 
ATOM     46  C   UNL A   1      39.541  26.320  28.037  1.00  0.00     0.029 A 
ATOM     47  N   UNL A   1      41.603  26.859  28.707  1.00  0.00    -0.354 N 
ATOM     48  C   UNL A   1      42.480  30.811  30.229  1.00  0.00     0.074 A 
ATOM     49  C   UNL A   1      41.273  31.599  30.354  1.00  0.00     0.031 C 
ATOM     50  C   UNL A   1      40.328  25.261  27.797  1.00  0.00     0.029 A 
ATOM     51  C   UNL A   1      41.692  25.586  28.194  1.00  0.00     0.049 A 
ATOM     52  H   UNL A   1      42.375  27.348  29.073  1.00  0.00     0.167 HD
ATOM     53  C   UNL A   1      43.718  31.255  30.553  1.00  0.00     0.031 A 
ATOM     54  C   UNL A   1      42.755  24.775  28.048  1.00  0.00     0.031 A 
ATOM     55  C   UNL A   1      44.908  30.453  30.465  1.00  0.00     0.049 A 
ATOM     56  C   UNL A   1      44.110  25.269  28.467  1.00  0.00     0.074 A 
ATOM     57  C   UNL A   1      46.203  30.786  30.821  1.00  0.00     0.029 A 
ATOM     58  N   UNL A   1      44.941  29.146  30.003  1.00  0.00    -0.354 N 
ATOM     59  N   UNL A   1      44.444  26.440  28.953  1.00  0.00    -0.248 NA
ATOM     60  C   UNL A   1      45.232  24.332  28.319  1.00  0.00     0.031 C 
ATOM     61  C   UNL A   1      47.024  29.684  30.557  1.00  0.00     0.029 A 
ATOM     62  C   UNL A   1      46.233  28.656  30.068  1.00  0.00     0.049 A 
ATOM     63  H   UNL A   1      44.161  28.642  29.676  1.00  0.00     0.167 HD
ATOM     64  C   UNL A   1      45.808  26.372  29.195  1.00  0.00     0.074 A 
ATOM     65  C   UNL A   1      46.239  25.043  28.808  1.00  0.00     0.031 C 
ATOM     66  C   UNL A   1      46.631  27.325  29.692  1.00  0.00     0.031 A 
BRANCH  53  67
ATOM     67  C   UNL A   1      43.830  32.675  31.026  1.00  0.00    -0.014 A 
ATOM     68  C   UNL A   1      44.040  33.729  30.121  1.00  0.00     0.009 A 
ATOM     69  C   UNL A   1      43.740  32.965  32.396  1.00  0.00     0.009 A 
ATOM     70  C   UNL A   1      44.208  35.035  30.583  1.00  0.00     0.001 A 
ATOM     71  C   UNL A   1      43.879  34.277  32.853  1.00  0.00     0.001 A 
ATOM     72  C   UNL A   1      44.127  35.308  31.948  1.00  0.00     0.000 A 
ENDBRANCH  53  67
BRANCH  54  73
ATOM     73  C   UNL A   1      42.580  23.402  27.509  1.00  0.00    -0.014 A 
ATOM     74  C   UNL A   1      42.795  23.151  26.145  1.00  0.00     0.009 A 
ATOM     75  C   UNL A   1      42.209  22.337  28.345  1.00  0.00     0.009 A 
ATOM     76  C   UNL A   1      42.620  21.867  25.624  1.00  0.00     0.001 A 
ATOM     77  C   UNL A   1      42.057  21.049  27.825  1.00  0.00     0.001 A 
ATOM     78  C   UNL A   1      42.256  20.816  26.464  1.00  0.00     0.000 A 
ENDBRANCH  54  73
BRANCH  66  79
ATOM     79  C   UNL A   1      48.068  26.948  29.892  1.00  0.00    -0.014 A 
ATOM     80  C   UNL A   1      48.489  26.283  31.052  1.00  0.00     0.009 A 
ATOM     81  C   UNL A   1      49.000  27.215  28.878  1.00  0.00     0.009 A 
ATOM     82  C   UNL A   1      49.824  25.907  31.200  1.00  0.00     0.001 A 
ATOM     83  C   UNL A   1      50.330  26.821  29.020  1.00  0.00     0.001 A 
ATOM     84  C   UNL A   1      50.741  26.171  30.183  1.00  0.00     0.000 A 
ENDBRANCH  66  79
ENDBRANCH  40  41
ENDBRANCH  32  35
ENDBRANCH  30  31
ENDBRANCH   1  30
TORSDOF 13
ENDMDL
MODEL 2
REMARK VINA RESULT:     -12.6      3.141      8.251
REMARK SMILES O=C(NCCCNC(=O)c1ccc(-c2c3nc(c(-c4ccccc4)c4ccc([nH]4)c(-c4ccccc4)c4nc(c(-c5ccccc5)c5ccc2[nH]5)C=C4)C=C3)cc1)C1=Cc2cc(Cl)cc(-c3ccc(O)cc3)c2O[C@@H]1C(F)(F)F
REMARK SMILES IDX 5 1 4 2 3 3 1 4 2 5 58 7 59 8 75 9 60 10 74 11 61 12 73 13
REMARK SMILES IDX 62 14 65 15 63 16 64 17 76 18 77 19 78 20 79 21 66 22 67 23
REMARK SMILES IDX 72 24 68 25 71 26 69 27 70 28 6 30 7 31 8 32 9 34 10 35
REMARK SMILES IDX 11 36 57 37 12 38 56 39 13 40 14 41 15 42 50 43 16 44 55 45
REMARK SMILES IDX 49 46 51 47 17 48 54 49 48 50 47 51 18 53 40 54 25 55 39 56
REMARK SMILES IDX 26 57 29 58 38 59 52 60 27 61 28 62 37 64 53 65 30 66 19 67
REMARK SMILES IDX 20 68 24 69 21 70 23 71 22 72 41 73 42 74 46 75 43 76 45 77
REMARK SMILES IDX 44 78 31 79 32 80 36 81 33 82 35 83 34 84
REMARK H PARENT 3 6 70 29 7 33 51 52 29 63
REMARK Flexibility Score: inf
ROOT
ATOM      1  C   UNL A   1      36.525  21.612  25.716  1.00  0.00     0.042 C 
ENDROOT
BRANCH   1   2
ATOM      2  C   UNL A   1      35.169  22.273  25.457  1.00  0.00     0.118 C 
BRANCH   2   3
ATOM      3  N   UNL A   1      35.080  22.865  24.118  1.00  0.00    -0.352 N 
ATOM      4  O   UNL A   1      34.595  24.461  22.578  1.00  0.00    -0.270 OA
ATOM      5  C   UNL A   1      34.426  23.994  23.695  1.00  0.00     0.251 C 
ATOM      6  H   UNL A   1      35.563  22.376  23.414  1.00  0.00     0.163 HD
BRANCH   5   7
ATOM      7  C   UNL A   1      33.555  24.653  24.677  1.00  0.00     0.067 C 
ATOM      8  C   UNL A   1      34.121  25.522  25.521  1.00  0.00     0.025 C 
ATOM      9  C   UNL A   1      32.080  24.587  24.449  1.00  0.00     0.314 C 
ATOM     10  C   UNL A   1      33.304  26.703  25.813  1.00  0.00     0.019 A 
ATOM     11  O   UNL A   1      31.512  25.915  24.346  1.00  0.00    -0.475 OA
ATOM     12  C   UNL A   1      33.898  27.755  26.513  1.00  0.00     0.032 A 
ATOM     13  C   UNL A   1      32.129  26.919  25.061  1.00  0.00     0.135 A 
ATOM     14  C   UNL A   1      33.381  29.039  26.383  1.00  0.00     0.042 A 
ATOM     15  C   UNL A   1      31.643  28.225  24.876  1.00  0.00     0.026 A 
ATOM     16  Cl  UNL A   1      34.202  30.357  27.123  1.00  0.00    -0.084 Cl
ATOM     17  C   UNL A   1      32.284  29.278  25.555  1.00  0.00     0.033 A 
BRANCH   9  18
ATOM     18  C   UNL A   1      31.373  23.727  25.512  1.00  0.00     0.429 C 
ATOM     19  F   UNL A   1      30.244  24.330  25.958  1.00  0.00    -0.167 F 
ATOM     20  F   UNL A   1      31.000  22.523  25.016  1.00  0.00    -0.167 F 
ATOM     21  F   UNL A   1      32.152  23.489  26.594  1.00  0.00    -0.167 F 
ENDBRANCH   9  18
BRANCH  15  22
ATOM     22  C   UNL A   1      30.634  28.552  23.855  1.00  0.00    -0.014 A 
ATOM     23  C   UNL A   1      30.945  29.472  22.837  1.00  0.00     0.012 A 
ATOM     24  C   UNL A   1      29.340  28.020  23.889  1.00  0.00     0.012 A 
ATOM     25  C   UNL A   1      29.988  29.900  21.921  1.00  0.00     0.047 A 
ATOM     26  C   UNL A   1      28.374  28.442  22.964  1.00  0.00     0.047 A 
ATOM     27  C   UNL A   1      28.704  29.394  22.002  1.00  0.00     0.115 A 
BRANCH  27  28
ATOM     28  O   UNL A   1      27.782  29.871  21.120  1.00  0.00    -0.508 OA
ATOM     29  H   UNL A   1      27.364  29.286  20.517  1.00  0.00     0.293 HD
ENDBRANCH  27  28
ENDBRANCH  15  22
ENDBRANCH   5   7
ENDBRANCH   2   3
ENDBRANCH   1   2
BRANCH   1  30
ATOM     30  C   UNL A   1      37.702  22.480  25.282  1.00  0.00     0.118 C 
BRANCH  30  31
ATOM     31  N   UNL A   1      39.006  22.048  25.764  1.00  0.00    -0.352 N 
ATOM     32  C   UNL A   1      39.927  22.755  26.517  1.00  0.00     0.251 C 
ATOM     33  H   UNL A   1      39.267  21.131  25.521  1.00  0.00     0.163 HD
ATOM     34  O   UNL A   1      40.998  22.241  26.827  1.00  0.00    -0.269 OA
BRANCH  32  35
ATOM     35  C   UNL A   1      39.677  24.181  26.829  1.00  0.00     0.039 A 
ATOM     36  C   UNL A   1      38.965  24.479  27.996  1.00  0.00     0.014 A 
ATOM     37  C   UNL A   1      40.277  25.202  26.098  1.00  0.00     0.014 A 
ATOM     38  C   UNL A   1      39.031  25.765  28.533  1.00  0.00     0.010 A 
ATOM     39  C   UNL A   1      40.435  26.450  26.686  1.00  0.00     0.010 A 
ATOM     40  C   UNL A   1      39.866  26.722  27.939  1.00  0.00    -0.014 A 
BRANCH  40  41
ATOM     41  C   UNL A   1      40.260  27.966  28.647  1.00  0.00     0.031 A 
ATOM     42  C   UNL A   1      41.580  28.043  29.356  1.00  0.00     0.074 A 
ATOM     43  C   UNL A   1      39.358  28.961  28.781  1.00  0.00     0.049 A 
ATOM     44  N   UNL A   1      42.008  28.938  30.208  1.00  0.00    -0.248 NA
ATOM     45  C   UNL A   1      42.521  26.938  29.113  1.00  0.00     0.031 C 
ATOM     46  C   UNL A   1      38.015  28.983  28.192  1.00  0.00     0.029 A 
ATOM     47  N   UNL A   1      39.427  30.143  29.475  1.00  0.00    -0.354 N 
ATOM     48  C   UNL A   1      43.245  28.479  30.640  1.00  0.00     0.074 A 
ATOM     49  C   UNL A   1      43.481  27.211  29.983  1.00  0.00     0.031 C 
ATOM     50  C   UNL A   1      37.406  30.134  28.516  1.00  0.00     0.029 A 
ATOM     51  C   UNL A   1      38.287  30.907  29.381  1.00  0.00     0.049 A 
ATOM     52  H   UNL A   1      40.219  30.418  29.992  1.00  0.00     0.167 HD
ATOM     53  C   UNL A   1      44.111  29.065  31.501  1.00  0.00     0.031 A 
ATOM     54  C   UNL A   1      37.981  32.092  29.939  1.00  0.00     0.031 A 
ATOM     55  C   UNL A   1      43.889  30.344  32.118  1.00  0.00     0.049 A 
ATOM     56  C   UNL A   1      38.980  32.750  30.845  1.00  0.00     0.074 A 
ATOM     57  C   UNL A   1      44.726  31.054  32.961  1.00  0.00     0.029 A 
ATOM     58  N   UNL A   1      42.748  31.113  31.941  1.00  0.00    -0.354 N 
ATOM     59  N   UNL A   1      40.158  32.316  31.222  1.00  0.00    -0.248 NA
ATOM     60  C   UNL A   1      38.611  34.059  31.400  1.00  0.00     0.031 C 
ATOM     61  C   UNL A   1      44.083  32.248  33.308  1.00  0.00     0.029 A 
ATOM     62  C   UNL A   1      42.860  32.293  32.655  1.00  0.00     0.049 A 
ATOM     63  H   UNL A   1      41.974  30.857  31.390  1.00  0.00     0.167 HD
ATOM     64  C   UNL A   1      40.683  33.309  32.036  1.00  0.00     0.074 A 
ATOM     65  C   UNL A   1      39.698  34.371  32.093  1.00  0.00     0.031 C 
ATOM     66  C   UNL A   1      41.873  33.339  32.681  1.00  0.00     0.031 A 
BRANCH  53  67
ATOM     67  C   UNL A   1      45.371  28.313  31.817  1.00  0.00    -0.014 A 
ATOM     68  C   UNL A   1      46.545  28.514  31.072  1.00  0.00     0.009 A 
ATOM     69  C   UNL A   1      45.384  27.379  32.865  1.00  0.00     0.009 A 
ATOM     70  C   UNL A   1      47.689  27.759  31.336  1.00  0.00     0.001 A 
ATOM     71  C   UNL A   1      46.539  26.646  33.146  1.00  0.00     0.001 A 
ATOM     72  C   UNL A   1      47.685  26.826  32.372  1.00  0.00     0.000 A 
ENDBRANCH  53  67
BRANCH  54  73
ATOM     73  C   UNL A   1      36.683  32.749  29.632  1.00  0.00    -0.014 A 
ATOM     74  C   UNL A   1      36.506  33.414  28.409  1.00  0.00     0.009 A 
ATOM     75  C   UNL A   1      35.618  32.709  30.545  1.00  0.00     0.009 A 
ATOM     76  C   UNL A   1      35.297  34.048  28.115  1.00  0.00     0.001 A 
ATOM     77  C   UNL A   1      34.401  33.323  30.237  1.00  0.00     0.001 A 
ATOM     78  C   UNL A   1      34.243  33.998  29.027  1.00  0.00     0.000 A 
ENDBRANCH  54  73
BRANCH  66  79
ATOM     79  C   UNL A   1      42.195  34.579  33.460  1.00  0.00    -0.014 A 
ATOM     80  C   UNL A   1      41.900  34.673  34.828  1.00  0.00     0.009 A 
ATOM     81  C   UNL A   1      42.853  35.642  32.825  1.00  0.00     0.009 A 
ATOM     82  C   UNL A   1      42.243  35.821  35.542  1.00  0.00     0.001 A 
ATOM     83  C   UNL A   1      43.212  36.781  33.546  1.00  0.00     0.001 A 
ATOM     84  C   UNL A   1      42.903  36.870  34.903  1.00  0.00     0.000 A 
ENDBRANCH  66  79
ENDBRANCH  40  41
ENDBRANCH  32  35
ENDBRANCH  30  31
ENDBRANCH   1  30
TORSDOF 13
ENDMDL
MODEL 3
REMARK VINA RESULT:     -12.4      3.040      6.197
REMARK SMILES O=C(NCCCNC(=O)c1ccc(-c2c3nc(c(-c4ccccc4)c4ccc([nH]4)c(-c4ccccc4)c4nc(c(-c5ccccc5)c5ccc2[nH]5)C=C4)C=C3)cc1)C1=Cc2cc(Cl)cc(-c3ccc(O)cc3)c2O[C@@H]1C(F)(F)F
REMARK SMILES IDX 5 1 4 2 3 3 1 4 2 5 58 7 59 8 75 9 60 10 74 11 61 12 73 13
REMARK SMILES IDX 62 14 65 15 63 16 64 17 76 18 77 19 78 20 79 21 66 22 67 23
REMARK SMILES IDX 72 24 68 25 71 26 69 27 70 28 6 30 7 31 8 32 9 34 10 35
REMARK SMILES IDX 11 36 57 37 12 38 56 39 13 40 14 41 15 42 50 43 16 44 55 45
REMARK SMILES IDX 49 46 51 47 17 48 54 49 48 50 47 51 18 53 40 54 25 55 39 56
REMARK SMILES IDX 26 57 29 58 38 59 52 60 27 61 28 62 37 64 53 65 30 66 19 67
REMARK SMILES IDX 20 68 24 69 21 70 23 71 22 72 41 73 42 74 46 75 43 76 45 77
REMARK SMILES IDX 44 78 31 79 32 80 36 81 33 82 35 83 34 84
REMARK H PARENT 3 6 70 29 7 33 51 52 29 63
REMARK Flexibility Score: inf
ROOT
ATOM      1  C   UNL A   1      31.519  27.803  26.529  1.00  0.00     0.042 C 
ENDROOT
BRANCH   1   2
ATOM      2  C   UNL A   1      31.993  26.434  26.037  1.00  0.00     0.118 C 
BRANCH   2   3
ATOM      3  N   UNL A   1      31.483  25.333  26.861  1.00  0.00    -0.352 N 
ATOM      4  O   UNL A   1      31.377  23.212  27.665  1.00  0.00    -0.270 OA
ATOM      5  C   UNL A   1      31.737  23.987  26.790  1.00  0.00     0.251 C 
ATOM      6  H   UNL A   1      30.861  25.602  27.575  1.00  0.00     0.163 HD
BRANCH   5   7
ATOM      7  C   UNL A   1      32.521  23.528  25.636  1.00  0.00     0.067 C 
ATOM      8  C   UNL A   1      33.843  23.727  25.667  1.00  0.00     0.025 C 
ATOM      9  C   UNL A   1      31.865  22.578  24.687  1.00  0.00     0.314 C 
ATOM     10  C   UNL A   1      34.633  22.631  25.101  1.00  0.00     0.019 A 
ATOM     11  O   UNL A   1      32.618  21.344  24.589  1.00  0.00    -0.475 OA
ATOM     12  C   UNL A   1      36.018  22.660  25.281  1.00  0.00     0.032 A 
ATOM     13  C   UNL A   1      33.982  21.424  24.768  1.00  0.00     0.135 A 
ATOM     14  C   UNL A   1      36.737  21.471  25.229  1.00  0.00     0.042 A 
ATOM     15  C   UNL A   1      34.696  20.213  24.778  1.00  0.00     0.026 A 
ATOM     16  Cl  UNL A   1      38.417  21.486  25.601  1.00  0.00    -0.084 Cl
ATOM     17  C   UNL A   1      36.084  20.259  25.007  1.00  0.00     0.033 A 
BRANCH   9  18
ATOM     18  C   UNL A   1      31.612  23.222  23.312  1.00  0.00     0.429 C 
ATOM     19  F   UNL A   1      31.998  22.399  22.307  1.00  0.00    -0.167 F 
ATOM     20  F   UNL A   1      30.297  23.484  23.117  1.00  0.00    -0.167 F 
ATOM     21  F   UNL A   1      32.280  24.389  23.152  1.00  0.00    -0.167 F 
ENDBRANCH   9  18
BRANCH  15  22
ATOM     22  C   UNL A   1      34.024  18.903  24.763  1.00  0.00    -0.014 A 
ATOM     23  C   UNL A   1      33.016  18.627  25.705  1.00  0.00     0.012 A 
ATOM     24  C   UNL A   1      34.391  17.887  23.874  1.00  0.00     0.012 A 
ATOM     25  C   UNL A   1      32.436  17.365  25.805  1.00  0.00     0.047 A 
ATOM     26  C   UNL A   1      33.805  16.617  23.966  1.00  0.00     0.047 A 
ATOM     27  C   UNL A   1      32.848  16.364  24.945  1.00  0.00     0.115 A 
BRANCH  27  28
ATOM     28  O   UNL A   1      32.292  15.130  25.103  1.00  0.00    -0.508 OA
ATOM     29  H   UNL A   1      31.866  14.908  25.909  1.00  0.00     0.293 HD
ENDBRANCH  27  28
ENDBRANCH  15  22
ENDBRANCH   5   7
ENDBRANCH   2   3
ENDBRANCH   1   2
BRANCH   1  30
ATOM     30  C   UNL A   1      32.645  28.646  27.120  1.00  0.00     0.118 C 
BRANCH  30  31
ATOM     31  N   UNL A   1      32.347  30.061  27.278  1.00  0.00    -0.352 N 
ATOM     32  C   UNL A   1      33.228  31.121  27.400  1.00  0.00     0.251 C 
ATOM     33  H   UNL A   1      31.392  30.295  27.302  1.00  0.00     0.163 HD
ATOM     34  O   UNL A   1      32.804  32.265  27.544  1.00  0.00    -0.269 OA
BRANCH  32  35
ATOM     35  C   UNL A   1      34.682  30.858  27.496  1.00  0.00     0.039 A 
ATOM     36  C   UNL A   1      35.526  31.941  27.766  1.00  0.00     0.014 A 
ATOM     37  C   UNL A   1      35.189  29.561  27.501  1.00  0.00     0.014 A 
ATOM     38  C   UNL A   1      36.818  31.706  28.238  1.00  0.00     0.010 A 
ATOM     39  C   UNL A   1      36.430  29.324  28.073  1.00  0.00     0.010 A 
ATOM     40  C   UNL A   1      37.230  30.393  28.506  1.00  0.00    -0.014 A 
BRANCH  40  41
ATOM     41  C   UNL A   1      38.426  30.100  29.335  1.00  0.00     0.031 A 
ATOM     42  C   UNL A   1      39.529  29.243  28.787  1.00  0.00     0.074 A 
ATOM     43  C   UNL A   1      38.438  30.476  30.630  1.00  0.00     0.049 A 
ATOM     44  N   UNL A   1      40.535  28.691  29.415  1.00  0.00    -0.248 NA
ATOM     45  C   UNL A   1      39.462  28.923  27.353  1.00  0.00     0.031 C 
ATOM     46  C   UNL A   1      37.396  31.261  31.303  1.00  0.00     0.029 A 
ATOM     47  N   UNL A   1      39.352  30.231  31.625  1.00  0.00    -0.354 N 
ATOM     48  C   UNL A   1      41.189  27.919  28.465  1.00  0.00     0.074 A 
ATOM     49  C   UNL A   1      40.447  28.047  27.229  1.00  0.00     0.031 C 
ATOM     50  C   UNL A   1      37.749  31.464  32.581  1.00  0.00     0.029 A 
ATOM     51  C   UNL A   1      39.009  30.779  32.838  1.00  0.00     0.049 A 
ATOM     52  H   UNL A   1      40.176  29.711  31.482  1.00  0.00     0.167 HD
ATOM     53  C   UNL A   1      42.313  27.176  28.607  1.00  0.00     0.031 A 
ATOM     54  C   UNL A   1      39.633  30.726  34.029  1.00  0.00     0.031 A 
ATOM     55  C   UNL A   1      43.068  27.086  29.826  1.00  0.00     0.049 A 
ATOM     56  C   UNL A   1      40.908  29.943  34.148  1.00  0.00     0.074 A 
ATOM     57  C   UNL A   1      44.251  26.408  30.062  1.00  0.00     0.029 A 
ATOM     58  N   UNL A   1      42.719  27.712  31.013  1.00  0.00    -0.354 N 
ATOM     59  N   UNL A   1      41.530  29.241  33.232  1.00  0.00    -0.248 NA
ATOM     60  C   UNL A   1      41.568  29.947  35.460  1.00  0.00     0.031 C 
ATOM     61  C   UNL A   1      44.609  26.611  31.399  1.00  0.00     0.029 A 
ATOM     62  C   UNL A   1      43.666  27.441  31.985  1.00  0.00     0.049 A 
ATOM     63  H   UNL A   1      41.917  28.267  31.145  1.00  0.00     0.167 HD
ATOM     64  C   UNL A   1      42.668  28.741  33.848  1.00  0.00     0.074 A 
ATOM     65  C   UNL A   1      42.654  29.225  35.214  1.00  0.00     0.031 C 
ATOM     66  C   UNL A   1      43.637  27.949  33.331  1.00  0.00     0.031 A 
BRANCH  53  67
ATOM     67  C   UNL A   1      42.776  26.406  27.404  1.00  0.00    -0.014 A 
ATOM     68  C   UNL A   1      42.344  25.091  27.171  1.00  0.00     0.009 A 
ATOM     69  C   UNL A   1      43.670  26.997  26.497  1.00  0.00     0.009 A 
ATOM     70  C   UNL A   1      42.835  24.365  26.085  1.00  0.00     0.001 A 
ATOM     71  C   UNL A   1      44.137  26.279  25.395  1.00  0.00     0.001 A 
ATOM     72  C   UNL A   1      43.731  24.960  25.197  1.00  0.00     0.000 A 
ENDBRANCH  53  67
BRANCH  54  73
ATOM     73  C   UNL A   1      39.080  31.461  35.196  1.00  0.00    -0.014 A 
ATOM     74  C   UNL A   1      39.354  32.828  35.358  1.00  0.00     0.009 A 
ATOM     75  C   UNL A   1      38.272  30.813  36.144  1.00  0.00     0.009 A 
ATOM     76  C   UNL A   1      38.852  33.526  36.458  1.00  0.00     0.001 A 
ATOM     77  C   UNL A   1      37.751  31.520  37.230  1.00  0.00     0.001 A 
ATOM     78  C   UNL A   1      38.047  32.873  37.391  1.00  0.00     0.000 A 
ENDBRANCH  54  73
BRANCH  66  79
ATOM     79  C   UNL A   1      44.785  27.601  34.229  1.00  0.00    -0.014 A 
ATOM     80  C   UNL A   1      45.911  28.431  34.321  1.00  0.00     0.009 A 
ATOM     81  C   UNL A   1      44.709  26.455  35.035  1.00  0.00     0.009 A 
ATOM     82  C   UNL A   1      46.951  28.108  35.193  1.00  0.00     0.001 A 
ATOM     83  C   UNL A   1      45.743  26.145  35.919  1.00  0.00     0.001 A 
ATOM     84  C   UNL A   1      46.864  26.970  35.994  1.00  0.00     0.000 A 
ENDBRANCH  66  79
ENDBRANCH  40  41
ENDBRANCH  32  35
ENDBRANCH  30  31
ENDBRANCH   1  30
TORSDOF 13
ENDMDL
