MODEL 1
REMARK VINA RESULT:     -10.4      0.000      0.000
REMARK SMILES C[C@@H](NC1=[NH+]CCC1)C(=O)NCCCNC(=O)c1ccc(-c2c3nc(c(-c4ccccc4)c4ccc([nH]4)c(-c4ccccc4)c4nc(c(-c5ccccc5)c5ccc2[nH]5)C=C4)C=C3)cc1
REMARK SMILES IDX 13 1 12 2 11 3 9 4 10 5 2 7 1 8 3 9 4 10 5 12 8 13 6 14 7 16
REMARK SMILES IDX 14 17 15 18 16 19 17 21 18 22 19 23 65 24 20 25 64 26 21 27
REMARK SMILES IDX 22 28 23 29 58 30 24 31 63 32 57 33 59 34 25 35 62 36 56 37
REMARK SMILES IDX 55 38 26 40 48 41 33 42 47 43 34 44 37 45 46 46 60 47 35 48
REMARK SMILES IDX 36 49 45 51 61 52 38 53 27 54 28 55 32 56 29 57 31 58 30 59
REMARK SMILES IDX 49 60 50 61 54 62 51 63 53 64 52 65 39 66 40 67 44 68 41 69
REMARK SMILES IDX 43 70 42 71
REMARK H PARENT 11 6 3 11 5 15 15 20 59 39 37 50
REMARK Flexibility Score: inf
ROOT
ATOM      1  C   UNL A   1      32.038  28.263  27.555  1.00  0.00     0.042 C 
ENDROOT
BRANCH   1   2
ATOM      2  C   UNL A   1      31.600  27.410  26.380  1.00  0.00     0.118 C 
BRANCH   2   3
ATOM      3  N   UNL A   1      31.000  26.160  26.818  1.00  0.00    -0.352 N 
ATOM      4  C   UNL A   1      30.539  25.107  26.085  1.00  0.00     0.264 C 
ATOM      5  O   UNL A   1      30.069  24.147  26.705  1.00  0.00    -0.270 OA
ATOM      6  H   UNL A   1      30.915  26.058  27.794  1.00  0.00     0.163 HD
BRANCH   4   7
ATOM      7  C   UNL A   1      30.569  25.113  24.547  1.00  0.00     0.258 C 
ATOM      8  C   UNL A   1      30.928  23.709  24.057  1.00  0.00     0.069 C 
BRANCH   7   9
ATOM      9  N   UNL A   1      29.323  25.561  23.926  1.00  0.00    -0.267 N 
ATOM     10  C   UNL A   1      29.024  26.808  23.462  1.00  0.00     0.243 C 
ATOM     11  H   UNL A   1      28.617  24.882  23.832  1.00  0.00     0.305 HD
ATOM     12  N   UNL A   1      27.806  27.252  23.579  1.00  0.00    -0.279 N 
ATOM     13  C   UNL A   1      29.999  27.755  22.822  1.00  0.00     0.131 C 
ATOM     14  C   UNL A   1      27.839  28.651  23.108  1.00  0.00     0.234 C 
ATOM     15  H   UNL A   1      27.023  26.756  23.912  1.00  0.00     0.304 HD
ATOM     16  C   UNL A   1      29.301  29.057  23.139  1.00  0.00     0.058 C 
ENDBRANCH   7   9
ENDBRANCH   4   7
ENDBRANCH   2   3
ENDBRANCH   1   2
BRANCH   1  17
ATOM     17  C   UNL A   1      33.436  28.834  27.388  1.00  0.00     0.118 C 
BRANCH  17  18
ATOM     18  N   UNL A   1      33.517  30.247  27.735  1.00  0.00    -0.352 N 
ATOM     19  C   UNL A   1      34.555  30.946  28.300  1.00  0.00     0.251 C 
ATOM     20  H   UNL A   1      32.712  30.778  27.534  1.00  0.00     0.163 HD
ATOM     21  O   UNL A   1      34.394  32.103  28.676  1.00  0.00    -0.269 OA
BRANCH  19  22
ATOM     22  C   UNL A   1      35.862  30.283  28.483  1.00  0.00     0.039 A 
ATOM     23  C   UNL A   1      36.772  30.278  27.425  1.00  0.00     0.014 A 
ATOM     24  C   UNL A   1      36.199  29.704  29.709  1.00  0.00     0.014 A 
ATOM     25  C   UNL A   1      38.051  29.758  27.624  1.00  0.00     0.010 A 
ATOM     26  C   UNL A   1      37.501  29.279  29.933  1.00  0.00     0.010 A 
ATOM     27  C   UNL A   1      38.440  29.296  28.892  1.00  0.00    -0.014 A 
BRANCH  27  28
ATOM     28  C   UNL A   1      39.823  28.828  29.151  1.00  0.00     0.031 A 
ATOM     29  C   UNL A   1      40.823  29.748  29.795  1.00  0.00     0.074 A 
ATOM     30  C   UNL A   1      40.196  27.598  28.746  1.00  0.00     0.049 A 
ATOM     31  N   UNL A   1      42.088  29.536  30.058  1.00  0.00    -0.248 NA
ATOM     32  C   UNL A   1      40.350  31.091  30.167  1.00  0.00     0.031 C 
ATOM     33  C   UNL A   1      39.333  26.628  28.067  1.00  0.00     0.029 A 
ATOM     34  N   UNL A   1      41.402  26.952  28.847  1.00  0.00    -0.354 N 
ATOM     35  C   UNL A   1      42.560  30.720  30.609  1.00  0.00     0.074 A 
ATOM     36  C   UNL A   1      41.466  31.664  30.589  1.00  0.00     0.031 C 
ATOM     37  C   UNL A   1      40.026  25.500  27.847  1.00  0.00     0.029 A 
ATOM     38  C   UNL A   1      41.393  25.682  28.324  1.00  0.00     0.049 A 
ATOM     39  H   UNL A   1      42.200  27.361  29.254  1.00  0.00     0.167 HD
ATOM     40  C   UNL A   1      43.789  30.991  31.110  1.00  0.00     0.031 A 
ATOM     41  C   UNL A   1      42.376  24.767  28.234  1.00  0.00     0.031 A 
ATOM     42  C   UNL A   1      44.874  30.048  31.138  1.00  0.00     0.049 A 
ATOM     43  C   UNL A   1      43.737  25.099  28.780  1.00  0.00     0.074 A 
ATOM     44  C   UNL A   1      46.139  30.206  31.673  1.00  0.00     0.029 A 
ATOM     45  N   UNL A   1      44.823  28.771  30.599  1.00  0.00    -0.354 N 
ATOM     46  N   UNL A   1      44.146  26.197  29.367  1.00  0.00    -0.248 NA
ATOM     47  C   UNL A   1      44.767  24.059  28.661  1.00  0.00     0.031 C 
ATOM     48  C   UNL A   1      46.873  29.047  31.408  1.00  0.00     0.029 A 
ATOM     49  C   UNL A   1      46.044  28.141  30.765  1.00  0.00     0.049 A 
ATOM     50  H   UNL A   1      44.035  28.373  30.164  1.00  0.00     0.167 HD
ATOM     51  C   UNL A   1      45.472  25.970  29.714  1.00  0.00     0.074 A 
ATOM     52  C   UNL A   1      45.790  24.623  29.288  1.00  0.00     0.031 C 
ATOM     53  C   UNL A   1      46.346  26.801  30.332  1.00  0.00     0.031 A 
BRANCH  40  54
ATOM     54  C   UNL A   1      44.023  32.370  31.663  1.00  0.00    -0.014 A 
ATOM     55  C   UNL A   1      44.448  33.425  30.839  1.00  0.00     0.009 A 
ATOM     56  C   UNL A   1      43.783  32.627  33.022  1.00  0.00     0.009 A 
ATOM     57  C   UNL A   1      44.666  34.698  31.371  1.00  0.00     0.001 A 
ATOM     58  C   UNL A   1      43.969  33.908  33.546  1.00  0.00     0.001 A 
ATOM     59  C   UNL A   1      44.421  34.939  32.723  1.00  0.00     0.000 A 
ENDBRANCH  40  54
BRANCH  41  60
ATOM     60  C   UNL A   1      42.108  23.441  27.615  1.00  0.00    -0.014 A 
ATOM     61  C   UNL A   1      42.442  23.199  26.273  1.00  0.00     0.009 A 
ATOM     62  C   UNL A   1      41.511  22.412  28.360  1.00  0.00     0.009 A 
ATOM     63  C   UNL A   1      42.155  21.967  25.682  1.00  0.00     0.001 A 
ATOM     64  C   UNL A   1      41.255  21.170  27.776  1.00  0.00     0.001 A 
ATOM     65  C   UNL A   1      41.567  20.951  26.435  1.00  0.00     0.000 A 
ENDBRANCH  41  60
BRANCH  53  66
ATOM     66  C   UNL A   1      47.720  26.264  30.618  1.00  0.00    -0.014 A 
ATOM     67  C   UNL A   1      48.739  26.309  29.654  1.00  0.00     0.009 A 
ATOM     68  C   UNL A   1      48.009  25.742  31.889  1.00  0.00     0.009 A 
ATOM     69  C   UNL A   1      50.009  25.808  29.946  1.00  0.00     0.001 A 
ATOM     70  C   UNL A   1      49.288  25.273  32.189  1.00  0.00     0.001 A 
ATOM     71  C   UNL A   1      50.284  25.297  31.215  1.00  0.00     0.000 A 
ENDBRANCH  53  66
ENDBRANCH  27  28
ENDBRANCH  19  22
ENDBRANCH  17  18
ENDBRANCH   1  17
TORSDOF 11
ENDMDL
MODEL 2
REMARK VINA RESULT:     -10.3      4.192      8.366
REMARK SMILES C[C@@H](NC1=[NH+]CCC1)C(=O)NCCCNC(=O)c1ccc(-c2c3nc(c(-c4ccccc4)c4ccc([nH]4)c(-c4ccccc4)c4nc(c(-c5ccccc5)c5ccc2[nH]5)C=C4)C=C3)cc1
REMARK SMILES IDX 13 1 12 2 11 3 9 4 10 5 2 7 1 8 3 9 4 10 5 12 8 13 6 14 7 16
REMARK SMILES IDX 14 17 15 18 16 19 17 21 18 22 19 23 65 24 20 25 64 26 21 27
REMARK SMILES IDX 22 28 23 29 58 30 24 31 63 32 57 33 59 34 25 35 62 36 56 37
REMARK SMILES IDX 55 38 26 40 48 41 33 42 47 43 34 44 37 45 46 46 60 47 35 48
REMARK SMILES IDX 36 49 45 51 61 52 38 53 27 54 28 55 32 56 29 57 31 58 30 59
REMARK SMILES IDX 49 60 50 61 54 62 51 63 53 64 52 65 39 66 40 67 44 68 41 69
REMARK SMILES IDX 43 70 42 71
REMARK H PARENT 11 6 3 11 5 15 15 20 59 39 37 50
REMARK Flexibility Score: inf
ROOT
ATOM      1  C   UNL A   1      38.071  20.032  24.633  1.00  0.00     0.042 C 
ENDROOT
BRANCH   1   2
ATOM      2  C   UNL A   1      36.604  19.908  25.000  1.00  0.00     0.118 C 
BRANCH   2   3
ATOM      3  N   UNL A   1      36.128  18.543  24.858  1.00  0.00    -0.352 N 
ATOM      4  C   UNL A   1      34.868  18.075  24.627  1.00  0.00     0.264 C 
ATOM      5  O   UNL A   1      34.724  16.851  24.546  1.00  0.00    -0.270 OA
ATOM      6  H   UNL A   1      36.822  17.848  24.941  1.00  0.00     0.163 HD
BRANCH   4   7
ATOM      7  C   UNL A   1      33.661  19.021  24.500  1.00  0.00     0.258 C 
ATOM      8  C   UNL A   1      32.504  18.257  23.854  1.00  0.00     0.069 C 
BRANCH   7   9
ATOM      9  N   UNL A   1      33.231  19.614  25.766  1.00  0.00    -0.267 N 
ATOM     10  C   UNL A   1      33.460  20.881  26.213  1.00  0.00     0.243 C 
ATOM     11  H   UNL A   1      32.713  19.029  26.365  1.00  0.00     0.305 HD
ATOM     12  N   UNL A   1      33.652  21.078  27.487  1.00  0.00    -0.279 N 
ATOM     13  C   UNL A   1      33.530  22.109  25.351  1.00  0.00     0.131 C 
ATOM     14  C   UNL A   1      33.994  22.507  27.627  1.00  0.00     0.234 C 
ATOM     15  H   UNL A   1      33.583  20.410  28.208  1.00  0.00     0.304 HD
ATOM     16  C   UNL A   1      34.401  22.967  26.239  1.00  0.00     0.058 C 
ENDBRANCH   7   9
ENDBRANCH   4   7
ENDBRANCH   2   3
ENDBRANCH   1   2
BRANCH   1  17
ATOM     17  C   UNL A   1      38.983  20.118  25.844  1.00  0.00     0.118 C 
BRANCH  17  18
ATOM     18  N   UNL A   1      40.004  19.078  25.862  1.00  0.00    -0.352 N 
ATOM     19  C   UNL A   1      41.363  19.195  26.017  1.00  0.00     0.251 C 
ATOM     20  H   UNL A   1      39.670  18.158  25.746  1.00  0.00     0.163 HD
ATOM     21  O   UNL A   1      42.095  18.226  25.843  1.00  0.00    -0.269 OA
BRANCH  19  22
ATOM     22  C   UNL A   1      41.942  20.507  26.366  1.00  0.00     0.039 A 
ATOM     23  C   UNL A   1      42.324  21.373  25.341  1.00  0.00     0.014 A 
ATOM     24  C   UNL A   1      42.071  20.894  27.703  1.00  0.00     0.014 A 
ATOM     25  C   UNL A   1      42.764  22.659  25.658  1.00  0.00     0.010 A 
ATOM     26  C   UNL A   1      42.412  22.203  28.010  1.00  0.00     0.010 A 
ATOM     27  C   UNL A   1      42.769  23.098  26.991  1.00  0.00    -0.014 A 
BRANCH  27  28
ATOM     28  C   UNL A   1      43.141  24.490  27.342  1.00  0.00     0.031 A 
ATOM     29  C   UNL A   1      44.583  24.915  27.315  1.00  0.00     0.074 A 
ATOM     30  C   UNL A   1      42.188  25.353  27.747  1.00  0.00     0.049 A 
ATOM     31  N   UNL A   1      45.108  26.071  27.634  1.00  0.00    -0.248 NA
ATOM     32  C   UNL A   1      45.569  23.902  26.904  1.00  0.00     0.031 C 
ATOM     33  C   UNL A   1      40.759  25.048  27.862  1.00  0.00     0.029 A 
ATOM     34  N   UNL A   1      42.279  26.664  28.141  1.00  0.00    -0.354 N 
ATOM     35  C   UNL A   1      46.479  25.918  27.477  1.00  0.00     0.074 A 
ATOM     36  C   UNL A   1      46.712  24.544  27.094  1.00  0.00     0.031 C 
ATOM     37  C   UNL A   1      40.105  26.151  28.259  1.00  0.00     0.029 A 
ATOM     38  C   UNL A   1      41.070  27.224  28.473  1.00  0.00     0.049 A 
ATOM     39  H   UNL A   1      43.130  27.156  28.181  1.00  0.00     0.167 HD
ATOM     40  C   UNL A   1      47.458  26.843  27.617  1.00  0.00     0.031 A 
ATOM     41  C   UNL A   1      40.770  28.463  28.907  1.00  0.00     0.031 A 
ATOM     42  C   UNL A   1      47.225  28.212  27.990  1.00  0.00     0.049 A 
ATOM     43  C   UNL A   1      41.878  29.467  29.073  1.00  0.00     0.074 A 
ATOM     44  C   UNL A   1      48.141  29.242  28.104  1.00  0.00     0.029 A 
ATOM     45  N   UNL A   1      45.986  28.740  28.318  1.00  0.00    -0.354 N 
ATOM     46  N   UNL A   1      43.161  29.327  28.847  1.00  0.00    -0.248 NA
ATOM     47  C   UNL A   1      41.490  30.805  29.542  1.00  0.00     0.031 C 
ATOM     48  C   UNL A   1      47.466  30.379  28.557  1.00  0.00     0.029 A 
ATOM     49  C   UNL A   1      46.117  30.074  28.661  1.00  0.00     0.049 A 
ATOM     50  H   UNL A   1      45.138  28.240  28.307  1.00  0.00     0.167 HD
ATOM     51  C   UNL A   1      43.731  30.565  29.117  1.00  0.00     0.074 A 
ATOM     52  C   UNL A   1      42.650  31.447  29.505  1.00  0.00     0.031 C 
ATOM     53  C   UNL A   1      45.032  30.938  29.048  1.00  0.00     0.031 A 
BRANCH  40  54
ATOM     54  C   UNL A   1      48.873  26.398  27.369  1.00  0.00    -0.014 A 
ATOM     55  C   UNL A   1      49.433  26.429  26.082  1.00  0.00     0.009 A 
ATOM     56  C   UNL A   1      49.670  25.972  28.443  1.00  0.00     0.009 A 
ATOM     57  C   UNL A   1      50.748  26.006  25.869  1.00  0.00     0.001 A 
ATOM     58  C   UNL A   1      50.994  25.581  28.234  1.00  0.00     0.001 A 
ATOM     59  C   UNL A   1      51.528  25.588  26.947  1.00  0.00     0.000 A 
ENDBRANCH  40  54
BRANCH  41  60
ATOM     60  C   UNL A   1      39.360  28.831  29.203  1.00  0.00    -0.014 A 
ATOM     61  C   UNL A   1      38.543  29.384  28.204  1.00  0.00     0.009 A 
ATOM     62  C   UNL A   1      38.825  28.640  30.486  1.00  0.00     0.009 A 
ATOM     63  C   UNL A   1      37.231  29.765  28.492  1.00  0.00     0.001 A 
ATOM     64  C   UNL A   1      37.503  28.993  30.764  1.00  0.00     0.001 A 
ATOM     65  C   UNL A   1      36.710  29.564  29.770  1.00  0.00     0.000 A 
ENDBRANCH  41  60
BRANCH  53  66
ATOM     66  C   UNL A   1      45.353  32.372  29.364  1.00  0.00    -0.014 A 
ATOM     67  C   UNL A   1      45.315  33.366  28.374  1.00  0.00     0.009 A 
ATOM     68  C   UNL A   1      45.657  32.738  30.685  1.00  0.00     0.009 A 
ATOM     69  C   UNL A   1      45.612  34.692  28.694  1.00  0.00     0.001 A 
ATOM     70  C   UNL A   1      45.920  34.069  31.009  1.00  0.00     0.001 A 
ATOM     71  C   UNL A   1      45.908  35.043  30.012  1.00  0.00     0.000 A 
ENDBRANCH  53  66
ENDBRANCH  27  28
ENDBRANCH  19  22
ENDBRANCH  17  18
ENDBRANCH   1  17
TORSDOF 11
ENDMDL
MODEL 3
REMARK VINA RESULT:     -10.3      3.586      8.357
REMARK SMILES C[C@@H](NC1=[NH+]CCC1)C(=O)NCCCNC(=O)c1ccc(-c2c3nc(c(-c4ccccc4)c4ccc([nH]4)c(-c4ccccc4)c4nc(c(-c5ccccc5)c5ccc2[nH]5)C=C4)C=C3)cc1
REMARK SMILES IDX 13 1 12 2 11 3 9 4 10 5 2 7 1 8 3 9 4 10 5 12 8 13 6 14 7 16
REMARK SMILES IDX 14 17 15 18 16 19 17 21 18 22 19 23 65 24 20 25 64 26 21 27
REMARK SMILES IDX 22 28 23 29 58 30 24 31 63 32 57 33 59 34 25 35 62 36 56 37
REMARK SMILES IDX 55 38 26 40 48 41 33 42 47 43 34 44 37 45 46 46 60 47 35 48
REMARK SMILES IDX 36 49 45 51 61 52 38 53 27 54 28 55 32 56 29 57 31 58 30 59
REMARK SMILES IDX 49 60 50 61 54 62 51 63 53 64 52 65 39 66 40 67 44 68 41 69
REMARK SMILES IDX 43 70 42 71
REMARK H PARENT 11 6 3 11 5 15 15 20 59 39 37 50
REMARK Flexibility Score: inf
ROOT
ATOM      1  C   UNL A   1      37.767  20.085  25.011  1.00  0.00     0.042 C 
ENDROOT
BRANCH   1   2
ATOM      2  C   UNL A   1      36.800  21.225  24.756  1.00  0.00     0.118 C 
BRANCH   2   3
ATOM      3  N   UNL A   1      36.066  21.586  25.957  1.00  0.00    -0.352 N 
ATOM      4  C   UNL A   1      34.777  21.312  26.310  1.00  0.00     0.264 C 
ATOM      5  O   UNL A   1      34.387  21.737  27.403  1.00  0.00    -0.270 OA
ATOM      6  H   UNL A   1      36.577  22.108  26.617  1.00  0.00     0.163 HD
BRANCH   4   7
ATOM      7  C   UNL A   1      33.829  20.532  25.383  1.00  0.00     0.258 C 
ATOM      8  C   UNL A   1      33.350  21.468  24.272  1.00  0.00     0.069 C 
BRANCH   7   9
ATOM      9  N   UNL A   1      34.416  19.323  24.808  1.00  0.00    -0.267 N 
ATOM     10  C   UNL A   1      33.931  18.051  24.868  1.00  0.00     0.243 C 
ATOM     11  H   UNL A   1      35.262  19.442  24.318  1.00  0.00     0.305 HD
ATOM     12  N   UNL A   1      34.768  17.057  24.952  1.00  0.00    -0.279 N 
ATOM     13  C   UNL A   1      32.477  17.673  24.861  1.00  0.00     0.131 C 
ATOM     14  C   UNL A   1      33.941  15.846  25.127  1.00  0.00     0.234 C 
ATOM     15  H   UNL A   1      35.751  17.103  24.909  1.00  0.00     0.304 HD
ATOM     16  C   UNL A   1      32.578  16.344  25.573  1.00  0.00     0.058 C 
ENDBRANCH   7   9
ENDBRANCH   4   7
ENDBRANCH   2   3
ENDBRANCH   1   2
BRANCH   1  17
ATOM     17  C   UNL A   1      38.973  20.500  25.837  1.00  0.00     0.118 C 
BRANCH  17  18
ATOM     18  N   UNL A   1      40.042  19.510  25.816  1.00  0.00    -0.352 N 
ATOM     19  C   UNL A   1      41.380  19.669  26.082  1.00  0.00     0.251 C 
ATOM     20  H   UNL A   1      39.766  18.595  25.579  1.00  0.00     0.163 HD
ATOM     21  O   UNL A   1      42.171  18.758  25.859  1.00  0.00    -0.269 OA
BRANCH  19  22
ATOM     22  C   UNL A   1      41.866  20.958  26.611  1.00  0.00     0.039 A 
ATOM     23  C   UNL A   1      42.296  21.939  25.716  1.00  0.00     0.014 A 
ATOM     24  C   UNL A   1      41.859  21.210  27.986  1.00  0.00     0.014 A 
ATOM     25  C   UNL A   1      42.647  23.200  26.198  1.00  0.00     0.010 A 
ATOM     26  C   UNL A   1      42.112  22.492  28.451  1.00  0.00     0.010 A 
ATOM     27  C   UNL A   1      42.515  23.500  27.563  1.00  0.00    -0.014 A 
BRANCH  27  28
ATOM     28  C   UNL A   1      42.791  24.862  28.083  1.00  0.00     0.031 A 
ATOM     29  C   UNL A   1      44.188  25.246  28.487  1.00  0.00     0.074 A 
ATOM     30  C   UNL A   1      41.773  25.728  28.253  1.00  0.00     0.049 A 
ATOM     31  N   UNL A   1      44.616  26.369  29.005  1.00  0.00    -0.248 NA
ATOM     32  C   UNL A   1      45.236  24.228  28.312  1.00  0.00     0.031 C 
ATOM     33  C   UNL A   1      40.367  25.459  27.944  1.00  0.00     0.029 A 
ATOM     34  N   UNL A   1      41.766  27.015  28.730  1.00  0.00    -0.354 N 
ATOM     35  C   UNL A   1      45.974  26.185  29.231  1.00  0.00     0.074 A 
ATOM     36  C   UNL A   1      46.287  24.827  28.851  1.00  0.00     0.031 C 
ATOM     37  C   UNL A   1      39.641  26.558  28.204  1.00  0.00     0.029 A 
ATOM     38  C   UNL A   1      40.519  27.591  28.741  1.00  0.00     0.049 A 
ATOM     39  H   UNL A   1      42.578  27.480  29.035  1.00  0.00     0.167 HD
ATOM     40  C   UNL A   1      46.885  27.075  29.692  1.00  0.00     0.031 A 
ATOM     41  C   UNL A   1      40.126  28.814  29.143  1.00  0.00     0.031 A 
ATOM     42  C   UNL A   1      46.574  28.429  30.062  1.00  0.00     0.049 A 
ATOM     43  C   UNL A   1      41.154  29.777  29.670  1.00  0.00     0.074 A 
ATOM     44  C   UNL A   1      47.434  29.425  30.487  1.00  0.00     0.029 A 
ATOM     45  N   UNL A   1      45.299  28.974  30.058  1.00  0.00    -0.354 N 
ATOM     46  N   UNL A   1      42.448  29.613  29.806  1.00  0.00    -0.248 NA
ATOM     47  C   UNL A   1      40.667  31.099  30.086  1.00  0.00     0.031 C 
ATOM     48  C   UNL A   1      46.672  30.556  30.796  1.00  0.00     0.029 A 
ATOM     49  C   UNL A   1      45.345  30.285  30.500  1.00  0.00     0.049 A 
ATOM     50  H   UNL A   1      44.482  28.499  29.781  1.00  0.00     0.167 HD
ATOM     51  C   UNL A   1      42.933  30.818  30.294  1.00  0.00     0.074 A 
ATOM     52  C   UNL A   1      41.798  31.709  30.414  1.00  0.00     0.031 C 
ATOM     53  C   UNL A   1      44.206  31.158  30.615  1.00  0.00     0.031 A 
BRANCH  40  54
ATOM     54  C   UNL A   1      48.307  26.603  29.827  1.00  0.00    -0.014 A 
ATOM     55  C   UNL A   1      48.754  25.957  30.991  1.00  0.00     0.009 A 
ATOM     56  C   UNL A   1      49.205  26.778  28.763  1.00  0.00     0.009 A 
ATOM     57  C   UNL A   1      50.080  25.531  31.101  1.00  0.00     0.001 A 
ATOM     58  C   UNL A   1      50.520  26.322  28.861  1.00  0.00     0.001 A 
ATOM     59  C   UNL A   1      50.960  25.709  30.034  1.00  0.00     0.000 A 
ENDBRANCH  40  54
BRANCH  41  60
ATOM     60  C   UNL A   1      38.694  29.207  29.051  1.00  0.00    -0.014 A 
ATOM     61  C   UNL A   1      38.161  29.684  27.844  1.00  0.00     0.009 A 
ATOM     62  C   UNL A   1      37.854  29.114  30.172  1.00  0.00     0.009 A 
ATOM     63  C   UNL A   1      36.827  30.089  27.768  1.00  0.00     0.001 A 
ATOM     64  C   UNL A   1      36.512  29.489  30.086  1.00  0.00     0.001 A 
ATOM     65  C   UNL A   1      36.002  29.986  28.887  1.00  0.00     0.000 A 
ENDBRANCH  41  60
BRANCH  53  66
ATOM     66  C   UNL A   1      44.443  32.564  31.090  1.00  0.00    -0.014 A 
ATOM     67  C   UNL A   1      44.411  32.892  32.454  1.00  0.00     0.009 A 
ATOM     68  C   UNL A   1      44.746  33.568  30.156  1.00  0.00     0.009 A 
ATOM     69  C   UNL A   1      44.640  34.205  32.869  1.00  0.00     0.001 A 
ATOM     70  C   UNL A   1      45.009  34.871  30.576  1.00  0.00     0.001 A 
ATOM     71  C   UNL A   1      44.945  35.192  31.931  1.00  0.00     0.000 A 
ENDBRANCH  53  66
ENDBRANCH  27  28
ENDBRANCH  19  22
ENDBRANCH  17  18
ENDBRANCH   1  17
TORSDOF 11
ENDMDL
