MODEL 1
REMARK VINA RESULT:     -12.5      0.000      0.000
REMARK SMILES O=C1Nc2ccccc2/C1=C/c1cccc(C(=O)NCCCNC(=O)c2ccc(-c3c4nc(c(-c5ccccc5)c5ccc([nH]5)c(-c5ccccc5)c5nc(c(-c6ccccc6)c6ccc3[nH]6)C=C5)C=C4)cc2)c1
REMARK SMILES IDX 21 1 20 2 19 3 17 4 18 5 16 7 12 8 13 9 74 10 14 11 15 12
REMARK SMILES IDX 11 13 1 14 2 15 3 16 10 17 4 18 9 20 5 21 8 22 6 23 7 24
REMARK SMILES IDX 22 25 23 26 24 27 25 29 26 30 27 31 73 32 28 33 72 34 29 35
REMARK SMILES IDX 30 36 31 37 66 38 32 39 71 40 65 41 67 42 33 43 70 44 64 45
REMARK SMILES IDX 63 46 34 48 56 49 41 50 55 51 42 52 45 53 54 54 68 55 43 56
REMARK SMILES IDX 44 57 53 59 69 60 46 61 35 62 36 63 40 64 37 65 39 66 38 67
REMARK SMILES IDX 57 68 58 69 62 70 59 71 61 72 60 73 47 74 48 75 52 76 49 77
REMARK SMILES IDX 51 78 50 79
REMARK H PARENT 19 6 3 19 23 28 67 47 45 58
REMARK Flexibility Score: inf
ROOT
ATOM      1  C   UNL A   1      37.714  19.702  24.936  1.00  0.00     0.042 C 
ENDROOT
BRANCH   1   2
ATOM      2  C   UNL A   1      36.448  20.558  25.001  1.00  0.00     0.118 C 
BRANCH   2   3
ATOM      3  N   UNL A   1      35.271  19.727  25.191  1.00  0.00    -0.352 N 
ATOM      4  C   UNL A   1      33.932  19.934  24.968  1.00  0.00     0.251 C 
ATOM      5  O   UNL A   1      33.177  18.992  25.211  1.00  0.00    -0.269 OA
ATOM      6  H   UNL A   1      35.476  18.836  25.554  1.00  0.00     0.163 HD
BRANCH   4   7
ATOM      7  C   UNL A   1      33.360  21.197  24.416  1.00  0.00     0.040 A 
ATOM      8  C   UNL A   1      33.114  23.619  24.341  1.00  0.00    -0.024 A 
ATOM      9  C   UNL A   1      32.413  23.526  23.140  1.00  0.00     0.008 A 
ATOM     10  C   UNL A   1      33.498  22.448  25.011  1.00  0.00     0.022 A 
ATOM     11  C   UNL A   1      32.157  22.270  22.588  1.00  0.00     0.001 A 
ATOM     12  C   UNL A   1      32.651  21.116  23.208  1.00  0.00     0.014 A 
BRANCH   8  13
ATOM     13  C   UNL A   1      33.524  24.907  24.912  1.00  0.00     0.022 C 
ATOM     14  O   UNL A   1      30.702  24.278  26.030  1.00  0.00    -0.269 OA
ATOM     15  C   UNL A   1      31.330  25.304  26.181  1.00  0.00     0.256 C 
ATOM     16  N   UNL A   1      30.901  26.424  26.876  1.00  0.00    -0.321 N 
ATOM     17  C   UNL A   1      32.711  25.666  25.668  1.00  0.00     0.050 C 
ATOM     18  C   UNL A   1      31.850  27.438  26.845  1.00  0.00     0.049 A 
ATOM     19  H   UNL A   1      30.032  26.491  27.335  1.00  0.00     0.170 HD
ATOM     20  C   UNL A   1      32.980  27.035  26.125  1.00  0.00     0.011 A 
ATOM     21  C   UNL A   1      31.727  28.693  27.404  1.00  0.00     0.027 A 
ATOM     22  C   UNL A   1      34.027  27.916  25.925  1.00  0.00     0.011 A 
ATOM     23  C   UNL A   1      32.784  29.583  27.211  1.00  0.00     0.002 A 
ATOM     24  C   UNL A   1      33.922  29.199  26.476  1.00  0.00     0.001 A 
ENDBRANCH   8  13
ENDBRANCH   4   7
ENDBRANCH   2   3
ENDBRANCH   1   2
BRANCH   1  25
ATOM     25  C   UNL A   1      38.865  20.294  25.741  1.00  0.00     0.118 C 
BRANCH  25  26
ATOM     26  N   UNL A   1      39.958  19.340  25.896  1.00  0.00    -0.352 N 
ATOM     27  C   UNL A   1      41.293  19.549  26.124  1.00  0.00     0.251 C 
ATOM     28  H   UNL A   1      39.694  18.395  25.827  1.00  0.00     0.163 HD
ATOM     29  O   UNL A   1      42.089  18.631  25.955  1.00  0.00    -0.269 OA
BRANCH  27  30
ATOM     30  C   UNL A   1      41.781  20.871  26.570  1.00  0.00     0.039 A 
ATOM     31  C   UNL A   1      42.175  21.805  25.608  1.00  0.00     0.014 A 
ATOM     32  C   UNL A   1      41.898  21.174  27.929  1.00  0.00     0.014 A 
ATOM     33  C   UNL A   1      42.635  23.059  26.009  1.00  0.00     0.010 A 
ATOM     34  C   UNL A   1      42.271  22.452  28.325  1.00  0.00     0.010 A 
ATOM     35  C   UNL A   1      42.655  23.404  27.370  1.00  0.00    -0.014 A 
BRANCH  35  36
ATOM     36  C   UNL A   1      43.076  24.756  27.815  1.00  0.00     0.031 A 
ATOM     37  C   UNL A   1      42.046  25.804  28.134  1.00  0.00     0.074 A 
ATOM     38  C   UNL A   1      44.388  25.055  27.873  1.00  0.00     0.049 A 
ATOM     39  N   UNL A   1      42.221  27.051  28.492  1.00  0.00    -0.248 NA
ATOM     40  C   UNL A   1      40.635  25.407  28.010  1.00  0.00     0.031 C 
ATOM     41  C   UNL A   1      45.482  24.135  27.554  1.00  0.00     0.029 A 
ATOM     42  N   UNL A   1      45.024  26.219  28.219  1.00  0.00    -0.354 N 
ATOM     43  C   UNL A   1      40.946  27.589  28.620  1.00  0.00     0.074 A 
ATOM     44  C   UNL A   1      40.012  26.552  28.242  1.00  0.00     0.031 C 
ATOM     45  C   UNL A   1      46.653  24.758  27.757  1.00  0.00     0.029 A 
ATOM     46  C   UNL A   1      46.393  26.133  28.171  1.00  0.00     0.049 A 
ATOM     47  H   UNL A   1      44.545  27.040  28.477  1.00  0.00     0.167 HD
ATOM     48  C   UNL A   1      40.585  28.826  29.034  1.00  0.00     0.031 A 
ATOM     49  C   UNL A   1      47.336  27.058  28.426  1.00  0.00     0.031 A 
ATOM     50  C   UNL A   1      41.519  29.857  29.401  1.00  0.00     0.049 A 
ATOM     51  C   UNL A   1      46.911  28.437  28.846  1.00  0.00     0.074 A 
ATOM     52  C   UNL A   1      41.258  31.130  29.877  1.00  0.00     0.029 A 
ATOM     53  N   UNL A   1      42.899  29.734  29.325  1.00  0.00    -0.354 N 
ATOM     54  N   UNL A   1      45.701  28.911  29.028  1.00  0.00    -0.248 NA
ATOM     55  C   UNL A   1      47.985  29.406  29.107  1.00  0.00     0.031 C 
ATOM     56  C   UNL A   1      42.478  31.798  30.026  1.00  0.00     0.029 A 
ATOM     57  C   UNL A   1      43.502  30.918  29.714  1.00  0.00     0.049 A 
ATOM     58  H   UNL A   1      43.379  28.924  29.035  1.00  0.00     0.167 HD
ATOM     59  C   UNL A   1      45.868  30.222  29.453  1.00  0.00     0.074 A 
ATOM     60  C   UNL A   1      47.296  30.462  29.518  1.00  0.00     0.031 C 
ATOM     61  C   UNL A   1      44.924  31.144  29.766  1.00  0.00     0.031 A 
BRANCH  48  62
ATOM     62  C   UNL A   1      39.111  29.132  29.090  1.00  0.00    -0.014 A 
ATOM     63  C   UNL A   1      38.426  29.639  27.972  1.00  0.00     0.009 A 
ATOM     64  C   UNL A   1      38.393  28.900  30.273  1.00  0.00     0.009 A 
ATOM     65  C   UNL A   1      37.068  29.957  28.057  1.00  0.00     0.001 A 
ATOM     66  C   UNL A   1      37.027  29.184  30.344  1.00  0.00     0.001 A 
ATOM     67  C   UNL A   1      36.370  29.725  29.241  1.00  0.00     0.000 A 
ENDBRANCH  48  62
BRANCH  49  68
ATOM     68  C   UNL A   1      48.776  26.703  28.315  1.00  0.00    -0.014 A 
ATOM     69  C   UNL A   1      49.476  26.216  29.429  1.00  0.00     0.009 A 
ATOM     70  C   UNL A   1      49.456  26.840  27.095  1.00  0.00     0.009 A 
ATOM     71  C   UNL A   1      50.832  25.897  29.331  1.00  0.00     0.001 A 
ATOM     72  C   UNL A   1      50.805  26.490  26.991  1.00  0.00     0.001 A 
ATOM     73  C   UNL A   1      51.494  26.029  28.111  1.00  0.00     0.000 A 
ENDBRANCH  49  68
BRANCH  61  74
ATOM     74  C   UNL A   1      45.406  32.486  30.245  1.00  0.00    -0.014 A 
ATOM     75  C   UNL A   1      45.665  32.731  31.602  1.00  0.00     0.009 A 
ATOM     76  C   UNL A   1      45.638  33.510  29.313  1.00  0.00     0.009 A 
ATOM     77  C   UNL A   1      46.112  33.987  32.019  1.00  0.00     0.001 A 
ATOM     78  C   UNL A   1      46.117  34.752  29.729  1.00  0.00     0.001 A 
ATOM     79  C   UNL A   1      46.343  34.993  31.083  1.00  0.00     0.000 A 
ENDBRANCH  61  74
ENDBRANCH  35  36
ENDBRANCH  27  30
ENDBRANCH  25  26
ENDBRANCH   1  25
TORSDOF 11
ENDMDL
MODEL 2
REMARK VINA RESULT:     -12.5      0.485      5.988
REMARK SMILES O=C1Nc2ccccc2/C1=C/c1cccc(C(=O)NCCCNC(=O)c2ccc(-c3c4nc(c(-c5ccccc5)c5ccc([nH]5)c(-c5ccccc5)c5nc(c(-c6ccccc6)c6ccc3[nH]6)C=C5)C=C4)cc2)c1
REMARK SMILES IDX 21 1 20 2 19 3 17 4 18 5 16 7 12 8 13 9 74 10 14 11 15 12
REMARK SMILES IDX 11 13 1 14 2 15 3 16 10 17 4 18 9 20 5 21 8 22 6 23 7 24
REMARK SMILES IDX 22 25 23 26 24 27 25 29 26 30 27 31 73 32 28 33 72 34 29 35
REMARK SMILES IDX 30 36 31 37 66 38 32 39 71 40 65 41 67 42 33 43 70 44 64 45
REMARK SMILES IDX 63 46 34 48 56 49 41 50 55 51 42 52 45 53 54 54 68 55 43 56
REMARK SMILES IDX 44 57 53 59 69 60 46 61 35 62 36 63 40 64 37 65 39 66 38 67
REMARK SMILES IDX 57 68 58 69 62 70 59 71 61 72 60 73 47 74 48 75 52 76 49 77
REMARK SMILES IDX 51 78 50 79
REMARK H PARENT 19 6 3 19 23 28 67 47 45 58
REMARK Flexibility Score: inf
ROOT
ATOM      1  C   UNL A   1      37.502  19.442  24.990  1.00  0.00     0.042 C 
ENDROOT
BRANCH   1   2
ATOM      2  C   UNL A   1      36.271  20.350  25.005  1.00  0.00     0.118 C 
BRANCH   2   3
ATOM      3  N   UNL A   1      35.060  19.576  25.217  1.00  0.00    -0.352 N 
ATOM      4  C   UNL A   1      33.731  19.835  24.990  1.00  0.00     0.251 C 
ATOM      5  O   UNL A   1      32.936  18.932  25.256  1.00  0.00    -0.269 OA
ATOM      6  H   UNL A   1      35.227  18.685  25.601  1.00  0.00     0.163 HD
BRANCH   4   7
ATOM      7  C   UNL A   1      33.213  21.108  24.407  1.00  0.00     0.040 A 
ATOM      8  C   UNL A   1      33.010  23.533  24.324  1.00  0.00    -0.024 A 
ATOM      9  C   UNL A   1      32.381  23.454  23.083  1.00  0.00     0.008 A 
ATOM     10  C   UNL A   1      33.335  22.356  25.013  1.00  0.00     0.022 A 
ATOM     11  C   UNL A   1      32.139  22.203  22.514  1.00  0.00     0.001 A 
ATOM     12  C   UNL A   1      32.576  21.040  23.159  1.00  0.00     0.014 A 
BRANCH   8  13
ATOM     13  C   UNL A   1      33.405  24.814  24.922  1.00  0.00     0.022 C 
ATOM     14  O   UNL A   1      30.544  24.186  25.937  1.00  0.00    -0.269 OA
ATOM     15  C   UNL A   1      31.171  25.208  26.119  1.00  0.00     0.256 C 
ATOM     16  N   UNL A   1      30.724  26.322  26.811  1.00  0.00    -0.321 N 
ATOM     17  C   UNL A   1      32.571  25.569  25.658  1.00  0.00     0.050 C 
ATOM     18  C   UNL A   1      31.676  27.332  26.823  1.00  0.00     0.049 A 
ATOM     19  H   UNL A   1      29.840  26.389  27.241  1.00  0.00     0.170 HD
ATOM     20  C   UNL A   1      32.830  26.932  26.138  1.00  0.00     0.011 A 
ATOM     21  C   UNL A   1      31.540  28.582  27.390  1.00  0.00     0.027 A 
ATOM     22  C   UNL A   1      33.886  27.810  25.983  1.00  0.00     0.011 A 
ATOM     23  C   UNL A   1      32.606  29.469  27.243  1.00  0.00     0.002 A 
ATOM     24  C   UNL A   1      33.768  29.089  26.542  1.00  0.00     0.001 A 
ENDBRANCH   8  13
ENDBRANCH   4   7
ENDBRANCH   2   3
ENDBRANCH   1   2
BRANCH   1  25
ATOM     25  C   UNL A   1      38.773  20.168  25.421  1.00  0.00     0.118 C 
BRANCH  25  26
ATOM     26  N   UNL A   1      39.844  19.230  25.738  1.00  0.00    -0.352 N 
ATOM     27  C   UNL A   1      41.140  19.460  26.121  1.00  0.00     0.251 C 
ATOM     28  H   UNL A   1      39.597  18.280  25.668  1.00  0.00     0.163 HD
ATOM     29  O   UNL A   1      41.956  18.544  26.080  1.00  0.00    -0.269 OA
BRANCH  27  30
ATOM     30  C   UNL A   1      41.561  20.799  26.580  1.00  0.00     0.039 A 
ATOM     31  C   UNL A   1      42.027  21.721  25.638  1.00  0.00     0.014 A 
ATOM     32  C   UNL A   1      41.546  21.132  27.937  1.00  0.00     0.014 A 
ATOM     33  C   UNL A   1      42.425  22.992  26.052  1.00  0.00     0.010 A 
ATOM     34  C   UNL A   1      41.859  22.426  28.338  1.00  0.00     0.010 A 
ATOM     35  C   UNL A   1      42.313  23.365  27.401  1.00  0.00    -0.014 A 
BRANCH  35  36
ATOM     36  C   UNL A   1      42.668  24.733  27.852  1.00  0.00     0.031 A 
ATOM     37  C   UNL A   1      44.105  25.105  28.090  1.00  0.00     0.074 A 
ATOM     38  C   UNL A   1      41.687  25.623  28.104  1.00  0.00     0.049 A 
ATOM     39  N   UNL A   1      44.605  26.233  28.529  1.00  0.00    -0.248 NA
ATOM     40  C   UNL A   1      45.112  24.065  27.827  1.00  0.00     0.031 C 
ATOM     41  C   UNL A   1      40.254  25.371  27.945  1.00  0.00     0.029 A 
ATOM     42  N   UNL A   1      41.749  26.917  28.549  1.00  0.00    -0.354 N 
ATOM     43  C   UNL A   1      45.978  26.031  28.608  1.00  0.00     0.074 A 
ATOM     44  C   UNL A   1      46.224  24.657  28.232  1.00  0.00     0.031 C 
ATOM     45  C   UNL A   1      39.575  26.488  28.249  1.00  0.00     0.029 A 
ATOM     46  C   UNL A   1      40.520  27.516  28.672  1.00  0.00     0.049 A 
ATOM     47  H   UNL A   1      42.595  27.375  28.762  1.00  0.00     0.167 HD
ATOM     48  C   UNL A   1      46.947  26.915  28.943  1.00  0.00     0.031 A 
ATOM     49  C   UNL A   1      40.188  28.753  29.085  1.00  0.00     0.031 A 
ATOM     50  C   UNL A   1      46.695  28.280  29.324  1.00  0.00     0.049 A 
ATOM     51  C   UNL A   1      41.278  29.704  29.490  1.00  0.00     0.074 A 
ATOM     52  C   UNL A   1      47.608  29.272  29.638  1.00  0.00     0.029 A 
ATOM     53  N   UNL A   1      45.433  28.843  29.450  1.00  0.00    -0.354 N 
ATOM     54  N   UNL A   1      42.577  29.521  29.495  1.00  0.00    -0.248 NA
ATOM     55  C   UNL A   1      40.855  31.039  29.936  1.00  0.00     0.031 C 
ATOM     56  C   UNL A   1      46.896  30.414  30.018  1.00  0.00     0.029 A 
ATOM     57  C   UNL A   1      45.542  30.159  29.869  1.00  0.00     0.049 A 
ATOM     58  H   UNL A   1      44.585  28.376  29.270  1.00  0.00     0.167 HD
ATOM     59  C   UNL A   1      43.128  30.725  29.915  1.00  0.00     0.074 A 
ATOM     60  C   UNL A   1      42.022  31.635  30.138  1.00  0.00     0.031 C 
ATOM     61  C   UNL A   1      44.432  31.049  30.094  1.00  0.00     0.031 A 
BRANCH  48  62
ATOM     62  C   UNL A   1      48.369  26.419  28.928  1.00  0.00    -0.014 A 
ATOM     63  C   UNL A   1      48.961  25.863  30.075  1.00  0.00     0.009 A 
ATOM     64  C   UNL A   1      49.125  26.498  27.749  1.00  0.00     0.009 A 
ATOM     65  C   UNL A   1      50.295  25.447  30.053  1.00  0.00     0.001 A 
ATOM     66  C   UNL A   1      50.447  26.047  27.719  1.00  0.00     0.001 A 
ATOM     67  C   UNL A   1      51.034  25.535  28.875  1.00  0.00     0.000 A 
ENDBRANCH  48  62
BRANCH  49  68
ATOM     68  C   UNL A   1      38.761  29.169  29.113  1.00  0.00    -0.014 A 
ATOM     69  C   UNL A   1      38.166  29.745  27.980  1.00  0.00     0.009 A 
ATOM     70  C   UNL A   1      37.983  28.986  30.268  1.00  0.00     0.009 A 
ATOM     71  C   UNL A   1      36.830  30.152  28.010  1.00  0.00     0.001 A 
ATOM     72  C   UNL A   1      36.638  29.365  30.284  1.00  0.00     0.001 A 
ATOM     73  C   UNL A   1      36.066  29.956  29.160  1.00  0.00     0.000 A 
ENDBRANCH  49  68
BRANCH  61  74
ATOM     74  C   UNL A   1      44.737  32.460  30.518  1.00  0.00    -0.014 A 
ATOM     75  C   UNL A   1      44.863  32.808  31.872  1.00  0.00     0.009 A 
ATOM     76  C   UNL A   1      44.938  33.448  29.542  1.00  0.00     0.009 A 
ATOM     77  C   UNL A   1      45.146  34.126  32.239  1.00  0.00     0.001 A 
ATOM     78  C   UNL A   1      45.255  34.755  29.910  1.00  0.00     0.001 A 
ATOM     79  C   UNL A   1      45.349  35.096  31.258  1.00  0.00     0.000 A 
ENDBRANCH  61  74
ENDBRANCH  35  36
ENDBRANCH  27  30
ENDBRANCH  25  26
ENDBRANCH   1  25
TORSDOF 11
ENDMDL
MODEL 3
REMARK VINA RESULT:     -12.1      2.530      7.712
REMARK SMILES O=C1Nc2ccccc2/C1=C/c1cccc(C(=O)NCCCNC(=O)c2ccc(-c3c4nc(c(-c5ccccc5)c5ccc([nH]5)c(-c5ccccc5)c5nc(c(-c6ccccc6)c6ccc3[nH]6)C=C5)C=C4)cc2)c1
REMARK SMILES IDX 21 1 20 2 19 3 17 4 18 5 16 7 12 8 13 9 74 10 14 11 15 12
REMARK SMILES IDX 11 13 1 14 2 15 3 16 10 17 4 18 9 20 5 21 8 22 6 23 7 24
REMARK SMILES IDX 22 25 23 26 24 27 25 29 26 30 27 31 73 32 28 33 72 34 29 35
REMARK SMILES IDX 30 36 31 37 66 38 32 39 71 40 65 41 67 42 33 43 70 44 64 45
REMARK SMILES IDX 63 46 34 48 56 49 41 50 55 51 42 52 45 53 54 54 68 55 43 56
REMARK SMILES IDX 44 57 53 59 69 60 46 61 35 62 36 63 40 64 37 65 39 66 38 67
REMARK SMILES IDX 57 68 58 69 62 70 59 71 61 72 60 73 47 74 48 75 52 76 49 77
REMARK SMILES IDX 51 78 50 79
REMARK H PARENT 19 6 3 19 23 28 67 47 45 58
REMARK Flexibility Score: inf
ROOT
ATOM      1  C   UNL A   1      33.208  29.296  24.960  1.00  0.00     0.042 C 
ENDROOT
BRANCH   1   2
ATOM      2  C   UNL A   1      31.735  29.654  25.167  1.00  0.00     0.118 C 
BRANCH   2   3
ATOM      3  N   UNL A   1      30.903  29.025  24.156  1.00  0.00    -0.352 N 
ATOM      4  C   UNL A   1      30.558  27.719  23.907  1.00  0.00     0.251 C 
ATOM      5  O   UNL A   1      29.788  27.518  22.966  1.00  0.00    -0.269 OA
ATOM      6  H   UNL A   1      30.506  29.664  23.522  1.00  0.00     0.163 HD
BRANCH   4   7
ATOM      7  C   UNL A   1      31.020  26.560  24.725  1.00  0.00     0.040 A 
ATOM      8  C   UNL A   1      32.735  25.088  25.633  1.00  0.00    -0.024 A 
ATOM      9  C   UNL A   1      31.805  24.507  26.491  1.00  0.00     0.008 A 
ATOM     10  C   UNL A   1      32.312  26.043  24.696  1.00  0.00     0.022 A 
ATOM     11  C   UNL A   1      30.474  24.927  26.450  1.00  0.00     0.001 A 
ATOM     12  C   UNL A   1      30.091  25.964  25.592  1.00  0.00     0.014 A 
BRANCH   8  13
ATOM     13  C   UNL A   1      34.168  24.784  25.708  1.00  0.00     0.022 C 
ATOM     14  O   UNL A   1      32.836  22.482  24.114  1.00  0.00    -0.269 OA
ATOM     15  C   UNL A   1      33.990  22.537  24.482  1.00  0.00     0.256 C 
ATOM     16  N   UNL A   1      34.955  21.562  24.279  1.00  0.00    -0.321 N 
ATOM     17  C   UNL A   1      34.700  23.634  25.254  1.00  0.00     0.050 C 
ATOM     18  C   UNL A   1      36.172  21.923  24.842  1.00  0.00     0.049 A 
ATOM     19  H   UNL A   1      34.796  20.719  23.795  1.00  0.00     0.170 HD
ATOM     20  C   UNL A   1      36.082  23.180  25.450  1.00  0.00     0.011 A 
ATOM     21  C   UNL A   1      37.326  21.167  24.854  1.00  0.00     0.027 A 
ATOM     22  C   UNL A   1      37.170  23.708  26.120  1.00  0.00     0.011 A 
ATOM     23  C   UNL A   1      38.429  21.699  25.523  1.00  0.00     0.002 A 
ATOM     24  C   UNL A   1      38.351  22.956  26.153  1.00  0.00     0.001 A 
ENDBRANCH   8  13
ENDBRANCH   4   7
ENDBRANCH   2   3
ENDBRANCH   1   2
BRANCH   1  25
ATOM     25  C   UNL A   1      33.997  29.278  26.265  1.00  0.00     0.118 C 
BRANCH  25  26
ATOM     26  N   UNL A   1      33.848  30.530  26.999  1.00  0.00    -0.352 N 
ATOM     27  C   UNL A   1      34.568  31.034  28.050  1.00  0.00     0.251 C 
ATOM     28  H   UNL A   1      33.113  31.106  26.688  1.00  0.00     0.163 HD
ATOM     29  O   UNL A   1      34.119  31.975  28.698  1.00  0.00    -0.269 OA
BRANCH  27  30
ATOM     30  C   UNL A   1      35.878  30.453  28.411  1.00  0.00     0.039 A 
ATOM     31  C   UNL A   1      36.965  30.656  27.556  1.00  0.00     0.014 A 
ATOM     32  C   UNL A   1      36.026  29.670  29.558  1.00  0.00     0.014 A 
ATOM     33  C   UNL A   1      38.210  30.118  27.881  1.00  0.00     0.010 A 
ATOM     34  C   UNL A   1      37.285  29.210  29.927  1.00  0.00     0.010 A 
ATOM     35  C   UNL A   1      38.387  29.419  29.086  1.00  0.00    -0.014 A 
BRANCH  35  36
ATOM     36  C   UNL A   1      39.718  28.897  29.484  1.00  0.00     0.031 A 
ATOM     37  C   UNL A   1      40.626  29.720  30.357  1.00  0.00     0.074 A 
ATOM     38  C   UNL A   1      40.131  27.706  29.010  1.00  0.00     0.049 A 
ATOM     39  N   UNL A   1      41.839  29.454  30.769  1.00  0.00    -0.248 NA
ATOM     40  C   UNL A   1      40.113  31.026  30.802  1.00  0.00     0.031 C 
ATOM     41  C   UNL A   1      39.357  26.830  28.128  1.00  0.00     0.029 A 
ATOM     42  N   UNL A   1      41.307  27.028  29.201  1.00  0.00    -0.354 N 
ATOM     43  C   UNL A   1      42.238  30.562  31.507  1.00  0.00     0.074 A 
ATOM     44  C   UNL A   1      41.164  31.527  31.433  1.00  0.00     0.031 C 
ATOM     45  C   UNL A   1      40.062  25.714  27.888  1.00  0.00     0.029 A 
ATOM     46  C   UNL A   1      41.355  25.817  28.556  1.00  0.00     0.049 A 
ATOM     47  H   UNL A   1      42.048  27.376  29.750  1.00  0.00     0.167 HD
ATOM     48  C   UNL A   1      43.385  30.751  32.200  1.00  0.00     0.031 A 
ATOM     49  C   UNL A   1      42.333  24.895  28.502  1.00  0.00     0.031 A 
ATOM     50  C   UNL A   1      44.455  29.790  32.264  1.00  0.00     0.049 A 
ATOM     51  C   UNL A   1      43.614  25.144  29.247  1.00  0.00     0.074 A 
ATOM     52  C   UNL A   1      45.641  29.863  32.974  1.00  0.00     0.029 A 
ATOM     53  N   UNL A   1      44.470  28.581  31.583  1.00  0.00    -0.354 N 
ATOM     54  N   UNL A   1      43.950  26.167  29.996  1.00  0.00    -0.248 NA
ATOM     55  C   UNL A   1      44.646  24.103  29.147  1.00  0.00     0.031 C 
ATOM     56  C   UNL A   1      46.401  28.729  32.671  1.00  0.00     0.029 A 
ATOM     57  C   UNL A   1      45.659  27.914  31.830  1.00  0.00     0.049 A 
ATOM     58  H   UNL A   1      43.745  28.247  31.008  1.00  0.00     0.167 HD
ATOM     59  C   UNL A   1      45.219  25.880  30.480  1.00  0.00     0.074 A 
ATOM     60  C   UNL A   1      45.584  24.580  29.954  1.00  0.00     0.031 C 
ATOM     61  C   UNL A   1      46.010  26.624  31.293  1.00  0.00     0.031 A 
BRANCH  48  62
ATOM     62  C   UNL A   1      43.544  32.060  32.928  1.00  0.00    -0.014 A 
ATOM     63  C   UNL A   1      44.128  33.176  32.307  1.00  0.00     0.009 A 
ATOM     64  C   UNL A   1      43.094  32.182  34.252  1.00  0.00     0.009 A 
ATOM     65  C   UNL A   1      44.305  34.369  33.013  1.00  0.00     0.001 A 
ATOM     66  C   UNL A   1      43.238  33.388  34.943  1.00  0.00     0.001 A 
ATOM     67  C   UNL A   1      43.856  34.474  34.328  1.00  0.00     0.000 A 
ENDBRANCH  48  62
BRANCH  49  68
ATOM     68  C   UNL A   1      42.128  23.639  27.732  1.00  0.00    -0.014 A 
ATOM     69  C   UNL A   1      42.431  23.586  26.364  1.00  0.00     0.009 A 
ATOM     70  C   UNL A   1      41.636  22.484  28.362  1.00  0.00     0.009 A 
ATOM     71  C   UNL A   1      42.223  22.412  25.636  1.00  0.00     0.001 A 
ATOM     72  C   UNL A   1      41.460  21.302  27.639  1.00  0.00     0.001 A 
ATOM     73  C   UNL A   1      41.743  21.270  26.275  1.00  0.00     0.000 A 
ENDBRANCH  49  68
BRANCH  61  74
ATOM     74  C   UNL A   1      47.333  26.032  31.694  1.00  0.00    -0.014 A 
ATOM     75  C   UNL A   1      48.468  26.150  30.875  1.00  0.00     0.009 A 
ATOM     76  C   UNL A   1      47.453  25.378  32.930  1.00  0.00     0.009 A 
ATOM     77  C   UNL A   1      49.685  25.590  31.272  1.00  0.00     0.001 A 
ATOM     78  C   UNL A   1      48.678  24.851  33.338  1.00  0.00     0.001 A 
ATOM     79  C   UNL A   1      49.790  24.948  32.505  1.00  0.00     0.000 A 
ENDBRANCH  61  74
ENDBRANCH  35  36
ENDBRANCH  27  30
ENDBRANCH  25  26
ENDBRANCH   1  25
TORSDOF 11
ENDMDL
