MODEL 1
REMARK VINA RESULT:     -11.0      0.000      0.000
REMARK SMILES CC[NH2+][C@@]1(C(=O)NCCCNC(=O)c2ccc(-c3c4nc(c(-c5ccccc5)c5ccc([nH]5)c(-c5ccccc5)c5nc(c(-c6ccccc6)c6ccc3[nH]6)C=C5)C=C4)cc2)CC[C@@H](Oc2cccc(OC)c2)C1
REMARK SMILES IDX 8 1 7 2 5 3 6 4 4 6 62 7 74 8 63 9 64 10 3 11 2 14 1 15
REMARK SMILES IDX 65 16 66 17 67 18 73 19 68 20 70 21 69 22 71 23 72 24 9 25
REMARK SMILES IDX 10 26 11 27 12 28 13 30 14 31 15 32 61 33 16 34 60 35 17 36
REMARK SMILES IDX 18 37 19 38 54 39 20 40 59 41 53 42 55 43 21 44 58 45 52 46
REMARK SMILES IDX 51 47 22 49 44 50 29 51 43 52 30 53 33 54 42 55 56 56 31 57
REMARK SMILES IDX 32 58 41 60 57 61 34 62 23 63 24 64 28 65 25 66 27 67 26 68
REMARK SMILES IDX 45 69 46 70 50 71 47 72 49 73 48 74 35 75 36 76 40 77 37 78
REMARK SMILES IDX 39 79 38 80
REMARK H PARENT 7 5 3 12 3 13 11 29 55 48 33 59
REMARK Flexibility Score: inf
ROOT
ATOM      1  C   UNL A   1      32.219  29.442  25.554  1.00  0.00     0.118 C 
ENDROOT
BRANCH   1   2
ATOM      2  N   UNL A   1      33.137  29.512  24.444  1.00  0.00    -0.351 N 
ATOM      3  C   UNL A   1      33.330  28.728  23.353  1.00  0.00     0.281 C 
ATOM      4  O   UNL A   1      34.358  29.003  22.721  1.00  0.00    -0.268 OA
ATOM      5  H   UNL A   1      33.747  30.284  24.485  1.00  0.00     0.163 HD
BRANCH   3   6
ATOM      6  C   UNL A   1      32.380  27.534  22.942  1.00  0.00     0.179 C 
ATOM      7  C   UNL A   1      31.727  26.742  24.092  1.00  0.00     0.083 C 
ATOM      8  C   UNL A   1      33.186  26.502  22.124  1.00  0.00     0.124 C 
ATOM      9  C   UNL A   1      32.281  25.320  24.085  1.00  0.00     0.052 C 
ATOM     10  C   UNL A   1      33.361  25.262  23.004  1.00  0.00     0.180 C 
BRANCH   6  11
ATOM     11  N   UNL A   1      31.305  28.077  22.050  1.00  0.00    -0.334 N 
ATOM     12  H   UNL A   1      31.583  29.010  21.747  1.00  0.00     0.347 HD
ATOM     13  H   UNL A   1      31.210  27.418  21.276  1.00  0.00     0.347 HD
BRANCH  11  14
ATOM     14  C   UNL A   1      29.982  28.174  22.680  1.00  0.00     0.257 C 
ATOM     15  C   UNL A   1      29.373  29.537  22.391  1.00  0.00     0.071 C 
ENDBRANCH  11  14
ENDBRANCH   6  11
BRANCH  10  16
ATOM     16  O   UNL A   1      33.524  24.022  22.294  1.00  0.00    -0.490 OA
BRANCH  16  17
ATOM     17  C   UNL A   1      33.779  22.935  23.081  1.00  0.00     0.123 A 
ATOM     18  C   UNL A   1      35.027  22.811  23.686  1.00  0.00     0.047 A 
ATOM     19  C   UNL A   1      32.808  21.954  23.257  1.00  0.00     0.092 A 
ATOM     20  C   UNL A   1      35.262  21.749  24.557  1.00  0.00     0.008 A 
ATOM     21  C   UNL A   1      33.017  20.920  24.163  1.00  0.00     0.122 A 
ATOM     22  C   UNL A   1      34.250  20.817  24.809  1.00  0.00     0.046 A 
BRANCH  21  23
ATOM     23  O   UNL A   1      32.091  19.965  24.488  1.00  0.00    -0.497 OA
ATOM     24  C   UNL A   1      32.574  18.624  24.539  1.00  0.00     0.278 C 
ENDBRANCH  21  23
ENDBRANCH  16  17
ENDBRANCH  10  16
ENDBRANCH   3   6
ENDBRANCH   1   2
BRANCH   1  25
ATOM     25  C   UNL A   1      31.744  30.830  25.964  1.00  0.00     0.042 C 
BRANCH  25  26
ATOM     26  C   UNL A   1      32.527  31.386  27.141  1.00  0.00     0.118 C 
BRANCH  26  27
ATOM     27  N   UNL A   1      32.293  32.816  27.313  1.00  0.00    -0.352 N 
ATOM     28  C   UNL A   1      32.979  33.730  28.070  1.00  0.00     0.251 C 
ATOM     29  H   UNL A   1      31.527  33.178  26.811  1.00  0.00     0.163 HD
ATOM     30  O   UNL A   1      32.489  34.831  28.301  1.00  0.00    -0.269 OA
BRANCH  28  31
ATOM     31  C   UNL A   1      34.305  33.377  28.609  1.00  0.00     0.039 A 
ATOM     32  C   UNL A   1      34.395  32.701  29.828  1.00  0.00     0.014 A 
ATOM     33  C   UNL A   1      35.460  33.717  27.901  1.00  0.00     0.014 A 
ATOM     34  C   UNL A   1      35.646  32.305  30.303  1.00  0.00     0.010 A 
ATOM     35  C   UNL A   1      36.690  33.233  28.322  1.00  0.00     0.010 A 
ATOM     36  C   UNL A   1      36.798  32.535  29.533  1.00  0.00    -0.014 A 
BRANCH  36  37
ATOM     37  C   UNL A   1      38.139  32.082  29.967  1.00  0.00     0.031 A 
ATOM     38  C   UNL A   1      38.678  30.773  29.458  1.00  0.00     0.074 A 
ATOM     39  C   UNL A   1      38.819  32.788  30.889  1.00  0.00     0.049 A 
ATOM     40  N   UNL A   1      39.753  30.123  29.822  1.00  0.00    -0.248 NA
ATOM     41  C   UNL A   1      37.878  30.084  28.428  1.00  0.00     0.031 C 
ATOM     42  C   UNL A   1      38.384  34.054  31.484  1.00  0.00     0.029 A 
ATOM     43  N   UNL A   1      40.019  32.529  31.501  1.00  0.00    -0.354 N 
ATOM     44  C   UNL A   1      39.739  28.940  29.094  1.00  0.00     0.074 A 
ATOM     45  C   UNL A   1      38.526  28.936  28.308  1.00  0.00     0.031 C 
ATOM     46  C   UNL A   1      39.314  34.472  32.357  1.00  0.00     0.029 A 
ATOM     47  C   UNL A   1      40.383  33.481  32.423  1.00  0.00     0.049 A 
ATOM     48  H   UNL A   1      40.569  31.737  31.299  1.00  0.00     0.167 HD
ATOM     49  C   UNL A   1      40.667  27.954  29.067  1.00  0.00     0.031 A 
ATOM     50  C   UNL A   1      41.450  33.538  33.242  1.00  0.00     0.031 A 
ATOM     51  C   UNL A   1      41.880  27.975  29.836  1.00  0.00     0.049 A 
ATOM     52  C   UNL A   1      42.460  32.426  33.201  1.00  0.00     0.074 A 
ATOM     53  C   UNL A   1      42.914  27.056  29.838  1.00  0.00     0.029 A 
ATOM     54  N   UNL A   1      42.222  28.970  30.738  1.00  0.00    -0.354 N 
ATOM     55  N   UNL A   1      42.464  31.340  32.465  1.00  0.00    -0.248 NA
ATOM     56  C   UNL A   1      43.617  32.550  34.098  1.00  0.00     0.031 C 
ATOM     57  C   UNL A   1      43.858  27.468  30.784  1.00  0.00     0.029 A 
ATOM     58  C   UNL A   1      43.443  28.678  31.319  1.00  0.00     0.049 A 
ATOM     59  H   UNL A   1      41.678  29.766  30.936  1.00  0.00     0.167 HD
ATOM     60  C   UNL A   1      43.641  30.673  32.780  1.00  0.00     0.074 A 
ATOM     61  C   UNL A   1      44.327  31.479  33.769  1.00  0.00     0.031 C 
ATOM     62  C   UNL A   1      44.114  29.501  32.292  1.00  0.00     0.031 A 
BRANCH  49  63
ATOM     63  C   UNL A   1      40.394  26.770  28.180  1.00  0.00    -0.014 A 
ATOM     64  C   UNL A   1      39.659  25.666  28.641  1.00  0.00     0.009 A 
ATOM     65  C   UNL A   1      40.857  26.768  26.856  1.00  0.00     0.009 A 
ATOM     66  C   UNL A   1      39.430  24.569  27.808  1.00  0.00     0.001 A 
ATOM     67  C   UNL A   1      40.597  25.685  26.014  1.00  0.00     0.001 A 
ATOM     68  C   UNL A   1      39.893  24.582  26.494  1.00  0.00     0.000 A 
ENDBRANCH  49  63
BRANCH  50  69
ATOM     69  C   UNL A   1      41.628  34.697  34.156  1.00  0.00    -0.014 A 
ATOM     70  C   UNL A   1      42.362  35.820  33.745  1.00  0.00     0.009 A 
ATOM     71  C   UNL A   1      41.069  34.687  35.444  1.00  0.00     0.009 A 
ATOM     72  C   UNL A   1      42.557  36.896  34.614  1.00  0.00     0.001 A 
ATOM     73  C   UNL A   1      41.240  35.777  36.300  1.00  0.00     0.001 A 
ATOM     74  C   UNL A   1      41.993  36.876  35.889  1.00  0.00     0.000 A 
ENDBRANCH  50  69
BRANCH  62  75
ATOM     75  C   UNL A   1      45.464  29.046  32.770  1.00  0.00    -0.014 A 
ATOM     76  C   UNL A   1      46.644  29.444  32.125  1.00  0.00     0.009 A 
ATOM     77  C   UNL A   1      45.552  28.254  33.927  1.00  0.00     0.009 A 
ATOM     78  C   UNL A   1      47.886  29.034  32.616  1.00  0.00     0.001 A 
ATOM     79  C   UNL A   1      46.794  27.874  34.432  1.00  0.00     0.001 A 
ATOM     80  C   UNL A   1      47.960  28.257  33.771  1.00  0.00     0.000 A 
ENDBRANCH  62  75
ENDBRANCH  36  37
ENDBRANCH  28  31
ENDBRANCH  26  27
ENDBRANCH  25  26
ENDBRANCH   1  25
TORSDOF 15
ENDMDL
MODEL 2
REMARK VINA RESULT:     -10.9      2.953      8.141
REMARK SMILES CC[NH2+][C@@]1(C(=O)NCCCNC(=O)c2ccc(-c3c4nc(c(-c5ccccc5)c5ccc([nH]5)c(-c5ccccc5)c5nc(c(-c6ccccc6)c6ccc3[nH]6)C=C5)C=C4)cc2)CC[C@@H](Oc2cccc(OC)c2)C1
REMARK SMILES IDX 8 1 7 2 5 3 6 4 4 6 62 7 74 8 63 9 64 10 3 11 2 14 1 15
REMARK SMILES IDX 65 16 66 17 67 18 73 19 68 20 70 21 69 22 71 23 72 24 9 25
REMARK SMILES IDX 10 26 11 27 12 28 13 30 14 31 15 32 61 33 16 34 60 35 17 36
REMARK SMILES IDX 18 37 19 38 54 39 20 40 59 41 53 42 55 43 21 44 58 45 52 46
REMARK SMILES IDX 51 47 22 49 44 50 29 51 43 52 30 53 33 54 42 55 56 56 31 57
REMARK SMILES IDX 32 58 41 60 57 61 34 62 23 63 24 64 28 65 25 66 27 67 26 68
REMARK SMILES IDX 45 69 46 70 50 71 47 72 49 73 48 74 35 75 36 76 40 77 37 78
REMARK SMILES IDX 39 79 38 80
REMARK H PARENT 7 5 3 12 3 13 11 29 55 48 33 59
REMARK Flexibility Score: inf
ROOT
ATOM      1  C   UNL A   1      33.154  27.922  25.139  1.00  0.00     0.118 C 
ENDROOT
BRANCH   1   2
ATOM      2  N   UNL A   1      32.407  26.938  25.883  1.00  0.00    -0.351 N 
ATOM      3  C   UNL A   1      31.374  26.121  25.557  1.00  0.00     0.281 C 
ATOM      4  O   UNL A   1      30.865  25.553  26.533  1.00  0.00    -0.268 OA
ATOM      5  H   UNL A   1      32.707  26.838  26.816  1.00  0.00     0.163 HD
BRANCH   3   6
ATOM      6  C   UNL A   1      30.816  25.941  24.090  1.00  0.00     0.179 C 
ATOM      7  C   UNL A   1      31.842  26.039  22.943  1.00  0.00     0.083 C 
ATOM      8  C   UNL A   1      29.764  27.036  23.809  1.00  0.00     0.124 C 
ATOM      9  C   UNL A   1      31.530  27.279  22.110  1.00  0.00     0.052 C 
ATOM     10  C   UNL A   1      30.382  28.012  22.805  1.00  0.00     0.180 C 
BRANCH   6  11
ATOM     11  N   UNL A   1      30.121  24.616  24.013  1.00  0.00    -0.334 N 
ATOM     12  H   UNL A   1      29.904  24.314  24.962  1.00  0.00     0.347 HD
ATOM     13  H   UNL A   1      29.288  24.759  23.440  1.00  0.00     0.347 HD
BRANCH  11  14
ATOM     14  C   UNL A   1      30.900  23.557  23.361  1.00  0.00     0.257 C 
ATOM     15  C   UNL A   1      31.538  22.664  24.414  1.00  0.00     0.071 C 
ENDBRANCH  11  14
ENDBRANCH   6  11
BRANCH  10  16
ATOM     16  O   UNL A   1      29.443  28.716  21.974  1.00  0.00    -0.490 OA
BRANCH  16  17
ATOM     17  C   UNL A   1      29.138  29.981  22.390  1.00  0.00     0.123 A 
ATOM     18  C   UNL A   1      29.469  30.368  23.686  1.00  0.00     0.047 A 
ATOM     19  C   UNL A   1      28.486  30.863  21.534  1.00  0.00     0.092 A 
ATOM     20  C   UNL A   1      29.238  31.683  24.087  1.00  0.00     0.008 A 
ATOM     21  C   UNL A   1      28.298  32.189  21.909  1.00  0.00     0.122 A 
ATOM     22  C   UNL A   1      28.671  32.595  23.192  1.00  0.00     0.046 A 
BRANCH  21  23
ATOM     23  O   UNL A   1      27.764  33.161  21.107  1.00  0.00    -0.497 OA
ATOM     24  C   UNL A   1      27.675  32.843  19.720  1.00  0.00     0.278 C 
ENDBRANCH  21  23
ENDBRANCH  16  17
ENDBRANCH  10  16
ENDBRANCH   3   6
ENDBRANCH   1   2
BRANCH   1  25
ATOM     25  C   UNL A   1      34.217  28.580  26.008  1.00  0.00     0.042 C 
BRANCH  25  26
ATOM     26  C   UNL A   1      33.763  28.755  27.447  1.00  0.00     0.118 C 
BRANCH  26  27
ATOM     27  N   UNL A   1      33.813  30.154  27.858  1.00  0.00    -0.352 N 
ATOM     28  C   UNL A   1      34.790  30.830  28.542  1.00  0.00     0.251 C 
ATOM     29  H   UNL A   1      33.028  30.693  27.608  1.00  0.00     0.163 HD
ATOM     30  O   UNL A   1      34.553  31.932  29.028  1.00  0.00    -0.269 OA
BRANCH  28  31
ATOM     31  C   UNL A   1      36.124  30.221  28.695  1.00  0.00     0.039 A 
ATOM     32  C   UNL A   1      37.046  30.311  27.649  1.00  0.00     0.014 A 
ATOM     33  C   UNL A   1      36.460  29.562  29.880  1.00  0.00     0.014 A 
ATOM     34  C   UNL A   1      38.332  29.796  27.822  1.00  0.00     0.010 A 
ATOM     35  C   UNL A   1      37.766  29.146  30.087  1.00  0.00     0.010 A 
ATOM     36  C   UNL A   1      38.711  29.246  29.056  1.00  0.00    -0.014 A 
BRANCH  36  37
ATOM     37  C   UNL A   1      40.081  28.741  29.305  1.00  0.00     0.031 A 
ATOM     38  C   UNL A   1      41.110  29.660  29.905  1.00  0.00     0.074 A 
ATOM     39  C   UNL A   1      40.423  27.503  28.901  1.00  0.00     0.049 A 
ATOM     40  N   UNL A   1      42.394  29.470  30.067  1.00  0.00    -0.248 NA
ATOM     41  C   UNL A   1      40.637  30.985  30.345  1.00  0.00     0.031 C 
ATOM     42  C   UNL A   1      39.522  26.532  28.274  1.00  0.00     0.029 A 
ATOM     43  N   UNL A   1      41.632  26.856  28.942  1.00  0.00    -0.354 N 
ATOM     44  C   UNL A   1      42.884  30.659  30.594  1.00  0.00     0.074 A 
ATOM     45  C   UNL A   1      41.773  31.580  30.675  1.00  0.00     0.031 C 
ATOM     46  C   UNL A   1      40.205  25.406  28.012  1.00  0.00     0.029 A 
ATOM     47  C   UNL A   1      41.598  25.593  28.402  1.00  0.00     0.049 A 
ATOM     48  H   UNL A   1      42.447  27.257  29.323  1.00  0.00     0.167 HD
ATOM     49  C   UNL A   1      44.143  30.949  30.995  1.00  0.00     0.031 A 
ATOM     50  C   UNL A   1      42.585  24.695  28.225  1.00  0.00     0.031 A 
ATOM     51  C   UNL A   1      45.238  30.022  30.930  1.00  0.00     0.049 A 
ATOM     52  C   UNL A   1      43.978  25.045  28.667  1.00  0.00     0.074 A 
ATOM     53  C   UNL A   1      46.541  30.195  31.363  1.00  0.00     0.029 A 
ATOM     54  N   UNL A   1      45.156  28.743  30.399  1.00  0.00    -0.354 N 
ATOM     55  N   UNL A   1      44.416  26.152  29.218  1.00  0.00    -0.248 NA
ATOM     56  C   UNL A   1      45.012  24.019  28.472  1.00  0.00     0.031 C 
ATOM     57  C   UNL A   1      47.261  29.039  31.045  1.00  0.00     0.029 A 
ATOM     58  C   UNL A   1      46.390  28.123  30.475  1.00  0.00     0.049 A 
ATOM     59  H   UNL A   1      44.341  28.338  30.024  1.00  0.00     0.167 HD
ATOM     60  C   UNL A   1      45.765  25.941  29.471  1.00  0.00     0.074 A 
ATOM     61  C   UNL A   1      46.071  24.599  29.020  1.00  0.00     0.031 C 
ATOM     62  C   UNL A   1      46.669  26.781  30.032  1.00  0.00     0.031 A 
BRANCH  49  63
ATOM     63  C   UNL A   1      44.399  32.331  31.531  1.00  0.00    -0.014 A 
ATOM     64  C   UNL A   1      44.263  32.621  32.899  1.00  0.00     0.009 A 
ATOM     65  C   UNL A   1      44.807  33.353  30.662  1.00  0.00     0.009 A 
ATOM     66  C   UNL A   1      44.490  33.913  33.376  1.00  0.00     0.001 A 
ATOM     67  C   UNL A   1      45.067  34.637  31.146  1.00  0.00     0.001 A 
ATOM     68  C   UNL A   1      44.898  34.918  32.501  1.00  0.00     0.000 A 
ENDBRANCH  49  63
BRANCH  50  69
ATOM     69  C   UNL A   1      42.289  23.371  27.616  1.00  0.00    -0.014 A 
ATOM     70  C   UNL A   1      42.612  23.119  26.273  1.00  0.00     0.009 A 
ATOM     71  C   UNL A   1      41.682  22.353  28.369  1.00  0.00     0.009 A 
ATOM     72  C   UNL A   1      42.306  21.887  25.690  1.00  0.00     0.001 A 
ATOM     73  C   UNL A   1      41.405  21.112  27.792  1.00  0.00     0.001 A 
ATOM     74  C   UNL A   1      41.707  20.883  26.451  1.00  0.00     0.000 A 
ENDBRANCH  50  69
BRANCH  62  75
ATOM     75  C   UNL A   1      48.060  26.257  30.247  1.00  0.00    -0.014 A 
ATOM     76  C   UNL A   1      48.461  25.723  31.480  1.00  0.00     0.009 A 
ATOM     77  C   UNL A   1      48.964  26.243  29.171  1.00  0.00     0.009 A 
ATOM     78  C   UNL A   1      49.751  25.210  31.638  1.00  0.00     0.001 A 
ATOM     79  C   UNL A   1      50.239  25.701  29.323  1.00  0.00     0.001 A 
ATOM     80  C   UNL A   1      50.635  25.193  30.559  1.00  0.00     0.000 A 
ENDBRANCH  62  75
ENDBRANCH  36  37
ENDBRANCH  28  31
ENDBRANCH  26  27
ENDBRANCH  25  26
ENDBRANCH   1  25
TORSDOF 15
ENDMDL
MODEL 3
REMARK VINA RESULT:     -10.9      1.215      1.999
REMARK SMILES CC[NH2+][C@@]1(C(=O)NCCCNC(=O)c2ccc(-c3c4nc(c(-c5ccccc5)c5ccc([nH]5)c(-c5ccccc5)c5nc(c(-c6ccccc6)c6ccc3[nH]6)C=C5)C=C4)cc2)CC[C@@H](Oc2cccc(OC)c2)C1
REMARK SMILES IDX 8 1 7 2 5 3 6 4 4 6 62 7 74 8 63 9 64 10 3 11 2 14 1 15
REMARK SMILES IDX 65 16 66 17 67 18 73 19 68 20 70 21 69 22 71 23 72 24 9 25
REMARK SMILES IDX 10 26 11 27 12 28 13 30 14 31 15 32 61 33 16 34 60 35 17 36
REMARK SMILES IDX 18 37 19 38 54 39 20 40 59 41 53 42 55 43 21 44 58 45 52 46
REMARK SMILES IDX 51 47 22 49 44 50 29 51 43 52 30 53 33 54 42 55 56 56 31 57
REMARK SMILES IDX 32 58 41 60 57 61 34 62 23 63 24 64 28 65 25 66 27 67 26 68
REMARK SMILES IDX 45 69 46 70 50 71 47 72 49 73 48 74 35 75 36 76 40 77 37 78
REMARK SMILES IDX 39 79 38 80
REMARK H PARENT 7 5 3 12 3 13 11 29 55 48 33 59
REMARK Flexibility Score: inf
ROOT
ATOM      1  C   UNL A   1      31.334  30.377  24.988  1.00  0.00     0.118 C 
ENDROOT
BRANCH   1   2
ATOM      2  N   UNL A   1      31.078  29.010  25.371  1.00  0.00    -0.351 N 
ATOM      3  C   UNL A   1      31.695  27.838  25.080  1.00  0.00     0.281 C 
ATOM      4  O   UNL A   1      31.056  26.840  25.438  1.00  0.00    -0.268 OA
ATOM      5  H   UNL A   1      30.298  28.907  25.964  1.00  0.00     0.163 HD
BRANCH   3   6
ATOM      6  C   UNL A   1      33.069  27.729  24.306  1.00  0.00     0.179 C 
ATOM      7  C   UNL A   1      33.057  28.125  22.817  1.00  0.00     0.083 C 
ATOM      8  C   UNL A   1      33.560  26.265  24.348  1.00  0.00     0.124 C 
ATOM      9  C   UNL A   1      33.339  26.883  21.975  1.00  0.00     0.052 C 
ATOM     10  C   UNL A   1      33.413  25.696  22.935  1.00  0.00     0.180 C 
BRANCH   6  11
ATOM     11  N   UNL A   1      34.080  28.566  25.028  1.00  0.00    -0.334 N 
ATOM     12  H   UNL A   1      34.961  28.512  24.517  1.00  0.00     0.347 HD
ATOM     13  H   UNL A   1      33.699  29.512  25.066  1.00  0.00     0.347 HD
BRANCH  11  14
ATOM     14  C   UNL A   1      34.329  28.159  26.416  1.00  0.00     0.257 C 
ATOM     15  C   UNL A   1      34.652  29.381  27.261  1.00  0.00     0.071 C 
ENDBRANCH  11  14
ENDBRANCH   6  11
BRANCH  10  16
ATOM     16  O   UNL A   1      34.319  24.629  22.605  1.00  0.00    -0.490 OA
BRANCH  16  17
ATOM     17  C   UNL A   1      34.087  23.451  23.256  1.00  0.00     0.123 A 
ATOM     18  C   UNL A   1      32.901  22.761  23.011  1.00  0.00     0.047 A 
ATOM     19  C   UNL A   1      35.015  22.959  24.168  1.00  0.00     0.092 A 
ATOM     20  C   UNL A   1      32.698  21.518  23.607  1.00  0.00     0.008 A 
ATOM     21  C   UNL A   1      34.842  21.697  24.726  1.00  0.00     0.122 A 
ATOM     22  C   UNL A   1      33.677  20.980  24.447  1.00  0.00     0.046 A 
BRANCH  21  23
ATOM     23  O   UNL A   1      35.742  21.076  25.551  1.00  0.00    -0.497 OA
ATOM     24  C   UNL A   1      36.954  20.645  24.936  1.00  0.00     0.278 C 
ENDBRANCH  21  23
ENDBRANCH  16  17
ENDBRANCH  10  16
ENDBRANCH   3   6
ENDBRANCH   1   2
BRANCH   1  25
ATOM     25  C   UNL A   1      31.023  31.337  26.129  1.00  0.00     0.042 C 
BRANCH  25  26
ATOM     26  C   UNL A   1      32.276  31.814  26.842  1.00  0.00     0.118 C 
BRANCH  26  27
ATOM     27  N   UNL A   1      32.165  33.214  27.240  1.00  0.00    -0.352 N 
ATOM     28  C   UNL A   1      32.939  33.940  28.109  1.00  0.00     0.251 C 
ATOM     29  H   UNL A   1      31.425  33.711  26.823  1.00  0.00     0.163 HD
ATOM     30  O   UNL A   1      32.548  35.027  28.522  1.00  0.00    -0.269 OA
BRANCH  28  31
ATOM     31  C   UNL A   1      34.240  33.401  28.547  1.00  0.00     0.039 A 
ATOM     32  C   UNL A   1      35.415  33.874  27.956  1.00  0.00     0.014 A 
ATOM     33  C   UNL A   1      34.292  32.428  29.548  1.00  0.00     0.014 A 
ATOM     34  C   UNL A   1      36.648  33.416  28.422  1.00  0.00     0.010 A 
ATOM     35  C   UNL A   1      35.517  32.054  30.078  1.00  0.00     0.010 A 
ATOM     36  C   UNL A   1      36.708  32.533  29.511  1.00  0.00    -0.014 A 
BRANCH  36  37
ATOM     37  C   UNL A   1      37.994  32.065  30.077  1.00  0.00     0.031 A 
ATOM     38  C   UNL A   1      38.617  30.801  29.552  1.00  0.00     0.074 A 
ATOM     39  C   UNL A   1      38.542  32.714  31.121  1.00  0.00     0.049 A 
ATOM     40  N   UNL A   1      39.651  30.140  30.003  1.00  0.00    -0.248 NA
ATOM     41  C   UNL A   1      37.964  30.176  28.387  1.00  0.00     0.031 C 
ATOM     42  C   UNL A   1      38.012  33.931  31.742  1.00  0.00     0.029 A 
ATOM     43  N   UNL A   1      39.662  32.427  31.859  1.00  0.00    -0.354 N 
ATOM     44  C   UNL A   1      39.750  29.009  29.200  1.00  0.00     0.074 A 
ATOM     45  C   UNL A   1      38.643  29.046  28.271  1.00  0.00     0.031 C 
ATOM     46  C   UNL A   1      38.820  34.297  32.750  1.00  0.00     0.029 A 
ATOM     47  C   UNL A   1      39.892  33.316  32.881  1.00  0.00     0.049 A 
ATOM     48  H   UNL A   1      40.248  31.656  31.674  1.00  0.00     0.167 HD
ATOM     49  C   UNL A   1      40.693  28.038  29.222  1.00  0.00     0.031 A 
ATOM     50  C   UNL A   1      40.849  33.329  33.827  1.00  0.00     0.031 A 
ATOM     51  C   UNL A   1      41.802  28.019  30.135  1.00  0.00     0.049 A 
ATOM     52  C   UNL A   1      41.878  32.233  33.838  1.00  0.00     0.074 A 
ATOM     53  C   UNL A   1      42.845  27.113  30.204  1.00  0.00     0.029 A 
ATOM     54  N   UNL A   1      42.011  28.953  31.138  1.00  0.00    -0.354 N 
ATOM     55  N   UNL A   1      41.993  31.201  33.036  1.00  0.00    -0.248 NA
ATOM     56  C   UNL A   1      42.913  32.307  34.878  1.00  0.00     0.031 C 
ATOM     57  C   UNL A   1      43.658  27.470  31.285  1.00  0.00     0.029 A 
ATOM     58  C   UNL A   1      43.157  28.635  31.845  1.00  0.00     0.049 A 
ATOM     59  H   UNL A   1      41.431  29.727  31.320  1.00  0.00     0.167 HD
ATOM     60  C   UNL A   1      43.135  30.527  33.450  1.00  0.00     0.074 A 
ATOM     61  C   UNL A   1      43.679  31.270  34.568  1.00  0.00     0.031 C 
ATOM     62  C   UNL A   1      43.687  29.396  32.946  1.00  0.00     0.031 A 
BRANCH  49  63
ATOM     63  C   UNL A   1      40.555  26.915  28.231  1.00  0.00    -0.014 A 
ATOM     64  C   UNL A   1      39.806  25.765  28.529  1.00  0.00     0.009 A 
ATOM     65  C   UNL A   1      41.161  27.018  26.970  1.00  0.00     0.009 A 
ATOM     66  C   UNL A   1      39.702  24.726  27.603  1.00  0.00     0.001 A 
ATOM     67  C   UNL A   1      41.026  25.993  26.031  1.00  0.00     0.001 A 
ATOM     68  C   UNL A   1      40.306  24.844  26.352  1.00  0.00     0.000 A 
ENDBRANCH  49  63
BRANCH  50  69
ATOM     69  C   UNL A   1      40.891  34.423  34.833  1.00  0.00    -0.014 A 
ATOM     70  C   UNL A   1      41.640  35.584  34.588  1.00  0.00     0.009 A 
ATOM     71  C   UNL A   1      40.184  34.315  36.041  1.00  0.00     0.009 A 
ATOM     72  C   UNL A   1      41.706  36.600  35.545  1.00  0.00     0.001 A 
ATOM     73  C   UNL A   1      40.228  35.345  36.984  1.00  0.00     0.001 A 
ATOM     74  C   UNL A   1      40.997  36.481  36.740  1.00  0.00     0.000 A 
ENDBRANCH  50  69
BRANCH  62  75
ATOM     75  C   UNL A   1      44.977  28.924  33.556  1.00  0.00    -0.014 A 
ATOM     76  C   UNL A   1      44.993  28.012  34.622  1.00  0.00     0.009 A 
ATOM     77  C   UNL A   1      46.196  29.357  33.009  1.00  0.00     0.009 A 
ATOM     78  C   UNL A   1      46.209  27.563  35.143  1.00  0.00     0.001 A 
ATOM     79  C   UNL A   1      47.406  28.882  33.510  1.00  0.00     0.001 A 
ATOM     80  C   UNL A   1      47.412  27.992  34.583  1.00  0.00     0.000 A 
ENDBRANCH  62  75
ENDBRANCH  36  37
ENDBRANCH  28  31
ENDBRANCH  26  27
ENDBRANCH  25  26
ENDBRANCH   1  25
TORSDOF 15
ENDMDL
