MODEL 1
REMARK VINA RESULT:     -11.6      0.000      0.000
REMARK SMILES O=C(NCCCNC(=O)c1cn(C2CN(C(=O)Nc3ccsc3)C2)nn1)c1ccc(-c2c3nc(c(-c4ccccc4)c4ccc([nH]4)c(-c4ccccc4)c4nc(c(-c5ccccc5)c5ccc2[nH]5)C=C4)C=C3)cc1
REMARK SMILES IDX 5 1 4 2 3 3 1 4 2 5 27 7 28 8 74 9 29 10 73 11 30 12 31 13
REMARK SMILES IDX 32 14 67 15 33 16 72 17 66 18 68 19 34 20 71 21 65 22 64 23
REMARK SMILES IDX 35 25 57 26 42 27 56 28 43 29 46 30 55 31 69 32 44 33 45 34
REMARK SMILES IDX 54 36 70 37 47 38 36 39 37 40 41 41 38 42 40 43 39 44 58 45
REMARK SMILES IDX 59 46 63 47 60 48 62 49 61 50 48 51 49 52 53 53 50 54 52 55
REMARK SMILES IDX 51 56 6 57 7 58 8 59 9 61 10 62 11 63 26 64 12 65 25 66
REMARK SMILES IDX 13 67 14 68 24 69 15 70 16 71 17 72 18 73 19 75 20 76 23 77
REMARK SMILES IDX 21 78 22 79
REMARK H PARENT 3 6 68 24 46 35 7 60 18 74
REMARK Flexibility Score: inf
ROOT
ATOM      1  C   UNL A   1      34.385  35.702  28.558  1.00  0.00     0.042 C 
ENDROOT
BRANCH   1   2
ATOM      2  C   UNL A   1      34.991  34.388  29.036  1.00  0.00     0.118 C 
BRANCH   2   3
ATOM      3  N   UNL A   1      34.328  33.206  28.518  1.00  0.00    -0.352 N 
ATOM      4  O   UNL A   1      33.766  31.148  27.966  1.00  0.00    -0.269 OA
ATOM      5  C   UNL A   1      34.662  31.889  28.378  1.00  0.00     0.251 C 
ATOM      6  H   UNL A   1      33.421  33.400  28.190  1.00  0.00     0.163 HD
BRANCH   5   7
ATOM      7  C   UNL A   1      36.010  31.307  28.617  1.00  0.00     0.039 A 
ATOM      8  C   UNL A   1      37.087  31.947  29.230  1.00  0.00     0.014 A 
ATOM      9  C   UNL A   1      36.182  29.980  28.176  1.00  0.00     0.014 A 
ATOM     10  C   UNL A   1      38.322  31.302  29.341  1.00  0.00     0.010 A 
ATOM     11  C   UNL A   1      37.405  29.329  28.294  1.00  0.00     0.010 A 
ATOM     12  C   UNL A   1      38.485  30.000  28.856  1.00  0.00    -0.014 A 
BRANCH  12  13
ATOM     13  C   UNL A   1      39.746  29.305  29.116  1.00  0.00     0.031 A 
ATOM     14  C   UNL A   1      40.004  28.988  30.553  1.00  0.00     0.074 A 
ATOM     15  C   UNL A   1      40.545  28.802  28.152  1.00  0.00     0.049 A 
ATOM     16  N   UNL A   1      41.020  29.326  31.279  1.00  0.00    -0.248 NA
ATOM     17  C   UNL A   1      38.959  28.257  31.289  1.00  0.00     0.031 C 
ATOM     18  C   UNL A   1      40.289  28.741  26.711  1.00  0.00     0.029 A 
ATOM     19  N   UNL A   1      41.722  28.122  28.284  1.00  0.00    -0.354 N 
ATOM     20  C   UNL A   1      40.823  28.726  32.522  1.00  0.00     0.074 A 
ATOM     21  C   UNL A   1      39.491  28.178  32.508  1.00  0.00     0.031 C 
ATOM     22  C   UNL A   1      41.156  27.874  26.140  1.00  0.00     0.029 A 
ATOM     23  C   UNL A   1      42.105  27.425  27.144  1.00  0.00     0.049 A 
ATOM     24  H   UNL A   1      42.252  28.127  29.112  1.00  0.00     0.167 HD
ATOM     25  C   UNL A   1      41.835  28.548  33.416  1.00  0.00     0.031 A 
ATOM     26  C   UNL A   1      43.093  26.500  27.046  1.00  0.00     0.031 A 
ATOM     27  C   UNL A   1      42.966  29.387  33.137  1.00  0.00     0.049 A 
ATOM     28  C   UNL A   1      43.995  26.670  28.206  1.00  0.00     0.074 A 
ATOM     29  C   UNL A   1      43.174  30.751  33.068  1.00  0.00     0.029 A 
ATOM     30  N   UNL A   1      44.049  28.813  32.517  1.00  0.00    -0.354 N 
ATOM     31  N   UNL A   1      44.773  27.698  28.371  1.00  0.00    -0.248 NA
ATOM     32  C   UNL A   1      43.735  25.883  29.400  1.00  0.00     0.031 C 
ATOM     33  C   UNL A   1      44.087  30.926  31.987  1.00  0.00     0.029 A 
ATOM     34  C   UNL A   1      44.422  29.659  31.506  1.00  0.00     0.049 A 
ATOM     35  H   UNL A   1      44.475  27.958  32.754  1.00  0.00     0.167 HD
ATOM     36  C   UNL A   1      44.738  27.948  29.733  1.00  0.00     0.074 A 
ATOM     37  C   UNL A   1      44.174  26.738  30.326  1.00  0.00     0.031 C 
ATOM     38  C   UNL A   1      44.906  29.213  30.220  1.00  0.00     0.031 A 
BRANCH  25  39
ATOM     39  C   UNL A   1      41.935  27.346  34.322  1.00  0.00    -0.014 A 
ATOM     40  C   UNL A   1      41.527  27.459  35.663  1.00  0.00     0.009 A 
ATOM     41  C   UNL A   1      42.676  26.198  33.979  1.00  0.00     0.009 A 
ATOM     42  C   UNL A   1      41.893  26.502  36.619  1.00  0.00     0.001 A 
ATOM     43  C   UNL A   1      43.009  25.222  34.921  1.00  0.00     0.001 A 
ATOM     44  C   UNL A   1      42.639  25.386  36.248  1.00  0.00     0.000 A 
ENDBRANCH  25  39
BRANCH  26  45
ATOM     45  C   UNL A   1      43.178  25.310  26.172  1.00  0.00    -0.014 A 
ATOM     46  C   UNL A   1      44.306  25.085  25.365  1.00  0.00     0.009 A 
ATOM     47  C   UNL A   1      42.274  24.246  26.343  1.00  0.00     0.009 A 
ATOM     48  C   UNL A   1      44.538  23.829  24.784  1.00  0.00     0.001 A 
ATOM     49  C   UNL A   1      42.504  22.995  25.762  1.00  0.00     0.001 A 
ATOM     50  C   UNL A   1      43.644  22.782  24.996  1.00  0.00     0.000 A 
ENDBRANCH  26  45
BRANCH  38  51
ATOM     51  C   UNL A   1      45.365  30.285  29.260  1.00  0.00    -0.014 A 
ATOM     52  C   UNL A   1      44.483  31.012  28.440  1.00  0.00     0.009 A 
ATOM     53  C   UNL A   1      46.713  30.669  29.288  1.00  0.00     0.009 A 
ATOM     54  C   UNL A   1      44.945  32.068  27.648  1.00  0.00     0.001 A 
ATOM     55  C   UNL A   1      47.170  31.739  28.514  1.00  0.00     0.001 A 
ATOM     56  C   UNL A   1      46.288  32.433  27.690  1.00  0.00     0.000 A 
ENDBRANCH  38  51
ENDBRANCH  12  13
ENDBRANCH   5   7
ENDBRANCH   2   3
ENDBRANCH   1   2
BRANCH   1  57
ATOM     57  C   UNL A   1      33.051  36.043  29.218  1.00  0.00     0.118 C 
BRANCH  57  58
ATOM     58  N   UNL A   1      33.137  37.191  30.109  1.00  0.00    -0.351 N 
ATOM     59  C   UNL A   1      33.277  37.237  31.482  1.00  0.00     0.273 C 
ATOM     60  H   UNL A   1      33.088  38.068  29.665  1.00  0.00     0.163 HD
ATOM     61  O   UNL A   1      33.156  38.310  32.050  1.00  0.00    -0.267 OA
BRANCH  59  62
ATOM     62  C   UNL A   1      33.565  35.997  32.180  1.00  0.00     0.170 A 
ATOM     63  C   UNL A   1      34.708  35.659  32.876  1.00  0.00     0.145 A 
ATOM     64  N   UNL A   1      32.679  34.953  32.248  1.00  0.00    -0.125 NA
ATOM     65  N   UNL A   1      34.506  34.358  33.225  1.00  0.00    -0.245 N 
ATOM     66  N   UNL A   1      33.275  33.949  32.878  1.00  0.00    -0.066 NA
BRANCH  65  67
ATOM     67  C   UNL A   1      35.415  33.482  33.888  1.00  0.00     0.148 C 
ATOM     68  C   UNL A   1      36.331  32.645  32.973  1.00  0.00     0.150 C 
ATOM     69  C   UNL A   1      36.715  34.197  34.318  1.00  0.00     0.150 C 
ATOM     70  N   UNL A   1      37.370  32.959  33.952  1.00  0.00    -0.320 N 
ATOM     71  C   UNL A   1      38.612  32.421  34.038  1.00  0.00     0.322 C 
ATOM     72  O   UNL A   1      38.940  31.480  33.311  1.00  0.00    -0.248 OA
ATOM     73  N   UNL A   1      39.564  32.987  34.826  1.00  0.00    -0.307 N 
ATOM     74  H   UNL A   1      40.488  32.755  34.576  1.00  0.00     0.171 HD
BRANCH  73  75
ATOM     75  C   UNL A   1      39.458  33.831  35.915  1.00  0.00     0.053 A 
ATOM     76  C   UNL A   1      39.730  35.229  35.971  1.00  0.00     0.038 A 
ATOM     77  C   UNL A   1      38.965  33.379  37.121  1.00  0.00     0.091 A 
ATOM     78  C   UNL A   1      39.649  35.732  37.251  1.00  0.00     0.067 A 
ATOM     79  S   UNL A   1      39.080  34.560  38.357  1.00  0.00    -0.150 S 
ENDBRANCH  73  75
ENDBRANCH  65  67
ENDBRANCH  59  62
ENDBRANCH  57  58
ENDBRANCH   1  57
TORSDOF 12
ENDMDL
MODEL 2
REMARK VINA RESULT:     -11.5      3.151      5.482
REMARK SMILES O=C(NCCCNC(=O)c1cn(C2CN(C(=O)Nc3ccsc3)C2)nn1)c1ccc(-c2c3nc(c(-c4ccccc4)c4ccc([nH]4)c(-c4ccccc4)c4nc(c(-c5ccccc5)c5ccc2[nH]5)C=C4)C=C3)cc1
REMARK SMILES IDX 5 1 4 2 3 3 1 4 2 5 27 7 28 8 74 9 29 10 73 11 30 12 31 13
REMARK SMILES IDX 32 14 67 15 33 16 72 17 66 18 68 19 34 20 71 21 65 22 64 23
REMARK SMILES IDX 35 25 57 26 42 27 56 28 43 29 46 30 55 31 69 32 44 33 45 34
REMARK SMILES IDX 54 36 70 37 47 38 36 39 37 40 41 41 38 42 40 43 39 44 58 45
REMARK SMILES IDX 59 46 63 47 60 48 62 49 61 50 48 51 49 52 53 53 50 54 52 55
REMARK SMILES IDX 51 56 6 57 7 58 8 59 9 61 10 62 11 63 26 64 12 65 25 66
REMARK SMILES IDX 13 67 14 68 24 69 15 70 16 71 17 72 18 73 19 75 20 76 23 77
REMARK SMILES IDX 21 78 22 79
REMARK H PARENT 3 6 68 24 46 35 7 60 18 74
REMARK Flexibility Score: inf
ROOT
ATOM      1  C   UNL A   1      36.042  34.408  33.463  1.00  0.00     0.042 C 
ENDROOT
BRANCH   1   2
ATOM      2  C   UNL A   1      36.955  33.471  32.679  1.00  0.00     0.118 C 
BRANCH   2   3
ATOM      3  N   UNL A   1      37.778  34.137  31.688  1.00  0.00    -0.352 N 
ATOM      4  O   UNL A   1      39.126  34.615  30.012  1.00  0.00    -0.269 OA
ATOM      5  C   UNL A   1      38.695  33.734  30.759  1.00  0.00     0.251 C 
ATOM      6  H   UNL A   1      37.642  35.111  31.682  1.00  0.00     0.163 HD
BRANCH   5   7
ATOM      7  C   UNL A   1      39.249  32.359  30.628  1.00  0.00     0.039 A 
ATOM      8  C   UNL A   1      38.535  31.167  30.760  1.00  0.00     0.014 A 
ATOM      9  C   UNL A   1      40.625  32.287  30.336  1.00  0.00     0.014 A 
ATOM     10  C   UNL A   1      39.192  29.937  30.668  1.00  0.00     0.010 A 
ATOM     11  C   UNL A   1      41.282  31.066  30.232  1.00  0.00     0.010 A 
ATOM     12  C   UNL A   1      40.568  29.888  30.423  1.00  0.00    -0.014 A 
BRANCH  12  13
ATOM     13  C   UNL A   1      41.195  28.587  30.192  1.00  0.00     0.031 A 
ATOM     14  C   UNL A   1      41.996  28.062  31.338  1.00  0.00     0.074 A 
ATOM     15  C   UNL A   1      40.941  27.805  29.122  1.00  0.00     0.049 A 
ATOM     16  N   UNL A   1      43.241  27.710  31.353  1.00  0.00    -0.248 NA
ATOM     17  C   UNL A   1      41.336  27.984  32.652  1.00  0.00     0.031 C 
ATOM     18  C   UNL A   1      39.948  28.017  28.067  1.00  0.00     0.029 A 
ATOM     19  N   UNL A   1      41.450  26.573  28.821  1.00  0.00    -0.354 N 
ATOM     20  C   UNL A   1      43.489  27.223  32.637  1.00  0.00     0.074 A 
ATOM     21  C   UNL A   1      42.319  27.520  33.422  1.00  0.00     0.031 C 
ATOM     22  C   UNL A   1      39.769  26.864  27.383  1.00  0.00     0.029 A 
ATOM     23  C   UNL A   1      40.724  25.878  27.861  1.00  0.00     0.049 A 
ATOM     24  H   UNL A   1      42.260  26.211  29.246  1.00  0.00     0.167 HD
ATOM     25  C   UNL A   1      44.562  26.435  32.924  1.00  0.00     0.031 A 
ATOM     26  C   UNL A   1      40.857  24.570  27.525  1.00  0.00     0.031 A 
ATOM     27  C   UNL A   1      45.585  26.515  31.920  1.00  0.00     0.049 A 
ATOM     28  C   UNL A   1      42.179  24.108  28.000  1.00  0.00     0.074 A 
ATOM     29  C   UNL A   1      46.377  27.527  31.415  1.00  0.00     0.029 A 
ATOM     30  N   UNL A   1      45.672  25.486  31.014  1.00  0.00    -0.354 N 
ATOM     31  N   UNL A   1      43.308  24.505  27.491  1.00  0.00    -0.248 NA
ATOM     32  C   UNL A   1      42.264  23.507  29.320  1.00  0.00     0.031 C 
ATOM     33  C   UNL A   1      46.478  27.249  30.020  1.00  0.00     0.029 A 
ATOM     34  C   UNL A   1      45.793  26.057  29.774  1.00  0.00     0.049 A 
ATOM     35  H   UNL A   1      45.651  24.523  31.217  1.00  0.00     0.167 HD
ATOM     36  C   UNL A   1      44.160  24.618  28.578  1.00  0.00     0.074 A 
ATOM     37  C   UNL A   1      43.498  23.888  29.656  1.00  0.00     0.031 C 
ATOM     38  C   UNL A   1      45.181  25.525  28.579  1.00  0.00     0.031 A 
BRANCH  25  39
ATOM     39  C   UNL A   1      44.516  25.313  33.931  1.00  0.00    -0.014 A 
ATOM     40  C   UNL A   1      45.659  25.034  34.703  1.00  0.00     0.009 A 
ATOM     41  C   UNL A   1      43.490  24.347  33.945  1.00  0.00     0.009 A 
ATOM     42  C   UNL A   1      45.789  23.827  35.402  1.00  0.00     0.001 A 
ATOM     43  C   UNL A   1      43.600  23.160  34.674  1.00  0.00     0.001 A 
ATOM     44  C   UNL A   1      44.761  22.888  35.382  1.00  0.00     0.000 A 
ENDBRANCH  25  39
BRANCH  26  45
ATOM     45  C   UNL A   1      39.829  23.615  27.058  1.00  0.00    -0.014 A 
ATOM     46  C   UNL A   1      38.599  24.067  26.550  1.00  0.00     0.009 A 
ATOM     47  C   UNL A   1      40.167  22.266  26.846  1.00  0.00     0.009 A 
ATOM     48  C   UNL A   1      37.759  23.210  25.824  1.00  0.00     0.001 A 
ATOM     49  C   UNL A   1      39.328  21.410  26.124  1.00  0.00     0.001 A 
ATOM     50  C   UNL A   1      38.132  21.887  25.600  1.00  0.00     0.000 A 
ENDBRANCH  26  45
BRANCH  38  51
ATOM     51  C   UNL A   1      45.501  26.230  27.282  1.00  0.00    -0.014 A 
ATOM     52  C   UNL A   1      44.789  27.351  26.820  1.00  0.00     0.009 A 
ATOM     53  C   UNL A   1      46.648  25.837  26.578  1.00  0.00     0.009 A 
ATOM     54  C   UNL A   1      45.192  28.034  25.668  1.00  0.00     0.001 A 
ATOM     55  C   UNL A   1      47.065  26.533  25.441  1.00  0.00     0.001 A 
ATOM     56  C   UNL A   1      46.334  27.626  24.982  1.00  0.00     0.000 A 
ENDBRANCH  38  51
ENDBRANCH  12  13
ENDBRANCH   5   7
ENDBRANCH   2   3
ENDBRANCH   1   2
BRANCH   1  57
ATOM     57  C   UNL A   1      34.554  34.185  33.197  1.00  0.00     0.118 C 
BRANCH  57  58
ATOM     58  N   UNL A   1      33.782  35.417  33.235  1.00  0.00    -0.351 N 
ATOM     59  C   UNL A   1      33.249  36.160  32.201  1.00  0.00     0.273 C 
ATOM     60  H   UNL A   1      33.615  35.777  34.136  1.00  0.00     0.163 HD
ATOM     61  O   UNL A   1      32.780  37.260  32.446  1.00  0.00    -0.267 OA
BRANCH  59  62
ATOM     62  C   UNL A   1      33.274  35.588  30.867  1.00  0.00     0.170 A 
ATOM     63  C   UNL A   1      33.993  34.497  30.422  1.00  0.00     0.145 A 
ATOM     64  N   UNL A   1      32.532  36.085  29.826  1.00  0.00    -0.125 NA
ATOM     65  N   UNL A   1      33.747  34.466  29.082  1.00  0.00    -0.245 N 
ATOM     66  N   UNL A   1      32.844  35.398  28.734  1.00  0.00    -0.066 NA
BRANCH  65  67
ATOM     67  C   UNL A   1      34.312  33.588  28.112  1.00  0.00     0.148 C 
ATOM     68  C   UNL A   1      35.672  32.965  28.480  1.00  0.00     0.150 C 
ATOM     69  C   UNL A   1      33.766  32.148  28.231  1.00  0.00     0.150 C 
ATOM     70  N   UNL A   1      35.116  31.742  27.904  1.00  0.00    -0.320 N 
ATOM     71  C   UNL A   1      35.773  30.589  27.623  1.00  0.00     0.322 C 
ATOM     72  O   UNL A   1      36.999  30.522  27.737  1.00  0.00    -0.248 OA
ATOM     73  N   UNL A   1      35.090  29.449  27.339  1.00  0.00    -0.307 N 
ATOM     74  H   UNL A   1      35.604  28.621  27.483  1.00  0.00     0.171 HD
BRANCH  73  75
ATOM     75  C   UNL A   1      33.800  29.251  26.885  1.00  0.00     0.053 A 
ATOM     76  C   UNL A   1      32.702  28.674  27.585  1.00  0.00     0.038 A 
ATOM     77  C   UNL A   1      33.406  29.702  25.642  1.00  0.00     0.091 A 
ATOM     78  C   UNL A   1      31.592  28.508  26.785  1.00  0.00     0.067 A 
ATOM     79  S   UNL A   1      31.818  29.200  25.239  1.00  0.00    -0.150 S 
ENDBRANCH  73  75
ENDBRANCH  65  67
ENDBRANCH  59  62
ENDBRANCH  57  58
ENDBRANCH   1  57
TORSDOF 12
ENDMDL
MODEL 3
REMARK VINA RESULT:     -11.4      4.415     11.643
REMARK SMILES O=C(NCCCNC(=O)c1cn(C2CN(C(=O)Nc3ccsc3)C2)nn1)c1ccc(-c2c3nc(c(-c4ccccc4)c4ccc([nH]4)c(-c4ccccc4)c4nc(c(-c5ccccc5)c5ccc2[nH]5)C=C4)C=C3)cc1
REMARK SMILES IDX 5 1 4 2 3 3 1 4 2 5 27 7 28 8 74 9 29 10 73 11 30 12 31 13
REMARK SMILES IDX 32 14 67 15 33 16 72 17 66 18 68 19 34 20 71 21 65 22 64 23
REMARK SMILES IDX 35 25 57 26 42 27 56 28 43 29 46 30 55 31 69 32 44 33 45 34
REMARK SMILES IDX 54 36 70 37 47 38 36 39 37 40 41 41 38 42 40 43 39 44 58 45
REMARK SMILES IDX 59 46 63 47 60 48 62 49 61 50 48 51 49 52 53 53 50 54 52 55
REMARK SMILES IDX 51 56 6 57 7 58 8 59 9 61 10 62 11 63 26 64 12 65 25 66
REMARK SMILES IDX 13 67 14 68 24 69 15 70 16 71 17 72 18 73 19 75 20 76 23 77
REMARK SMILES IDX 21 78 22 79
REMARK H PARENT 3 6 68 24 46 35 7 60 18 74
REMARK Flexibility Score: inf
ROOT
ATOM      1  C   UNL A   1      42.403  19.838  27.547  1.00  0.00     0.042 C 
ENDROOT
BRANCH   1   2
ATOM      2  C   UNL A   1      41.914  21.281  27.510  1.00  0.00     0.118 C 
BRANCH   2   3
ATOM      3  N   UNL A   1      40.641  21.458  26.838  1.00  0.00    -0.352 N 
ATOM      4  O   UNL A   1      38.820  22.277  25.905  1.00  0.00    -0.269 OA
ATOM      5  C   UNL A   1      39.792  22.508  26.629  1.00  0.00     0.251 C 
ATOM      6  H   UNL A   1      40.311  20.624  26.435  1.00  0.00     0.163 HD
BRANCH   5   7
ATOM      7  C   UNL A   1      39.913  23.856  27.246  1.00  0.00     0.039 A 
ATOM      8  C   UNL A   1      38.930  24.847  27.262  1.00  0.00     0.014 A 
ATOM      9  C   UNL A   1      41.145  24.126  27.873  1.00  0.00     0.014 A 
ATOM     10  C   UNL A   1      39.195  26.095  27.829  1.00  0.00     0.010 A 
ATOM     11  C   UNL A   1      41.411  25.362  28.450  1.00  0.00     0.010 A 
ATOM     12  C   UNL A   1      40.442  26.359  28.406  1.00  0.00    -0.014 A 
BRANCH  12  13
ATOM     13  C   UNL A   1      40.636  27.623  29.116  1.00  0.00     0.031 A 
ATOM     14  C   UNL A   1      41.629  28.549  28.492  1.00  0.00     0.074 A 
ATOM     15  C   UNL A   1      39.866  28.040  30.142  1.00  0.00     0.049 A 
ATOM     16  N   UNL A   1      42.690  29.065  29.023  1.00  0.00    -0.248 NA
ATOM     17  C   UNL A   1      41.446  28.887  27.070  1.00  0.00     0.031 C 
ATOM     18  C   UNL A   1      38.655  27.409  30.673  1.00  0.00     0.029 A 
ATOM     19  N   UNL A   1      39.944  29.203  30.855  1.00  0.00    -0.354 N 
ATOM     20  C   UNL A   1      43.232  29.913  28.057  1.00  0.00     0.074 A 
ATOM     21  C   UNL A   1      42.494  29.678  26.843  1.00  0.00     0.031 C 
ATOM     22  C   UNL A   1      37.996  28.295  31.455  1.00  0.00     0.029 A 
ATOM     23  C   UNL A   1      38.799  29.499  31.586  1.00  0.00     0.049 A 
ATOM     24  H   UNL A   1      40.742  29.778  30.853  1.00  0.00     0.167 HD
ATOM     25  C   UNL A   1      44.125  30.894  28.365  1.00  0.00     0.031 A 
ATOM     26  C   UNL A   1      38.506  30.671  32.203  1.00  0.00     0.031 A 
ATOM     27  C   UNL A   1      44.743  30.689  29.645  1.00  0.00     0.049 A 
ATOM     28  C   UNL A   1      39.765  31.428  32.371  1.00  0.00     0.074 A 
ATOM     29  C   UNL A   1      45.533  29.701  30.199  1.00  0.00     0.029 A 
ATOM     30  N   UNL A   1      44.282  31.434  30.703  1.00  0.00    -0.354 N 
ATOM     31  N   UNL A   1      40.718  31.072  33.179  1.00  0.00    -0.248 NA
ATOM     32  C   UNL A   1      40.144  32.372  31.333  1.00  0.00     0.031 C 
ATOM     33  C   UNL A   1      45.095  29.600  31.552  1.00  0.00     0.029 A 
ATOM     34  C   UNL A   1      44.111  30.570  31.753  1.00  0.00     0.049 A 
ATOM     35  H   UNL A   1      44.107  32.403  30.706  1.00  0.00     0.167 HD
ATOM     36  C   UNL A   1      41.886  31.382  32.501  1.00  0.00     0.074 A 
ATOM     37  C   UNL A   1      41.472  32.276  31.422  1.00  0.00     0.031 C 
ATOM     38  C   UNL A   1      43.029  30.663  32.706  1.00  0.00     0.031 A 
BRANCH  25  39
ATOM     39  C   UNL A   1      44.159  32.229  27.665  1.00  0.00    -0.014 A 
ATOM     40  C   UNL A   1      43.694  33.372  28.339  1.00  0.00     0.009 A 
ATOM     41  C   UNL A   1      44.366  32.352  26.277  1.00  0.00     0.009 A 
ATOM     42  C   UNL A   1      43.397  34.555  27.650  1.00  0.00     0.001 A 
ATOM     43  C   UNL A   1      44.109  33.543  25.592  1.00  0.00     0.001 A 
ATOM     44  C   UNL A   1      43.599  34.638  26.275  1.00  0.00     0.000 A 
ENDBRANCH  25  39
BRANCH  26  45
ATOM     45  C   UNL A   1      37.189  31.307  32.426  1.00  0.00    -0.014 A 
ATOM     46  C   UNL A   1      36.916  32.008  33.613  1.00  0.00     0.009 A 
ATOM     47  C   UNL A   1      36.295  31.468  31.351  1.00  0.00     0.009 A 
ATOM     48  C   UNL A   1      35.812  32.867  33.706  1.00  0.00     0.001 A 
ATOM     49  C   UNL A   1      35.192  32.323  31.445  1.00  0.00     0.001 A 
ATOM     50  C   UNL A   1      34.960  33.035  32.616  1.00  0.00     0.000 A 
ENDBRANCH  26  45
BRANCH  38  51
ATOM     51  C   UNL A   1      43.053  29.685  33.856  1.00  0.00    -0.014 A 
ATOM     52  C   UNL A   1      43.522  30.019  35.140  1.00  0.00     0.009 A 
ATOM     53  C   UNL A   1      42.451  28.432  33.675  1.00  0.00     0.009 A 
ATOM     54  C   UNL A   1      43.423  29.112  36.199  1.00  0.00     0.001 A 
ATOM     55  C   UNL A   1      42.331  27.534  34.739  1.00  0.00     0.001 A 
ATOM     56  C   UNL A   1      42.823  27.871  35.998  1.00  0.00     0.000 A 
ENDBRANCH  38  51
ENDBRANCH  12  13
ENDBRANCH   5   7
ENDBRANCH   2   3
ENDBRANCH   1   2
BRANCH   1  57
ATOM     57  C   UNL A   1      42.455  19.168  26.175  1.00  0.00     0.118 C 
BRANCH  57  58
ATOM     58  N   UNL A   1      43.680  18.413  25.960  1.00  0.00    -0.351 N 
ATOM     59  C   UNL A   1      44.854  18.788  25.338  1.00  0.00     0.273 C 
ATOM     60  H   UNL A   1      43.671  17.494  26.312  1.00  0.00     0.163 HD
ATOM     61  O   UNL A   1      45.701  17.938  25.114  1.00  0.00    -0.267 OA
BRANCH  59  62
ATOM     62  C   UNL A   1      45.020  20.186  24.981  1.00  0.00     0.170 A 
ATOM     63  C   UNL A   1      45.715  21.162  25.666  1.00  0.00     0.145 A 
ATOM     64  N   UNL A   1      44.484  20.737  23.846  1.00  0.00    -0.125 NA
ATOM     65  N   UNL A   1      45.453  22.302  24.969  1.00  0.00    -0.245 N 
ATOM     66  N   UNL A   1      44.744  22.039  23.859  1.00  0.00    -0.066 NA
BRANCH  65  67
ATOM     67  C   UNL A   1      45.853  23.632  25.290  1.00  0.00     0.148 C 
ATOM     68  C   UNL A   1      44.973  24.758  24.713  1.00  0.00     0.150 C 
ATOM     69  C   UNL A   1      45.316  24.094  26.664  1.00  0.00     0.150 C 
ATOM     70  N   UNL A   1      45.144  25.380  26.024  1.00  0.00    -0.320 N 
ATOM     71  C   UNL A   1      44.801  26.641  26.390  1.00  0.00     0.322 C 
ATOM     72  O   UNL A   1      44.393  27.448  25.552  1.00  0.00    -0.248 OA
ATOM     73  N   UNL A   1      44.772  27.003  27.699  1.00  0.00    -0.307 N 
ATOM     74  H   UNL A   1      44.207  27.787  27.891  1.00  0.00     0.171 HD
BRANCH  73  75
ATOM     75  C   UNL A   1      45.397  26.462  28.806  1.00  0.00     0.053 A 
ATOM     76  C   UNL A   1      44.805  25.735  29.880  1.00  0.00     0.038 A 
ATOM     77  C   UNL A   1      46.768  26.509  28.945  1.00  0.00     0.091 A 
ATOM     78  C   UNL A   1      45.703  25.456  30.888  1.00  0.00     0.067 A 
ATOM     79  S   UNL A   1      47.292  25.921  30.465  1.00  0.00    -0.150 S 
ENDBRANCH  73  75
ENDBRANCH  65  67
ENDBRANCH  59  62
ENDBRANCH  57  58
ENDBRANCH   1  57
TORSDOF 12
ENDMDL
