MODEL 1
REMARK VINA RESULT:     -12.6      0.000      0.000
REMARK SMILES O=C(NCCCNC(=O)c1cc(-c2ccc(Cl)cc2)nc2c3c(C4CC4)cc(C(F)(F)F)nc3nn12)c1ccc(-c2c3nc(c(-c4ccccc4)c4ccc([nH]4)c(-c4ccccc4)c4nc(c(-c5ccccc5)c5ccc2[nH]5)C=C4)C=C3)cc1
REMARK SMILES IDX 4 1 3 2 1 3 2 4 37 6 38 7 84 8 39 9 83 10 40 11 41 12 42 13
REMARK SMILES IDX 77 14 43 15 82 16 76 17 78 18 44 19 81 20 75 21 74 22 45 24
REMARK SMILES IDX 67 25 52 26 66 27 53 28 56 29 65 30 79 31 54 32 55 33 64 35
REMARK SMILES IDX 80 36 57 37 46 38 47 39 51 40 48 41 50 42 49 43 68 44 69 45
REMARK SMILES IDX 73 46 70 47 72 48 71 49 58 50 59 51 63 52 60 53 62 54 61 55
REMARK SMILES IDX 5 56 6 57 7 58 8 59 9 61 10 62 11 63 36 64 12 65 21 66 35 67
REMARK SMILES IDX 20 68 22 69 34 70 23 71 33 72 27 73 28 74 13 75 14 76 19 77
REMARK SMILES IDX 15 78 18 79 16 80 17 81 24 82 25 83 26 84 29 85 30 86 31 87
REMARK SMILES IDX 32 88
REMARK H PARENT 3 5 78 23 56 34 7 60
REMARK Flexibility Score: inf
ROOT
ATOM      1  C   UNL A   1      39.287  21.724  25.682  1.00  0.00     0.118 C 
ENDROOT
BRANCH   1   2
ATOM      2  N   UNL A   1      40.275  20.909  26.378  1.00  0.00    -0.352 N 
ATOM      3  O   UNL A   1      42.202  20.517  27.503  1.00  0.00    -0.269 OA
ATOM      4  C   UNL A   1      41.406  21.316  27.042  1.00  0.00     0.251 C 
ATOM      5  H   UNL A   1      40.110  19.938  26.373  1.00  0.00     0.163 HD
BRANCH   4   6
ATOM      6  C   UNL A   1      41.668  22.764  27.140  1.00  0.00     0.039 A 
ATOM      7  C   UNL A   1      42.409  23.409  26.146  1.00  0.00     0.014 A 
ATOM      8  C   UNL A   1      41.225  23.452  28.272  1.00  0.00     0.014 A 
ATOM      9  C   UNL A   1      42.815  24.722  26.343  1.00  0.00     0.010 A 
ATOM     10  C   UNL A   1      41.604  24.779  28.450  1.00  0.00     0.010 A 
ATOM     11  C   UNL A   1      42.424  25.405  27.501  1.00  0.00    -0.014 A 
BRANCH  11  12
ATOM     12  C   UNL A   1      42.850  26.802  27.642  1.00  0.00     0.031 A 
ATOM     13  C   UNL A   1      41.757  27.809  27.598  1.00  0.00     0.074 A 
ATOM     14  C   UNL A   1      43.995  27.141  28.264  1.00  0.00     0.049 A 
ATOM     15  N   UNL A   1      41.070  28.139  28.653  1.00  0.00    -0.248 NA
ATOM     16  C   UNL A   1      41.211  28.313  26.340  1.00  0.00     0.031 C 
ATOM     17  C   UNL A   1      44.660  26.325  29.288  1.00  0.00     0.029 A 
ATOM     18  N   UNL A   1      44.660  28.339  28.298  1.00  0.00    -0.354 N 
ATOM     19  C   UNL A   1      39.954  28.816  28.202  1.00  0.00     0.074 A 
ATOM     20  C   UNL A   1      40.101  28.934  26.767  1.00  0.00     0.031 C 
ATOM     21  C   UNL A   1      45.498  27.118  29.988  1.00  0.00     0.029 A 
ATOM     22  C   UNL A   1      45.562  28.427  29.351  1.00  0.00     0.049 A 
ATOM     23  H   UNL A   1      44.515  29.061  27.645  1.00  0.00     0.167 HD
ATOM     24  C   UNL A   1      38.939  29.202  29.017  1.00  0.00     0.031 A 
ATOM     25  C   UNL A   1      45.958  29.580  29.948  1.00  0.00     0.031 A 
ATOM     26  C   UNL A   1      39.079  28.879  30.403  1.00  0.00     0.049 A 
ATOM     27  C   UNL A   1      44.679  30.015  30.626  1.00  0.00     0.074 A 
ATOM     28  C   UNL A   1      38.674  27.865  31.245  1.00  0.00     0.029 A 
ATOM     29  N   UNL A   1      39.867  29.688  31.183  1.00  0.00    -0.354 N 
ATOM     30  N   UNL A   1      44.199  29.565  31.753  1.00  0.00    -0.248 NA
ATOM     31  C   UNL A   1      43.727  30.792  29.827  1.00  0.00     0.031 C 
ATOM     32  C   UNL A   1      39.592  27.886  32.342  1.00  0.00     0.029 A 
ATOM     33  C   UNL A   1      40.534  28.875  32.065  1.00  0.00     0.049 A 
ATOM     34  H   UNL A   1      39.941  30.667  31.122  1.00  0.00     0.167 HD
ATOM     35  C   UNL A   1      42.816  29.742  31.665  1.00  0.00     0.074 A 
ATOM     36  C   UNL A   1      42.598  30.532  30.470  1.00  0.00     0.031 C 
ATOM     37  C   UNL A   1      41.914  29.082  32.449  1.00  0.00     0.031 A 
BRANCH  24  38
ATOM     38  C   UNL A   1      37.775  29.967  28.537  1.00  0.00    -0.014 A 
ATOM     39  C   UNL A   1      37.747  31.352  28.741  1.00  0.00     0.009 A 
ATOM     40  C   UNL A   1      36.649  29.324  28.009  1.00  0.00     0.009 A 
ATOM     41  C   UNL A   1      36.600  32.086  28.447  1.00  0.00     0.001 A 
ATOM     42  C   UNL A   1      35.502  30.063  27.709  1.00  0.00     0.001 A 
ATOM     43  C   UNL A   1      35.476  31.440  27.936  1.00  0.00     0.000 A 
ENDBRANCH  24  38
BRANCH  25  44
ATOM     44  C   UNL A   1      46.737  30.510  29.062  1.00  0.00    -0.014 A 
ATOM     45  C   UNL A   1      47.686  29.960  28.173  1.00  0.00     0.009 A 
ATOM     46  C   UNL A   1      46.600  31.906  29.065  1.00  0.00     0.009 A 
ATOM     47  C   UNL A   1      48.377  30.754  27.252  1.00  0.00     0.001 A 
ATOM     48  C   UNL A   1      47.273  32.701  28.128  1.00  0.00     0.001 A 
ATOM     49  C   UNL A   1      48.149  32.123  27.212  1.00  0.00     0.000 A 
ENDBRANCH  25  44
BRANCH  37  50
ATOM     50  C   UNL A   1      42.467  28.326  33.613  1.00  0.00    -0.014 A 
ATOM     51  C   UNL A   1      42.340  28.844  34.908  1.00  0.00     0.009 A 
ATOM     52  C   UNL A   1      43.042  27.056  33.442  1.00  0.00     0.009 A 
ATOM     53  C   UNL A   1      42.751  28.095  36.013  1.00  0.00     0.001 A 
ATOM     54  C   UNL A   1      43.441  26.303  34.548  1.00  0.00     0.001 A 
ATOM     55  C   UNL A   1      43.289  26.821  35.833  1.00  0.00     0.000 A 
ENDBRANCH  37  50
ENDBRANCH  11  12
ENDBRANCH   4   6
ENDBRANCH   1   2
BRANCH   1  56
ATOM     56  C   UNL A   1      38.435  22.562  26.630  1.00  0.00     0.042 C 
BRANCH  56  57
ATOM     57  C   UNL A   1      37.806  23.769  25.941  1.00  0.00     0.118 C 
BRANCH  57  58
ATOM     58  N   UNL A   1      37.722  23.570  24.497  1.00  0.00    -0.351 N 
ATOM     59  C   UNL A   1      36.780  22.951  23.736  1.00  0.00     0.270 C 
ATOM     60  H   UNL A   1      38.477  23.948  23.988  1.00  0.00     0.163 HD
ATOM     61  O   UNL A   1      37.020  22.713  22.554  1.00  0.00    -0.268 OA
BRANCH  59  62
ATOM     62  C   UNL A   1      35.513  22.512  24.347  1.00  0.00     0.134 A 
ATOM     63  C   UNL A   1      35.361  21.189  24.507  1.00  0.00     0.063 A 
ATOM     64  N   UNL A   1      34.503  23.393  24.717  1.00  0.00    -0.207 N 
ATOM     65  C   UNL A   1      34.056  20.764  25.091  1.00  0.00     0.075 A 
ATOM     66  C   UNL A   1      33.344  22.917  25.358  1.00  0.00     0.166 A 
ATOM     67  N   UNL A   1      34.495  24.740  24.574  1.00  0.00    -0.145 NA
ATOM     68  N   UNL A   1      33.110  21.567  25.490  1.00  0.00    -0.228 NA
ATOM     69  C   UNL A   1      32.694  24.054  25.802  1.00  0.00     0.069 A 
ATOM     70  C   UNL A   1      33.460  25.143  25.293  1.00  0.00     0.184 A 
ATOM     71  C   UNL A   1      31.553  24.149  26.612  1.00  0.00    -0.028 A 
ATOM     72  N   UNL A   1      33.163  26.435  25.551  1.00  0.00    -0.222 NA
ATOM     73  C   UNL A   1      31.285  25.511  26.877  1.00  0.00     0.038 A 
ATOM     74  C   UNL A   1      32.068  26.586  26.358  1.00  0.00     0.147 A 
BRANCH  65  75
ATOM     75  C   UNL A   1      33.872  19.295  25.157  1.00  0.00     0.000 A 
ATOM     76  C   UNL A   1      32.771  18.782  25.848  1.00  0.00     0.012 A 
ATOM     77  C   UNL A   1      34.747  18.438  24.476  1.00  0.00     0.012 A 
ATOM     78  C   UNL A   1      32.523  17.406  25.829  1.00  0.00     0.021 A 
ATOM     79  C   UNL A   1      34.500  17.063  24.468  1.00  0.00     0.021 A 
ATOM     80  C   UNL A   1      33.385  16.554  25.135  1.00  0.00     0.041 A 
ATOM     81  Cl  UNL A   1      33.064  14.865  25.093  1.00  0.00    -0.084 Cl
ENDBRANCH  65  75
BRANCH  71  82
ATOM     82  C   UNL A   1      30.793  22.960  27.107  1.00  0.00     0.020 C 
ATOM     83  C   UNL A   1      29.292  22.967  27.273  1.00  0.00     0.009 C 
ATOM     84  C   UNL A   1      29.909  22.214  26.134  1.00  0.00     0.009 C 
ENDBRANCH  71  82
BRANCH  74  85
ATOM     85  C   UNL A   1      31.700  28.015  26.748  1.00  0.00     0.433 C 
ATOM     86  F   UNL A   1      31.025  28.671  25.762  1.00  0.00    -0.165 F 
ATOM     87  F   UNL A   1      30.912  28.085  27.858  1.00  0.00    -0.165 F 
ATOM     88  F   UNL A   1      32.786  28.797  27.024  1.00  0.00    -0.165 F 
ENDBRANCH  74  85
ENDBRANCH  59  62
ENDBRANCH  57  58
ENDBRANCH  56  57
ENDBRANCH   1  56
TORSDOF 13
ENDMDL
MODEL 2
REMARK VINA RESULT:     -12.1      5.972      9.968
REMARK SMILES O=C(NCCCNC(=O)c1cc(-c2ccc(Cl)cc2)nc2c3c(C4CC4)cc(C(F)(F)F)nc3nn12)c1ccc(-c2c3nc(c(-c4ccccc4)c4ccc([nH]4)c(-c4ccccc4)c4nc(c(-c5ccccc5)c5ccc2[nH]5)C=C4)C=C3)cc1
REMARK SMILES IDX 4 1 3 2 1 3 2 4 37 6 38 7 84 8 39 9 83 10 40 11 41 12 42 13
REMARK SMILES IDX 77 14 43 15 82 16 76 17 78 18 44 19 81 20 75 21 74 22 45 24
REMARK SMILES IDX 67 25 52 26 66 27 53 28 56 29 65 30 79 31 54 32 55 33 64 35
REMARK SMILES IDX 80 36 57 37 46 38 47 39 51 40 48 41 50 42 49 43 68 44 69 45
REMARK SMILES IDX 73 46 70 47 72 48 71 49 58 50 59 51 63 52 60 53 62 54 61 55
REMARK SMILES IDX 5 56 6 57 7 58 8 59 9 61 10 62 11 63 36 64 12 65 21 66 35 67
REMARK SMILES IDX 20 68 22 69 34 70 23 71 33 72 27 73 28 74 13 75 14 76 19 77
REMARK SMILES IDX 15 78 18 79 16 80 17 81 24 82 25 83 26 84 29 85 30 86 31 87
REMARK SMILES IDX 32 88
REMARK H PARENT 3 5 78 23 56 34 7 60
REMARK Flexibility Score: inf
ROOT
ATOM      1  C   UNL A   1      42.740  32.576  35.586  1.00  0.00     0.118 C 
ENDROOT
BRANCH   1   2
ATOM      2  N   UNL A   1      42.782  31.464  36.528  1.00  0.00    -0.352 N 
ATOM      3  O   UNL A   1      42.718  29.288  37.152  1.00  0.00    -0.269 OA
ATOM      4  C   UNL A   1      42.776  30.117  36.261  1.00  0.00     0.251 C 
ATOM      5  H   UNL A   1      42.819  31.711  37.480  1.00  0.00     0.163 HD
BRANCH   4   6
ATOM      6  C   UNL A   1      42.789  29.690  34.850  1.00  0.00     0.039 A 
ATOM      7  C   UNL A   1      41.613  29.234  34.247  1.00  0.00     0.014 A 
ATOM      8  C   UNL A   1      44.004  29.682  34.161  1.00  0.00     0.014 A 
ATOM      9  C   UNL A   1      41.674  28.654  32.987  1.00  0.00     0.010 A 
ATOM     10  C   UNL A   1      44.056  29.131  32.885  1.00  0.00     0.010 A 
ATOM     11  C   UNL A   1      42.898  28.591  32.309  1.00  0.00    -0.014 A 
BRANCH  11  12
ATOM     12  C   UNL A   1      42.899  28.000  30.966  1.00  0.00     0.031 A 
ATOM     13  C   UNL A   1      42.995  28.970  29.843  1.00  0.00     0.074 A 
ATOM     14  C   UNL A   1      43.302  26.735  30.742  1.00  0.00     0.049 A 
ATOM     15  N   UNL A   1      44.134  29.424  29.409  1.00  0.00    -0.248 NA
ATOM     16  C   UNL A   1      41.826  29.669  29.316  1.00  0.00     0.031 C 
ATOM     17  C   UNL A   1      44.235  25.992  31.599  1.00  0.00     0.029 A 
ATOM     18  N   UNL A   1      43.167  25.949  29.626  1.00  0.00    -0.354 N 
ATOM     19  C   UNL A   1      43.849  30.523  28.623  1.00  0.00     0.074 A 
ATOM     20  C   UNL A   1      42.406  30.615  28.562  1.00  0.00     0.031 C 
ATOM     21  C   UNL A   1      44.745  24.966  30.887  1.00  0.00     0.029 A 
ATOM     22  C   UNL A   1      44.047  24.875  29.612  1.00  0.00     0.049 A 
ATOM     23  H   UNL A   1      42.516  26.128  28.910  1.00  0.00     0.167 HD
ATOM     24  C   UNL A   1      44.805  31.334  28.103  1.00  0.00     0.031 A 
ATOM     25  C   UNL A   1      44.514  24.260  28.495  1.00  0.00     0.031 A 
ATOM     26  C   UNL A   1      46.161  30.991  28.402  1.00  0.00     0.049 A 
ATOM     27  C   UNL A   1      45.378  25.348  27.900  1.00  0.00     0.074 A 
ATOM     28  C   UNL A   1      47.105  31.348  29.340  1.00  0.00     0.029 A 
ATOM     29  N   UNL A   1      46.758  29.997  27.666  1.00  0.00    -0.354 N 
ATOM     30  N   UNL A   1      46.590  25.670  28.262  1.00  0.00    -0.248 NA
ATOM     31  C   UNL A   1      44.716  26.336  27.043  1.00  0.00     0.031 C 
ATOM     32  C   UNL A   1      48.028  30.257  29.393  1.00  0.00     0.029 A 
ATOM     33  C   UNL A   1      47.551  29.278  28.524  1.00  0.00     0.049 A 
ATOM     34  H   UNL A   1      46.640  29.831  26.703  1.00  0.00     0.167 HD
ATOM     35  C   UNL A   1      46.729  27.021  27.932  1.00  0.00     0.074 A 
ATOM     36  C   UNL A   1      45.553  27.358  27.156  1.00  0.00     0.031 C 
ATOM     37  C   UNL A   1      47.685  27.837  28.465  1.00  0.00     0.031 A 
BRANCH  24  38
ATOM     38  C   UNL A   1      44.495  32.475  27.225  1.00  0.00    -0.014 A 
ATOM     39  C   UNL A   1      44.213  33.718  27.808  1.00  0.00     0.009 A 
ATOM     40  C   UNL A   1      44.344  32.311  25.843  1.00  0.00     0.009 A 
ATOM     41  C   UNL A   1      43.761  34.779  27.025  1.00  0.00     0.001 A 
ATOM     42  C   UNL A   1      43.897  33.378  25.060  1.00  0.00     0.001 A 
ATOM     43  C   UNL A   1      43.597  34.606  25.652  1.00  0.00     0.000 A 
ENDBRANCH  24  38
BRANCH  25  44
ATOM     44  C   UNL A   1      43.466  23.552  27.684  1.00  0.00    -0.014 A 
ATOM     45  C   UNL A   1      42.275  23.145  28.324  1.00  0.00     0.009 A 
ATOM     46  C   UNL A   1      43.593  23.247  26.321  1.00  0.00     0.009 A 
ATOM     47  C   UNL A   1      41.219  22.569  27.613  1.00  0.00     0.001 A 
ATOM     48  C   UNL A   1      42.527  22.692  25.601  1.00  0.00     0.001 A 
ATOM     49  C   UNL A   1      41.335  22.368  26.244  1.00  0.00     0.000 A 
ENDBRANCH  25  44
BRANCH  37  50
ATOM     50  C   UNL A   1      48.772  27.175  29.247  1.00  0.00    -0.014 A 
ATOM     51  C   UNL A   1      48.540  26.780  30.570  1.00  0.00     0.009 A 
ATOM     52  C   UNL A   1      50.004  26.863  28.649  1.00  0.00     0.009 A 
ATOM     53  C   UNL A   1      49.509  26.060  31.273  1.00  0.00     0.001 A 
ATOM     54  C   UNL A   1      50.966  26.131  29.349  1.00  0.00     0.001 A 
ATOM     55  C   UNL A   1      50.715  25.726  30.658  1.00  0.00     0.000 A 
ENDBRANCH  37  50
ENDBRANCH  11  12
ENDBRANCH   4   6
ENDBRANCH   1   2
BRANCH   1  56
ATOM     56  C   UNL A   1      41.459  33.397  35.691  1.00  0.00     0.042 C 
BRANCH  56  57
ATOM     57  C   UNL A   1      40.335  32.845  34.821  1.00  0.00     0.118 C 
BRANCH  57  58
ATOM     58  N   UNL A   1      39.584  31.807  35.522  1.00  0.00    -0.351 N 
ATOM     59  C   UNL A   1      38.483  31.100  35.150  1.00  0.00     0.270 C 
ATOM     60  H   UNL A   1      39.934  31.582  36.414  1.00  0.00     0.163 HD
ATOM     61  O   UNL A   1      37.889  30.425  35.989  1.00  0.00    -0.268 OA
BRANCH  59  62
ATOM     62  C   UNL A   1      37.972  31.202  33.773  1.00  0.00     0.134 A 
ATOM     63  C   UNL A   1      38.243  30.168  32.963  1.00  0.00     0.063 A 
ATOM     64  N   UNL A   1      37.273  32.309  33.302  1.00  0.00    -0.207 N 
ATOM     65  C   UNL A   1      37.749  30.310  31.562  1.00  0.00     0.075 A 
ATOM     66  C   UNL A   1      36.752  32.317  31.995  1.00  0.00     0.166 A 
ATOM     67  N   UNL A   1      36.968  33.439  33.985  1.00  0.00    -0.145 NA
ATOM     68  N   UNL A   1      37.052  31.312  31.105  1.00  0.00    -0.228 NA
ATOM     69  C   UNL A   1      35.922  33.423  31.953  1.00  0.00     0.069 A 
ATOM     70  C   UNL A   1      36.095  34.066  33.214  1.00  0.00     0.184 A 
ATOM     71  C   UNL A   1      35.056  33.828  30.927  1.00  0.00    -0.028 A 
ATOM     72  N   UNL A   1      35.412  35.174  33.574  1.00  0.00    -0.222 NA
ATOM     73  C   UNL A   1      34.346  34.975  31.346  1.00  0.00     0.038 A 
ATOM     74  C   UNL A   1      34.533  35.601  32.616  1.00  0.00     0.147 A 
BRANCH  65  75
ATOM     75  C   UNL A   1      38.154  29.204  30.663  1.00  0.00     0.000 A 
ATOM     76  C   UNL A   1      38.113  29.407  29.281  1.00  0.00     0.012 A 
ATOM     77  C   UNL A   1      38.641  28.000  31.191  1.00  0.00     0.012 A 
ATOM     78  C   UNL A   1      38.594  28.414  28.422  1.00  0.00     0.021 A 
ATOM     79  C   UNL A   1      39.111  27.007  30.328  1.00  0.00     0.021 A 
ATOM     80  C   UNL A   1      39.095  27.222  28.949  1.00  0.00     0.041 A 
ATOM     81  Cl  UNL A   1      39.707  26.011  27.892  1.00  0.00    -0.084 Cl
ENDBRANCH  65  75
BRANCH  71  82
ATOM     82  C   UNL A   1      34.930  33.107  29.623  1.00  0.00     0.020 C 
ATOM     83  C   UNL A   1      34.297  33.736  28.404  1.00  0.00     0.009 C 
ATOM     84  C   UNL A   1      35.784  33.562  28.462  1.00  0.00     0.009 C 
ENDBRANCH  71  82
BRANCH  74  85
ATOM     85  C   UNL A   1      33.677  36.815  32.968  1.00  0.00     0.433 C 
ATOM     86  F   UNL A   1      33.953  37.897  32.186  1.00  0.00    -0.165 F 
ATOM     87  F   UNL A   1      32.340  36.585  32.841  1.00  0.00    -0.165 F 
ATOM     88  F   UNL A   1      33.850  37.244  34.254  1.00  0.00    -0.165 F 
ENDBRANCH  74  85
ENDBRANCH  59  62
ENDBRANCH  57  58
ENDBRANCH  56  57
ENDBRANCH   1  56
TORSDOF 13
ENDMDL
MODEL 3
REMARK VINA RESULT:     -12.1      6.118     10.268
REMARK SMILES O=C(NCCCNC(=O)c1cc(-c2ccc(Cl)cc2)nc2c3c(C4CC4)cc(C(F)(F)F)nc3nn12)c1ccc(-c2c3nc(c(-c4ccccc4)c4ccc([nH]4)c(-c4ccccc4)c4nc(c(-c5ccccc5)c5ccc2[nH]5)C=C4)C=C3)cc1
REMARK SMILES IDX 4 1 3 2 1 3 2 4 37 6 38 7 84 8 39 9 83 10 40 11 41 12 42 13
REMARK SMILES IDX 77 14 43 15 82 16 76 17 78 18 44 19 81 20 75 21 74 22 45 24
REMARK SMILES IDX 67 25 52 26 66 27 53 28 56 29 65 30 79 31 54 32 55 33 64 35
REMARK SMILES IDX 80 36 57 37 46 38 47 39 51 40 48 41 50 42 49 43 68 44 69 45
REMARK SMILES IDX 73 46 70 47 72 48 71 49 58 50 59 51 63 52 60 53 62 54 61 55
REMARK SMILES IDX 5 56 6 57 7 58 8 59 9 61 10 62 11 63 36 64 12 65 21 66 35 67
REMARK SMILES IDX 20 68 22 69 34 70 23 71 33 72 27 73 28 74 13 75 14 76 19 77
REMARK SMILES IDX 15 78 18 79 16 80 17 81 24 82 25 83 26 84 29 85 30 86 31 87
REMARK SMILES IDX 32 88
REMARK H PARENT 3 5 78 23 56 34 7 60
REMARK Flexibility Score: inf
ROOT
ATOM      1  C   UNL A   1      48.040  29.256  29.113  1.00  0.00     0.118 C 
ENDROOT
BRANCH   1   2
ATOM      2  N   UNL A   1      48.399  30.417  28.308  1.00  0.00    -0.352 N 
ATOM      3  O   UNL A   1      48.004  32.316  27.138  1.00  0.00    -0.269 OA
ATOM      4  C   UNL A   1      47.595  31.449  27.891  1.00  0.00     0.251 C 
ATOM      5  H   UNL A   1      49.341  30.469  28.027  1.00  0.00     0.163 HD
BRANCH   4   6
ATOM      6  C   UNL A   1      46.190  31.458  28.339  1.00  0.00     0.039 A 
ATOM      7  C   UNL A   1      45.867  31.927  29.615  1.00  0.00     0.014 A 
ATOM      8  C   UNL A   1      45.212  30.925  27.496  1.00  0.00     0.014 A 
ATOM      9  C   UNL A   1      44.578  31.751  30.099  1.00  0.00     0.010 A 
ATOM     10  C   UNL A   1      43.913  30.782  27.971  1.00  0.00     0.010 A 
ATOM     11  C   UNL A   1      43.601  31.167  29.282  1.00  0.00    -0.014 A 
BRANCH  11  12
ATOM     12  C   UNL A   1      42.247  31.038  29.829  1.00  0.00     0.031 A 
ATOM     13  C   UNL A   1      42.053  29.925  30.796  1.00  0.00     0.074 A 
ATOM     14  C   UNL A   1      41.398  32.081  29.892  1.00  0.00     0.049 A 
ATOM     15  N   UNL A   1      42.320  30.048  32.064  1.00  0.00    -0.248 NA
ATOM     16  C   UNL A   1      41.793  28.553  30.365  1.00  0.00     0.031 C 
ATOM     17  C   UNL A   1      41.810  33.490  29.947  1.00  0.00     0.029 A 
ATOM     18  N   UNL A   1      40.052  32.111  30.152  1.00  0.00    -0.354 N 
ATOM     19  C   UNL A   1      42.354  28.771  32.587  1.00  0.00     0.074 A 
ATOM     20  C   UNL A   1      41.984  27.879  31.508  1.00  0.00     0.031 C 
ATOM     21  C   UNL A   1      40.781  34.218  30.428  1.00  0.00     0.029 A 
ATOM     22  C   UNL A   1      39.603  33.369  30.535  1.00  0.00     0.049 A 
ATOM     23  H   UNL A   1      39.465  31.325  30.075  1.00  0.00     0.167 HD
ATOM     24  C   UNL A   1      42.731  28.499  33.862  1.00  0.00     0.031 A 
ATOM     25  C   UNL A   1      38.522  33.608  31.321  1.00  0.00     0.031 A 
ATOM     26  C   UNL A   1      43.095  29.621  34.670  1.00  0.00     0.049 A 
ATOM     27  C   UNL A   1      38.994  33.055  32.646  1.00  0.00     0.074 A 
ATOM     28  C   UNL A   1      44.258  30.275  35.018  1.00  0.00     0.029 A 
ATOM     29  N   UNL A   1      42.092  30.365  35.242  1.00  0.00    -0.354 N 
ATOM     30  N   UNL A   1      39.782  33.644  33.503  1.00  0.00    -0.248 NA
ATOM     31  C   UNL A   1      38.806  31.619  32.878  1.00  0.00     0.031 C 
ATOM     32  C   UNL A   1      43.860  31.596  35.394  1.00  0.00     0.029 A 
ATOM     33  C   UNL A   1      42.483  31.679  35.192  1.00  0.00     0.049 A 
ATOM     34  H   UNL A   1      41.250  30.020  35.616  1.00  0.00     0.167 HD
ATOM     35  C   UNL A   1      40.421  32.608  34.192  1.00  0.00     0.074 A 
ATOM     36  C   UNL A   1      39.750  31.392  33.781  1.00  0.00     0.031 C 
ATOM     37  C   UNL A   1      41.575  32.769  34.903  1.00  0.00     0.031 A 
BRANCH  24  38
ATOM     38  C   UNL A   1      42.717  27.139  34.428  1.00  0.00    -0.014 A 
ATOM     39  C   UNL A   1      43.796  26.286  34.159  1.00  0.00     0.009 A 
ATOM     40  C   UNL A   1      41.598  26.644  35.107  1.00  0.00     0.009 A 
ATOM     41  C   UNL A   1      43.748  24.946  34.541  1.00  0.00     0.001 A 
ATOM     42  C   UNL A   1      41.555  25.302  35.493  1.00  0.00     0.001 A 
ATOM     43  C   UNL A   1      42.624  24.454  35.202  1.00  0.00     0.000 A 
ENDBRANCH  24  38
BRANCH  25  44
ATOM     44  C   UNL A   1      37.207  33.202  30.719  1.00  0.00    -0.014 A 
ATOM     45  C   UNL A   1      37.077  33.202  29.313  1.00  0.00     0.009 A 
ATOM     46  C   UNL A   1      36.076  32.835  31.464  1.00  0.00     0.009 A 
ATOM     47  C   UNL A   1      35.916  32.745  28.682  1.00  0.00     0.001 A 
ATOM     48  C   UNL A   1      34.920  32.354  30.835  1.00  0.00     0.001 A 
ATOM     49  C   UNL A   1      34.847  32.294  29.445  1.00  0.00     0.000 A 
ENDBRANCH  25  44
BRANCH  37  50
ATOM     50  C   UNL A   1      42.023  34.173  35.144  1.00  0.00    -0.014 A 
ATOM     51  C   UNL A   1      42.712  34.869  34.142  1.00  0.00     0.009 A 
ATOM     52  C   UNL A   1      41.692  34.843  36.333  1.00  0.00     0.009 A 
ATOM     53  C   UNL A   1      43.036  36.217  34.313  1.00  0.00     0.001 A 
ATOM     54  C   UNL A   1      42.005  36.194  36.497  1.00  0.00     0.001 A 
ATOM     55  C   UNL A   1      42.671  36.881  35.484  1.00  0.00     0.000 A 
ENDBRANCH  37  50
ENDBRANCH  11  12
ENDBRANCH   4   6
ENDBRANCH   1   2
BRANCH   1  56
ATOM     56  C   UNL A   1      48.243  27.936  28.375  1.00  0.00     0.042 C 
BRANCH  56  57
ATOM     57  C   UNL A   1      46.949  27.389  27.785  1.00  0.00     0.118 C 
BRANCH  57  58
ATOM     58  N   UNL A   1      46.726  27.899  26.435  1.00  0.00    -0.351 N 
ATOM     59  C   UNL A   1      45.781  27.585  25.509  1.00  0.00     0.270 C 
ATOM     60  H   UNL A   1      47.369  28.587  26.147  1.00  0.00     0.163 HD
ATOM     61  O   UNL A   1      45.911  27.986  24.353  1.00  0.00    -0.268 OA
BRANCH  59  62
ATOM     62  C   UNL A   1      44.651  26.714  25.875  1.00  0.00     0.134 A 
ATOM     63  C   UNL A   1      43.503  27.333  26.187  1.00  0.00     0.063 A 
ATOM     64  N   UNL A   1      44.748  25.328  25.932  1.00  0.00    -0.207 N 
ATOM     65  C   UNL A   1      42.383  26.434  26.593  1.00  0.00     0.075 A 
ATOM     66  C   UNL A   1      43.614  24.547  26.223  1.00  0.00     0.166 A 
ATOM     67  N   UNL A   1      45.846  24.571  25.692  1.00  0.00    -0.145 NA
ATOM     68  N   UNL A   1      42.430  25.132  26.612  1.00  0.00    -0.228 NA
ATOM     69  C   UNL A   1      44.000  23.248  25.950  1.00  0.00     0.069 A 
ATOM     70  C   UNL A   1      45.385  23.332  25.619  1.00  0.00     0.184 A 
ATOM     71  C   UNL A   1      43.217  22.084  25.948  1.00  0.00    -0.028 A 
ATOM     72  N   UNL A   1      46.120  22.262  25.247  1.00  0.00    -0.222 NA
ATOM     73  C   UNL A   1      44.012  20.991  25.536  1.00  0.00     0.038 A 
ATOM     74  C   UNL A   1      45.397  21.101  25.206  1.00  0.00     0.147 A 
BRANCH  65  75
ATOM     75  C   UNL A   1      41.163  27.149  27.035  1.00  0.00     0.000 A 
ATOM     76  C   UNL A   1      40.230  26.469  27.822  1.00  0.00     0.012 A 
ATOM     77  C   UNL A   1      40.984  28.505  26.731  1.00  0.00     0.012 A 
ATOM     78  C   UNL A   1      39.128  27.158  28.338  1.00  0.00     0.021 A 
ATOM     79  C   UNL A   1      39.876  29.187  27.241  1.00  0.00     0.021 A 
ATOM     80  C   UNL A   1      38.959  28.514  28.049  1.00  0.00     0.041 A 
ATOM     81  Cl  UNL A   1      37.616  29.365  28.704  1.00  0.00    -0.084 Cl
ENDBRANCH  65  75
BRANCH  71  82
ATOM     82  C   UNL A   1      41.768  22.067  26.313  1.00  0.00     0.020 C 
ATOM     83  C   UNL A   1      41.036  20.797  26.680  1.00  0.00     0.009 C 
ATOM     84  C   UNL A   1      41.389  21.785  27.749  1.00  0.00     0.009 C 
ENDBRANCH  71  82
BRANCH  74  85
ATOM     85  C   UNL A   1      46.139  19.852  24.737  1.00  0.00     0.433 C 
ATOM     86  F   UNL A   1      46.277  18.920  25.722  1.00  0.00    -0.165 F 
ATOM     87  F   UNL A   1      45.525  19.219  23.698  1.00  0.00    -0.165 F 
ATOM     88  F   UNL A   1      47.410  20.109  24.303  1.00  0.00    -0.165 F 
ENDBRANCH  74  85
ENDBRANCH  59  62
ENDBRANCH  57  58
ENDBRANCH  56  57
ENDBRANCH   1  56
TORSDOF 13
ENDMDL
