MODEL 1
REMARK VINA RESULT:     -10.4      0.000      0.000
REMARK SMILES O=C(CC1(NS(=O)(=O)C[C@H]2CCCO2)CCC1)NCCCNC(=O)c1ccc(-c2c3nc(c(-c4ccccc4)c4ccc([nH]4)c(-c4ccccc4)c4nc(c(-c5ccccc5)c5ccc2[nH]5)C=C4)C=C3)cc1
REMARK SMILES IDX 1 1 2 2 18 3 3 5 4 6 15 7 17 8 16 9 5 10 6 12 7 13 8 14 9 15
REMARK SMILES IDX 10 16 11 17 14 18 12 19 13 20 19 21 20 22 21 23 22 24 23 25
REMARK SMILES IDX 24 27 25 28 26 29 72 30 27 31 71 32 28 33 29 34 30 35 65 36
REMARK SMILES IDX 31 37 70 38 64 39 66 40 32 41 69 42 63 43 62 44 33 46 55 47
REMARK SMILES IDX 40 48 54 49 41 50 44 51 53 52 67 53 42 54 43 55 52 57 68 58
REMARK SMILES IDX 45 59 34 60 35 61 39 62 36 63 38 64 37 65 56 66 57 67 61 68
REMARK SMILES IDX 58 69 60 70 59 71 46 72 47 73 51 74 48 75 50 76 49 77
REMARK H PARENT 18 4 5 11 22 26 66 45 44 56
REMARK Flexibility Score: inf
ROOT
ATOM      1  O   UNL A   1      36.818  23.127  26.139  1.00  0.00    -0.275 OA
ATOM      2  C   UNL A   1      36.172  22.915  25.115  1.00  0.00     0.221 C 
ATOM      3  N   UNL A   1      36.119  21.662  24.491  1.00  0.00    -0.356 N 
ATOM      4  H   UNL A   1      35.761  21.674  23.574  1.00  0.00     0.163 HD
ENDROOT
BRANCH   2   5
ATOM      5  C   UNL A   1      35.224  24.036  24.499  1.00  0.00     0.123 C 
BRANCH   5   6
ATOM      6  C   UNL A   1      33.813  24.031  25.073  1.00  0.00     0.042 C 
ATOM      7  C   UNL A   1      33.227  24.175  26.546  1.00  0.00     0.024 C 
ATOM      8  C   UNL A   1      33.356  25.521  24.916  1.00  0.00     0.024 C 
ATOM      9  C   UNL A   1      32.315  25.308  26.007  1.00  0.00     0.004 C 
BRANCH   6  10
ATOM     10  N   UNL A   1      33.143  22.867  24.399  1.00  0.00    -0.208 NA
ATOM     11  H   UNL A   1      33.832  22.538  23.722  1.00  0.00     0.141 HD
BRANCH  10  12
ATOM     12  S   UNL A   1      32.521  21.466  25.067  1.00  0.00     0.214 S 
ATOM     13  O   UNL A   1      33.432  21.167  26.149  1.00  0.00    -0.212 OA
ATOM     14  O   UNL A   1      31.199  21.933  25.438  1.00  0.00    -0.212 OA
BRANCH  12  15
ATOM     15  C   UNL A   1      32.374  19.914  24.082  1.00  0.00     0.185 C 
BRANCH  15  16
ATOM     16  C   UNL A   1      32.596  18.369  24.259  1.00  0.00     0.134 C 
ATOM     17  C   UNL A   1      33.962  17.723  23.916  1.00  0.00     0.035 C 
ATOM     18  O   UNL A   1      32.111  17.661  25.377  1.00  0.00    -0.377 OA
ATOM     19  C   UNL A   1      34.186  16.621  24.946  1.00  0.00     0.031 C 
ATOM     20  C   UNL A   1      32.836  16.439  25.589  1.00  0.00     0.160 C 
ENDBRANCH  15  16
ENDBRANCH  12  15
ENDBRANCH  10  12
ENDBRANCH   6  10
ENDBRANCH   5   6
ENDBRANCH   2   5
BRANCH   3  21
ATOM     21  C   UNL A   1      36.511  20.334  24.978  1.00  0.00     0.117 C 
BRANCH  21  22
ATOM     22  C   UNL A   1      38.013  19.961  24.834  1.00  0.00     0.042 C 
BRANCH  22  23
ATOM     23  C   UNL A   1      39.173  20.227  25.805  1.00  0.00     0.118 C 
BRANCH  23  24
ATOM     24  N   UNL A   1      40.159  19.191  25.914  1.00  0.00    -0.352 N 
ATOM     25  C   UNL A   1      41.509  19.350  26.117  1.00  0.00     0.251 C 
ATOM     26  H   UNL A   1      39.833  18.266  25.832  1.00  0.00     0.163 HD
ATOM     27  O   UNL A   1      42.265  18.399  25.937  1.00  0.00    -0.269 OA
BRANCH  25  28
ATOM     28  C   UNL A   1      42.076  20.657  26.551  1.00  0.00     0.039 A 
ATOM     29  C   UNL A   1      42.023  20.984  27.910  1.00  0.00     0.014 A 
ATOM     30  C   UNL A   1      42.531  21.612  25.633  1.00  0.00     0.014 A 
ATOM     31  C   UNL A   1      42.395  22.261  28.345  1.00  0.00     0.010 A 
ATOM     32  C   UNL A   1      42.954  22.873  26.078  1.00  0.00     0.010 A 
ATOM     33  C   UNL A   1      42.855  23.226  27.434  1.00  0.00    -0.014 A 
BRANCH  33  34
ATOM     34  C   UNL A   1      43.154  24.615  27.894  1.00  0.00     0.031 A 
ATOM     35  C   UNL A   1      44.583  25.087  28.018  1.00  0.00     0.074 A 
ATOM     36  C   UNL A   1      42.148  25.464  28.187  1.00  0.00     0.049 A 
ATOM     37  N   UNL A   1      45.040  26.265  28.369  1.00  0.00    -0.248 NA
ATOM     38  C   UNL A   1      45.637  24.103  27.727  1.00  0.00     0.031 C 
ATOM     39  C   UNL A   1      40.723  25.137  28.132  1.00  0.00     0.029 A 
ATOM     40  N   UNL A   1      42.170  26.782  28.577  1.00  0.00    -0.354 N 
ATOM     41  C   UNL A   1      46.428  26.154  28.357  1.00  0.00     0.074 A 
ATOM     42  C   UNL A   1      46.736  24.782  28.020  1.00  0.00     0.031 C 
ATOM     43  C   UNL A   1      40.007  26.231  28.437  1.00  0.00     0.029 A 
ATOM     44  C   UNL A   1      40.919  27.329  28.747  1.00  0.00     0.049 A 
ATOM     45  H   UNL A   1      43.003  27.287  28.723  1.00  0.00     0.167 HD
ATOM     46  C   UNL A   1      47.365  27.109  28.579  1.00  0.00     0.031 A 
ATOM     47  C   UNL A   1      40.546  28.572  29.108  1.00  0.00     0.031 A 
ATOM     48  C   UNL A   1      47.063  28.478  28.904  1.00  0.00     0.049 A 
ATOM     49  C   UNL A   1      41.603  29.610  29.369  1.00  0.00     0.074 A 
ATOM     50  C   UNL A   1      47.938  29.532  29.102  1.00  0.00     0.029 A 
ATOM     51  N   UNL A   1      45.783  28.982  29.078  1.00  0.00    -0.354 N 
ATOM     52  N   UNL A   1      42.908  29.501  29.290  1.00  0.00    -0.248 NA
ATOM     53  C   UNL A   1      41.134  30.949  29.755  1.00  0.00     0.031 C 
ATOM     54  C   UNL A   1      47.191  30.661  29.455  1.00  0.00     0.029 A 
ATOM     55  C   UNL A   1      45.846  30.326  29.408  1.00  0.00     0.049 A 
ATOM     56  H   UNL A   1      44.953  28.462  28.983  1.00  0.00     0.167 HD
ATOM     57  C   UNL A   1      43.413  30.762  29.583  1.00  0.00     0.074 A 
ATOM     58  C   UNL A   1      42.274  31.623  29.824  1.00  0.00     0.031 C 
ATOM     59  C   UNL A   1      44.704  31.172  29.644  1.00  0.00     0.031 A 
BRANCH  46  60
ATOM     60  C   UNL A   1      48.813  26.698  28.491  1.00  0.00    -0.014 A 
ATOM     61  C   UNL A   1      49.502  26.700  27.267  1.00  0.00     0.009 A 
ATOM     62  C   UNL A   1      49.508  26.332  29.655  1.00  0.00     0.009 A 
ATOM     63  C   UNL A   1      50.838  26.300  27.203  1.00  0.00     0.001 A 
ATOM     64  C   UNL A   1      50.854  25.964  29.594  1.00  0.00     0.001 A 
ATOM     65  C   UNL A   1      51.515  25.936  28.367  1.00  0.00     0.000 A 
ENDBRANCH  46  60
BRANCH  47  66
ATOM     66  C   UNL A   1      39.102  28.914  29.229  1.00  0.00    -0.014 A 
ATOM     67  C   UNL A   1      38.394  29.437  28.135  1.00  0.00     0.009 A 
ATOM     68  C   UNL A   1      38.425  28.733  30.445  1.00  0.00     0.009 A 
ATOM     69  C   UNL A   1      37.050  29.798  28.265  1.00  0.00     0.001 A 
ATOM     70  C   UNL A   1      37.073  29.062  30.563  1.00  0.00     0.001 A 
ATOM     71  C   UNL A   1      36.389  29.605  29.477  1.00  0.00     0.000 A 
ENDBRANCH  47  66
BRANCH  59  72
ATOM     72  C   UNL A   1      44.954  32.625  29.940  1.00  0.00    -0.014 A 
ATOM     73  C   UNL A   1      45.008  33.584  28.917  1.00  0.00     0.009 A 
ATOM     74  C   UNL A   1      45.098  33.043  31.272  1.00  0.00     0.009 A 
ATOM     75  C   UNL A   1      45.242  34.927  29.221  1.00  0.00     0.001 A 
ATOM     76  C   UNL A   1      45.295  34.390  31.576  1.00  0.00     0.001 A 
ATOM     77  C   UNL A   1      45.379  35.329  30.551  1.00  0.00     0.000 A 
ENDBRANCH  59  72
ENDBRANCH  33  34
ENDBRANCH  25  28
ENDBRANCH  23  24
ENDBRANCH  22  23
ENDBRANCH  21  22
ENDBRANCH   3  21
TORSDOF 15
ENDMDL
MODEL 2
REMARK VINA RESULT:     -10.3      1.519      6.843
REMARK SMILES O=C(CC1(NS(=O)(=O)C[C@H]2CCCO2)CCC1)NCCCNC(=O)c1ccc(-c2c3nc(c(-c4ccccc4)c4ccc([nH]4)c(-c4ccccc4)c4nc(c(-c5ccccc5)c5ccc2[nH]5)C=C4)C=C3)cc1
REMARK SMILES IDX 1 1 2 2 18 3 3 5 4 6 15 7 17 8 16 9 5 10 6 12 7 13 8 14 9 15
REMARK SMILES IDX 10 16 11 17 14 18 12 19 13 20 19 21 20 22 21 23 22 24 23 25
REMARK SMILES IDX 24 27 25 28 26 29 72 30 27 31 71 32 28 33 29 34 30 35 65 36
REMARK SMILES IDX 31 37 70 38 64 39 66 40 32 41 69 42 63 43 62 44 33 46 55 47
REMARK SMILES IDX 40 48 54 49 41 50 44 51 53 52 67 53 42 54 43 55 52 57 68 58
REMARK SMILES IDX 45 59 34 60 35 61 39 62 36 63 38 64 37 65 56 66 57 67 61 68
REMARK SMILES IDX 58 69 60 70 59 71 46 72 47 73 51 74 48 75 50 76 49 77
REMARK H PARENT 18 4 5 11 22 26 66 45 44 56
REMARK Flexibility Score: inf
ROOT
ATOM      1  O   UNL A   1      33.977  20.189  25.352  1.00  0.00    -0.275 OA
ATOM      2  C   UNL A   1      34.450  21.204  25.858  1.00  0.00     0.221 C 
ATOM      3  N   UNL A   1      35.762  21.634  25.622  1.00  0.00    -0.356 N 
ATOM      4  H   UNL A   1      36.089  22.319  26.249  1.00  0.00     0.163 HD
ENDROOT
BRANCH   2   5
ATOM      5  C   UNL A   1      33.542  22.187  26.720  1.00  0.00     0.123 C 
BRANCH   5   6
ATOM      6  C   UNL A   1      32.482  22.917  25.905  1.00  0.00     0.042 C 
ATOM      7  C   UNL A   1      30.944  22.637  25.604  1.00  0.00     0.024 C 
ATOM      8  C   UNL A   1      31.928  23.983  26.909  1.00  0.00     0.024 C 
ATOM      9  C   UNL A   1      30.649  24.080  26.089  1.00  0.00     0.004 C 
BRANCH   6  10
ATOM     10  N   UNL A   1      33.173  23.252  24.614  1.00  0.00    -0.208 NA
ATOM     11  H   UNL A   1      32.438  23.183  23.910  1.00  0.00     0.141 HD
BRANCH  10  12
ATOM     12  S   UNL A   1      34.023  24.628  24.189  1.00  0.00     0.214 S 
ATOM     13  O   UNL A   1      35.109  24.671  25.143  1.00  0.00    -0.212 OA
ATOM     14  O   UNL A   1      34.370  24.295  22.821  1.00  0.00    -0.212 OA
BRANCH  12  15
ATOM     15  C   UNL A   1      33.238  26.296  24.238  1.00  0.00     0.185 C 
BRANCH  15  16
ATOM     16  C   UNL A   1      32.952  27.445  25.271  1.00  0.00     0.134 C 
ATOM     17  C   UNL A   1      31.542  27.616  25.891  1.00  0.00     0.035 C 
ATOM     18  O   UNL A   1      33.860  27.783  26.293  1.00  0.00    -0.377 OA
ATOM     19  C   UNL A   1      31.760  28.057  27.335  1.00  0.00     0.031 C 
ATOM     20  C   UNL A   1      33.210  28.459  27.381  1.00  0.00     0.160 C 
ENDBRANCH  15  16
ENDBRANCH  12  15
ENDBRANCH  10  12
ENDBRANCH   6  10
ENDBRANCH   5   6
ENDBRANCH   2   5
BRANCH   3  21
ATOM     21  C   UNL A   1      36.731  21.232  24.596  1.00  0.00     0.117 C 
BRANCH  21  22
ATOM     22  C   UNL A   1      37.845  20.246  25.047  1.00  0.00     0.042 C 
BRANCH  22  23
ATOM     23  C   UNL A   1      39.125  20.532  25.845  1.00  0.00     0.118 C 
BRANCH  23  24
ATOM     24  N   UNL A   1      40.056  19.447  25.962  1.00  0.00    -0.352 N 
ATOM     25  C   UNL A   1      41.417  19.536  26.128  1.00  0.00     0.251 C 
ATOM     26  H   UNL A   1      39.678  18.539  25.916  1.00  0.00     0.163 HD
ATOM     27  O   UNL A   1      42.115  18.540  25.958  1.00  0.00    -0.269 OA
BRANCH  25  28
ATOM     28  C   UNL A   1      42.066  20.822  26.508  1.00  0.00     0.039 A 
ATOM     29  C   UNL A   1      42.096  21.173  27.862  1.00  0.00     0.014 A 
ATOM     30  C   UNL A   1      42.519  21.738  25.551  1.00  0.00     0.014 A 
ATOM     31  C   UNL A   1      42.549  22.438  28.254  1.00  0.00     0.010 A 
ATOM     32  C   UNL A   1      43.022  22.985  25.950  1.00  0.00     0.010 A 
ATOM     33  C   UNL A   1      43.007  23.366  27.303  1.00  0.00    -0.014 A 
BRANCH  33  34
ATOM     34  C   UNL A   1      43.394  24.746  27.721  1.00  0.00     0.031 A 
ATOM     35  C   UNL A   1      42.333  25.777  28.025  1.00  0.00     0.074 A 
ATOM     36  C   UNL A   1      44.695  25.077  27.848  1.00  0.00     0.049 A 
ATOM     37  N   UNL A   1      42.473  27.016  28.433  1.00  0.00    -0.248 NA
ATOM     38  C   UNL A   1      40.934  25.371  27.827  1.00  0.00     0.031 C 
ATOM     39  C   UNL A   1      45.824  24.189  27.569  1.00  0.00     0.029 A 
ATOM     40  N   UNL A   1      45.289  26.247  28.257  1.00  0.00    -0.354 N 
ATOM     41  C   UNL A   1      41.185  27.535  28.522  1.00  0.00     0.074 A 
ATOM     42  C   UNL A   1      40.282  26.498  28.072  1.00  0.00     0.031 C 
ATOM     43  C   UNL A   1      46.970  24.829  27.850  1.00  0.00     0.029 A 
ATOM     44  C   UNL A   1      46.662  26.186  28.294  1.00  0.00     0.049 A 
ATOM     45  H   UNL A   1      44.779  27.053  28.501  1.00  0.00     0.167 HD
ATOM     46  C   UNL A   1      40.781  28.753  28.961  1.00  0.00     0.031 A 
ATOM     47  C   UNL A   1      47.573  27.114  28.645  1.00  0.00     0.031 A 
ATOM     48  C   UNL A   1      41.674  29.784  29.420  1.00  0.00     0.049 A 
ATOM     49  C   UNL A   1      47.103  28.466  29.111  1.00  0.00     0.074 A 
ATOM     50  C   UNL A   1      41.363  31.033  29.928  1.00  0.00     0.029 A 
ATOM     51  N   UNL A   1      43.057  29.682  29.426  1.00  0.00    -0.354 N 
ATOM     52  N   UNL A   1      45.879  28.915  29.247  1.00  0.00    -0.248 NA
ATOM     53  C   UNL A   1      48.144  29.435  29.486  1.00  0.00     0.031 C 
ATOM     54  C   UNL A   1      42.559  31.711  30.186  1.00  0.00     0.029 A 
ATOM     55  C   UNL A   1      43.615  30.857  29.904  1.00  0.00     0.049 A 
ATOM     56  H   UNL A   1      43.567  28.893  29.133  1.00  0.00     0.167 HD
ATOM     57  C   UNL A   1      46.000  30.203  29.755  1.00  0.00     0.074 A 
ATOM     58  C   UNL A   1      47.417  30.456  29.917  1.00  0.00     0.031 C 
ATOM     59  C   UNL A   1      45.027  31.095  30.062  1.00  0.00     0.031 A 
BRANCH  46  60
ATOM     60  C   UNL A   1      39.301  29.042  28.953  1.00  0.00    -0.014 A 
ATOM     61  C   UNL A   1      38.654  29.513  27.799  1.00  0.00     0.009 A 
ATOM     62  C   UNL A   1      38.537  28.811  30.108  1.00  0.00     0.009 A 
ATOM     63  C   UNL A   1      37.285  29.791  27.816  1.00  0.00     0.001 A 
ATOM     64  C   UNL A   1      37.162  29.057  30.112  1.00  0.00     0.001 A 
ATOM     65  C   UNL A   1      36.539  29.558  28.971  1.00  0.00     0.000 A 
ENDBRANCH  46  60
BRANCH  47  66
ATOM     66  C   UNL A   1      49.026  26.797  28.589  1.00  0.00    -0.014 A 
ATOM     67  C   UNL A   1      49.693  26.284  29.714  1.00  0.00     0.009 A 
ATOM     68  C   UNL A   1      49.760  27.016  27.412  1.00  0.00     0.009 A 
ATOM     69  C   UNL A   1      51.067  26.027  29.669  1.00  0.00     0.001 A 
ATOM     70  C   UNL A   1      51.125  26.726  27.360  1.00  0.00     0.001 A 
ATOM     71  C   UNL A   1      51.780  26.244  28.491  1.00  0.00     0.000 A 
ENDBRANCH  47  66
BRANCH  59  72
ATOM     72  C   UNL A   1      45.456  32.412  30.646  1.00  0.00    -0.014 A 
ATOM     73  C   UNL A   1      45.720  33.526  29.833  1.00  0.00     0.009 A 
ATOM     74  C   UNL A   1      45.559  32.549  32.040  1.00  0.00     0.009 A 
ATOM     75  C   UNL A   1      46.117  34.737  30.403  1.00  0.00     0.001 A 
ATOM     76  C   UNL A   1      45.921  33.770  32.609  1.00  0.00     0.001 A 
ATOM     77  C   UNL A   1      46.211  34.860  31.790  1.00  0.00     0.000 A 
ENDBRANCH  59  72
ENDBRANCH  33  34
ENDBRANCH  25  28
ENDBRANCH  23  24
ENDBRANCH  22  23
ENDBRANCH  21  22
ENDBRANCH   3  21
TORSDOF 15
ENDMDL
MODEL 3
REMARK VINA RESULT:     -10.2      1.229      6.128
REMARK SMILES O=C(CC1(NS(=O)(=O)C[C@H]2CCCO2)CCC1)NCCCNC(=O)c1ccc(-c2c3nc(c(-c4ccccc4)c4ccc([nH]4)c(-c4ccccc4)c4nc(c(-c5ccccc5)c5ccc2[nH]5)C=C4)C=C3)cc1
REMARK SMILES IDX 1 1 2 2 18 3 3 5 4 6 15 7 17 8 16 9 5 10 6 12 7 13 8 14 9 15
REMARK SMILES IDX 10 16 11 17 14 18 12 19 13 20 19 21 20 22 21 23 22 24 23 25
REMARK SMILES IDX 24 27 25 28 26 29 72 30 27 31 71 32 28 33 29 34 30 35 65 36
REMARK SMILES IDX 31 37 70 38 64 39 66 40 32 41 69 42 63 43 62 44 33 46 55 47
REMARK SMILES IDX 40 48 54 49 41 50 44 51 53 52 67 53 42 54 43 55 52 57 68 58
REMARK SMILES IDX 45 59 34 60 35 61 39 62 36 63 38 64 37 65 56 66 57 67 61 68
REMARK SMILES IDX 58 69 60 70 59 71 46 72 47 73 51 74 48 75 50 76 49 77
REMARK H PARENT 18 4 5 11 22 26 66 45 44 56
REMARK Flexibility Score: inf
ROOT
ATOM      1  O   UNL A   1      34.698  24.182  22.899  1.00  0.00    -0.275 OA
ATOM      2  C   UNL A   1      34.821  23.883  24.085  1.00  0.00     0.221 C 
ATOM      3  N   UNL A   1      35.696  22.886  24.534  1.00  0.00    -0.356 N 
ATOM      4  H   UNL A   1      35.541  22.591  25.461  1.00  0.00     0.163 HD
ENDROOT
BRANCH   2   5
ATOM      5  C   UNL A   1      34.083  24.721  25.220  1.00  0.00     0.123 C 
BRANCH   5   6
ATOM      6  C   UNL A   1      32.594  24.419  25.335  1.00  0.00     0.042 C 
ATOM      7  C   UNL A   1      31.549  24.497  26.534  1.00  0.00     0.024 C 
ATOM      8  C   UNL A   1      31.920  25.753  24.869  1.00  0.00     0.024 C 
ATOM      9  C   UNL A   1      30.649  25.361  25.612  1.00  0.00     0.004 C 
BRANCH   6  10
ATOM     10  N   UNL A   1      32.428  23.099  24.636  1.00  0.00    -0.208 NA
ATOM     11  H   UNL A   1      33.190  23.077  23.959  1.00  0.00     0.141 HD
BRANCH  10  12
ATOM     12  S   UNL A   1      32.398  21.555  25.275  1.00  0.00     0.214 S 
ATOM     13  O   UNL A   1      33.406  21.591  26.312  1.00  0.00    -0.212 OA
ATOM     14  O   UNL A   1      31.016  21.491  25.710  1.00  0.00    -0.212 OA
BRANCH  12  15
ATOM     15  C   UNL A   1      32.787  20.079  24.240  1.00  0.00     0.185 C 
BRANCH  15  16
ATOM     16  C   UNL A   1      32.539  18.527  24.242  1.00  0.00     0.134 C 
ATOM     17  C   UNL A   1      33.428  17.584  23.394  1.00  0.00     0.035 C 
ATOM     18  O   UNL A   1      32.242  17.813  25.420  1.00  0.00    -0.377 OA
ATOM     19  C   UNL A   1      33.604  16.309  24.213  1.00  0.00     0.031 C 
ATOM     20  C   UNL A   1      32.556  16.417  25.289  1.00  0.00     0.160 C 
ENDBRANCH  15  16
ENDBRANCH  12  15
ENDBRANCH  10  12
ENDBRANCH   6  10
ENDBRANCH   5   6
ENDBRANCH   2   5
BRANCH   3  21
ATOM     21  C   UNL A   1      36.805  22.208  23.853  1.00  0.00     0.117 C 
BRANCH  21  22
ATOM     22  C   UNL A   1      37.439  21.002  24.600  1.00  0.00     0.042 C 
BRANCH  22  23
ATOM     23  C   UNL A   1      38.482  21.001  25.727  1.00  0.00     0.118 C 
BRANCH  23  24
ATOM     24  N   UNL A   1      39.392  19.892  25.748  1.00  0.00    -0.352 N 
ATOM     25  C   UNL A   1      40.747  19.935  25.977  1.00  0.00     0.251 C 
ATOM     26  H   UNL A   1      39.004  19.004  25.579  1.00  0.00     0.163 HD
ATOM     27  O   UNL A   1      41.437  18.954  25.716  1.00  0.00    -0.269 OA
BRANCH  25  28
ATOM     28  C   UNL A   1      41.397  21.154  26.534  1.00  0.00     0.039 A 
ATOM     29  C   UNL A   1      41.303  21.384  27.911  1.00  0.00     0.014 A 
ATOM     30  C   UNL A   1      41.974  22.130  25.713  1.00  0.00     0.014 A 
ATOM     31  C   UNL A   1      41.757  22.589  28.458  1.00  0.00     0.010 A 
ATOM     32  C   UNL A   1      42.477  23.315  26.271  1.00  0.00     0.010 A 
ATOM     33  C   UNL A   1      42.339  23.576  27.645  1.00  0.00    -0.014 A 
BRANCH  33  34
ATOM     34  C   UNL A   1      42.728  24.896  28.223  1.00  0.00     0.031 A 
ATOM     35  C   UNL A   1      41.689  25.970  28.443  1.00  0.00     0.074 A 
ATOM     36  C   UNL A   1      44.010  25.134  28.570  1.00  0.00     0.049 A 
ATOM     37  N   UNL A   1      41.829  27.166  28.963  1.00  0.00    -0.248 NA
ATOM     38  C   UNL A   1      40.318  25.668  28.005  1.00  0.00     0.031 C 
ATOM     39  C   UNL A   1      45.120  24.196  28.396  1.00  0.00     0.029 A 
ATOM     40  N   UNL A   1      44.594  26.233  29.154  1.00  0.00    -0.354 N 
ATOM     41  C   UNL A   1      40.572  27.759  28.896  1.00  0.00     0.074 A 
ATOM     42  C   UNL A   1      39.697  26.816  28.236  1.00  0.00     0.031 C 
ATOM     43  C   UNL A   1      46.240  24.742  28.895  1.00  0.00     0.029 A 
ATOM     44  C   UNL A   1      45.940  26.082  29.392  1.00  0.00     0.049 A 
ATOM     45  H   UNL A   1      44.095  27.051  29.380  1.00  0.00     0.167 HD
ATOM     46  C   UNL A   1      40.169  28.968  29.363  1.00  0.00     0.031 A 
ATOM     47  C   UNL A   1      46.833  26.923  29.949  1.00  0.00     0.031 A 
ATOM     48  C   UNL A   1      41.034  29.905  30.031  1.00  0.00     0.049 A 
ATOM     49  C   UNL A   1      46.368  28.267  30.442  1.00  0.00     0.074 A 
ATOM     50  C   UNL A   1      40.714  31.133  30.582  1.00  0.00     0.029 A 
ATOM     51  N   UNL A   1      42.392  29.715  30.237  1.00  0.00    -0.354 N 
ATOM     52  N   UNL A   1      45.162  28.783  30.427  1.00  0.00    -0.248 NA
ATOM     53  C   UNL A   1      47.387  29.139  31.044  1.00  0.00     0.031 C 
ATOM     54  C   UNL A   1      41.890  31.714  31.069  1.00  0.00     0.029 A 
ATOM     55  C   UNL A   1      42.929  30.816  30.884  1.00  0.00     0.049 A 
ATOM     56  H   UNL A   1      42.899  28.917  29.964  1.00  0.00     0.167 HD
ATOM     57  C   UNL A   1      45.272  30.022  31.046  1.00  0.00     0.074 A 
ATOM     58  C   UNL A   1      46.657  30.173  31.439  1.00  0.00     0.031 C 
ATOM     59  C   UNL A   1      44.310  30.951  31.270  1.00  0.00     0.031 A 
BRANCH  46  60
ATOM     60  C   UNL A   1      38.727  29.350  29.154  1.00  0.00    -0.014 A 
ATOM     61  C   UNL A   1      38.252  29.761  27.897  1.00  0.00     0.009 A 
ATOM     62  C   UNL A   1      37.820  29.271  30.224  1.00  0.00     0.009 A 
ATOM     63  C   UNL A   1      36.915  30.128  27.728  1.00  0.00     0.001 A 
ATOM     64  C   UNL A   1      36.476  29.605  30.043  1.00  0.00     0.001 A 
ATOM     65  C   UNL A   1      36.027  30.045  28.799  1.00  0.00     0.000 A 
ENDBRANCH  46  60
BRANCH  47  66
ATOM     66  C   UNL A   1      48.258  26.518  30.088  1.00  0.00    -0.014 A 
ATOM     67  C   UNL A   1      49.190  26.814  29.080  1.00  0.00     0.009 A 
ATOM     68  C   UNL A   1      48.694  25.819  31.225  1.00  0.00     0.009 A 
ATOM     69  C   UNL A   1      50.519  26.394  29.195  1.00  0.00     0.001 A 
ATOM     70  C   UNL A   1      50.029  25.431  31.353  1.00  0.00     0.001 A 
ATOM     71  C   UNL A   1      50.938  25.708  30.334  1.00  0.00     0.000 A 
ENDBRANCH  47  66
BRANCH  59  72
ATOM     72  C   UNL A   1      44.713  32.195  32.014  1.00  0.00    -0.014 A 
ATOM     73  C   UNL A   1      45.154  33.344  31.339  1.00  0.00     0.009 A 
ATOM     74  C   UNL A   1      44.609  32.228  33.414  1.00  0.00     0.009 A 
ATOM     75  C   UNL A   1      45.522  34.485  32.055  1.00  0.00     0.001 A 
ATOM     76  C   UNL A   1      44.942  33.381  34.124  1.00  0.00     0.001 A 
ATOM     77  C   UNL A   1      45.409  34.504  33.446  1.00  0.00     0.000 A 
ENDBRANCH  59  72
ENDBRANCH  33  34
ENDBRANCH  25  28
ENDBRANCH  23  24
ENDBRANCH  22  23
ENDBRANCH  21  22
ENDBRANCH   3  21
TORSDOF 15
ENDMDL
