MODEL 1
REMARK VINA RESULT:     -11.7      0.000      0.000
REMARK SMILES Cc1ccc(NC(=O)C[C@H]([NH2+]Cc2cccnc2)C(=O)NCCCNC(=O)c2ccc(-c3c4nc(c(-c5ccccc5)c5ccc([nH]5)c(-c5ccccc5)c5nc(c(-c6ccccc6)c6ccc3[nH]6)C=C5)C=C4)cc2)cc1Cl
REMARK SMILES IDX 22 1 21 2 19 3 20 4 10 6 9 7 7 8 6 9 8 11 5 12 1 13 2 14
REMARK SMILES IDX 3 15 77 16 4 17 76 18 78 19 11 20 12 23 13 24 14 25 18 26
REMARK SMILES IDX 15 27 17 28 16 29 23 30 24 31 25 32 26 33 27 35 28 36 29 37
REMARK SMILES IDX 75 38 30 39 74 40 31 41 32 42 33 43 68 44 34 45 73 46 67 47
REMARK SMILES IDX 69 48 35 49 72 50 66 51 65 52 36 54 58 55 43 56 57 57 44 58
REMARK SMILES IDX 47 59 56 60 70 61 45 62 46 63 55 65 71 66 48 67 37 68 38 69
REMARK SMILES IDX 42 70 39 71 41 72 40 73 59 74 60 75 64 76 61 77 63 78 62 79
REMARK SMILES IDX 49 80 50 81 54 82 51 83 53 84 52 85
REMARK H PARENT 21 5 6 10 11 21 11 22 25 34 69 53 47 64
REMARK Flexibility Score: inf
ROOT
ATOM      1  C   UNL A   1      36.558  20.919  24.727  1.00  0.00     0.118 C 
ENDROOT
BRANCH   1   2
ATOM      2  N   UNL A   1      35.978  21.190  26.048  1.00  0.00    -0.351 N 
ATOM      3  C   UNL A   1      34.802  21.652  26.552  1.00  0.00     0.278 C 
ATOM      4  O   UNL A   1      34.778  21.757  27.791  1.00  0.00    -0.268 OA
ATOM      5  H   UNL A   1      36.616  20.978  26.769  1.00  0.00     0.163 HD
BRANCH   3   6
ATOM      6  C   UNL A   1      33.534  22.118  25.757  1.00  0.00     0.282 C 
BRANCH   6   7
ATOM      7  C   UNL A   1      33.037  23.519  26.029  1.00  0.00     0.175 C 
BRANCH   7   8
ATOM      8  C   UNL A   1      31.757  23.998  26.695  1.00  0.00     0.230 C 
ATOM      9  N   UNL A   1      30.942  25.052  26.502  1.00  0.00    -0.326 N 
ATOM     10  H   UNL A   1      30.216  25.030  27.166  1.00  0.00     0.169 HD
ATOM     11  O   UNL A   1      31.356  23.259  27.620  1.00  0.00    -0.274 OA
BRANCH   9  12
ATOM     12  C   UNL A   1      30.781  26.171  25.671  1.00  0.00     0.042 A 
ATOM     13  C   UNL A   1      29.998  29.490  22.974  1.00  0.00     0.046 C 
ATOM     14  C   UNL A   1      30.298  28.338  23.885  1.00  0.00    -0.032 A 
ATOM     15  C   UNL A   1      29.682  27.097  23.693  1.00  0.00     0.007 A 
ATOM     16  C   UNL A   1      31.169  28.471  24.961  1.00  0.00     0.046 A 
ATOM     17  C   UNL A   1      29.922  26.031  24.575  1.00  0.00     0.026 A 
ATOM     18  C   UNL A   1      31.416  27.389  25.810  1.00  0.00     0.047 A 
ATOM     19  Cl  UNL A   1      32.001  29.952  25.292  1.00  0.00    -0.084 Cl
ENDBRANCH   9  12
ENDBRANCH   7   8
ENDBRANCH   6   7
BRANCH   6  20
ATOM     20  N   UNL A   1      32.565  21.009  25.680  1.00  0.00    -0.332 N 
ATOM     21  H   UNL A   1      31.748  21.287  26.223  1.00  0.00     0.347 HD
ATOM     22  H   UNL A   1      33.088  20.203  26.023  1.00  0.00     0.347 HD
BRANCH  20  23
ATOM     23  C   UNL A   1      32.085  20.584  24.372  1.00  0.00     0.299 C 
BRANCH  23  24
ATOM     24  C   UNL A   1      32.761  19.297  23.958  1.00  0.00     0.024 A 
ATOM     25  C   UNL A   1      33.760  18.695  24.733  1.00  0.00     0.013 A 
ATOM     26  C   UNL A   1      32.365  18.615  22.808  1.00  0.00     0.120 A 
ATOM     27  C   UNL A   1      34.282  17.458  24.357  1.00  0.00     0.021 A 
ATOM     28  N   UNL A   1      32.860  17.417  22.411  1.00  0.00    -0.264 NA
ATOM     29  C   UNL A   1      33.798  16.862  23.205  1.00  0.00     0.111 A 
ENDBRANCH  23  24
ENDBRANCH  20  23
ENDBRANCH   6  20
ENDBRANCH   3   6
ENDBRANCH   1   2
BRANCH   1  30
ATOM     30  C   UNL A   1      37.714  19.920  24.794  1.00  0.00     0.042 C 
BRANCH  30  31
ATOM     31  C   UNL A   1      38.621  19.978  26.014  1.00  0.00     0.118 C 
BRANCH  31  32
ATOM     32  N   UNL A   1      39.893  19.304  25.818  1.00  0.00    -0.352 N 
ATOM     33  C   UNL A   1      41.194  19.723  25.946  1.00  0.00     0.251 C 
ATOM     34  H   UNL A   1      39.804  18.364  25.541  1.00  0.00     0.163 HD
ATOM     35  O   UNL A   1      42.076  18.937  25.577  1.00  0.00    -0.269 OA
BRANCH  33  36
ATOM     36  C   UNL A   1      41.608  21.051  26.484  1.00  0.00     0.039 A 
ATOM     37  C   UNL A   1      41.505  21.254  27.870  1.00  0.00     0.014 A 
ATOM     38  C   UNL A   1      42.001  22.131  25.691  1.00  0.00     0.014 A 
ATOM     39  C   UNL A   1      41.805  22.497  28.443  1.00  0.00     0.010 A 
ATOM     40  C   UNL A   1      42.401  23.342  26.273  1.00  0.00     0.010 A 
ATOM     41  C   UNL A   1      42.278  23.554  27.653  1.00  0.00    -0.014 A 
BRANCH  41  42
ATOM     42  C   UNL A   1      42.589  24.884  28.254  1.00  0.00     0.031 A 
ATOM     43  C   UNL A   1      44.002  25.240  28.655  1.00  0.00     0.074 A 
ATOM     44  C   UNL A   1      41.603  25.781  28.460  1.00  0.00     0.049 A 
ATOM     45  N   UNL A   1      44.460  26.352  29.179  1.00  0.00    -0.248 NA
ATOM     46  C   UNL A   1      45.031  24.204  28.468  1.00  0.00     0.031 C 
ATOM     47  C   UNL A   1      40.185  25.565  28.167  1.00  0.00     0.029 A 
ATOM     48  N   UNL A   1      41.646  27.061  28.958  1.00  0.00    -0.354 N 
ATOM     49  C   UNL A   1      45.817  26.138  29.402  1.00  0.00     0.074 A 
ATOM     50  C   UNL A   1      46.096  24.775  29.009  1.00  0.00     0.031 C 
ATOM     51  C   UNL A   1      39.502  26.687  28.447  1.00  0.00     0.029 A 
ATOM     52  C   UNL A   1      40.424  27.690  28.970  1.00  0.00     0.049 A 
ATOM     53  H   UNL A   1      42.475  27.488  29.277  1.00  0.00     0.167 HD
ATOM     54  C   UNL A   1      46.755  26.998  29.869  1.00  0.00     0.031 A 
ATOM     55  C   UNL A   1      40.081  28.936  29.346  1.00  0.00     0.031 A 
ATOM     56  C   UNL A   1      46.494  28.364  30.241  1.00  0.00     0.049 A 
ATOM     57  C   UNL A   1      41.143  29.883  29.834  1.00  0.00     0.074 A 
ATOM     58  C   UNL A   1      47.391  29.328  30.671  1.00  0.00     0.029 A 
ATOM     59  N   UNL A   1      45.246  28.962  30.219  1.00  0.00    -0.354 N 
ATOM     60  N   UNL A   1      42.429  29.681  29.976  1.00  0.00    -0.248 NA
ATOM     61  C   UNL A   1      40.702  31.240  30.193  1.00  0.00     0.031 C 
ATOM     62  C   UNL A   1      46.676  30.499  30.948  1.00  0.00     0.029 A 
ATOM     63  C   UNL A   1      45.344  30.278  30.641  1.00  0.00     0.049 A 
ATOM     64  H   UNL A   1      44.411  28.518  29.945  1.00  0.00     0.167 HD
ATOM     65  C   UNL A   1      42.956  30.889  30.414  1.00  0.00     0.074 A 
ATOM     66  C   UNL A   1      41.853  31.825  30.493  1.00  0.00     0.031 C 
ATOM     67  C   UNL A   1      44.240  31.198  30.720  1.00  0.00     0.031 A 
BRANCH  54  68
ATOM     68  C   UNL A   1      48.162  26.481  30.005  1.00  0.00    -0.014 A 
ATOM     69  C   UNL A   1      48.601  25.865  31.190  1.00  0.00     0.009 A 
ATOM     70  C   UNL A   1      49.054  26.584  28.926  1.00  0.00     0.009 A 
ATOM     71  C   UNL A   1      49.913  25.400  31.304  1.00  0.00     0.001 A 
ATOM     72  C   UNL A   1      50.357  26.090  29.032  1.00  0.00     0.001 A 
ATOM     73  C   UNL A   1      50.788  25.510  30.224  1.00  0.00     0.000 A 
ENDBRANCH  54  68
BRANCH  55  74
ATOM     74  C   UNL A   1      38.668  29.384  29.238  1.00  0.00    -0.014 A 
ATOM     75  C   UNL A   1      37.801  29.277  30.337  1.00  0.00     0.009 A 
ATOM     76  C   UNL A   1      38.174  29.910  28.035  1.00  0.00     0.009 A 
ATOM     77  C   UNL A   1      36.464  29.664  30.226  1.00  0.00     0.001 A 
ATOM     78  C   UNL A   1      36.843  30.322  27.935  1.00  0.00     0.001 A 
ATOM     79  C   UNL A   1      35.987  30.189  29.027  1.00  0.00     0.000 A 
ENDBRANCH  55  74
BRANCH  67  80
ATOM     80  C   UNL A   1      44.523  32.615  31.135  1.00  0.00    -0.014 A 
ATOM     81  C   UNL A   1      44.464  33.008  32.481  1.00  0.00     0.009 A 
ATOM     82  C   UNL A   1      44.865  33.568  30.162  1.00  0.00     0.009 A 
ATOM     83  C   UNL A   1      44.698  34.337  32.839  1.00  0.00     0.001 A 
ATOM     84  C   UNL A   1      45.128  34.888  30.526  1.00  0.00     0.001 A 
ATOM     85  C   UNL A   1      45.033  35.276  31.862  1.00  0.00     0.000 A 
ENDBRANCH  67  80
ENDBRANCH  41  42
ENDBRANCH  33  36
ENDBRANCH  31  32
ENDBRANCH  30  31
ENDBRANCH   1  30
TORSDOF 16
ENDMDL
MODEL 2
REMARK VINA RESULT:     -11.6      2.960      8.468
REMARK SMILES Cc1ccc(NC(=O)C[C@H]([NH2+]Cc2cccnc2)C(=O)NCCCNC(=O)c2ccc(-c3c4nc(c(-c5ccccc5)c5ccc([nH]5)c(-c5ccccc5)c5nc(c(-c6ccccc6)c6ccc3[nH]6)C=C5)C=C4)cc2)cc1Cl
REMARK SMILES IDX 22 1 21 2 19 3 20 4 10 6 9 7 7 8 6 9 8 11 5 12 1 13 2 14
REMARK SMILES IDX 3 15 77 16 4 17 76 18 78 19 11 20 12 23 13 24 14 25 18 26
REMARK SMILES IDX 15 27 17 28 16 29 23 30 24 31 25 32 26 33 27 35 28 36 29 37
REMARK SMILES IDX 75 38 30 39 74 40 31 41 32 42 33 43 68 44 34 45 73 46 67 47
REMARK SMILES IDX 69 48 35 49 72 50 66 51 65 52 36 54 58 55 43 56 57 57 44 58
REMARK SMILES IDX 47 59 56 60 70 61 45 62 46 63 55 65 71 66 48 67 37 68 38 69
REMARK SMILES IDX 42 70 39 71 41 72 40 73 59 74 60 75 64 76 61 77 63 78 62 79
REMARK SMILES IDX 49 80 50 81 54 82 51 83 53 84 52 85
REMARK H PARENT 21 5 6 10 11 21 11 22 25 34 69 53 47 64
REMARK Flexibility Score: inf
ROOT
ATOM      1  C   UNL A   1      32.302  29.709  25.176  1.00  0.00     0.118 C 
ENDROOT
BRANCH   1   2
ATOM      2  N   UNL A   1      33.167  29.452  24.018  1.00  0.00    -0.351 N 
ATOM      3  C   UNL A   1      33.326  28.479  23.081  1.00  0.00     0.278 C 
ATOM      4  O   UNL A   1      34.256  28.681  22.281  1.00  0.00    -0.268 OA
ATOM      5  H   UNL A   1      33.808  30.188  23.880  1.00  0.00     0.163 HD
BRANCH   3   6
ATOM      6  C   UNL A   1      32.531  27.135  22.947  1.00  0.00     0.282 C 
BRANCH   6   7
ATOM      7  C   UNL A   1      33.343  25.883  22.711  1.00  0.00     0.175 C 
BRANCH   7   8
ATOM      8  C   UNL A   1      33.034  24.432  23.041  1.00  0.00     0.230 C 
ATOM      9  N   UNL A   1      33.726  23.443  23.637  1.00  0.00    -0.326 N 
ATOM     10  H   UNL A   1      33.184  22.621  23.641  1.00  0.00     0.169 HD
ATOM     11  O   UNL A   1      31.891  24.063  22.699  1.00  0.00    -0.274 OA
BRANCH   9  12
ATOM     12  C   UNL A   1      34.960  23.190  24.255  1.00  0.00     0.042 A 
ATOM     13  C   UNL A   1      38.725  22.680  26.370  1.00  0.00     0.046 C 
ATOM     14  C   UNL A   1      37.445  22.864  25.610  1.00  0.00    -0.032 A 
ATOM     15  C   UNL A   1      36.746  24.074  25.673  1.00  0.00     0.007 A 
ATOM     16  C   UNL A   1      36.900  21.837  24.847  1.00  0.00     0.046 A 
ATOM     17  C   UNL A   1      35.521  24.232  25.005  1.00  0.00     0.026 A 
ATOM     18  C   UNL A   1      35.694  22.025  24.166  1.00  0.00     0.047 A 
ATOM     19  Cl  UNL A   1      37.681  20.302  24.682  1.00  0.00    -0.084 Cl
ENDBRANCH   9  12
ENDBRANCH   7   8
ENDBRANCH   6   7
BRANCH   6  20
ATOM     20  N   UNL A   1      31.307  27.363  22.157  1.00  0.00    -0.332 N 
ATOM     21  H   UNL A   1      31.287  26.655  21.424  1.00  0.00     0.347 HD
ATOM     22  H   UNL A   1      31.390  28.333  21.852  1.00  0.00     0.347 HD
BRANCH  20  23
ATOM     23  C   UNL A   1      30.016  27.318  22.830  1.00  0.00     0.299 C 
BRANCH  23  24
ATOM     24  C   UNL A   1      29.311  28.649  22.703  1.00  0.00     0.024 A 
ATOM     25  C   UNL A   1      29.919  29.763  22.111  1.00  0.00     0.013 A 
ATOM     26  C   UNL A   1      27.989  28.804  23.117  1.00  0.00     0.120 A 
ATOM     27  C   UNL A   1      29.192  30.939  21.930  1.00  0.00     0.021 A 
ATOM     28  N   UNL A   1      27.259  29.936  22.964  1.00  0.00    -0.264 NA
ATOM     29  C   UNL A   1      27.877  30.972  22.361  1.00  0.00     0.111 A 
ENDBRANCH  23  24
ENDBRANCH  20  23
ENDBRANCH   6  20
ENDBRANCH   3   6
ENDBRANCH   1   2
BRANCH   1  30
ATOM     30  C   UNL A   1      32.396  28.603  26.228  1.00  0.00     0.042 C 
BRANCH  30  31
ATOM     31  C   UNL A   1      33.500  28.718  27.268  1.00  0.00     0.118 C 
BRANCH  31  32
ATOM     32  N   UNL A   1      33.605  30.043  27.852  1.00  0.00    -0.352 N 
ATOM     33  C   UNL A   1      34.639  30.709  28.464  1.00  0.00     0.251 C 
ATOM     34  H   UNL A   1      32.774  30.567  27.799  1.00  0.00     0.163 HD
ATOM     35  O   UNL A   1      34.376  31.802  28.982  1.00  0.00    -0.269 OA
BRANCH  33  36
ATOM     36  C   UNL A   1      36.040  30.202  28.551  1.00  0.00     0.039 A 
ATOM     37  C   UNL A   1      36.468  29.680  29.782  1.00  0.00     0.014 A 
ATOM     38  C   UNL A   1      36.976  30.300  27.520  1.00  0.00     0.014 A 
ATOM     39  C   UNL A   1      37.789  29.251  29.966  1.00  0.00     0.010 A 
ATOM     40  C   UNL A   1      38.268  29.776  27.669  1.00  0.00     0.010 A 
ATOM     41  C   UNL A   1      38.704  29.274  28.903  1.00  0.00    -0.014 A 
BRANCH  41  42
ATOM     42  C   UNL A   1      40.116  28.830  29.093  1.00  0.00     0.031 A 
ATOM     43  C   UNL A   1      41.128  29.736  29.754  1.00  0.00     0.074 A 
ATOM     44  C   UNL A   1      40.507  27.615  28.659  1.00  0.00     0.049 A 
ATOM     45  N   UNL A   1      42.395  29.514  30.013  1.00  0.00    -0.248 NA
ATOM     46  C   UNL A   1      40.668  31.077  30.152  1.00  0.00     0.031 C 
ATOM     47  C   UNL A   1      39.656  26.649  27.962  1.00  0.00     0.029 A 
ATOM     48  N   UNL A   1      41.723  26.981  28.748  1.00  0.00    -0.354 N 
ATOM     49  C   UNL A   1      42.880  30.688  30.580  1.00  0.00     0.074 A 
ATOM     50  C   UNL A   1      41.789  31.637  30.578  1.00  0.00     0.031 C 
ATOM     51  C   UNL A   1      40.361  25.529  27.729  1.00  0.00     0.029 A 
ATOM     52  C   UNL A   1      41.720  25.709  28.228  1.00  0.00     0.049 A 
ATOM     53  H   UNL A   1      42.520  27.398  29.148  1.00  0.00     0.167 HD
ATOM     54  C   UNL A   1      44.112  30.953  31.082  1.00  0.00     0.031 A 
ATOM     55  C   UNL A   1      42.696  24.783  28.167  1.00  0.00     0.031 A 
ATOM     56  C   UNL A   1      45.198  30.009  31.113  1.00  0.00     0.049 A 
ATOM     57  C   UNL A   1      44.046  25.088  28.755  1.00  0.00     0.074 A 
ATOM     58  C   UNL A   1      46.464  30.168  31.651  1.00  0.00     0.029 A 
ATOM     59  N   UNL A   1      45.145  28.728  30.591  1.00  0.00    -0.354 N 
ATOM     60  N   UNL A   1      44.464  26.181  29.343  1.00  0.00    -0.248 NA
ATOM     61  C   UNL A   1      45.053  24.017  28.685  1.00  0.00     0.031 C 
ATOM     62  C   UNL A   1      47.191  28.994  31.417  1.00  0.00     0.029 A 
ATOM     63  C   UNL A   1      46.359  28.089  30.781  1.00  0.00     0.049 A 
ATOM     64  H   UNL A   1      44.360  28.330  30.149  1.00  0.00     0.167 HD
ATOM     65  C   UNL A   1      45.770  25.921  29.739  1.00  0.00     0.074 A 
ATOM     66  C   UNL A   1      46.067  24.560  29.342  1.00  0.00     0.031 C 
ATOM     67  C   UNL A   1      46.645  26.737  30.378  1.00  0.00     0.031 A 
BRANCH  54  68
ATOM     68  C   UNL A   1      44.351  32.330  31.641  1.00  0.00    -0.014 A 
ATOM     69  C   UNL A   1      44.112  32.618  32.996  1.00  0.00     0.009 A 
ATOM     70  C   UNL A   1      44.849  33.347  30.811  1.00  0.00     0.009 A 
ATOM     71  C   UNL A   1      44.328  33.903  33.496  1.00  0.00     0.001 A 
ATOM     72  C   UNL A   1      45.093  34.624  31.322  1.00  0.00     0.001 A 
ATOM     73  C   UNL A   1      44.822  34.904  32.661  1.00  0.00     0.000 A 
ENDBRANCH  54  68
BRANCH  55  74
ATOM     74  C   UNL A   1      42.424  23.453  27.560  1.00  0.00    -0.014 A 
ATOM     75  C   UNL A   1      42.672  23.229  26.196  1.00  0.00     0.009 A 
ATOM     76  C   UNL A   1      41.906  22.405  28.336  1.00  0.00     0.009 A 
ATOM     77  C   UNL A   1      42.383  21.992  25.617  1.00  0.00     0.001 A 
ATOM     78  C   UNL A   1      41.644  21.160  27.760  1.00  0.00     0.001 A 
ATOM     79  C   UNL A   1      41.873  20.957  26.400  1.00  0.00     0.000 A 
ENDBRANCH  55  74
BRANCH  67  80
ATOM     80  C   UNL A   1      47.993  26.164  30.716  1.00  0.00    -0.014 A 
ATOM     81  C   UNL A   1      48.261  25.624  31.983  1.00  0.00     0.009 A 
ATOM     82  C   UNL A   1      49.007  26.155  29.745  1.00  0.00     0.009 A 
ATOM     83  C   UNL A   1      49.530  25.127  32.286  1.00  0.00     0.001 A 
ATOM     84  C   UNL A   1      50.265  25.630  30.041  1.00  0.00     0.001 A 
ATOM     85  C   UNL A   1      50.530  25.128  31.314  1.00  0.00     0.000 A 
ENDBRANCH  67  80
ENDBRANCH  41  42
ENDBRANCH  33  36
ENDBRANCH  31  32
ENDBRANCH  30  31
ENDBRANCH   1  30
TORSDOF 16
ENDMDL
MODEL 3
REMARK VINA RESULT:     -11.6      2.835      7.584
REMARK SMILES Cc1ccc(NC(=O)C[C@H]([NH2+]Cc2cccnc2)C(=O)NCCCNC(=O)c2ccc(-c3c4nc(c(-c5ccccc5)c5ccc([nH]5)c(-c5ccccc5)c5nc(c(-c6ccccc6)c6ccc3[nH]6)C=C5)C=C4)cc2)cc1Cl
REMARK SMILES IDX 22 1 21 2 19 3 20 4 10 6 9 7 7 8 6 9 8 11 5 12 1 13 2 14
REMARK SMILES IDX 3 15 77 16 4 17 76 18 78 19 11 20 12 23 13 24 14 25 18 26
REMARK SMILES IDX 15 27 17 28 16 29 23 30 24 31 25 32 26 33 27 35 28 36 29 37
REMARK SMILES IDX 75 38 30 39 74 40 31 41 32 42 33 43 68 44 34 45 73 46 67 47
REMARK SMILES IDX 69 48 35 49 72 50 66 51 65 52 36 54 58 55 43 56 57 57 44 58
REMARK SMILES IDX 47 59 56 60 70 61 45 62 46 63 55 65 71 66 48 67 37 68 38 69
REMARK SMILES IDX 42 70 39 71 41 72 40 73 59 74 60 75 64 76 61 77 63 78 62 79
REMARK SMILES IDX 49 80 50 81 54 82 51 83 53 84 52 85
REMARK H PARENT 21 5 6 10 11 21 11 22 25 34 69 53 47 64
REMARK Flexibility Score: inf
ROOT
ATOM      1  C   UNL A   1      32.984  29.191  24.752  1.00  0.00     0.118 C 
ENDROOT
BRANCH   1   2
ATOM      2  N   UNL A   1      33.593  28.993  23.432  1.00  0.00    -0.351 N 
ATOM      3  C   UNL A   1      33.633  28.021  22.480  1.00  0.00     0.278 C 
ATOM      4  O   UNL A   1      34.342  28.293  21.496  1.00  0.00    -0.268 OA
ATOM      5  H   UNL A   1      34.117  29.781  23.158  1.00  0.00     0.163 HD
BRANCH   3   6
ATOM      6  C   UNL A   1      32.956  26.608  22.521  1.00  0.00     0.282 C 
BRANCH   6   7
ATOM      7  C   UNL A   1      31.446  26.578  22.560  1.00  0.00     0.175 C 
BRANCH   7   8
ATOM      8  C   UNL A   1      30.496  26.287  23.710  1.00  0.00     0.230 C 
ATOM      9  N   UNL A   1      30.483  25.377  24.702  1.00  0.00    -0.326 N 
ATOM     10  H   UNL A   1      29.668  25.495  25.243  1.00  0.00     0.169 HD
ATOM     11  O   UNL A   1      29.511  27.055  23.766  1.00  0.00    -0.274 OA
BRANCH   9  12
ATOM     12  C   UNL A   1      31.240  24.318  25.225  1.00  0.00     0.042 A 
ATOM     13  C   UNL A   1      33.586  21.201  27.145  1.00  0.00     0.046 C 
ATOM     14  C   UNL A   1      32.806  22.284  26.462  1.00  0.00    -0.032 A 
ATOM     15  C   UNL A   1      32.687  23.552  27.041  1.00  0.00     0.007 A 
ATOM     16  C   UNL A   1      32.154  22.058  25.254  1.00  0.00     0.046 A 
ATOM     17  C   UNL A   1      31.914  24.552  26.429  1.00  0.00     0.026 A 
ATOM     18  C   UNL A   1      31.415  23.077  24.648  1.00  0.00     0.047 A 
ATOM     19  Cl  UNL A   1      32.241  20.536  24.435  1.00  0.00    -0.084 Cl
ENDBRANCH   9  12
ENDBRANCH   7   8
ENDBRANCH   6   7
BRANCH   6  20
ATOM     20  N   UNL A   1      33.720  25.721  23.416  1.00  0.00    -0.332 N 
ATOM     21  H   UNL A   1      33.142  25.556  24.240  1.00  0.00     0.347 HD
ATOM     22  H   UNL A   1      34.596  26.222  23.568  1.00  0.00     0.347 HD
BRANCH  20  23
ATOM     23  C   UNL A   1      34.143  24.418  22.922  1.00  0.00     0.299 C 
BRANCH  23  24
ATOM     24  C   UNL A   1      35.191  23.825  23.837  1.00  0.00     0.024 A 
ATOM     25  C   UNL A   1      35.473  24.364  25.098  1.00  0.00     0.013 A 
ATOM     26  C   UNL A   1      35.880  22.665  23.484  1.00  0.00     0.120 A 
ATOM     27  C   UNL A   1      36.378  23.722  25.943  1.00  0.00     0.021 A 
ATOM     28  N   UNL A   1      36.771  22.024  24.278  1.00  0.00    -0.264 NA
ATOM     29  C   UNL A   1      36.988  22.563  25.495  1.00  0.00     0.111 A 
ENDBRANCH  23  24
ENDBRANCH  20  23
ENDBRANCH   6  20
ENDBRANCH   3   6
ENDBRANCH   1   2
BRANCH   1  30
ATOM     30  C   UNL A   1      33.692  28.389  25.845  1.00  0.00     0.042 C 
BRANCH  30  31
ATOM     31  C   UNL A   1      33.254  28.626  27.283  1.00  0.00     0.118 C 
BRANCH  31  32
ATOM     32  N   UNL A   1      33.382  30.011  27.702  1.00  0.00    -0.352 N 
ATOM     33  C   UNL A   1      34.429  30.731  28.223  1.00  0.00     0.251 C 
ATOM     34  H   UNL A   1      32.557  30.537  27.590  1.00  0.00     0.163 HD
ATOM     35  O   UNL A   1      34.185  31.882  28.607  1.00  0.00    -0.269 OA
BRANCH  33  36
ATOM     36  C   UNL A   1      35.823  30.217  28.365  1.00  0.00     0.039 A 
ATOM     37  C   UNL A   1      36.200  29.690  29.610  1.00  0.00     0.014 A 
ATOM     38  C   UNL A   1      36.799  30.314  27.371  1.00  0.00     0.014 A 
ATOM     39  C   UNL A   1      37.511  29.255  29.844  1.00  0.00     0.010 A 
ATOM     40  C   UNL A   1      38.082  29.784  27.570  1.00  0.00     0.010 A 
ATOM     41  C   UNL A   1      38.467  29.277  28.818  1.00  0.00    -0.014 A 
BRANCH  41  42
ATOM     42  C   UNL A   1      39.868  28.827  29.062  1.00  0.00     0.031 A 
ATOM     43  C   UNL A   1      40.859  29.727  29.763  1.00  0.00     0.074 A 
ATOM     44  C   UNL A   1      40.271  27.610  28.641  1.00  0.00     0.049 A 
ATOM     45  N   UNL A   1      42.113  29.498  30.071  1.00  0.00    -0.248 NA
ATOM     46  C   UNL A   1      40.389  31.069  30.146  1.00  0.00     0.031 C 
ATOM     47  C   UNL A   1      39.443  26.648  27.911  1.00  0.00     0.029 A 
ATOM     48  N   UNL A   1      41.479  26.970  28.777  1.00  0.00    -0.354 N 
ATOM     49  C   UNL A   1      42.581  30.670  30.659  1.00  0.00     0.074 A 
ATOM     50  C   UNL A   1      41.495  31.623  30.615  1.00  0.00     0.031 C 
ATOM     51  C   UNL A   1      40.151  25.526  27.703  1.00  0.00     0.029 A 
ATOM     52  C   UNL A   1      41.492  25.699  28.255  1.00  0.00     0.049 A 
ATOM     53  H   UNL A   1      42.263  27.383  29.208  1.00  0.00     0.167 HD
ATOM     54  C   UNL A   1      43.794  30.928  31.208  1.00  0.00     0.031 A 
ATOM     55  C   UNL A   1      42.465  24.768  28.230  1.00  0.00     0.031 A 
ATOM     56  C   UNL A   1      44.874  29.979  31.280  1.00  0.00     0.049 A 
ATOM     57  C   UNL A   1      43.793  25.067  28.871  1.00  0.00     0.074 A 
ATOM     58  C   UNL A   1      46.119  30.132  31.867  1.00  0.00     0.029 A 
ATOM     59  N   UNL A   1      44.835  28.699  30.754  1.00  0.00    -0.354 N 
ATOM     60  N   UNL A   1      44.192  26.157  29.477  1.00  0.00    -0.248 NA
ATOM     61  C   UNL A   1      44.797  23.992  28.839  1.00  0.00     0.031 C 
ATOM     62  C   UNL A   1      46.848  28.955  31.660  1.00  0.00     0.029 A 
ATOM     63  C   UNL A   1      46.038  28.054  30.990  1.00  0.00     0.049 A 
ATOM     64  H   UNL A   1      44.067  28.305  30.281  1.00  0.00     0.167 HD
ATOM     65  C   UNL A   1      45.481  25.891  29.923  1.00  0.00     0.074 A 
ATOM     66  C   UNL A   1      45.787  24.529  29.536  1.00  0.00     0.031 C 
ATOM     67  C   UNL A   1      46.334  26.702  30.596  1.00  0.00     0.031 A 
BRANCH  54  68
ATOM     68  C   UNL A   1      44.017  32.303  31.779  1.00  0.00    -0.014 A 
ATOM     69  C   UNL A   1      43.728  32.590  33.123  1.00  0.00     0.009 A 
ATOM     70  C   UNL A   1      44.551  33.319  30.970  1.00  0.00     0.009 A 
ATOM     71  C   UNL A   1      43.930  33.874  33.634  1.00  0.00     0.001 A 
ATOM     72  C   UNL A   1      44.781  34.594  31.492  1.00  0.00     0.001 A 
ATOM     73  C   UNL A   1      44.460  34.873  32.820  1.00  0.00     0.000 A 
ENDBRANCH  54  68
BRANCH  55  74
ATOM     74  C   UNL A   1      42.211  23.441  27.611  1.00  0.00    -0.014 A 
ATOM     75  C   UNL A   1      42.608  23.184  26.289  1.00  0.00     0.009 A 
ATOM     76  C   UNL A   1      41.561  22.427  28.332  1.00  0.00     0.009 A 
ATOM     77  C   UNL A   1      42.337  21.950  25.695  1.00  0.00     0.001 A 
ATOM     78  C   UNL A   1      41.317  21.184  27.745  1.00  0.00     0.001 A 
ATOM     79  C   UNL A   1      41.696  20.950  26.423  1.00  0.00     0.000 A 
ENDBRANCH  55  74
BRANCH  67  80
ATOM     80  C   UNL A   1      47.665  26.122  30.986  1.00  0.00    -0.014 A 
ATOM     81  C   UNL A   1      47.899  25.633  32.281  1.00  0.00     0.009 A 
ATOM     82  C   UNL A   1      48.697  26.054  30.036  1.00  0.00     0.009 A 
ATOM     83  C   UNL A   1      49.153  25.129  32.630  1.00  0.00     0.001 A 
ATOM     84  C   UNL A   1      49.940  25.522  30.379  1.00  0.00     0.001 A 
ATOM     85  C   UNL A   1      50.172  25.072  31.678  1.00  0.00     0.000 A 
ENDBRANCH  67  80
ENDBRANCH  41  42
ENDBRANCH  33  36
ENDBRANCH  31  32
ENDBRANCH  30  31
ENDBRANCH   1  30
TORSDOF 16
ENDMDL
