MODEL 1
REMARK VINA RESULT:     -11.7      0.000      0.000
REMARK SMILES COc1ccc(/C=C/c2ncc(C(=O)NCCCNC(=O)c3ccc(-c4c5nc(c(-c6ccccc6)c6ccc([nH]6)c(-c6ccccc6)c6nc(c(-c7ccccc7)c7ccc4[nH]7)C=C6)C=C5)cc3)s2)cc1O
REMARK SMILES IDX 16 1 15 2 13 3 14 4 12 6 9 7 10 8 70 9 11 10 8 11 7 12 6 13
REMARK SMILES IDX 3 14 4 15 72 16 5 17 71 18 2 19 1 20 73 21 17 23 18 24 19 25
REMARK SMILES IDX 20 26 21 28 22 29 23 30 69 31 24 32 68 33 25 34 26 35 27 36
REMARK SMILES IDX 62 37 28 38 67 39 61 40 63 41 29 42 66 43 60 44 59 45 30 47
REMARK SMILES IDX 52 48 37 49 51 50 38 51 41 52 50 53 64 54 39 55 40 56 49 58
REMARK SMILES IDX 65 59 42 60 31 61 32 62 36 63 33 64 35 65 34 66 53 67 54 68
REMARK SMILES IDX 58 69 55 70 57 71 56 72 43 73 44 74 48 75 45 76 47 77 46 78
REMARK H PARENT 15 5 73 22 19 27 63 46 41 57
REMARK Flexibility Score: inf
ROOT
ATOM      1  C   UNL A   1      35.027  22.175  26.033  1.00  0.00     0.118 C 
ENDROOT
BRANCH   1   2
ATOM      2  N   UNL A   1      34.020  21.200  25.657  1.00  0.00    -0.351 N 
ATOM      3  C   UNL A   1      32.652  21.279  25.555  1.00  0.00     0.263 C 
ATOM      4  O   UNL A   1      32.102  20.261  25.130  1.00  0.00    -0.268 OA
ATOM      5  H   UNL A   1      34.386  20.314  25.434  1.00  0.00     0.163 HD
BRANCH   3   6
ATOM      6  C   UNL A   1      31.932  22.489  25.894  1.00  0.00     0.112 A 
ATOM      7  C   UNL A   1      30.729  24.623  25.747  1.00  0.00     0.116 A 
ATOM      8  N   UNL A   1      30.945  24.299  27.008  1.00  0.00    -0.244 NA
ATOM      9  S   UNL A   1      31.288  23.446  24.615  1.00  0.00    -0.109 S 
ATOM     10  C   UNL A   1      31.581  23.074  27.091  1.00  0.00     0.137 A 
BRANCH   7  11
ATOM     11  C   UNL A   1      30.101  25.807  25.265  1.00  0.00     0.040 C 
ATOM     12  C   UNL A   1      30.036  26.052  23.947  1.00  0.00     0.011 C 
BRANCH  12  13
ATOM     13  C   UNL A   1      29.440  27.251  23.339  1.00  0.00    -0.022 A 
ATOM     14  C   UNL A   1      28.441  29.707  22.343  1.00  0.00     0.160 A 
ATOM     15  C   UNL A   1      27.618  28.834  23.059  1.00  0.00     0.051 A 
ATOM     16  C   UNL A   1      29.773  29.342  22.138  1.00  0.00     0.158 A 
ATOM     17  C   UNL A   1      28.110  27.623  23.560  1.00  0.00     0.012 A 
ATOM     18  C   UNL A   1      30.263  28.120  22.609  1.00  0.00     0.058 A 
BRANCH  14  19
ATOM     19  O   UNL A   1      27.829  30.873  21.977  1.00  0.00    -0.493 OA
ATOM     20  C   UNL A   1      27.995  32.008  22.817  1.00  0.00     0.278 C 
ENDBRANCH  14  19
BRANCH  16  21
ATOM     21  O   UNL A   1      30.697  30.163  21.560  1.00  0.00    -0.504 OA
ATOM     22  H   UNL A   1      30.418  30.868  21.008  1.00  0.00     0.293 HD
ENDBRANCH  16  21
ENDBRANCH  12  13
ENDBRANCH   7  11
ENDBRANCH   3   6
ENDBRANCH   1   2
BRANCH   1  23
ATOM     23  C   UNL A   1      35.530  22.954  24.820  1.00  0.00     0.042 C 
BRANCH  23  24
ATOM     24  C   UNL A   1      36.914  23.572  25.022  1.00  0.00     0.118 C 
BRANCH  24  25
ATOM     25  N   UNL A   1      37.902  22.586  25.439  1.00  0.00    -0.352 N 
ATOM     26  C   UNL A   1      39.093  22.749  26.101  1.00  0.00     0.251 C 
ATOM     27  H   UNL A   1      37.681  21.654  25.209  1.00  0.00     0.163 HD
ATOM     28  O   UNL A   1      39.876  21.806  26.173  1.00  0.00    -0.269 OA
BRANCH  26  29
ATOM     29  C   UNL A   1      39.449  24.043  26.722  1.00  0.00     0.039 A 
ATOM     30  C   UNL A   1      38.990  24.316  28.014  1.00  0.00     0.014 A 
ATOM     31  C   UNL A   1      40.175  25.011  26.021  1.00  0.00     0.014 A 
ATOM     32  C   UNL A   1      39.301  25.535  28.623  1.00  0.00     0.010 A 
ATOM     33  C   UNL A   1      40.535  26.202  26.650  1.00  0.00     0.010 A 
ATOM     34  C   UNL A   1      40.098  26.476  27.956  1.00  0.00    -0.014 A 
BRANCH  34  35
ATOM     35  C   UNL A   1      40.485  27.754  28.605  1.00  0.00     0.031 A 
ATOM     36  C   UNL A   1      41.858  27.925  29.190  1.00  0.00     0.074 A 
ATOM     37  C   UNL A   1      39.575  28.739  28.727  1.00  0.00     0.049 A 
ATOM     38  N   UNL A   1      42.351  28.937  29.859  1.00  0.00    -0.248 NA
ATOM     39  C   UNL A   1      42.795  26.803  29.021  1.00  0.00     0.031 C 
ATOM     40  C   UNL A   1      38.197  28.687  28.232  1.00  0.00     0.029 A 
ATOM     41  N   UNL A   1      39.671  29.975  29.315  1.00  0.00    -0.354 N 
ATOM     42  C   UNL A   1      43.643  28.566  30.210  1.00  0.00     0.074 A 
ATOM     43  C   UNL A   1      43.846  27.222  29.712  1.00  0.00     0.031 C 
ATOM     44  C   UNL A   1      37.584  29.846  28.521  1.00  0.00     0.029 A 
ATOM     45  C   UNL A   1      38.509  30.706  29.251  1.00  0.00     0.049 A 
ATOM     46  H   UNL A   1      40.493  30.306  29.742  1.00  0.00     0.167 HD
ATOM     47  C   UNL A   1      44.581  29.282  30.876  1.00  0.00     0.031 A 
ATOM     48  C   UNL A   1      38.219  31.929  29.732  1.00  0.00     0.031 A 
ATOM     49  C   UNL A   1      44.388  30.624  31.357  1.00  0.00     0.049 A 
ATOM     50  C   UNL A   1      39.276  32.703  30.467  1.00  0.00     0.074 A 
ATOM     51  C   UNL A   1      45.298  31.453  31.990  1.00  0.00     0.029 A 
ATOM     52  N   UNL A   1      43.202  31.333  31.258  1.00  0.00    -0.354 N 
ATOM     53  N   UNL A   1      40.511  32.359  30.740  1.00  0.00    -0.248 NA
ATOM     54  C   UNL A   1      38.900  34.038  30.951  1.00  0.00     0.031 C 
ATOM     55  C   UNL A   1      44.649  32.650  32.310  1.00  0.00     0.029 A 
ATOM     56  C   UNL A   1      43.350  32.583  31.836  1.00  0.00     0.049 A 
ATOM     57  H   UNL A   1      42.376  30.998  30.839  1.00  0.00     0.167 HD
ATOM     58  C   UNL A   1      41.066  33.443  31.405  1.00  0.00     0.074 A 
ATOM     59  C   UNL A   1      40.038  34.460  31.483  1.00  0.00     0.031 C 
ATOM     60  C   UNL A   1      42.317  33.583  31.906  1.00  0.00     0.031 A 
BRANCH  47  61
ATOM     61  C   UNL A   1      45.905  28.617  31.129  1.00  0.00    -0.014 A 
ATOM     62  C   UNL A   1      46.956  28.713  30.203  1.00  0.00     0.009 A 
ATOM     63  C   UNL A   1      46.114  27.911  32.324  1.00  0.00     0.009 A 
ATOM     64  C   UNL A   1      48.177  28.083  30.451  1.00  0.00     0.001 A 
ATOM     65  C   UNL A   1      47.346  27.305  32.582  1.00  0.00     0.001 A 
ATOM     66  C   UNL A   1      48.372  27.383  31.642  1.00  0.00     0.000 A 
ENDBRANCH  47  61
BRANCH  48  67
ATOM     67  C   UNL A   1      36.867  32.505  29.520  1.00  0.00    -0.014 A 
ATOM     68  C   UNL A   1      36.582  33.227  28.351  1.00  0.00     0.009 A 
ATOM     69  C   UNL A   1      35.857  32.335  30.478  1.00  0.00     0.009 A 
ATOM     70  C   UNL A   1      35.315  33.786  28.157  1.00  0.00     0.001 A 
ATOM     71  C   UNL A   1      34.586  32.873  30.270  1.00  0.00     0.001 A 
ATOM     72  C   UNL A   1      34.319  33.604  29.114  1.00  0.00     0.000 A 
ENDBRANCH  48  67
BRANCH  60  73
ATOM     73  C   UNL A   1      42.651  34.895  32.555  1.00  0.00    -0.014 A 
ATOM     74  C   UNL A   1      43.334  35.899  31.854  1.00  0.00     0.009 A 
ATOM     75  C   UNL A   1      42.244  35.140  33.876  1.00  0.00     0.009 A 
ATOM     76  C   UNL A   1      43.630  37.116  32.474  1.00  0.00     0.001 A 
ATOM     77  C   UNL A   1      42.518  36.365  34.485  1.00  0.00     0.001 A 
ATOM     78  C   UNL A   1      43.218  37.348  33.786  1.00  0.00     0.000 A 
ENDBRANCH  60  73
ENDBRANCH  34  35
ENDBRANCH  26  29
ENDBRANCH  24  25
ENDBRANCH  23  24
ENDBRANCH   1  23
TORSDOF 14
ENDMDL
MODEL 2
REMARK VINA RESULT:     -11.4      3.046      8.578
REMARK SMILES COc1ccc(/C=C/c2ncc(C(=O)NCCCNC(=O)c3ccc(-c4c5nc(c(-c6ccccc6)c6ccc([nH]6)c(-c6ccccc6)c6nc(c(-c7ccccc7)c7ccc4[nH]7)C=C6)C=C5)cc3)s2)cc1O
REMARK SMILES IDX 16 1 15 2 13 3 14 4 12 6 9 7 10 8 70 9 11 10 8 11 7 12 6 13
REMARK SMILES IDX 3 14 4 15 72 16 5 17 71 18 2 19 1 20 73 21 17 23 18 24 19 25
REMARK SMILES IDX 20 26 21 28 22 29 23 30 69 31 24 32 68 33 25 34 26 35 27 36
REMARK SMILES IDX 62 37 28 38 67 39 61 40 63 41 29 42 66 43 60 44 59 45 30 47
REMARK SMILES IDX 52 48 37 49 51 50 38 51 41 52 50 53 64 54 39 55 40 56 49 58
REMARK SMILES IDX 65 59 42 60 31 61 32 62 36 63 33 64 35 65 34 66 53 67 54 68
REMARK SMILES IDX 58 69 55 70 57 71 56 72 43 73 44 74 48 75 45 76 47 77 46 78
REMARK H PARENT 15 5 73 22 19 27 63 46 41 57
REMARK Flexibility Score: inf
ROOT
ATOM      1  C   UNL A   1      33.031  28.795  24.948  1.00  0.00     0.118 C 
ENDROOT
BRANCH   1   2
ATOM      2  N   UNL A   1      33.629  28.694  23.629  1.00  0.00    -0.351 N 
ATOM      3  C   UNL A   1      33.551  27.732  22.652  1.00  0.00     0.263 C 
ATOM      4  O   UNL A   1      34.140  28.005  21.604  1.00  0.00    -0.268 OA
ATOM      5  H   UNL A   1      34.200  29.460  23.390  1.00  0.00     0.163 HD
BRANCH   3   6
ATOM      6  C   UNL A   1      32.799  26.509  22.845  1.00  0.00     0.112 A 
ATOM      7  C   UNL A   1      32.166  24.142  22.996  1.00  0.00     0.116 A 
ATOM      8  N   UNL A   1      31.109  24.916  23.161  1.00  0.00    -0.244 NA
ATOM      9  S   UNL A   1      33.644  25.009  22.793  1.00  0.00    -0.109 S 
ATOM     10  C   UNL A   1      31.474  26.249  23.122  1.00  0.00     0.137 A 
BRANCH   7  11
ATOM     11  C   UNL A   1      32.187  22.719  22.974  1.00  0.00     0.040 C 
ATOM     12  C   UNL A   1      32.933  22.038  23.858  1.00  0.00     0.011 C 
BRANCH  12  13
ATOM     13  C   UNL A   1      33.054  20.573  23.909  1.00  0.00    -0.022 A 
ATOM     14  C   UNL A   1      33.016  17.744  24.051  1.00  0.00     0.160 A 
ATOM     15  C   UNL A   1      33.624  18.506  25.053  1.00  0.00     0.051 A 
ATOM     16  C   UNL A   1      32.420  18.414  22.982  1.00  0.00     0.158 A 
ATOM     17  C   UNL A   1      33.638  19.905  24.991  1.00  0.00     0.012 A 
ATOM     18  C   UNL A   1      32.456  19.809  22.898  1.00  0.00     0.058 A 
BRANCH  14  19
ATOM     19  O   UNL A   1      33.034  16.399  24.291  1.00  0.00    -0.493 OA
ATOM     20  C   UNL A   1      32.512  15.933  25.528  1.00  0.00     0.278 C 
ENDBRANCH  14  19
BRANCH  16  21
ATOM     21  O   UNL A   1      31.696  17.784  22.011  1.00  0.00    -0.504 OA
ATOM     22  H   UNL A   1      32.136  17.323  21.323  1.00  0.00     0.293 HD
ENDBRANCH  16  21
ENDBRANCH  12  13
ENDBRANCH   7  11
ENDBRANCH   3   6
ENDBRANCH   1   2
BRANCH   1  23
ATOM     23  C   UNL A   1      33.931  28.179  26.017  1.00  0.00     0.042 C 
BRANCH  23  24
ATOM     24  C   UNL A   1      33.500  28.514  27.445  1.00  0.00     0.118 C 
BRANCH  24  25
ATOM     25  N   UNL A   1      33.514  29.948  27.703  1.00  0.00    -0.352 N 
ATOM     26  C   UNL A   1      34.483  30.740  28.264  1.00  0.00     0.251 C 
ATOM     27  H   UNL A   1      32.696  30.425  27.431  1.00  0.00     0.163 HD
ATOM     28  O   UNL A   1      34.211  31.894  28.580  1.00  0.00    -0.269 OA
BRANCH  26  29
ATOM     29  C   UNL A   1      35.848  30.221  28.501  1.00  0.00     0.039 A 
ATOM     30  C   UNL A   1      36.769  30.250  27.449  1.00  0.00     0.014 A 
ATOM     31  C   UNL A   1      36.207  29.651  29.726  1.00  0.00     0.014 A 
ATOM     32  C   UNL A   1      38.062  29.757  27.639  1.00  0.00     0.010 A 
ATOM     33  C   UNL A   1      37.515  29.214  29.933  1.00  0.00     0.010 A 
ATOM     34  C   UNL A   1      38.453  29.259  28.891  1.00  0.00    -0.014 A 
BRANCH  34  35
ATOM     35  C   UNL A   1      39.838  28.780  29.129  1.00  0.00     0.031 A 
ATOM     36  C   UNL A   1      40.869  29.698  29.725  1.00  0.00     0.074 A 
ATOM     37  C   UNL A   1      40.186  27.537  28.746  1.00  0.00     0.049 A 
ATOM     38  N   UNL A   1      42.143  29.482  29.937  1.00  0.00    -0.248 NA
ATOM     39  C   UNL A   1      40.413  31.042  30.113  1.00  0.00     0.031 C 
ATOM     40  C   UNL A   1      39.290  26.559  28.125  1.00  0.00     0.029 A 
ATOM     41  N   UNL A   1      41.392  26.887  28.814  1.00  0.00    -0.354 N 
ATOM     42  C   UNL A   1      42.645  30.667  30.460  1.00  0.00     0.074 A 
ATOM     43  C   UNL A   1      41.547  31.610  30.500  1.00  0.00     0.031 C 
ATOM     44  C   UNL A   1      39.973  25.428  27.887  1.00  0.00     0.029 A 
ATOM     45  C   UNL A   1      41.360  25.612  28.304  1.00  0.00     0.049 A 
ATOM     46  H   UNL A   1      42.203  27.295  29.193  1.00  0.00     0.167 HD
ATOM     47  C   UNL A   1      43.902  30.943  30.882  1.00  0.00     0.031 A 
ATOM     48  C   UNL A   1      42.338  24.695  28.177  1.00  0.00     0.031 A 
ATOM     49  C   UNL A   1      44.991  30.003  30.860  1.00  0.00     0.049 A 
ATOM     50  C   UNL A   1      43.724  25.026  28.652  1.00  0.00     0.074 A 
ATOM     51  C   UNL A   1      46.286  30.170  31.320  1.00  0.00     0.029 A 
ATOM     52  N   UNL A   1      44.911  28.717  30.348  1.00  0.00    -0.354 N 
ATOM     53  N   UNL A   1      44.167  26.132  29.198  1.00  0.00    -0.248 NA
ATOM     54  C   UNL A   1      44.741  23.976  28.502  1.00  0.00     0.031 C 
ATOM     55  C   UNL A   1      47.001  28.999  31.050  1.00  0.00     0.029 A 
ATOM     56  C   UNL A   1      46.139  28.087  30.463  1.00  0.00     0.049 A 
ATOM     57  H   UNL A   1      44.102  28.312  29.961  1.00  0.00     0.167 HD
ATOM     58  C   UNL A   1      45.508  25.903  29.478  1.00  0.00     0.074 A 
ATOM     59  C   UNL A   1      45.801  24.549  29.054  1.00  0.00     0.031 C 
ATOM     60  C   UNL A   1      46.414  26.740  30.037  1.00  0.00     0.031 A 
BRANCH  47  61
ATOM     61  C   UNL A   1      44.168  32.329  31.399  1.00  0.00    -0.014 A 
ATOM     62  C   UNL A   1      43.981  32.649  32.753  1.00  0.00     0.009 A 
ATOM     63  C   UNL A   1      44.641  33.321  30.525  1.00  0.00     0.009 A 
ATOM     64  C   UNL A   1      44.226  33.944  33.213  1.00  0.00     0.001 A 
ATOM     65  C   UNL A   1      44.911  34.608  30.994  1.00  0.00     0.001 A 
ATOM     66  C   UNL A   1      44.694  34.921  32.335  1.00  0.00     0.000 A 
ENDBRANCH  47  61
BRANCH  48  67
ATOM     67  C   UNL A   1      42.034  23.367  27.587  1.00  0.00    -0.014 A 
ATOM     68  C   UNL A   1      41.503  22.343  28.385  1.00  0.00     0.009 A 
ATOM     69  C   UNL A   1      42.270  23.118  26.227  1.00  0.00     0.009 A 
ATOM     70  C   UNL A   1      41.234  21.087  27.836  1.00  0.00     0.001 A 
ATOM     71  C   UNL A   1      41.977  21.869  25.676  1.00  0.00     0.001 A 
ATOM     72  C   UNL A   1      41.467  20.853  26.481  1.00  0.00     0.000 A 
ENDBRANCH  48  67
BRANCH  60  73
ATOM     73  C   UNL A   1      47.800  26.204  30.250  1.00  0.00    -0.014 A 
ATOM     74  C   UNL A   1      48.726  26.143  29.198  1.00  0.00     0.009 A 
ATOM     75  C   UNL A   1      48.194  25.788  31.531  1.00  0.00     0.009 A 
ATOM     76  C   UNL A   1      50.013  25.646  29.420  1.00  0.00     0.001 A 
ATOM     77  C   UNL A   1      49.488  25.316  31.756  1.00  0.00     0.001 A 
ATOM     78  C   UNL A   1      50.393  25.237  30.698  1.00  0.00     0.000 A 
ENDBRANCH  60  73
ENDBRANCH  34  35
ENDBRANCH  26  29
ENDBRANCH  24  25
ENDBRANCH  23  24
ENDBRANCH   1  23
TORSDOF 14
ENDMDL
MODEL 3
REMARK VINA RESULT:     -11.1      2.549      8.243
REMARK SMILES COc1ccc(/C=C/c2ncc(C(=O)NCCCNC(=O)c3ccc(-c4c5nc(c(-c6ccccc6)c6ccc([nH]6)c(-c6ccccc6)c6nc(c(-c7ccccc7)c7ccc4[nH]7)C=C6)C=C5)cc3)s2)cc1O
REMARK SMILES IDX 16 1 15 2 13 3 14 4 12 6 9 7 10 8 70 9 11 10 8 11 7 12 6 13
REMARK SMILES IDX 3 14 4 15 72 16 5 17 71 18 2 19 1 20 73 21 17 23 18 24 19 25
REMARK SMILES IDX 20 26 21 28 22 29 23 30 69 31 24 32 68 33 25 34 26 35 27 36
REMARK SMILES IDX 62 37 28 38 67 39 61 40 63 41 29 42 66 43 60 44 59 45 30 47
REMARK SMILES IDX 52 48 37 49 51 50 38 51 41 52 50 53 64 54 39 55 40 56 49 58
REMARK SMILES IDX 65 59 42 60 31 61 32 62 36 63 33 64 35 65 34 66 53 67 54 68
REMARK SMILES IDX 58 69 55 70 57 71 56 72 43 73 44 74 48 75 45 76 47 77 46 78
REMARK H PARENT 15 5 73 22 19 27 63 46 41 57
REMARK Flexibility Score: inf
ROOT
ATOM      1  C   UNL A   1      31.368  30.275  25.509  1.00  0.00     0.118 C 
ENDROOT
BRANCH   1   2
ATOM      2  N   UNL A   1      30.693  30.232  24.225  1.00  0.00    -0.351 N 
ATOM      3  C   UNL A   1      30.438  29.203  23.351  1.00  0.00     0.263 C 
ATOM      4  O   UNL A   1      29.765  29.511  22.365  1.00  0.00    -0.268 OA
ATOM      5  H   UNL A   1      30.355  31.105  23.922  1.00  0.00     0.163 HD
BRANCH   3   6
ATOM      6  C   UNL A   1      30.906  27.855  23.604  1.00  0.00     0.112 A 
ATOM      7  C   UNL A   1      32.315  25.853  23.768  1.00  0.00     0.116 A 
ATOM      8  N   UNL A   1      31.066  25.567  24.085  1.00  0.00    -0.244 NA
ATOM      9  S   UNL A   1      32.583  27.518  23.406  1.00  0.00    -0.109 S 
ATOM     10  C   UNL A   1      30.282  26.706  24.037  1.00  0.00     0.137 A 
BRANCH   7  11
ATOM     11  C   UNL A   1      33.409  24.943  23.705  1.00  0.00     0.040 C 
ATOM     12  C   UNL A   1      33.932  24.433  24.831  1.00  0.00     0.011 C 
BRANCH  12  13
ATOM     13  C   UNL A   1      35.077  23.511  24.887  1.00  0.00    -0.022 A 
ATOM     14  C   UNL A   1      37.184  21.650  25.235  1.00  0.00     0.160 A 
ATOM     15  C   UNL A   1      37.422  23.025  25.302  1.00  0.00     0.051 A 
ATOM     16  C   UNL A   1      35.878  21.216  25.000  1.00  0.00     0.158 A 
ATOM     17  C   UNL A   1      36.382  23.948  25.139  1.00  0.00     0.012 A 
ATOM     18  C   UNL A   1      34.840  22.132  24.806  1.00  0.00     0.058 A 
BRANCH  14  19
ATOM     19  O   UNL A   1      38.289  20.883  25.477  1.00  0.00    -0.493 OA
ATOM     20  C   UNL A   1      39.410  21.502  26.095  1.00  0.00     0.278 C 
ENDBRANCH  14  19
BRANCH  16  21
ATOM     21  O   UNL A   1      35.506  19.902  25.032  1.00  0.00    -0.504 OA
ATOM     22  H   UNL A   1      35.935  19.280  24.478  1.00  0.00     0.293 HD
ENDBRANCH  16  21
ENDBRANCH  12  13
ENDBRANCH   7  11
ENDBRANCH   3   6
ENDBRANCH   1   2
BRANCH   1  23
ATOM     23  C   UNL A   1      31.146  31.614  26.210  1.00  0.00     0.042 C 
BRANCH  23  24
ATOM     24  C   UNL A   1      32.388  32.137  26.933  1.00  0.00     0.118 C 
BRANCH  24  25
ATOM     25  N   UNL A   1      32.245  33.530  27.337  1.00  0.00    -0.352 N 
ATOM     26  C   UNL A   1      32.975  34.275  28.228  1.00  0.00     0.251 C 
ATOM     27  H   UNL A   1      31.506  34.014  26.901  1.00  0.00     0.163 HD
ATOM     28  O   UNL A   1      32.558  35.375  28.577  1.00  0.00    -0.269 OA
BRANCH  26  29
ATOM     29  C   UNL A   1      34.251  33.769  28.779  1.00  0.00     0.039 A 
ATOM     30  C   UNL A   1      34.213  32.927  29.895  1.00  0.00     0.014 A 
ATOM     31  C   UNL A   1      35.482  34.164  28.246  1.00  0.00     0.014 A 
ATOM     32  C   UNL A   1      35.402  32.442  30.446  1.00  0.00     0.010 A 
ATOM     33  C   UNL A   1      36.665  33.633  28.758  1.00  0.00     0.010 A 
ATOM     34  C   UNL A   1      36.636  32.770  29.865  1.00  0.00    -0.014 A 
BRANCH  34  35
ATOM     35  C   UNL A   1      37.907  32.222  30.401  1.00  0.00     0.031 A 
ATOM     36  C   UNL A   1      38.495  30.963  29.828  1.00  0.00     0.074 A 
ATOM     37  C   UNL A   1      38.499  32.823  31.450  1.00  0.00     0.049 A 
ATOM     38  N   UNL A   1      39.553  30.295  30.213  1.00  0.00    -0.248 NA
ATOM     39  C   UNL A   1      37.788  30.362  28.685  1.00  0.00     0.031 C 
ATOM     40  C   UNL A   1      38.014  34.031  32.121  1.00  0.00     0.029 A 
ATOM     41  N   UNL A   1      39.635  32.490  32.144  1.00  0.00    -0.354 N 
ATOM     42  C   UNL A   1      39.626  29.187  29.379  1.00  0.00     0.074 A 
ATOM     43  C   UNL A   1      38.485  29.252  28.490  1.00  0.00     0.031 C 
ATOM     44  C   UNL A   1      38.857  34.349  33.116  1.00  0.00     0.029 A 
ATOM     45  C   UNL A   1      39.919  33.350  33.178  1.00  0.00     0.049 A 
ATOM     46  H   UNL A   1      40.194  31.712  31.922  1.00  0.00     0.167 HD
ATOM     47  C   UNL A   1      40.564  28.210  29.345  1.00  0.00     0.031 A 
ATOM     48  C   UNL A   1      40.918  33.332  34.080  1.00  0.00     0.031 A 
ATOM     49  C   UNL A   1      41.707  28.151  30.215  1.00  0.00     0.049 A 
ATOM     50  C   UNL A   1      41.945  32.238  34.023  1.00  0.00     0.074 A 
ATOM     51  C   UNL A   1      42.744  27.233  30.219  1.00  0.00     0.029 A 
ATOM     52  N   UNL A   1      41.965  29.050  31.238  1.00  0.00    -0.354 N 
ATOM     53  N   UNL A   1      42.030  31.229  33.189  1.00  0.00    -0.248 NA
ATOM     54  C   UNL A   1      43.019  32.287  35.024  1.00  0.00     0.031 C 
ATOM     55  C   UNL A   1      43.607  27.554  31.272  1.00  0.00     0.029 A 
ATOM     56  C   UNL A   1      43.133  28.697  31.893  1.00  0.00     0.049 A 
ATOM     57  H   UNL A   1      41.401  29.824  31.466  1.00  0.00     0.167 HD
ATOM     58  C   UNL A   1      43.178  30.538  33.551  1.00  0.00     0.074 A 
ATOM     59  C   UNL A   1      43.763  31.249  34.669  1.00  0.00     0.031 C 
ATOM     60  C   UNL A   1      43.701  29.414  33.004  1.00  0.00     0.031 A 
BRANCH  47  61
ATOM     61  C   UNL A   1      40.382  27.114  28.332  1.00  0.00    -0.014 A 
ATOM     62  C   UNL A   1      39.639  25.962  28.632  1.00  0.00     0.009 A 
ATOM     63  C   UNL A   1      40.937  27.250  27.050  1.00  0.00     0.009 A 
ATOM     64  C   UNL A   1      39.487  24.951  27.680  1.00  0.00     0.001 A 
ATOM     65  C   UNL A   1      40.761  26.250  26.091  1.00  0.00     0.001 A 
ATOM     66  C   UNL A   1      40.045  25.098  26.410  1.00  0.00     0.000 A 
ENDBRANCH  47  61
BRANCH  48  67
ATOM     67  C   UNL A   1      41.004  34.399  35.109  1.00  0.00    -0.014 A 
ATOM     68  C   UNL A   1      41.727  35.574  34.852  1.00  0.00     0.009 A 
ATOM     69  C   UNL A   1      40.362  34.252  36.348  1.00  0.00     0.009 A 
ATOM     70  C   UNL A   1      41.824  36.571  35.826  1.00  0.00     0.001 A 
ATOM     71  C   UNL A   1      40.441  35.261  37.310  1.00  0.00     0.001 A 
ATOM     72  C   UNL A   1      41.177  36.415  37.051  1.00  0.00     0.000 A 
ENDBRANCH  48  67
BRANCH  60  73
ATOM     73  C   UNL A   1      44.986  28.903  33.589  1.00  0.00    -0.014 A 
ATOM     74  C   UNL A   1      44.987  27.958  34.625  1.00  0.00     0.009 A 
ATOM     75  C   UNL A   1      46.211  29.348  33.069  1.00  0.00     0.009 A 
ATOM     76  C   UNL A   1      46.194  27.490  35.151  1.00  0.00     0.001 A 
ATOM     77  C   UNL A   1      47.416  28.860  33.578  1.00  0.00     0.001 A 
ATOM     78  C   UNL A   1      47.405  27.938  34.624  1.00  0.00     0.000 A 
ENDBRANCH  60  73
ENDBRANCH  34  35
ENDBRANCH  26  29
ENDBRANCH  24  25
ENDBRANCH  23  24
ENDBRANCH   1  23
TORSDOF 14
ENDMDL
