MODEL 1
REMARK VINA RESULT:     -10.1      0.000      0.000
REMARK SMILES Cc1nnc(SCC[C@H]2CCC[C@]2([NH2+]C(C)C)C(=O)NCCCNC(=O)c2ccc(-c3c4nc(c(-c5ccccc5)c5ccc([nH]5)c(-c5ccccc5)c5nc(c(-c6ccccc6)c6ccc3[nH]6)C=C5)C=C4)cc2)o1
REMARK SMILES IDX 21 1 20 2 18 3 19 4 13 6 9 7 10 8 11 9 12 10 8 11 7 12 6 13
REMARK SMILES IDX 5 14 1 15 2 16 3 17 75 18 4 19 14 20 15 23 16 24 17 25 22 26
REMARK SMILES IDX 23 27 24 28 25 29 26 31 27 32 28 33 74 34 29 35 73 36 30 37
REMARK SMILES IDX 31 38 32 39 67 40 33 41 72 42 66 43 68 44 34 45 71 46 65 47
REMARK SMILES IDX 64 48 35 50 57 51 42 52 56 53 43 54 46 55 55 56 69 57 44 58
REMARK SMILES IDX 45 59 54 61 70 62 47 63 36 64 37 65 41 66 38 67 40 68 39 69
REMARK SMILES IDX 58 70 59 71 63 72 60 73 62 74 61 75 48 76 49 77 53 78 50 79
REMARK SMILES IDX 52 80 51 81
REMARK H PARENT 20 5 14 21 14 22 24 30 68 49 46 60
REMARK Flexibility Score: inf
ROOT
ATOM      1  C   UNL A   1      31.413  30.454  25.525  1.00  0.00     0.118 C 
ENDROOT
BRANCH   1   2
ATOM      2  N   UNL A   1      32.778  30.005  25.556  1.00  0.00    -0.351 N 
ATOM      3  C   UNL A   1      33.289  28.754  25.534  1.00  0.00     0.281 C 
ATOM      4  O   UNL A   1      34.439  28.673  25.985  1.00  0.00    -0.268 OA
ATOM      5  H   UNL A   1      33.450  30.724  25.601  1.00  0.00     0.163 HD
BRANCH   3   6
ATOM      6  C   UNL A   1      32.537  27.518  24.893  1.00  0.00     0.178 C 
ATOM      7  C   UNL A   1      31.126  27.177  25.465  1.00  0.00     0.061 C 
ATOM      8  C   UNL A   1      31.437  26.789  26.906  1.00  0.00     0.011 C 
ATOM      9  C   UNL A   1      32.764  26.057  26.824  1.00  0.00     0.008 C 
ATOM     10  C   UNL A   1      33.327  26.306  25.412  1.00  0.00     0.079 C 
BRANCH   7  11
ATOM     11  C   UNL A   1      30.253  26.071  24.745  1.00  0.00     0.022 C 
BRANCH  11  12
ATOM     12  C   UNL A   1      29.356  26.312  23.498  1.00  0.00     0.080 C 
BRANCH  12  13
ATOM     13  S   UNL A   1      28.073  27.613  23.626  1.00  0.00    -0.065 SA
BRANCH  13  14
ATOM     14  C   UNL A   1      28.756  28.963  22.759  1.00  0.00     0.276 A 
ATOM     15  C   UNL A   1      28.081  31.774  20.756  1.00  0.00     0.113 C 
ATOM     16  C   UNL A   1      28.750  30.701  21.519  1.00  0.00     0.214 A 
ATOM     17  N   UNL A   1      29.910  30.111  21.320  1.00  0.00    -0.112 NA
ATOM     18  O   UNL A   1      28.008  30.081  22.486  1.00  0.00    -0.416 OA
ATOM     19  N   UNL A   1      29.921  28.991  22.143  1.00  0.00    -0.101 NA
ENDBRANCH  13  14
ENDBRANCH  12  13
ENDBRANCH  11  12
ENDBRANCH   7  11
BRANCH   6  20
ATOM     20  N   UNL A   1      32.416  27.740  23.441  1.00  0.00    -0.331 N 
ATOM     21  H   UNL A   1      32.482  28.746  23.282  1.00  0.00     0.347 HD
ATOM     22  H   UNL A   1      31.525  27.309  23.190  1.00  0.00     0.347 HD
BRANCH  20  23
ATOM     23  C   UNL A   1      33.395  27.096  22.564  1.00  0.00     0.176 C 
ATOM     24  C   UNL A   1      32.724  26.176  21.547  1.00  0.00     0.075 C 
ATOM     25  C   UNL A   1      34.129  28.225  21.832  1.00  0.00     0.075 C 
ENDBRANCH  20  23
ENDBRANCH   6  20
ENDBRANCH   3   6
ENDBRANCH   1   2
BRANCH   1  26
ATOM     26  C   UNL A   1      31.224  31.580  26.539  1.00  0.00     0.042 C 
BRANCH  26  27
ATOM     27  C   UNL A   1      32.536  32.204  27.020  1.00  0.00     0.118 C 
BRANCH  27  28
ATOM     28  N   UNL A   1      32.375  33.588  27.444  1.00  0.00    -0.352 N 
ATOM     29  C   UNL A   1      33.111  34.318  28.342  1.00  0.00     0.251 C 
ATOM     30  H   UNL A   1      31.627  34.071  27.023  1.00  0.00     0.163 HD
ATOM     31  O   UNL A   1      32.701  35.399  28.746  1.00  0.00    -0.269 OA
BRANCH  29  32
ATOM     32  C   UNL A   1      34.394  33.780  28.833  1.00  0.00     0.039 A 
ATOM     33  C   UNL A   1      34.389  32.915  29.927  1.00  0.00     0.014 A 
ATOM     34  C   UNL A   1      35.593  34.134  28.211  1.00  0.00     0.014 A 
ATOM     35  C   UNL A   1      35.590  32.354  30.364  1.00  0.00     0.010 A 
ATOM     36  C   UNL A   1      36.776  33.513  28.593  1.00  0.00     0.010 A 
ATOM     37  C   UNL A   1      36.787  32.624  29.679  1.00  0.00    -0.014 A 
BRANCH  37  38
ATOM     38  C   UNL A   1      38.064  31.992  30.090  1.00  0.00     0.031 A 
ATOM     39  C   UNL A   1      38.984  32.707  31.041  1.00  0.00     0.074 A 
ATOM     40  C   UNL A   1      38.421  30.808  29.560  1.00  0.00     0.049 A 
ATOM     41  N   UNL A   1      40.164  32.344  31.476  1.00  0.00    -0.248 NA
ATOM     42  C   UNL A   1      38.533  34.013  31.548  1.00  0.00     0.031 C 
ATOM     43  C   UNL A   1      37.634  30.036  28.594  1.00  0.00     0.029 A 
ATOM     44  N   UNL A   1      39.544  30.044  29.757  1.00  0.00    -0.354 N 
ATOM     45  C   UNL A   1      40.601  33.382  32.289  1.00  0.00     0.074 A 
ATOM     46  C   UNL A   1      39.587  34.412  32.245  1.00  0.00     0.031 C 
ATOM     47  C   UNL A   1      38.283  28.897  28.308  1.00  0.00     0.029 A 
ATOM     48  C   UNL A   1      39.549  28.875  29.036  1.00  0.00     0.049 A 
ATOM     49  H   UNL A   1      40.278  30.309  30.358  1.00  0.00     0.167 HD
ATOM     50  C   UNL A   1      41.735  33.463  33.024  1.00  0.00     0.031 A 
ATOM     51  C   UNL A   1      40.470  27.897  28.965  1.00  0.00     0.031 A 
ATOM     52  C   UNL A   1      42.737  32.433  33.076  1.00  0.00     0.049 A 
ATOM     53  C   UNL A   1      41.725  28.015  29.784  1.00  0.00     0.074 A 
ATOM     54  C   UNL A   1      43.894  32.393  33.834  1.00  0.00     0.029 A 
ATOM     55  N   UNL A   1      42.700  31.260  32.337  1.00  0.00    -0.354 N 
ATOM     56  N   UNL A   1      42.091  28.972  30.603  1.00  0.00    -0.248 NA
ATOM     57  C   UNL A   1      42.689  26.911  29.678  1.00  0.00     0.031 C 
ATOM     58  C   UNL A   1      44.583  31.218  33.515  1.00  0.00     0.029 A 
ATOM     59  C   UNL A   1      43.826  30.500  32.602  1.00  0.00     0.049 A 
ATOM     60  H   UNL A   1      41.980  31.006  31.715  1.00  0.00     0.167 HD
ATOM     61  C   UNL A   1      43.311  28.572  31.130  1.00  0.00     0.074 A 
ATOM     62  C   UNL A   1      43.615  27.280  30.551  1.00  0.00     0.031 C 
ATOM     63  C   UNL A   1      44.111  29.217  32.015  1.00  0.00     0.031 A 
BRANCH  50  64
ATOM     64  C   UNL A   1      41.951  34.716  33.827  1.00  0.00    -0.014 A 
ATOM     65  C   UNL A   1      41.485  34.825  35.146  1.00  0.00     0.009 A 
ATOM     66  C   UNL A   1      42.655  35.794  33.266  1.00  0.00     0.009 A 
ATOM     67  C   UNL A   1      41.684  36.001  35.874  1.00  0.00     0.001 A 
ATOM     68  C   UNL A   1      42.880  36.955  34.005  1.00  0.00     0.001 A 
ATOM     69  C   UNL A   1      42.386  37.063  35.304  1.00  0.00     0.000 A 
ENDBRANCH  50  64
BRANCH  51  70
ATOM     70  C   UNL A   1      40.233  26.711  28.102  1.00  0.00    -0.014 A 
ATOM     71  C   UNL A   1      39.511  25.611  28.588  1.00  0.00     0.009 A 
ATOM     72  C   UNL A   1      40.733  26.669  26.791  1.00  0.00     0.009 A 
ATOM     73  C   UNL A   1      39.315  24.482  27.787  1.00  0.00     0.001 A 
ATOM     74  C   UNL A   1      40.511  25.552  25.983  1.00  0.00     0.001 A 
ATOM     75  C   UNL A   1      39.812  24.456  26.485  1.00  0.00     0.000 A 
ENDBRANCH  51  70
BRANCH  63  76
ATOM     76  C   UNL A   1      45.371  28.517  32.435  1.00  0.00    -0.014 A 
ATOM     77  C   UNL A   1      45.387  27.631  33.523  1.00  0.00     0.009 A 
ATOM     78  C   UNL A   1      46.553  28.717  31.704  1.00  0.00     0.009 A 
ATOM     79  C   UNL A   1      46.569  26.986  33.892  1.00  0.00     0.001 A 
ATOM     80  C   UNL A   1      47.726  28.048  32.055  1.00  0.00     0.001 A 
ATOM     81  C   UNL A   1      47.735  27.192  33.155  1.00  0.00     0.000 A 
ENDBRANCH  63  76
ENDBRANCH  37  38
ENDBRANCH  29  32
ENDBRANCH  27  28
ENDBRANCH  26  27
ENDBRANCH   1  26
TORSDOF 16
ENDMDL
MODEL 2
REMARK VINA RESULT:     -10.1      3.944      8.556
REMARK SMILES Cc1nnc(SCC[C@H]2CCC[C@]2([NH2+]C(C)C)C(=O)NCCCNC(=O)c2ccc(-c3c4nc(c(-c5ccccc5)c5ccc([nH]5)c(-c5ccccc5)c5nc(c(-c6ccccc6)c6ccc3[nH]6)C=C5)C=C4)cc2)o1
REMARK SMILES IDX 21 1 20 2 18 3 19 4 13 6 9 7 10 8 11 9 12 10 8 11 7 12 6 13
REMARK SMILES IDX 5 14 1 15 2 16 3 17 75 18 4 19 14 20 15 23 16 24 17 25 22 26
REMARK SMILES IDX 23 27 24 28 25 29 26 31 27 32 28 33 74 34 29 35 73 36 30 37
REMARK SMILES IDX 31 38 32 39 67 40 33 41 72 42 66 43 68 44 34 45 71 46 65 47
REMARK SMILES IDX 64 48 35 50 57 51 42 52 56 53 43 54 46 55 55 56 69 57 44 58
REMARK SMILES IDX 45 59 54 61 70 62 47 63 36 64 37 65 41 66 38 67 40 68 39 69
REMARK SMILES IDX 58 70 59 71 63 72 60 73 62 74 61 75 48 76 49 77 53 78 50 79
REMARK SMILES IDX 52 80 51 81
REMARK H PARENT 20 5 14 21 14 22 24 30 68 49 46 60
REMARK Flexibility Score: inf
ROOT
ATOM      1  C   UNL A   1      36.018  21.247  24.946  1.00  0.00     0.118 C 
ENDROOT
BRANCH   1   2
ATOM      2  N   UNL A   1      35.336  21.075  26.200  1.00  0.00    -0.351 N 
ATOM      3  C   UNL A   1      34.171  21.597  26.641  1.00  0.00     0.281 C 
ATOM      4  O   UNL A   1      34.059  21.607  27.874  1.00  0.00    -0.268 OA
ATOM      5  H   UNL A   1      35.792  20.483  26.840  1.00  0.00     0.163 HD
BRANCH   3   6
ATOM      6  C   UNL A   1      33.003  22.058  25.678  1.00  0.00     0.178 C 
ATOM      7  C   UNL A   1      33.417  22.819  24.380  1.00  0.00     0.061 C 
ATOM      8  C   UNL A   1      34.047  24.093  24.930  1.00  0.00     0.011 C 
ATOM      9  C   UNL A   1      33.210  24.434  26.150  1.00  0.00     0.008 C 
ATOM     10  C   UNL A   1      32.330  23.205  26.448  1.00  0.00     0.079 C 
BRANCH   7  11
ATOM     11  C   UNL A   1      32.313  23.142  23.295  1.00  0.00     0.022 C 
BRANCH  11  12
ATOM     12  C   UNL A   1      31.798  24.566  22.940  1.00  0.00     0.080 C 
BRANCH  12  13
ATOM     13  S   UNL A   1      32.634  25.443  21.568  1.00  0.00    -0.065 SA
BRANCH  13  14
ATOM     14  C   UNL A   1      33.394  26.809  22.342  1.00  0.00     0.276 A 
ATOM     15  C   UNL A   1      33.227  29.112  24.995  1.00  0.00     0.113 C 
ATOM     16  C   UNL A   1      33.616  28.376  23.775  1.00  0.00     0.214 A 
ATOM     17  N   UNL A   1      34.194  28.802  22.672  1.00  0.00    -0.112 NA
ATOM     18  O   UNL A   1      33.171  27.087  23.667  1.00  0.00    -0.416 OA
ATOM     19  N   UNL A   1      34.067  27.774  21.745  1.00  0.00    -0.101 NA
ENDBRANCH  13  14
ENDBRANCH  12  13
ENDBRANCH  11  12
ENDBRANCH   7  11
BRANCH   6  20
ATOM     20  N   UNL A   1      32.211  20.874  25.298  1.00  0.00    -0.331 N 
ATOM     21  H   UNL A   1      31.479  21.190  24.662  1.00  0.00     0.347 HD
ATOM     22  H   UNL A   1      31.889  20.487  26.187  1.00  0.00     0.347 HD
BRANCH  20  23
ATOM     23  C   UNL A   1      32.906  19.763  24.646  1.00  0.00     0.176 C 
ATOM     24  C   UNL A   1      32.829  18.482  25.474  1.00  0.00     0.075 C 
ATOM     25  C   UNL A   1      32.208  19.549  23.298  1.00  0.00     0.075 C 
ENDBRANCH  20  23
ENDBRANCH   6  20
ENDBRANCH   3   6
ENDBRANCH   1   2
BRANCH   1  26
ATOM     26  C   UNL A   1      37.170  20.251  24.851  1.00  0.00     0.042 C 
BRANCH  26  27
ATOM     27  C   UNL A   1      38.464  20.738  25.510  1.00  0.00     0.118 C 
BRANCH  27  28
ATOM     28  N   UNL A   1      39.462  19.685  25.630  1.00  0.00    -0.352 N 
ATOM     29  C   UNL A   1      40.782  19.770  25.992  1.00  0.00     0.251 C 
ATOM     30  H   UNL A   1      39.141  18.778  25.421  1.00  0.00     0.163 HD
ATOM     31  O   UNL A   1      41.534  18.818  25.824  1.00  0.00    -0.269 OA
BRANCH  29  32
ATOM     32  C   UNL A   1      41.295  21.027  26.569  1.00  0.00     0.039 A 
ATOM     33  C   UNL A   1      41.873  21.973  25.721  1.00  0.00     0.014 A 
ATOM     34  C   UNL A   1      41.203  21.265  27.942  1.00  0.00     0.014 A 
ATOM     35  C   UNL A   1      42.308  23.190  26.247  1.00  0.00     0.010 A 
ATOM     36  C   UNL A   1      41.561  22.507  28.451  1.00  0.00     0.010 A 
ATOM     37  C   UNL A   1      42.125  23.478  27.610  1.00  0.00    -0.014 A 
BRANCH  37  38
ATOM     38  C   UNL A   1      42.527  24.788  28.177  1.00  0.00     0.031 A 
ATOM     39  C   UNL A   1      41.499  25.867  28.379  1.00  0.00     0.074 A 
ATOM     40  C   UNL A   1      43.824  25.025  28.450  1.00  0.00     0.049 A 
ATOM     41  N   UNL A   1      41.664  27.092  28.810  1.00  0.00    -0.248 NA
ATOM     42  C   UNL A   1      40.110  25.537  28.024  1.00  0.00     0.031 C 
ATOM     43  C   UNL A   1      44.921  24.073  28.256  1.00  0.00     0.029 A 
ATOM     44  N   UNL A   1      44.441  26.145  28.948  1.00  0.00    -0.354 N 
ATOM     45  C   UNL A   1      40.407  27.679  28.760  1.00  0.00     0.074 A 
ATOM     46  C   UNL A   1      39.500  26.699  28.207  1.00  0.00     0.031 C 
ATOM     47  C   UNL A   1      46.070  24.639  28.660  1.00  0.00     0.029 A 
ATOM     48  C   UNL A   1      45.799  26.003  29.101  1.00  0.00     0.049 A 
ATOM     49  H   UNL A   1      43.957  26.972  29.173  1.00  0.00     0.167 HD
ATOM     50  C   UNL A   1      40.035  28.919  29.159  1.00  0.00     0.031 A 
ATOM     51  C   UNL A   1      46.722  26.876  29.544  1.00  0.00     0.031 A 
ATOM     52  C   UNL A   1      40.935  29.889  29.721  1.00  0.00     0.049 A 
ATOM     53  C   UNL A   1      46.285  28.248  29.972  1.00  0.00     0.074 A 
ATOM     54  C   UNL A   1      40.647  31.151  30.209  1.00  0.00     0.029 A 
ATOM     55  N   UNL A   1      42.301  29.704  29.867  1.00  0.00    -0.354 N 
ATOM     56  N   UNL A   1      45.080  28.765  29.984  1.00  0.00    -0.248 NA
ATOM     57  C   UNL A   1      47.335  29.154  30.460  1.00  0.00     0.031 C 
ATOM     58  C   UNL A   1      41.848  31.750  30.604  1.00  0.00     0.029 A 
ATOM     59  C   UNL A   1      42.875  30.838  30.415  1.00  0.00     0.049 A 
ATOM     60  H   UNL A   1      42.791  28.887  29.617  1.00  0.00     0.167 HD
ATOM     61  C   UNL A   1      45.223  30.044  30.505  1.00  0.00     0.074 A 
ATOM     62  C   UNL A   1      46.627  30.218  30.812  1.00  0.00     0.031 C 
ATOM     63  C   UNL A   1      44.275  30.992  30.712  1.00  0.00     0.031 A 
BRANCH  50  64
ATOM     64  C   UNL A   1      38.587  29.293  28.993  1.00  0.00    -0.014 A 
ATOM     65  C   UNL A   1      37.684  29.204  30.064  1.00  0.00     0.009 A 
ATOM     66  C   UNL A   1      38.126  29.769  27.755  1.00  0.00     0.009 A 
ATOM     67  C   UNL A   1      36.341  29.545  29.890  1.00  0.00     0.001 A 
ATOM     68  C   UNL A   1      36.790  30.139  27.592  1.00  0.00     0.001 A 
ATOM     69  C   UNL A   1      35.896  30.016  28.655  1.00  0.00     0.000 A 
ENDBRANCH  50  64
BRANCH  51  70
ATOM     70  C   UNL A   1      48.150  26.473  29.623  1.00  0.00    -0.014 A 
ATOM     71  C   UNL A   1      49.031  26.764  28.570  1.00  0.00     0.009 A 
ATOM     72  C   UNL A   1      48.640  25.792  30.749  1.00  0.00     0.009 A 
ATOM     73  C   UNL A   1      50.367  26.357  28.631  1.00  0.00     0.001 A 
ATOM     74  C   UNL A   1      49.982  25.413  30.819  1.00  0.00     0.001 A 
ATOM     75  C   UNL A   1      50.841  25.686  29.757  1.00  0.00     0.000 A 
ENDBRANCH  51  70
BRANCH  63  76
ATOM     76  C   UNL A   1      44.723  32.285  31.331  1.00  0.00    -0.014 A 
ATOM     77  C   UNL A   1      44.792  32.444  32.723  1.00  0.00     0.009 A 
ATOM     78  C   UNL A   1      45.122  33.348  30.504  1.00  0.00     0.009 A 
ATOM     79  C   UNL A   1      45.219  33.653  33.275  1.00  0.00     0.001 A 
ATOM     80  C   UNL A   1      45.577  34.544  31.058  1.00  0.00     0.001 A 
ATOM     81  C   UNL A   1      45.615  34.699  32.443  1.00  0.00     0.000 A 
ENDBRANCH  63  76
ENDBRANCH  37  38
ENDBRANCH  29  32
ENDBRANCH  27  28
ENDBRANCH  26  27
ENDBRANCH   1  26
TORSDOF 16
ENDMDL
MODEL 3
REMARK VINA RESULT:      -9.9      3.404      5.364
REMARK SMILES Cc1nnc(SCC[C@H]2CCC[C@]2([NH2+]C(C)C)C(=O)NCCCNC(=O)c2ccc(-c3c4nc(c(-c5ccccc5)c5ccc([nH]5)c(-c5ccccc5)c5nc(c(-c6ccccc6)c6ccc3[nH]6)C=C5)C=C4)cc2)o1
REMARK SMILES IDX 21 1 20 2 18 3 19 4 13 6 9 7 10 8 11 9 12 10 8 11 7 12 6 13
REMARK SMILES IDX 5 14 1 15 2 16 3 17 75 18 4 19 14 20 15 23 16 24 17 25 22 26
REMARK SMILES IDX 23 27 24 28 25 29 26 31 27 32 28 33 74 34 29 35 73 36 30 37
REMARK SMILES IDX 31 38 32 39 67 40 33 41 72 42 66 43 68 44 34 45 71 46 65 47
REMARK SMILES IDX 64 48 35 50 57 51 42 52 56 53 43 54 46 55 55 56 69 57 44 58
REMARK SMILES IDX 45 59 54 61 70 62 47 63 36 64 37 65 41 66 38 67 40 68 39 69
REMARK SMILES IDX 58 70 59 71 63 72 60 73 62 74 61 75 48 76 49 77 53 78 50 79
REMARK SMILES IDX 52 80 51 81
REMARK H PARENT 20 5 14 21 14 22 24 30 68 49 46 60
REMARK Flexibility Score: inf
ROOT
ATOM      1  C   UNL A   1      31.993  28.382  25.370  1.00  0.00     0.118 C 
ENDROOT
BRANCH   1   2
ATOM      2  N   UNL A   1      30.917  27.524  24.953  1.00  0.00    -0.351 N 
ATOM      3  C   UNL A   1      30.938  26.251  24.501  1.00  0.00     0.281 C 
ATOM      4  O   UNL A   1      29.939  25.935  23.842  1.00  0.00    -0.268 OA
ATOM      5  H   UNL A   1      30.021  27.929  25.004  1.00  0.00     0.163 HD
BRANCH   3   6
ATOM      6  C   UNL A   1      32.079  25.216  24.866  1.00  0.00     0.178 C 
ATOM      7  C   UNL A   1      33.551  25.719  24.750  1.00  0.00     0.061 C 
ATOM      8  C   UNL A   1      33.688  25.999  23.257  1.00  0.00     0.011 C 
ATOM      9  C   UNL A   1      32.874  24.906  22.589  1.00  0.00     0.008 C 
ATOM     10  C   UNL A   1      32.050  24.220  23.696  1.00  0.00     0.079 C 
BRANCH   7  11
ATOM     11  C   UNL A   1      34.721  24.793  25.273  1.00  0.00     0.022 C 
BRANCH  11  12
ATOM     12  C   UNL A   1      35.780  24.095  24.373  1.00  0.00     0.080 C 
BRANCH  12  13
ATOM     13  S   UNL A   1      36.726  22.711  25.108  1.00  0.00    -0.065 SA
BRANCH  13  14
ATOM     14  C   UNL A   1      35.749  21.306  24.771  1.00  0.00     0.276 A 
ATOM     15  C   UNL A   1      32.507  19.943  24.805  1.00  0.00     0.113 C 
ATOM     16  C   UNL A   1      33.966  20.136  24.679  1.00  0.00     0.214 A 
ATOM     17  N   UNL A   1      34.955  19.286  24.855  1.00  0.00    -0.112 NA
ATOM     18  O   UNL A   1      34.404  21.422  24.522  1.00  0.00    -0.416 OA
ATOM     19  N   UNL A   1      36.118  20.046  24.895  1.00  0.00    -0.101 NA
ENDBRANCH  13  14
ENDBRANCH  12  13
ENDBRANCH  11  12
ENDBRANCH   7  11
BRANCH   6  20
ATOM     20  N   UNL A   1      31.853  24.731  26.240  1.00  0.00    -0.331 N 
ATOM     21  H   UNL A   1      31.057  25.246  26.616  1.00  0.00     0.347 HD
ATOM     22  H   UNL A   1      32.744  24.885  26.714  1.00  0.00     0.347 HD
BRANCH  20  23
ATOM     23  C   UNL A   1      31.579  23.306  26.429  1.00  0.00     0.176 C 
ATOM     24  C   UNL A   1      32.510  22.683  27.467  1.00  0.00     0.075 C 
ATOM     25  C   UNL A   1      30.127  23.206  26.912  1.00  0.00     0.075 C 
ENDBRANCH  20  23
ENDBRANCH   6  20
ENDBRANCH   3   6
ENDBRANCH   1   2
BRANCH   1  26
ATOM     26  C   UNL A   1      32.163  28.287  26.884  1.00  0.00     0.042 C 
BRANCH  26  27
ATOM     27  C   UNL A   1      33.536  28.746  27.381  1.00  0.00     0.118 C 
BRANCH  27  28
ATOM     28  N   UNL A   1      33.549  30.147  27.777  1.00  0.00    -0.352 N 
ATOM     29  C   UNL A   1      34.523  30.862  28.425  1.00  0.00     0.251 C 
ATOM     30  H   UNL A   1      32.739  30.656  27.544  1.00  0.00     0.163 HD
ATOM     31  O   UNL A   1      34.278  31.974  28.878  1.00  0.00    -0.269 OA
BRANCH  29  32
ATOM     32  C   UNL A   1      35.865  30.273  28.589  1.00  0.00     0.039 A 
ATOM     33  C   UNL A   1      36.751  30.300  27.512  1.00  0.00     0.014 A 
ATOM     34  C   UNL A   1      36.241  29.698  29.805  1.00  0.00     0.014 A 
ATOM     35  C   UNL A   1      38.043  29.799  27.673  1.00  0.00     0.010 A 
ATOM     36  C   UNL A   1      37.552  29.274  29.989  1.00  0.00     0.010 A 
ATOM     37  C   UNL A   1      38.462  29.312  28.922  1.00  0.00    -0.014 A 
BRANCH  37  38
ATOM     38  C   UNL A   1      39.849  28.829  29.131  1.00  0.00     0.031 A 
ATOM     39  C   UNL A   1      40.886  29.749  29.714  1.00  0.00     0.074 A 
ATOM     40  C   UNL A   1      40.187  27.587  28.738  1.00  0.00     0.049 A 
ATOM     41  N   UNL A   1      42.159  29.529  29.922  1.00  0.00    -0.248 NA
ATOM     42  C   UNL A   1      40.441  31.102  30.085  1.00  0.00     0.031 C 
ATOM     43  C   UNL A   1      39.281  26.615  28.120  1.00  0.00     0.029 A 
ATOM     44  N   UNL A   1      41.389  26.927  28.798  1.00  0.00    -0.354 N 
ATOM     45  C   UNL A   1      42.667  30.718  30.430  1.00  0.00     0.074 A 
ATOM     46  C   UNL A   1      41.581  31.672  30.448  1.00  0.00     0.031 C 
ATOM     47  C   UNL A   1      39.951  25.475  27.887  1.00  0.00     0.029 A 
ATOM     48  C   UNL A   1      41.340  25.648  28.300  1.00  0.00     0.049 A 
ATOM     49  H   UNL A   1      42.208  27.333  29.163  1.00  0.00     0.167 HD
ATOM     50  C   UNL A   1      43.922  30.987  30.863  1.00  0.00     0.031 A 
ATOM     51  C   UNL A   1      42.308  24.720  28.185  1.00  0.00     0.031 A 
ATOM     52  C   UNL A   1      44.998  30.034  30.856  1.00  0.00     0.049 A 
ATOM     53  C   UNL A   1      43.694  25.045  28.665  1.00  0.00     0.074 A 
ATOM     54  C   UNL A   1      46.290  30.189  31.326  1.00  0.00     0.029 A 
ATOM     55  N   UNL A   1      44.906  28.746  30.350  1.00  0.00    -0.354 N 
ATOM     56  N   UNL A   1      44.142  26.153  29.208  1.00  0.00    -0.248 NA
ATOM     57  C   UNL A   1      44.706  23.989  28.527  1.00  0.00     0.031 C 
ATOM     58  C   UNL A   1      46.995  29.010  31.058  1.00  0.00     0.029 A 
ATOM     59  C   UNL A   1      46.126  28.102  30.475  1.00  0.00     0.049 A 
ATOM     60  H   UNL A   1      44.094  28.348  29.961  1.00  0.00     0.167 HD
ATOM     61  C   UNL A   1      45.478  25.915  29.501  1.00  0.00     0.074 A 
ATOM     62  C   UNL A   1      45.763  24.556  29.091  1.00  0.00     0.031 C 
ATOM     63  C   UNL A   1      46.390  26.749  30.060  1.00  0.00     0.031 A 
BRANCH  50  64
ATOM     64  C   UNL A   1      44.194  32.375  31.375  1.00  0.00    -0.014 A 
ATOM     65  C   UNL A   1      44.620  33.398  30.515  1.00  0.00     0.009 A 
ATOM     66  C   UNL A   1      43.994  32.670  32.733  1.00  0.00     0.009 A 
ATOM     67  C   UNL A   1      44.879  34.679  31.009  1.00  0.00     0.001 A 
ATOM     68  C   UNL A   1      44.223  33.958  33.219  1.00  0.00     0.001 A 
ATOM     69  C   UNL A   1      44.676  34.958  32.361  1.00  0.00     0.000 A 
ENDBRANCH  50  64
BRANCH  51  70
ATOM     70  C   UNL A   1      41.996  23.386  27.609  1.00  0.00    -0.014 A 
ATOM     71  C   UNL A   1      41.528  22.349  28.429  1.00  0.00     0.009 A 
ATOM     72  C   UNL A   1      42.170  23.141  26.237  1.00  0.00     0.009 A 
ATOM     73  C   UNL A   1      41.265  21.085  27.892  1.00  0.00     0.001 A 
ATOM     74  C   UNL A   1      41.878  21.886  25.699  1.00  0.00     0.001 A 
ATOM     75  C   UNL A   1      41.437  20.857  26.529  1.00  0.00     0.000 A 
ENDBRANCH  51  70
BRANCH  63  76
ATOM     76  C   UNL A   1      47.768  26.200  30.293  1.00  0.00    -0.014 A 
ATOM     77  C   UNL A   1      48.722  26.160  29.264  1.00  0.00     0.009 A 
ATOM     78  C   UNL A   1      48.130  25.753  31.574  1.00  0.00     0.009 A 
ATOM     79  C   UNL A   1      49.999  25.651  29.506  1.00  0.00     0.001 A 
ATOM     80  C   UNL A   1      49.416  25.274  31.820  1.00  0.00     0.001 A 
ATOM     81  C   UNL A   1      50.346  25.214  30.784  1.00  0.00     0.000 A 
ENDBRANCH  63  76
ENDBRANCH  37  38
ENDBRANCH  29  32
ENDBRANCH  27  28
ENDBRANCH  26  27
ENDBRANCH   1  26
TORSDOF 16
ENDMDL
