MODEL 1
REMARK VINA RESULT:     -11.6      0.000      0.000
REMARK SMILES C[C@@H]1C(=O)NC(=O)CN1C(=O)NC1(CC(=O)NCCCNC(=O)c2ccc(-c3c4nc(c(-c5ccccc5)c5ccc([nH]5)c(-c5ccccc5)c5nc(c(-c6ccccc6)c6ccc3[nH]6)C=C5)C=C4)cc2)CCC1
REMARK SMILES IDX 18 1 17 2 15 3 16 4 14 6 13 7 72 8 74 9 73 10 12 11 10 12
REMARK SMILES IDX 11 13 9 15 1 16 2 17 3 18 4 19 5 20 8 21 6 22 7 24 19 25
REMARK SMILES IDX 20 26 21 27 22 28 23 30 24 31 25 32 71 33 26 34 70 35 27 36
REMARK SMILES IDX 28 37 29 38 64 39 30 40 69 41 63 42 65 43 31 44 68 45 62 46
REMARK SMILES IDX 61 47 32 49 54 50 39 51 53 52 40 53 43 54 52 55 66 56 41 57
REMARK SMILES IDX 42 58 51 60 67 61 44 62 33 63 34 64 38 65 35 66 37 67 36 68
REMARK SMILES IDX 55 69 56 70 60 71 57 72 59 73 58 74 45 75 46 76 50 77 47 78
REMARK SMILES IDX 49 79 48 80
REMARK H PARENT 17 5 12 14 5 23 21 29 65 48 43 59
REMARK Flexibility Score: inf
ROOT
ATOM      1  C   UNL A   1      36.622  20.597  25.018  1.00  0.00     0.117 C 
ENDROOT
BRANCH   1   2
ATOM      2  N   UNL A   1      36.844  21.707  24.116  1.00  0.00    -0.356 N 
ATOM      3  C   UNL A   1      35.927  22.625  23.701  1.00  0.00     0.222 C 
ATOM      4  O   UNL A   1      36.236  23.350  22.760  1.00  0.00    -0.275 OA
ATOM      5  H   UNL A   1      37.758  21.810  23.766  1.00  0.00     0.163 HD
BRANCH   3   6
ATOM      6  C   UNL A   1      34.646  22.752  24.497  1.00  0.00     0.128 C 
BRANCH   6   7
ATOM      7  C   UNL A   1      33.293  22.804  23.758  1.00  0.00     0.051 C 
ATOM      8  C   UNL A   1      31.989  22.895  24.627  1.00  0.00     0.029 C 
ATOM      9  C   UNL A   1      32.820  21.320  23.478  1.00  0.00     0.029 C 
ATOM     10  C   UNL A   1      32.077  21.371  24.830  1.00  0.00     0.005 C 
BRANCH   7  11
ATOM     11  N   UNL A   1      33.216  23.605  22.523  1.00  0.00    -0.332 N 
ATOM     12  C   UNL A   1      32.941  24.865  22.128  1.00  0.00     0.318 C 
ATOM     13  O   UNL A   1      32.913  25.005  20.898  1.00  0.00    -0.249 OA
ATOM     14  H   UNL A   1      33.430  23.044  21.741  1.00  0.00     0.165 HD
BRANCH  12  15
ATOM     15  N   UNL A   1      32.712  25.920  22.960  1.00  0.00    -0.304 N 
ATOM     16  C   UNL A   1      33.823  26.922  24.975  1.00  0.00     0.042 C 
ATOM     17  C   UNL A   1      33.666  26.903  23.458  1.00  0.00     0.174 C 
ATOM     18  C   UNL A   1      33.396  28.304  22.877  1.00  0.00     0.249 C 
ATOM     19  O   UNL A   1      34.212  29.221  22.973  1.00  0.00    -0.272 OA
ATOM     20  N   UNL A   1      32.151  28.528  22.344  1.00  0.00    -0.293 N 
ATOM     21  C   UNL A   1      31.312  26.340  23.107  1.00  0.00     0.222 C 
ATOM     22  C   UNL A   1      31.079  27.666  22.383  1.00  0.00     0.246 C 
ATOM     23  H   UNL A   1      32.012  29.389  21.890  1.00  0.00     0.173 HD
ATOM     24  O   UNL A   1      29.963  28.057  22.042  1.00  0.00    -0.273 OA
ENDBRANCH  12  15
ENDBRANCH   7  11
ENDBRANCH   6   7
ENDBRANCH   3   6
ENDBRANCH   1   2
BRANCH   1  25
ATOM     25  C   UNL A   1      37.823  19.658  24.976  1.00  0.00     0.042 C 
BRANCH  25  26
ATOM     26  C   UNL A   1      39.010  20.249  25.728  1.00  0.00     0.118 C 
BRANCH  26  27
ATOM     27  N   UNL A   1      40.033  19.234  25.941  1.00  0.00    -0.352 N 
ATOM     28  C   UNL A   1      41.390  19.413  26.037  1.00  0.00     0.251 C 
ATOM     29  H   UNL A   1      39.713  18.307  26.025  1.00  0.00     0.163 HD
ATOM     30  O   UNL A   1      42.161  18.504  25.761  1.00  0.00    -0.269 OA
BRANCH  28  31
ATOM     31  C   UNL A   1      41.900  20.719  26.497  1.00  0.00     0.039 A 
ATOM     32  C   UNL A   1      42.032  20.976  27.863  1.00  0.00     0.014 A 
ATOM     33  C   UNL A   1      42.216  21.701  25.554  1.00  0.00     0.014 A 
ATOM     34  C   UNL A   1      42.513  22.217  28.280  1.00  0.00     0.010 A 
ATOM     35  C   UNL A   1      42.791  22.890  25.965  1.00  0.00     0.010 A 
ATOM     36  C   UNL A   1      42.910  23.173  27.332  1.00  0.00    -0.014 A 
BRANCH  36  37
ATOM     37  C   UNL A   1      43.397  24.515  27.724  1.00  0.00     0.031 A 
ATOM     38  C   UNL A   1      42.401  25.572  28.117  1.00  0.00     0.074 A 
ATOM     39  C   UNL A   1      44.706  24.808  27.621  1.00  0.00     0.049 A 
ATOM     40  N   UNL A   1      42.595  26.841  28.357  1.00  0.00    -0.248 NA
ATOM     41  C   UNL A   1      40.991  25.151  28.205  1.00  0.00     0.031 C 
ATOM     42  C   UNL A   1      45.755  23.878  27.199  1.00  0.00     0.029 A 
ATOM     43  N   UNL A   1      45.371  25.984  27.844  1.00  0.00    -0.354 N 
ATOM     44  C   UNL A   1      41.331  27.376  28.579  1.00  0.00     0.074 A 
ATOM     45  C   UNL A   1      40.377  26.308  28.395  1.00  0.00     0.031 C 
ATOM     46  C   UNL A   1      46.936  24.516  27.211  1.00  0.00     0.029 A 
ATOM     47  C   UNL A   1      46.720  25.906  27.599  1.00  0.00     0.049 A 
ATOM     48  H   UNL A   1      44.926  26.807  28.152  1.00  0.00     0.167 HD
ATOM     49  C   UNL A   1      40.998  28.642  28.925  1.00  0.00     0.031 A 
ATOM     50  C   UNL A   1      47.673  26.854  27.668  1.00  0.00     0.031 A 
ATOM     51  C   UNL A   1      41.959  29.687  29.140  1.00  0.00     0.049 A 
ATOM     52  C   UNL A   1      47.286  28.245  28.084  1.00  0.00     0.074 A 
ATOM     53  C   UNL A   1      41.744  30.979  29.581  1.00  0.00     0.029 A 
ATOM     54  N   UNL A   1      43.324  29.554  28.928  1.00  0.00    -0.354 N 
ATOM     55  N   UNL A   1      46.098  28.719  28.371  1.00  0.00    -0.248 NA
ATOM     56  C   UNL A   1      48.372  29.227  28.197  1.00  0.00     0.031 C 
ATOM     57  C   UNL A   1      42.974  31.645  29.588  1.00  0.00     0.029 A 
ATOM     58  C   UNL A   1      43.961  30.750  29.205  1.00  0.00     0.049 A 
ATOM     59  H   UNL A   1      43.772  28.731  28.626  1.00  0.00     0.167 HD
ATOM     60  C   UNL A   1      46.294  30.047  28.723  1.00  0.00     0.074 A 
ATOM     61  C   UNL A   1      47.718  30.300  28.623  1.00  0.00     0.031 C 
ATOM     62  C   UNL A   1      45.380  30.974  29.099  1.00  0.00     0.031 A 
BRANCH  49  63
ATOM     63  C   UNL A   1      39.535  28.956  29.078  1.00  0.00    -0.014 A 
ATOM     64  C   UNL A   1      38.872  28.783  30.304  1.00  0.00     0.009 A 
ATOM     65  C   UNL A   1      38.810  29.436  27.977  1.00  0.00     0.009 A 
ATOM     66  C   UNL A   1      37.503  29.037  30.410  1.00  0.00     0.001 A 
ATOM     67  C   UNL A   1      37.448  29.722  28.095  1.00  0.00     0.001 A 
ATOM     68  C   UNL A   1      36.793  29.509  29.307  1.00  0.00     0.000 A 
ENDBRANCH  49  63
BRANCH  50  69
ATOM     69  C   UNL A   1      49.081  26.503  27.355  1.00  0.00    -0.014 A 
ATOM     70  C   UNL A   1      49.917  25.967  28.346  1.00  0.00     0.009 A 
ATOM     71  C   UNL A   1      49.586  26.664  26.055  1.00  0.00     0.009 A 
ATOM     72  C   UNL A   1      51.235  25.616  28.046  1.00  0.00     0.001 A 
ATOM     73  C   UNL A   1      50.896  26.288  25.751  1.00  0.00     0.001 A 
ATOM     74  C   UNL A   1      51.721  25.770  26.748  1.00  0.00     0.000 A 
ENDBRANCH  50  69
BRANCH  62  75
ATOM     75  C   UNL A   1      45.891  32.339  29.460  1.00  0.00    -0.014 A 
ATOM     76  C   UNL A   1      45.965  33.364  28.506  1.00  0.00     0.009 A 
ATOM     77  C   UNL A   1      46.233  32.618  30.794  1.00  0.00     0.009 A 
ATOM     78  C   UNL A   1      46.394  34.639  28.878  1.00  0.00     0.001 A 
ATOM     79  C   UNL A   1      46.635  33.900  31.166  1.00  0.00     0.001 A 
ATOM     80  C   UNL A   1      46.721  34.907  30.208  1.00  0.00     0.000 A 
ENDBRANCH  62  75
ENDBRANCH  36  37
ENDBRANCH  28  31
ENDBRANCH  26  27
ENDBRANCH  25  26
ENDBRANCH   1  25
TORSDOF 13
ENDMDL
MODEL 2
REMARK VINA RESULT:     -11.6      4.859     10.004
REMARK SMILES C[C@@H]1C(=O)NC(=O)CN1C(=O)NC1(CC(=O)NCCCNC(=O)c2ccc(-c3c4nc(c(-c5ccccc5)c5ccc([nH]5)c(-c5ccccc5)c5nc(c(-c6ccccc6)c6ccc3[nH]6)C=C5)C=C4)cc2)CCC1
REMARK SMILES IDX 18 1 17 2 15 3 16 4 14 6 13 7 72 8 74 9 73 10 12 11 10 12
REMARK SMILES IDX 11 13 9 15 1 16 2 17 3 18 4 19 5 20 8 21 6 22 7 24 19 25
REMARK SMILES IDX 20 26 21 27 22 28 23 30 24 31 25 32 71 33 26 34 70 35 27 36
REMARK SMILES IDX 28 37 29 38 64 39 30 40 69 41 63 42 65 43 31 44 68 45 62 46
REMARK SMILES IDX 61 47 32 49 54 50 39 51 53 52 40 53 43 54 52 55 66 56 41 57
REMARK SMILES IDX 42 58 51 60 67 61 44 62 33 63 34 64 38 65 35 66 37 67 36 68
REMARK SMILES IDX 55 69 56 70 60 71 57 72 59 73 58 74 45 75 46 76 50 77 47 78
REMARK SMILES IDX 49 79 48 80
REMARK H PARENT 17 5 12 14 5 23 21 29 65 48 43 59
REMARK Flexibility Score: inf
ROOT
ATOM      1  C   UNL A   1      31.563  30.447  25.945  1.00  0.00     0.117 C 
ENDROOT
BRANCH   1   2
ATOM      2  N   UNL A   1      31.767  29.599  27.100  1.00  0.00    -0.356 N 
ATOM      3  C   UNL A   1      31.542  28.258  27.186  1.00  0.00     0.222 C 
ATOM      4  O   UNL A   1      31.548  27.752  28.305  1.00  0.00    -0.275 OA
ATOM      5  H   UNL A   1      32.106  30.040  27.913  1.00  0.00     0.163 HD
BRANCH   3   6
ATOM      6  C   UNL A   1      31.411  27.481  25.894  1.00  0.00     0.128 C 
BRANCH   6   7
ATOM      7  C   UNL A   1      32.297  26.240  25.660  1.00  0.00     0.051 C 
ATOM      8  C   UNL A   1      33.807  26.479  25.300  1.00  0.00     0.029 C 
ATOM      9  C   UNL A   1      32.163  25.810  24.143  1.00  0.00     0.029 C 
ATOM     10  C   UNL A   1      33.370  26.723  23.844  1.00  0.00     0.005 C 
BRANCH   7  11
ATOM     11  N   UNL A   1      32.095  25.075  26.540  1.00  0.00    -0.332 N 
ATOM     12  C   UNL A   1      32.343  23.749  26.567  1.00  0.00     0.318 C 
ATOM     13  O   UNL A   1      31.852  23.172  27.545  1.00  0.00    -0.249 OA
ATOM     14  H   UNL A   1      31.634  25.350  27.366  1.00  0.00     0.165 HD
BRANCH  12  15
ATOM     15  N   UNL A   1      33.062  23.062  25.634  1.00  0.00    -0.304 N 
ATOM     16  C   UNL A   1      35.109  23.482  24.244  1.00  0.00     0.042 C 
ATOM     17  C   UNL A   1      34.509  22.923  25.530  1.00  0.00     0.174 C 
ATOM     18  C   UNL A   1      34.964  21.478  25.812  1.00  0.00     0.249 C 
ATOM     19  O   UNL A   1      36.144  21.190  26.011  1.00  0.00    -0.272 OA
ATOM     20  N   UNL A   1      34.010  20.495  25.717  1.00  0.00    -0.293 N 
ATOM     21  C   UNL A   1      32.322  22.066  24.848  1.00  0.00     0.222 C 
ATOM     22  C   UNL A   1      32.716  20.654  25.279  1.00  0.00     0.246 C 
ATOM     23  H   UNL A   1      34.279  19.589  25.989  1.00  0.00     0.173 HD
ATOM     24  O   UNL A   1      32.016  19.666  25.056  1.00  0.00    -0.273 OA
ENDBRANCH  12  15
ENDBRANCH   7  11
ENDBRANCH   6   7
ENDBRANCH   3   6
ENDBRANCH   1   2
BRANCH   1  25
ATOM     25  C   UNL A   1      31.363  31.888  26.400  1.00  0.00     0.042 C 
BRANCH  25  26
ATOM     26  C   UNL A   1      32.556  32.381  27.210  1.00  0.00     0.118 C 
BRANCH  26  27
ATOM     27  N   UNL A   1      32.439  33.810  27.469  1.00  0.00    -0.352 N 
ATOM     28  C   UNL A   1      33.034  34.535  28.470  1.00  0.00     0.251 C 
ATOM     29  H   UNL A   1      31.865  34.317  26.852  1.00  0.00     0.163 HD
ATOM     30  O   UNL A   1      32.534  35.580  28.866  1.00  0.00    -0.269 OA
BRANCH  28  31
ATOM     31  C   UNL A   1      34.297  34.040  29.048  1.00  0.00     0.039 A 
ATOM     32  C   UNL A   1      35.512  34.333  28.426  1.00  0.00     0.014 A 
ATOM     33  C   UNL A   1      34.260  33.250  30.201  1.00  0.00     0.014 A 
ATOM     34  C   UNL A   1      36.698  33.854  28.986  1.00  0.00     0.010 A 
ATOM     35  C   UNL A   1      35.441  32.866  30.810  1.00  0.00     0.010 A 
ATOM     36  C   UNL A   1      36.668  33.132  30.189  1.00  0.00    -0.014 A 
BRANCH  36  37
ATOM     37  C   UNL A   1      37.894  32.577  30.804  1.00  0.00     0.031 A 
ATOM     38  C   UNL A   1      38.527  31.352  30.203  1.00  0.00     0.074 A 
ATOM     39  C   UNL A   1      38.364  33.102  31.951  1.00  0.00     0.049 A 
ATOM     40  N   UNL A   1      39.512  30.623  30.657  1.00  0.00    -0.248 NA
ATOM     41  C   UNL A   1      37.942  30.855  28.944  1.00  0.00     0.031 C 
ATOM     42  C   UNL A   1      37.798  34.255  32.652  1.00  0.00     0.029 A 
ATOM     43  N   UNL A   1      39.416  32.714  32.737  1.00  0.00    -0.354 N 
ATOM     44  C   UNL A   1      39.632  29.562  29.767  1.00  0.00     0.074 A 
ATOM     45  C   UNL A   1      38.590  29.713  28.778  1.00  0.00     0.031 C 
ATOM     46  C   UNL A   1      38.522  34.492  33.757  1.00  0.00     0.029 A 
ATOM     47  C   UNL A   1      39.572  33.485  33.863  1.00  0.00     0.049 A 
ATOM     48  H   UNL A   1      40.006  31.957  32.516  1.00  0.00     0.167 HD
ATOM     49  C   UNL A   1      40.544  28.562  29.764  1.00  0.00     0.031 A 
ATOM     50  C   UNL A   1      40.455  33.381  34.872  1.00  0.00     0.031 A 
ATOM     51  C   UNL A   1      41.597  28.442  30.732  1.00  0.00     0.049 A 
ATOM     52  C   UNL A   1      41.478  32.280  34.833  1.00  0.00     0.074 A 
ATOM     53  C   UNL A   1      42.630  27.523  30.773  1.00  0.00     0.029 A 
ATOM     54  N   UNL A   1      41.751  29.272  31.832  1.00  0.00    -0.354 N 
ATOM     55  N   UNL A   1      41.634  31.331  33.943  1.00  0.00    -0.248 NA
ATOM     56  C   UNL A   1      42.454  32.245  35.931  1.00  0.00     0.031 C 
ATOM     57  C   UNL A   1      43.380  27.768  31.928  1.00  0.00     0.029 A 
ATOM     58  C   UNL A   1      42.847  28.873  32.574  1.00  0.00     0.049 A 
ATOM     59  H   UNL A   1      41.166  30.034  32.051  1.00  0.00     0.167 HD
ATOM     60  C   UNL A   1      42.738  30.599  34.357  1.00  0.00     0.074 A 
ATOM     61  C   UNL A   1      43.220  31.223  35.574  1.00  0.00     0.031 C 
ATOM     62  C   UNL A   1      43.306  29.511  33.781  1.00  0.00     0.031 A 
BRANCH  49  63
ATOM     63  C   UNL A   1      40.424  27.520  28.685  1.00  0.00    -0.014 A 
ATOM     64  C   UNL A   1      41.070  27.669  27.447  1.00  0.00     0.009 A 
ATOM     65  C   UNL A   1      39.656  26.368  28.914  1.00  0.00     0.009 A 
ATOM     66  C   UNL A   1      40.907  26.710  26.444  1.00  0.00     0.001 A 
ATOM     67  C   UNL A   1      39.522  25.395  27.922  1.00  0.00     0.001 A 
ATOM     68  C   UNL A   1      40.137  25.574  26.683  1.00  0.00     0.000 A 
ENDBRANCH  49  63
BRANCH  50  69
ATOM     69  C   UNL A   1      40.416  34.362  35.986  1.00  0.00    -0.014 A 
ATOM     70  C   UNL A   1      41.112  35.576  35.887  1.00  0.00     0.009 A 
ATOM     71  C   UNL A   1      39.653  34.107  37.136  1.00  0.00     0.009 A 
ATOM     72  C   UNL A   1      41.056  36.509  36.926  1.00  0.00     0.001 A 
ATOM     73  C   UNL A   1      39.578  35.053  38.161  1.00  0.00     0.001 A 
ATOM     74  C   UNL A   1      40.285  36.249  38.058  1.00  0.00     0.000 A 
ENDBRANCH  50  69
BRANCH  62  75
ATOM     75  C   UNL A   1      44.529  28.943  34.439  1.00  0.00    -0.014 A 
ATOM     76  C   UNL A   1      44.434  27.912  35.385  1.00  0.00     0.009 A 
ATOM     77  C   UNL A   1      45.799  29.399  34.049  1.00  0.00     0.009 A 
ATOM     78  C   UNL A   1      45.589  27.364  35.945  1.00  0.00     0.001 A 
ATOM     79  C   UNL A   1      46.951  28.829  34.590  1.00  0.00     0.001 A 
ATOM     80  C   UNL A   1      46.845  27.817  35.542  1.00  0.00     0.000 A 
ENDBRANCH  62  75
ENDBRANCH  36  37
ENDBRANCH  28  31
ENDBRANCH  26  27
ENDBRANCH  25  26
ENDBRANCH   1  25
TORSDOF 13
ENDMDL
MODEL 3
REMARK VINA RESULT:     -11.6      4.778     10.003
REMARK SMILES C[C@@H]1C(=O)NC(=O)CN1C(=O)NC1(CC(=O)NCCCNC(=O)c2ccc(-c3c4nc(c(-c5ccccc5)c5ccc([nH]5)c(-c5ccccc5)c5nc(c(-c6ccccc6)c6ccc3[nH]6)C=C5)C=C4)cc2)CCC1
REMARK SMILES IDX 18 1 17 2 15 3 16 4 14 6 13 7 72 8 74 9 73 10 12 11 10 12
REMARK SMILES IDX 11 13 9 15 1 16 2 17 3 18 4 19 5 20 8 21 6 22 7 24 19 25
REMARK SMILES IDX 20 26 21 27 22 28 23 30 24 31 25 32 71 33 26 34 70 35 27 36
REMARK SMILES IDX 28 37 29 38 64 39 30 40 69 41 63 42 65 43 31 44 68 45 62 46
REMARK SMILES IDX 61 47 32 49 54 50 39 51 53 52 40 53 43 54 52 55 66 56 41 57
REMARK SMILES IDX 42 58 51 60 67 61 44 62 33 63 34 64 38 65 35 66 37 67 36 68
REMARK SMILES IDX 55 69 56 70 60 71 57 72 59 73 58 74 45 75 46 76 50 77 47 78
REMARK SMILES IDX 49 79 48 80
REMARK H PARENT 17 5 12 14 5 23 21 29 65 48 43 59
REMARK Flexibility Score: inf
ROOT
ATOM      1  C   UNL A   1      31.385  30.681  26.347  1.00  0.00     0.117 C 
ENDROOT
BRANCH   1   2
ATOM      2  N   UNL A   1      32.535  30.276  25.568  1.00  0.00    -0.356 N 
ATOM      3  C   UNL A   1      32.675  29.131  24.842  1.00  0.00     0.222 C 
ATOM      4  O   UNL A   1      33.799  28.849  24.438  1.00  0.00    -0.275 OA
ATOM      5  H   UNL A   1      33.300  30.896  25.561  1.00  0.00     0.163 HD
BRANCH   3   6
ATOM      6  C   UNL A   1      31.421  28.357  24.497  1.00  0.00     0.128 C 
BRANCH   6   7
ATOM      7  C   UNL A   1      31.034  28.155  23.018  1.00  0.00     0.051 C 
ATOM      8  C   UNL A   1      30.296  29.334  22.288  1.00  0.00     0.029 C 
ATOM      9  C   UNL A   1      29.623  27.442  22.963  1.00  0.00     0.029 C 
ATOM     10  C   UNL A   1      28.985  28.846  22.932  1.00  0.00     0.005 C 
BRANCH   7  11
ATOM     11  N   UNL A   1      31.994  27.454  22.146  1.00  0.00    -0.332 N 
ATOM     12  C   UNL A   1      32.720  26.317  22.119  1.00  0.00     0.318 C 
ATOM     13  O   UNL A   1      33.490  26.243  21.153  1.00  0.00    -0.249 OA
ATOM     14  H   UNL A   1      32.156  27.979  21.329  1.00  0.00     0.165 HD
BRANCH  12  15
ATOM     15  N   UNL A   1      32.650  25.314  23.039  1.00  0.00    -0.304 N 
ATOM     16  C   UNL A   1      30.829  24.056  24.223  1.00  0.00     0.042 C 
ATOM     17  C   UNL A   1      31.782  24.142  23.036  1.00  0.00     0.174 C 
ATOM     18  C   UNL A   1      32.582  22.842  22.828  1.00  0.00     0.249 C 
ATOM     19  O   UNL A   1      32.036  21.773  22.555  1.00  0.00    -0.272 OA
ATOM     20  N   UNL A   1      33.932  22.895  23.074  1.00  0.00    -0.293 N 
ATOM     21  C   UNL A   1      33.791  25.191  23.956  1.00  0.00     0.222 C 
ATOM     22  C   UNL A   1      34.624  23.960  23.602  1.00  0.00     0.246 C 
ATOM     23  H   UNL A   1      34.455  22.092  22.850  1.00  0.00     0.173 HD
ATOM     24  O   UNL A   1      35.795  23.819  23.955  1.00  0.00    -0.273 OA
ENDBRANCH  12  15
ENDBRANCH   7  11
ENDBRANCH   6   7
ENDBRANCH   3   6
ENDBRANCH   1   2
BRANCH   1  25
ATOM     25  C   UNL A   1      31.381  32.197  26.500  1.00  0.00     0.042 C 
BRANCH  25  26
ATOM     26  C   UNL A   1      32.626  32.680  27.236  1.00  0.00     0.118 C 
BRANCH  26  27
ATOM     27  N   UNL A   1      32.514  34.099  27.548  1.00  0.00    -0.352 N 
ATOM     28  C   UNL A   1      33.091  34.780  28.589  1.00  0.00     0.251 C 
ATOM     29  H   UNL A   1      31.956  34.634  26.938  1.00  0.00     0.163 HD
ATOM     30  O   UNL A   1      32.590  35.812  29.014  1.00  0.00    -0.269 OA
BRANCH  28  31
ATOM     31  C   UNL A   1      34.338  34.252  29.174  1.00  0.00     0.039 A 
ATOM     32  C   UNL A   1      35.563  34.504  28.554  1.00  0.00     0.014 A 
ATOM     33  C   UNL A   1      34.274  33.474  30.334  1.00  0.00     0.014 A 
ATOM     34  C   UNL A   1      36.732  33.995  29.121  1.00  0.00     0.010 A 
ATOM     35  C   UNL A   1      35.441  33.060  30.950  1.00  0.00     0.010 A 
ATOM     36  C   UNL A   1      36.677  33.284  30.330  1.00  0.00    -0.014 A 
BRANCH  36  37
ATOM     37  C   UNL A   1      37.884  32.698  30.953  1.00  0.00     0.031 A 
ATOM     38  C   UNL A   1      38.510  31.477  30.336  1.00  0.00     0.074 A 
ATOM     39  C   UNL A   1      38.342  33.191  32.119  1.00  0.00     0.049 A 
ATOM     40  N   UNL A   1      39.477  30.724  30.791  1.00  0.00    -0.248 NA
ATOM     41  C   UNL A   1      37.939  31.016  29.058  1.00  0.00     0.031 C 
ATOM     42  C   UNL A   1      37.782  34.338  32.835  1.00  0.00     0.029 A 
ATOM     43  N   UNL A   1      39.376  32.771  32.914  1.00  0.00    -0.354 N 
ATOM     44  C   UNL A   1      39.596  29.681  29.881  1.00  0.00     0.074 A 
ATOM     45  C   UNL A   1      38.574  29.868  28.878  1.00  0.00     0.031 C 
ATOM     46  C   UNL A   1      38.490  34.541  33.957  1.00  0.00     0.029 A 
ATOM     47  C   UNL A   1      39.523  33.516  34.058  1.00  0.00     0.049 A 
ATOM     48  H   UNL A   1      39.958  32.010  32.687  1.00  0.00     0.167 HD
ATOM     49  C   UNL A   1      40.494  28.667  29.871  1.00  0.00     0.031 A 
ATOM     50  C   UNL A   1      40.388  33.377  35.080  1.00  0.00     0.031 A 
ATOM     51  C   UNL A   1      41.529  28.512  30.853  1.00  0.00     0.049 A 
ATOM     52  C   UNL A   1      41.395  32.263  35.034  1.00  0.00     0.074 A 
ATOM     53  C   UNL A   1      42.548  27.577  30.893  1.00  0.00     0.029 A 
ATOM     54  N   UNL A   1      41.676  29.316  31.974  1.00  0.00    -0.354 N 
ATOM     55  N   UNL A   1      41.552  31.331  34.126  1.00  0.00    -0.248 NA
ATOM     56  C   UNL A   1      42.351  32.190  36.147  1.00  0.00     0.031 C 
ATOM     57  C   UNL A   1      43.282  27.787  32.065  1.00  0.00     0.029 A 
ATOM     58  C   UNL A   1      42.753  28.884  32.726  1.00  0.00     0.049 A 
ATOM     59  H   UNL A   1      41.098  30.081  32.200  1.00  0.00     0.167 HD
ATOM     60  C   UNL A   1      42.639  30.574  34.543  1.00  0.00     0.074 A 
ATOM     61  C   UNL A   1      43.108  31.164  35.781  1.00  0.00     0.031 C 
ATOM     62  C   UNL A   1      43.201  29.491  33.953  1.00  0.00     0.031 A 
BRANCH  49  63
ATOM     63  C   UNL A   1      40.378  27.651  28.768  1.00  0.00    -0.014 A 
ATOM     64  C   UNL A   1      41.035  27.824  27.539  1.00  0.00     0.009 A 
ATOM     65  C   UNL A   1      39.601  26.499  28.965  1.00  0.00     0.009 A 
ATOM     66  C   UNL A   1      40.875  26.889  26.513  1.00  0.00     0.001 A 
ATOM     67  C   UNL A   1      39.471  25.549  27.950  1.00  0.00     0.001 A 
ATOM     68  C   UNL A   1      40.097  25.752  26.721  1.00  0.00     0.000 A 
ENDBRANCH  49  63
BRANCH  50  69
ATOM     69  C   UNL A   1      40.344  34.335  36.214  1.00  0.00    -0.014 A 
ATOM     70  C   UNL A   1      41.060  35.539  36.154  1.00  0.00     0.009 A 
ATOM     71  C   UNL A   1      39.555  34.068  37.345  1.00  0.00     0.009 A 
ATOM     72  C   UNL A   1      41.000  36.450  37.212  1.00  0.00     0.001 A 
ATOM     73  C   UNL A   1      39.476  34.993  38.388  1.00  0.00     0.001 A 
ATOM     74  C   UNL A   1      40.204  36.180  38.323  1.00  0.00     0.000 A 
ENDBRANCH  50  69
BRANCH  62  75
ATOM     75  C   UNL A   1      44.404  28.891  34.619  1.00  0.00    -0.014 A 
ATOM     76  C   UNL A   1      44.277  27.848  35.548  1.00  0.00     0.009 A 
ATOM     77  C   UNL A   1      45.688  29.329  34.254  1.00  0.00     0.009 A 
ATOM     78  C   UNL A   1      45.414  27.270  36.116  1.00  0.00     0.001 A 
ATOM     79  C   UNL A   1      46.821  28.731  34.802  1.00  0.00     0.001 A 
ATOM     80  C   UNL A   1      46.684  27.707  35.736  1.00  0.00     0.000 A 
ENDBRANCH  62  75
ENDBRANCH  36  37
ENDBRANCH  28  31
ENDBRANCH  26  27
ENDBRANCH  25  26
ENDBRANCH   1  25
TORSDOF 13
ENDMDL
