MODEL 1
REMARK VINA RESULT:     -12.7      0.000      0.000
REMARK SMILES O=C(NCCCNC(=O)[C@H](c1c[nH]c2cc(F)ccc12)[NH+]1CCN(c2ccccc2)CC1)c1ccc(-c2c3nc(c(-c4ccccc4)c4ccc([nH]4)c(-c4ccccc4)c4nc(c(-c5ccccc5)c5ccc2[nH]5)C=C4)C=C3)cc1
REMARK SMILES IDX 5 1 4 2 3 3 1 4 2 5 33 7 34 8 80 9 35 10 79 11 36 12 37 13
REMARK SMILES IDX 38 14 73 15 39 16 78 17 72 18 74 19 40 20 77 21 71 22 70 23
REMARK SMILES IDX 41 25 63 26 48 27 62 28 49 29 52 30 61 31 75 32 50 33 51 34
REMARK SMILES IDX 60 36 76 37 53 38 42 39 43 40 47 41 44 42 46 43 45 44 64 45
REMARK SMILES IDX 65 46 69 47 66 48 68 49 67 50 54 51 55 52 59 53 56 54 58 55
REMARK SMILES IDX 57 56 6 57 7 58 8 59 9 61 10 62 21 63 22 64 32 65 23 67
REMARK SMILES IDX 31 68 24 69 25 70 26 71 30 72 27 73 29 74 28 75 11 76 12 77
REMARK SMILES IDX 20 78 13 79 14 80 19 81 15 83 18 84 16 85 17 86
REMARK H PARENT 3 6 74 24 52 35 7 60 21 66 13 82
REMARK Flexibility Score: inf
ROOT
ATOM      1  C   UNL A   1      32.252  28.103  27.279  1.00  0.00     0.042 C 
ENDROOT
BRANCH   1   2
ATOM      2  C   UNL A   1      33.671  28.653  27.321  1.00  0.00     0.118 C 
BRANCH   2   3
ATOM      3  N   UNL A   1      33.689  30.072  27.642  1.00  0.00    -0.352 N 
ATOM      4  O   UNL A   1      34.350  31.901  28.774  1.00  0.00    -0.269 OA
ATOM      5  C   UNL A   1      34.629  30.793  28.331  1.00  0.00     0.251 C 
ATOM      6  H   UNL A   1      32.916  30.587  27.320  1.00  0.00     0.163 HD
BRANCH   5   7
ATOM      7  C   UNL A   1      35.982  30.235  28.529  1.00  0.00     0.039 A 
ATOM      8  C   UNL A   1      36.939  30.326  27.514  1.00  0.00     0.014 A 
ATOM      9  C   UNL A   1      36.312  29.672  29.764  1.00  0.00     0.014 A 
ATOM     10  C   UNL A   1      38.194  29.760  27.694  1.00  0.00     0.010 A 
ATOM     11  C   UNL A   1      37.602  29.183  29.974  1.00  0.00     0.010 A 
ATOM     12  C   UNL A   1      38.548  29.215  28.936  1.00  0.00    -0.014 A 
BRANCH  12  13
ATOM     13  C   UNL A   1      39.943  28.775  29.167  1.00  0.00     0.031 A 
ATOM     14  C   UNL A   1      40.956  29.697  29.773  1.00  0.00     0.074 A 
ATOM     15  C   UNL A   1      40.288  27.525  28.802  1.00  0.00     0.049 A 
ATOM     16  N   UNL A   1      42.225  29.481  30.010  1.00  0.00    -0.248 NA
ATOM     17  C   UNL A   1      40.491  31.041  30.151  1.00  0.00     0.031 C 
ATOM     18  C   UNL A   1      39.385  26.546  28.189  1.00  0.00     0.029 A 
ATOM     19  N   UNL A   1      41.485  26.865  28.888  1.00  0.00    -0.354 N 
ATOM     20  C   UNL A   1      42.716  30.665  30.541  1.00  0.00     0.074 A 
ATOM     21  C   UNL A   1      41.614  31.604  30.573  1.00  0.00     0.031 C 
ATOM     22  C   UNL A   1      40.053  25.404  27.979  1.00  0.00     0.029 A 
ATOM     23  C   UNL A   1      41.443  25.591  28.377  1.00  0.00     0.049 A 
ATOM     24  H   UNL A   1      42.296  27.264  29.279  1.00  0.00     0.167 HD
ATOM     25  C   UNL A   1      43.974  30.941  30.964  1.00  0.00     0.031 A 
ATOM     26  C   UNL A   1      42.420  24.682  28.212  1.00  0.00     0.031 A 
ATOM     27  C   UNL A   1      45.065  30.002  30.915  1.00  0.00     0.049 A 
ATOM     28  C   UNL A   1      43.810  25.023  28.653  1.00  0.00     0.074 A 
ATOM     29  C   UNL A   1      46.365  30.168  31.359  1.00  0.00     0.029 A 
ATOM     30  N   UNL A   1      44.986  28.726  30.377  1.00  0.00    -0.354 N 
ATOM     31  N   UNL A   1      44.249  26.129  29.206  1.00  0.00    -0.248 NA
ATOM     32  C   UNL A   1      44.837  23.995  28.454  1.00  0.00     0.031 C 
ATOM     33  C   UNL A   1      47.088  29.015  31.033  1.00  0.00     0.029 A 
ATOM     34  C   UNL A   1      46.223  28.106  30.445  1.00  0.00     0.049 A 
ATOM     35  H   UNL A   1      44.171  28.320  30.003  1.00  0.00     0.167 HD
ATOM     36  C   UNL A   1      45.602  25.925  29.434  1.00  0.00     0.074 A 
ATOM     37  C   UNL A   1      45.906  24.584  28.976  1.00  0.00     0.031 C 
ATOM     38  C   UNL A   1      46.509  26.774  29.974  1.00  0.00     0.031 A 
BRANCH  25  39
ATOM     39  C   UNL A   1      44.243  32.331  31.470  1.00  0.00    -0.014 A 
ATOM     40  C   UNL A   1      44.651  33.362  30.609  1.00  0.00     0.009 A 
ATOM     41  C   UNL A   1      44.064  32.620  32.833  1.00  0.00     0.009 A 
ATOM     42  C   UNL A   1      44.917  34.639  31.108  1.00  0.00     0.001 A 
ATOM     43  C   UNL A   1      44.304  33.904  33.324  1.00  0.00     0.001 A 
ATOM     44  C   UNL A   1      44.742  34.910  32.465  1.00  0.00     0.000 A 
ENDBRANCH  25  39
BRANCH  26  45
ATOM     45  C   UNL A   1      42.101  23.381  27.571  1.00  0.00    -0.014 A 
ATOM     46  C   UNL A   1      42.351  23.172  26.208  1.00  0.00     0.009 A 
ATOM     47  C   UNL A   1      41.593  22.320  28.340  1.00  0.00     0.009 A 
ATOM     48  C   UNL A   1      42.090  21.929  25.625  1.00  0.00     0.001 A 
ATOM     49  C   UNL A   1      41.361  21.072  27.762  1.00  0.00     0.001 A 
ATOM     50  C   UNL A   1      41.604  20.879  26.404  1.00  0.00     0.000 A 
ENDBRANCH  26  45
BRANCH  38  51
ATOM     51  C   UNL A   1      47.915  26.267  30.122  1.00  0.00    -0.014 A 
ATOM     52  C   UNL A   1      48.834  26.349  29.065  1.00  0.00     0.009 A 
ATOM     53  C   UNL A   1      48.338  25.744  31.355  1.00  0.00     0.009 A 
ATOM     54  C   UNL A   1      50.143  25.895  29.233  1.00  0.00     0.001 A 
ATOM     55  C   UNL A   1      49.654  25.316  31.528  1.00  0.00     0.001 A 
ATOM     56  C   UNL A   1      50.553  25.385  30.466  1.00  0.00     0.000 A 
ENDBRANCH  38  51
ENDBRANCH  12  13
ENDBRANCH   5   7
ENDBRANCH   2   3
ENDBRANCH   1   2
BRANCH   1  57
ATOM     57  C   UNL A   1      31.558  28.364  25.946  1.00  0.00     0.118 C 
BRANCH  57  58
ATOM     58  N   UNL A   1      32.518  28.512  24.875  1.00  0.00    -0.351 N 
ATOM     59  C   UNL A   1      32.868  27.699  23.839  1.00  0.00     0.283 C 
ATOM     60  H   UNL A   1      33.015  29.362  24.900  1.00  0.00     0.163 HD
ATOM     61  O   UNL A   1      33.869  28.097  23.235  1.00  0.00    -0.268 OA
BRANCH  59  62
ATOM     62  C   UNL A   1      31.996  26.498  23.364  1.00  0.00     0.307 C 
BRANCH  62  63
ATOM     63  N   UNL A   1      32.258  25.203  24.027  1.00  0.00    -0.318 N 
ATOM     64  C   UNL A   1      32.840  24.168  23.167  1.00  0.00     0.284 C 
ATOM     65  C   UNL A   1      32.836  25.184  25.384  1.00  0.00     0.284 C 
ATOM     66  H   UNL A   1      31.287  24.954  24.210  1.00  0.00     0.349 HD
ATOM     67  C   UNL A   1      34.378  24.087  23.200  1.00  0.00     0.178 C 
ATOM     68  C   UNL A   1      34.357  24.877  25.541  1.00  0.00     0.178 C 
ATOM     69  N   UNL A   1      34.808  23.858  24.580  1.00  0.00    -0.360 N 
BRANCH  69  70
ATOM     70  C   UNL A   1      35.963  23.148  24.864  1.00  0.00     0.037 A 
ATOM     71  C   UNL A   1      36.170  21.829  24.441  1.00  0.00     0.026 A 
ATOM     72  C   UNL A   1      36.973  23.738  25.640  1.00  0.00     0.026 A 
ATOM     73  C   UNL A   1      37.334  21.127  24.780  1.00  0.00     0.002 A 
ATOM     74  C   UNL A   1      38.135  23.043  25.989  1.00  0.00     0.002 A 
ATOM     75  C   UNL A   1      38.315  21.734  25.558  1.00  0.00     0.000 A 
ENDBRANCH  69  70
ENDBRANCH  62  63
BRANCH  62  76
ATOM     76  C   UNL A   1      30.495  26.718  23.413  1.00  0.00     0.044 A 
ATOM     77  C   UNL A   1      29.520  25.895  23.954  1.00  0.00     0.094 A 
ATOM     78  C   UNL A   1      29.798  27.870  22.894  1.00  0.00     0.009 A 
ATOM     79  N   UNL A   1      28.309  26.529  23.861  1.00  0.00    -0.361 N 
ATOM     80  C   UNL A   1      28.463  27.767  23.285  1.00  0.00     0.049 A 
ATOM     81  C   UNL A   1      30.208  29.036  22.203  1.00  0.00     0.014 A 
ATOM     82  H   UNL A   1      27.450  26.151  24.162  1.00  0.00     0.166 HD
ATOM     83  C   UNL A   1      27.536  28.798  23.085  1.00  0.00     0.065 A 
ATOM     84  C   UNL A   1      29.298  30.077  22.002  1.00  0.00     0.040 A 
ATOM     85  C   UNL A   1      27.993  29.955  22.456  1.00  0.00     0.125 A 
ATOM     86  F   UNL A   1      27.148  30.982  22.290  1.00  0.00    -0.207 F 
ENDBRANCH  62  76
ENDBRANCH  59  62
ENDBRANCH  57  58
ENDBRANCH   1  57
TORSDOF 13
ENDMDL
MODEL 2
REMARK VINA RESULT:     -12.6      3.315      8.338
REMARK SMILES O=C(NCCCNC(=O)[C@H](c1c[nH]c2cc(F)ccc12)[NH+]1CCN(c2ccccc2)CC1)c1ccc(-c2c3nc(c(-c4ccccc4)c4ccc([nH]4)c(-c4ccccc4)c4nc(c(-c5ccccc5)c5ccc2[nH]5)C=C4)C=C3)cc1
REMARK SMILES IDX 5 1 4 2 3 3 1 4 2 5 33 7 34 8 80 9 35 10 79 11 36 12 37 13
REMARK SMILES IDX 38 14 73 15 39 16 78 17 72 18 74 19 40 20 77 21 71 22 70 23
REMARK SMILES IDX 41 25 63 26 48 27 62 28 49 29 52 30 61 31 75 32 50 33 51 34
REMARK SMILES IDX 60 36 76 37 53 38 42 39 43 40 47 41 44 42 46 43 45 44 64 45
REMARK SMILES IDX 65 46 69 47 66 48 68 49 67 50 54 51 55 52 59 53 56 54 58 55
REMARK SMILES IDX 57 56 6 57 7 58 8 59 9 61 10 62 21 63 22 64 32 65 23 67
REMARK SMILES IDX 31 68 24 69 25 70 26 71 30 72 27 73 29 74 28 75 11 76 12 77
REMARK SMILES IDX 20 78 13 79 14 80 19 81 15 83 18 84 16 85 17 86
REMARK H PARENT 3 6 74 24 52 35 7 60 21 66 13 82
REMARK Flexibility Score: inf
ROOT
ATOM      1  C   UNL A   1      36.582  23.064  23.980  1.00  0.00     0.042 C 
ENDROOT
BRANCH   1   2
ATOM      2  C   UNL A   1      37.300  23.521  25.243  1.00  0.00     0.118 C 
BRANCH   2   3
ATOM      3  N   UNL A   1      38.370  22.609  25.615  1.00  0.00    -0.352 N 
ATOM      4  O   UNL A   1      40.484  22.050  26.148  1.00  0.00    -0.269 OA
ATOM      5  C   UNL A   1      39.587  22.885  26.182  1.00  0.00     0.251 C 
ATOM      6  H   UNL A   1      38.197  21.658  25.432  1.00  0.00     0.163 HD
BRANCH   5   7
ATOM      7  C   UNL A   1      39.810  24.187  26.842  1.00  0.00     0.039 A 
ATOM      8  C   UNL A   1      39.353  24.406  28.144  1.00  0.00     0.014 A 
ATOM      9  C   UNL A   1      40.538  25.173  26.173  1.00  0.00     0.014 A 
ATOM     10  C   UNL A   1      39.530  25.647  28.740  1.00  0.00     0.010 A 
ATOM     11  C   UNL A   1      40.792  26.390  26.806  1.00  0.00     0.010 A 
ATOM     12  C   UNL A   1      40.280  26.638  28.090  1.00  0.00    -0.014 A 
BRANCH  12  13
ATOM     13  C   UNL A   1      40.608  27.891  28.809  1.00  0.00     0.031 A 
ATOM     14  C   UNL A   1      41.928  28.067  29.496  1.00  0.00     0.074 A 
ATOM     15  C   UNL A   1      39.682  28.868  28.847  1.00  0.00     0.049 A 
ATOM     16  N   UNL A   1      42.359  29.085  30.196  1.00  0.00    -0.248 NA
ATOM     17  C   UNL A   1      42.884  26.954  29.396  1.00  0.00     0.031 C 
ATOM     18  C   UNL A   1      38.356  28.797  28.224  1.00  0.00     0.029 A 
ATOM     19  N   UNL A   1      39.708  30.106  29.433  1.00  0.00    -0.354 N 
ATOM     20  C   UNL A   1      43.624  28.729  30.641  1.00  0.00     0.074 A 
ATOM     21  C   UNL A   1      43.884  27.392  30.148  1.00  0.00     0.031 C 
ATOM     22  C   UNL A   1      37.708  29.950  28.440  1.00  0.00     0.029 A 
ATOM     23  C   UNL A   1      38.541  30.810  29.271  1.00  0.00     0.049 A 
ATOM     24  H   UNL A   1      40.487  30.455  29.923  1.00  0.00     0.167 HD
ATOM     25  C   UNL A   1      44.489  29.453  31.392  1.00  0.00     0.031 A 
ATOM     26  C   UNL A   1      38.164  32.004  29.762  1.00  0.00     0.031 A 
ATOM     27  C   UNL A   1      44.214  30.777  31.886  1.00  0.00     0.049 A 
ATOM     28  C   UNL A   1      39.123  32.770  30.620  1.00  0.00     0.074 A 
ATOM     29  C   UNL A   1      45.039  31.613  32.617  1.00  0.00     0.029 A 
ATOM     30  N   UNL A   1      43.014  31.452  31.712  1.00  0.00    -0.354 N 
ATOM     31  N   UNL A   1      40.340  32.444  30.987  1.00  0.00    -0.248 NA
ATOM     32  C   UNL A   1      38.664  34.068  31.128  1.00  0.00     0.031 C 
ATOM     33  C   UNL A   1      44.318  32.769  32.938  1.00  0.00     0.029 A 
ATOM     34  C   UNL A   1      43.064  32.680  32.352  1.00  0.00     0.049 A 
ATOM     35  H   UNL A   1      42.242  31.110  31.208  1.00  0.00     0.167 HD
ATOM     36  C   UNL A   1      40.798  33.502  31.758  1.00  0.00     0.074 A 
ATOM     37  C   UNL A   1      39.735  34.487  31.790  1.00  0.00     0.031 C 
ATOM     38  C   UNL A   1      41.993  33.642  32.382  1.00  0.00     0.031 A 
BRANCH  25  39
ATOM     39  C   UNL A   1      45.794  28.804  31.761  1.00  0.00    -0.014 A 
ATOM     40  C   UNL A   1      46.949  28.979  30.983  1.00  0.00     0.009 A 
ATOM     41  C   UNL A   1      45.874  28.018  32.922  1.00  0.00     0.009 A 
ATOM     42  C   UNL A   1      48.143  28.346  31.334  1.00  0.00     0.001 A 
ATOM     43  C   UNL A   1      47.076  27.410  33.287  1.00  0.00     0.001 A 
ATOM     44  C   UNL A   1      48.207  27.563  32.487  1.00  0.00     0.000 A 
ENDBRANCH  25  39
BRANCH  26  45
ATOM     45  C   UNL A   1      36.801  32.513  29.468  1.00  0.00    -0.014 A 
ATOM     46  C   UNL A   1      35.750  32.315  30.374  1.00  0.00     0.009 A 
ATOM     47  C   UNL A   1      36.560  33.252  28.298  1.00  0.00     0.009 A 
ATOM     48  C   UNL A   1      34.482  32.839  30.108  1.00  0.00     0.001 A 
ATOM     49  C   UNL A   1      35.300  33.798  28.049  1.00  0.00     0.001 A 
ATOM     50  C   UNL A   1      34.261  33.586  28.952  1.00  0.00     0.000 A 
ENDBRANCH  26  45
BRANCH  38  51
ATOM     51  C   UNL A   1      42.223  34.922  33.135  1.00  0.00    -0.014 A 
ATOM     52  C   UNL A   1      41.715  35.105  34.431  1.00  0.00     0.009 A 
ATOM     53  C   UNL A   1      42.999  35.937  32.556  1.00  0.00     0.009 A 
ATOM     54  C   UNL A   1      41.963  36.293  35.122  1.00  0.00     0.001 A 
ATOM     55  C   UNL A   1      43.268  37.111  33.259  1.00  0.00     0.001 A 
ATOM     56  C   UNL A   1      42.744  37.291  34.538  1.00  0.00     0.000 A 
ENDBRANCH  38  51
ENDBRANCH  12  13
ENDBRANCH   5   7
ENDBRANCH   2   3
ENDBRANCH   1   2
BRANCH   1  57
ATOM     57  C   UNL A   1      35.503  22.023  24.259  1.00  0.00     0.118 C 
BRANCH  57  58
ATOM     58  N   UNL A   1      35.042  22.100  25.628  1.00  0.00    -0.351 N 
ATOM     59  C   UNL A   1      33.868  22.519  26.178  1.00  0.00     0.283 C 
ATOM     60  H   UNL A   1      35.703  21.790  26.289  1.00  0.00     0.163 HD
ATOM     61  O   UNL A   1      33.921  22.608  27.409  1.00  0.00    -0.268 OA
BRANCH  59  62
ATOM     62  C   UNL A   1      32.556  22.698  25.356  1.00  0.00     0.307 C 
BRANCH  62  63
ATOM     63  N   UNL A   1      32.346  24.029  24.749  1.00  0.00    -0.318 N 
ATOM     64  C   UNL A   1      31.262  24.821  25.339  1.00  0.00     0.284 C 
ATOM     65  C   UNL A   1      33.512  24.861  24.400  1.00  0.00     0.284 C 
ATOM     66  H   UNL A   1      32.039  23.705  23.832  1.00  0.00     0.349 HD
ATOM     67  C   UNL A   1      31.701  25.794  26.449  1.00  0.00     0.178 C 
ATOM     68  C   UNL A   1      33.902  26.034  25.352  1.00  0.00     0.178 C 
ATOM     69  N   UNL A   1      32.714  26.702  25.907  1.00  0.00    -0.360 N 
BRANCH  69  70
ATOM     70  C   UNL A   1      32.845  27.997  26.379  1.00  0.00     0.037 A 
ATOM     71  C   UNL A   1      31.789  28.918  26.380  1.00  0.00     0.026 A 
ATOM     72  C   UNL A   1      34.088  28.448  26.849  1.00  0.00     0.026 A 
ATOM     73  C   UNL A   1      31.967  30.233  26.829  1.00  0.00     0.002 A 
ATOM     74  C   UNL A   1      34.277  29.760  27.292  1.00  0.00     0.002 A 
ATOM     75  C   UNL A   1      33.214  30.654  27.282  1.00  0.00     0.000 A 
ENDBRANCH  69  70
ENDBRANCH  62  63
BRANCH  62  76
ATOM     76  C   UNL A   1      32.326  21.676  24.258  1.00  0.00     0.044 A 
ATOM     77  C   UNL A   1      32.013  21.896  22.926  1.00  0.00     0.094 A 
ATOM     78  C   UNL A   1      32.405  20.243  24.416  1.00  0.00     0.009 A 
ATOM     79  N   UNL A   1      31.987  20.690  22.276  1.00  0.00    -0.361 N 
ATOM     80  C   UNL A   1      32.297  19.673  23.146  1.00  0.00     0.049 A 
ATOM     81  C   UNL A   1      32.652  19.389  25.517  1.00  0.00     0.014 A 
ATOM     82  H   UNL A   1      31.777  20.570  21.321  1.00  0.00     0.166 HD
ATOM     83  C   UNL A   1      32.494  18.306  22.913  1.00  0.00     0.065 A 
ATOM     84  C   UNL A   1      32.857  18.024  25.301  1.00  0.00     0.040 A 
ATOM     85  C   UNL A   1      32.795  17.507  24.016  1.00  0.00     0.125 A 
ATOM     86  F   UNL A   1      33.036  16.203  23.827  1.00  0.00    -0.207 F 
ENDBRANCH  62  76
ENDBRANCH  59  62
ENDBRANCH  57  58
ENDBRANCH   1  57
TORSDOF 13
ENDMDL
MODEL 3
REMARK VINA RESULT:     -12.3      1.203      1.605
REMARK SMILES O=C(NCCCNC(=O)[C@H](c1c[nH]c2cc(F)ccc12)[NH+]1CCN(c2ccccc2)CC1)c1ccc(-c2c3nc(c(-c4ccccc4)c4ccc([nH]4)c(-c4ccccc4)c4nc(c(-c5ccccc5)c5ccc2[nH]5)C=C4)C=C3)cc1
REMARK SMILES IDX 5 1 4 2 3 3 1 4 2 5 33 7 34 8 80 9 35 10 79 11 36 12 37 13
REMARK SMILES IDX 38 14 73 15 39 16 78 17 72 18 74 19 40 20 77 21 71 22 70 23
REMARK SMILES IDX 41 25 63 26 48 27 62 28 49 29 52 30 61 31 75 32 50 33 51 34
REMARK SMILES IDX 60 36 76 37 53 38 42 39 43 40 47 41 44 42 46 43 45 44 64 45
REMARK SMILES IDX 65 46 69 47 66 48 68 49 67 50 54 51 55 52 59 53 56 54 58 55
REMARK SMILES IDX 57 56 6 57 7 58 8 59 9 61 10 62 21 63 22 64 32 65 23 67
REMARK SMILES IDX 31 68 24 69 25 70 26 71 30 72 27 73 29 74 28 75 11 76 12 77
REMARK SMILES IDX 20 78 13 79 14 80 19 81 15 83 18 84 16 85 17 86
REMARK H PARENT 3 6 74 24 52 35 7 60 21 66 13 82
REMARK Flexibility Score: inf
ROOT
ATOM      1  C   UNL A   1      33.559  27.873  26.828  1.00  0.00     0.042 C 
ENDROOT
BRANCH   1   2
ATOM      2  C   UNL A   1      34.044  29.041  25.979  1.00  0.00     0.118 C 
BRANCH   2   3
ATOM      3  N   UNL A   1      33.863  30.313  26.662  1.00  0.00    -0.352 N 
ATOM      4  O   UNL A   1      34.076  31.763  28.369  1.00  0.00    -0.269 OA
ATOM      5  C   UNL A   1      34.548  30.829  27.731  1.00  0.00     0.251 C 
ATOM      6  H   UNL A   1      33.147  30.885  26.305  1.00  0.00     0.163 HD
BRANCH   5   7
ATOM      7  C   UNL A   1      35.858  30.261  28.106  1.00  0.00     0.039 A 
ATOM      8  C   UNL A   1      36.946  30.360  27.234  1.00  0.00     0.014 A 
ATOM      9  C   UNL A   1      36.013  29.681  29.367  1.00  0.00     0.014 A 
ATOM     10  C   UNL A   1      38.162  29.786  27.577  1.00  0.00     0.010 A 
ATOM     11  C   UNL A   1      37.260  29.183  29.746  1.00  0.00     0.010 A 
ATOM     12  C   UNL A   1      38.340  29.222  28.849  1.00  0.00    -0.014 A 
BRANCH  12  13
ATOM     13  C   UNL A   1      39.688  28.772  29.264  1.00  0.00     0.031 A 
ATOM     14  C   UNL A   1      40.591  29.663  30.063  1.00  0.00     0.074 A 
ATOM     15  C   UNL A   1      40.096  27.544  28.890  1.00  0.00     0.049 A 
ATOM     16  N   UNL A   1      41.811  29.435  30.476  1.00  0.00    -0.248 NA
ATOM     17  C   UNL A   1      40.063  30.984  30.436  1.00  0.00     0.031 C 
ATOM     18  C   UNL A   1      39.303  26.598  28.099  1.00  0.00     0.029 A 
ATOM     19  N   UNL A   1      41.272  26.881  29.122  1.00  0.00    -0.354 N 
ATOM     20  C   UNL A   1      42.207  30.590  31.137  1.00  0.00     0.074 A 
ATOM     21  C   UNL A   1      41.104  31.525  31.051  1.00  0.00     0.031 C 
ATOM     22  C   UNL A   1      40.006  25.469  27.932  1.00  0.00     0.029 A 
ATOM     23  C   UNL A   1      41.318  25.637  28.544  1.00  0.00     0.049 A 
ATOM     24  H   UNL A   1      42.011  27.260  29.650  1.00  0.00     0.167 HD
ATOM     25  C   UNL A   1      43.384  30.845  31.757  1.00  0.00     0.031 A 
ATOM     26  C   UNL A   1      42.317  24.738  28.481  1.00  0.00     0.031 A 
ATOM     27  C   UNL A   1      44.479  29.911  31.825  1.00  0.00     0.049 A 
ATOM     28  C   UNL A   1      43.622  25.057  29.143  1.00  0.00     0.074 A 
ATOM     29  C   UNL A   1      45.696  30.055  32.467  1.00  0.00     0.029 A 
ATOM     30  N   UNL A   1      44.492  28.665  31.215  1.00  0.00    -0.354 N 
ATOM     31  N   UNL A   1      43.963  26.132  29.812  1.00  0.00    -0.248 NA
ATOM     32  C   UNL A   1      44.677  24.041  29.047  1.00  0.00     0.031 C 
ATOM     33  C   UNL A   1      46.470  28.921  32.194  1.00  0.00     0.029 A 
ATOM     34  C   UNL A   1      45.711  28.043  31.436  1.00  0.00     0.049 A 
ATOM     35  H   UNL A   1      43.747  28.279  30.702  1.00  0.00     0.167 HD
ATOM     36  C   UNL A   1      45.268  25.918  30.230  1.00  0.00     0.074 A 
ATOM     37  C   UNL A   1      45.649  24.603  29.754  1.00  0.00     0.031 C 
ATOM     38  C   UNL A   1      46.076  26.739  30.945  1.00  0.00     0.031 A 
BRANCH  25  39
ATOM     39  C   UNL A   1      43.562  32.207  32.370  1.00  0.00    -0.014 A 
ATOM     40  C   UNL A   1      44.085  33.282  31.635  1.00  0.00     0.009 A 
ATOM     41  C   UNL A   1      43.178  32.422  33.703  1.00  0.00     0.009 A 
ATOM     42  C   UNL A   1      44.262  34.531  32.234  1.00  0.00     0.001 A 
ATOM     43  C   UNL A   1      43.330  33.679  34.292  1.00  0.00     0.001 A 
ATOM     44  C   UNL A   1      43.883  34.729  33.561  1.00  0.00     0.000 A 
ENDBRANCH  25  39
BRANCH  26  45
ATOM     45  C   UNL A   1      42.109  23.473  27.732  1.00  0.00    -0.014 A 
ATOM     46  C   UNL A   1      41.511  22.364  28.347  1.00  0.00     0.009 A 
ATOM     47  C   UNL A   1      42.459  23.390  26.374  1.00  0.00     0.009 A 
ATOM     48  C   UNL A   1      41.278  21.194  27.620  1.00  0.00     0.001 A 
ATOM     49  C   UNL A   1      42.199  22.231  25.643  1.00  0.00     0.001 A 
ATOM     50  C   UNL A   1      41.614  21.132  26.268  1.00  0.00     0.000 A 
ENDBRANCH  26  45
BRANCH  38  51
ATOM     51  C   UNL A   1      47.449  26.225  31.276  1.00  0.00    -0.014 A 
ATOM     52  C   UNL A   1      47.720  25.617  32.511  1.00  0.00     0.009 A 
ATOM     53  C   UNL A   1      48.471  26.311  30.318  1.00  0.00     0.009 A 
ATOM     54  C   UNL A   1      48.996  25.124  32.787  1.00  0.00     0.001 A 
ATOM     55  C   UNL A   1      49.738  25.793  30.587  1.00  0.00     0.001 A 
ATOM     56  C   UNL A   1      50.002  25.207  31.823  1.00  0.00     0.000 A 
ENDBRANCH  38  51
ENDBRANCH  12  13
ENDBRANCH   5   7
ENDBRANCH   2   3
ENDBRANCH   1   2
BRANCH   1  57
ATOM     57  C   UNL A   1      32.105  28.024  27.262  1.00  0.00     0.118 C 
BRANCH  57  58
ATOM     58  N   UNL A   1      31.389  26.773  27.138  1.00  0.00    -0.351 N 
ATOM     59  C   UNL A   1      30.697  26.212  26.106  1.00  0.00     0.283 C 
ATOM     60  H   UNL A   1      31.402  26.223  27.955  1.00  0.00     0.163 HD
ATOM     61  O   UNL A   1      30.062  25.209  26.446  1.00  0.00    -0.268 OA
BRANCH  59  62
ATOM     62  C   UNL A   1      30.834  26.687  24.628  1.00  0.00     0.307 C 
BRANCH  62  63
ATOM     63  N   UNL A   1      31.466  25.730  23.695  1.00  0.00    -0.318 N 
ATOM     64  C   UNL A   1      32.881  25.982  23.405  1.00  0.00     0.284 C 
ATOM     65  C   UNL A   1      31.175  24.290  23.822  1.00  0.00     0.284 C 
ATOM     66  H   UNL A   1      30.924  25.980  22.868  1.00  0.00     0.349 HD
ATOM     67  C   UNL A   1      33.872  25.212  24.298  1.00  0.00     0.178 C 
ATOM     68  C   UNL A   1      32.234  23.375  24.511  1.00  0.00     0.178 C 
ATOM     69  N   UNL A   1      33.607  23.778  24.168  1.00  0.00    -0.360 N 
BRANCH  69  70
ATOM     70  C   UNL A   1      34.622  22.845  24.301  1.00  0.00     0.037 A 
ATOM     71  C   UNL A   1      34.410  21.556  24.809  1.00  0.00     0.026 A 
ATOM     72  C   UNL A   1      35.938  23.189  23.954  1.00  0.00     0.026 A 
ATOM     73  C   UNL A   1      35.467  20.650  24.965  1.00  0.00     0.002 A 
ATOM     74  C   UNL A   1      37.000  22.294  24.113  1.00  0.00     0.002 A 
ATOM     75  C   UNL A   1      36.763  21.022  24.621  1.00  0.00     0.000 A 
ENDBRANCH  69  70
ENDBRANCH  62  63
BRANCH  62  76
ATOM     76  C   UNL A   1      29.551  27.158  23.970  1.00  0.00     0.044 A 
ATOM     77  C   UNL A   1      28.273  26.638  24.102  1.00  0.00     0.094 A 
ATOM     78  C   UNL A   1      29.433  28.276  23.065  1.00  0.00     0.009 A 
ATOM     79  N   UNL A   1      27.402  27.430  23.401  1.00  0.00    -0.361 N 
ATOM     80  C   UNL A   1      28.074  28.479  22.821  1.00  0.00     0.049 A 
ATOM     81  C   UNL A   1      30.360  29.188  22.506  1.00  0.00     0.014 A 
ATOM     82  H   UNL A   1      26.433  27.271  23.324  1.00  0.00     0.166 HD
ATOM     83  C   UNL A   1      27.592  29.585  22.109  1.00  0.00     0.065 A 
ATOM     84  C   UNL A   1      29.896  30.301  21.800  1.00  0.00     0.040 A 
ATOM     85  C   UNL A   1      28.533  30.494  21.626  1.00  0.00     0.125 A 
ATOM     86  F   UNL A   1      28.108  31.589  20.982  1.00  0.00    -0.207 F 
ENDBRANCH  62  76
ENDBRANCH  59  62
ENDBRANCH  57  58
ENDBRANCH   1  57
TORSDOF 13
ENDMDL
