MODEL 1
REMARK VINA RESULT:     -11.2      0.000      0.000
REMARK SMILES CO[C@@H]1C[C@@H](C(=O)NCCCNC(=O)c2ccc(-c3c4nc(c(-c5ccccc5)c5ccc([nH]5)c(-c5ccccc5)c5nc(c(-c6ccccc6)c6ccc3[nH]6)C=C5)C=C4)cc2)N(C(=O)c2nc(C(C)C)n[nH]2)C1
REMARK SMILES IDX 9 1 8 2 6 3 7 4 5 6 3 7 4 8 74 9 63 10 2 11 1 12 64 13 65 14
REMARK SMILES IDX 66 15 67 16 73 17 68 18 72 19 69 21 70 22 71 23 10 24 11 25
REMARK SMILES IDX 12 26 13 27 14 29 15 30 16 31 62 32 17 33 61 34 18 35 19 36
REMARK SMILES IDX 20 37 55 38 21 39 60 40 54 41 56 42 22 43 59 44 53 45 52 46
REMARK SMILES IDX 23 48 45 49 30 50 44 51 31 52 34 53 43 54 57 55 32 56 33 57
REMARK SMILES IDX 42 59 58 60 35 61 24 62 25 63 29 64 26 65 28 66 27 67 46 68
REMARK SMILES IDX 47 69 51 70 48 71 50 72 49 73 36 74 37 75 41 76 38 77 40 78
REMARK SMILES IDX 39 79
REMARK H PARENT 8 5 73 20 12 28 56 47 34 58
REMARK Flexibility Score: inf
ROOT
ATOM      1  C   UNL A   1      31.344  30.110  25.534  1.00  0.00     0.117 C 
ENDROOT
BRANCH   1   2
ATOM      2  N   UNL A   1      32.639  29.775  24.959  1.00  0.00    -0.354 N 
ATOM      3  C   UNL A   1      33.178  28.585  24.583  1.00  0.00     0.242 C 
ATOM      4  O   UNL A   1      34.178  28.631  23.863  1.00  0.00    -0.273 OA
ATOM      5  H   UNL A   1      33.231  30.549  24.818  1.00  0.00     0.163 HD
BRANCH   3   6
ATOM      6  C   UNL A   1      32.591  27.235  24.990  1.00  0.00     0.177 C 
ATOM      7  C   UNL A   1      33.233  24.936  25.218  1.00  0.00     0.139 C 
ATOM      8  C   UNL A   1      33.811  26.336  25.241  1.00  0.00     0.069 C 
ATOM      9  C   UNL A   1      32.151  25.043  24.132  1.00  0.00     0.153 C 
ATOM     10  N   UNL A   1      31.730  26.455  24.096  1.00  0.00    -0.321 N 
BRANCH   7  11
ATOM     11  O   UNL A   1      32.642  24.589  26.472  1.00  0.00    -0.380 OA
ATOM     12  C   UNL A   1      31.575  23.648  26.359  1.00  0.00     0.195 C 
ENDBRANCH   7  11
BRANCH  10  13
ATOM     13  C   UNL A   1      30.440  26.728  23.596  1.00  0.00     0.291 C 
ATOM     14  O   UNL A   1      29.618  25.807  23.622  1.00  0.00    -0.265 OA
BRANCH  13  15
ATOM     15  C   UNL A   1      30.079  28.010  22.982  1.00  0.00     0.214 A 
ATOM     16  N   UNL A   1      28.918  28.626  23.192  1.00  0.00    -0.207 NA
ATOM     17  N   UNL A   1      30.713  28.711  22.002  1.00  0.00    -0.255 N 
ATOM     18  C   UNL A   1      28.908  29.666  22.298  1.00  0.00     0.153 A 
ATOM     19  N   UNL A   1      29.992  29.727  21.524  1.00  0.00    -0.158 NA
ATOM     20  H   UNL A   1      31.616  28.490  21.678  1.00  0.00     0.192 HD
BRANCH  18  21
ATOM     21  C   UNL A   1      27.812  30.669  22.162  1.00  0.00     0.053 C 
ATOM     22  C   UNL A   1      27.583  31.455  23.450  1.00  0.00     0.016 C 
ATOM     23  C   UNL A   1      28.050  31.595  20.973  1.00  0.00     0.016 C 
ENDBRANCH  18  21
ENDBRANCH  13  15
ENDBRANCH  10  13
ENDBRANCH   3   6
ENDBRANCH   1   2
BRANCH   1  24
ATOM     24  C   UNL A   1      31.234  31.530  26.088  1.00  0.00     0.042 C 
BRANCH  24  25
ATOM     25  C   UNL A   1      32.428  32.025  26.899  1.00  0.00     0.118 C 
BRANCH  25  26
ATOM     26  N   UNL A   1      32.266  33.389  27.363  1.00  0.00    -0.352 N 
ATOM     27  C   UNL A   1      33.058  34.128  28.206  1.00  0.00     0.251 C 
ATOM     28  H   UNL A   1      31.469  33.856  27.020  1.00  0.00     0.163 HD
ATOM     29  O   UNL A   1      32.664  35.226  28.591  1.00  0.00    -0.269 OA
BRANCH  27  30
ATOM     30  C   UNL A   1      34.362  33.612  28.682  1.00  0.00     0.039 A 
ATOM     31  C   UNL A   1      34.377  32.831  29.843  1.00  0.00     0.014 A 
ATOM     32  C   UNL A   1      35.565  33.927  28.043  1.00  0.00     0.014 A 
ATOM     33  C   UNL A   1      35.585  32.334  30.336  1.00  0.00     0.010 A 
ATOM     34  C   UNL A   1      36.767  33.382  28.505  1.00  0.00     0.010 A 
ATOM     35  C   UNL A   1      36.790  32.585  29.661  1.00  0.00    -0.014 A 
BRANCH  35  36
ATOM     36  C   UNL A   1      38.067  32.018  30.167  1.00  0.00     0.031 A 
ATOM     37  C   UNL A   1      38.584  30.703  29.648  1.00  0.00     0.074 A 
ATOM     38  C   UNL A   1      38.766  32.682  31.108  1.00  0.00     0.049 A 
ATOM     39  N   UNL A   1      39.688  30.069  29.960  1.00  0.00    -0.248 NA
ATOM     40  C   UNL A   1      37.748  30.002  28.661  1.00  0.00     0.031 C 
ATOM     41  C   UNL A   1      38.367  33.953  31.717  1.00  0.00     0.029 A 
ATOM     42  N   UNL A   1      39.961  32.382  31.716  1.00  0.00    -0.354 N 
ATOM     43  C   UNL A   1      39.676  28.896  29.214  1.00  0.00     0.074 A 
ATOM     44  C   UNL A   1      38.435  28.885  28.470  1.00  0.00     0.031 C 
ATOM     45  C   UNL A   1      39.314  34.337  32.588  1.00  0.00     0.029 A 
ATOM     46  C   UNL A   1      40.366  33.326  32.628  1.00  0.00     0.049 A 
ATOM     47  H   UNL A   1      40.477  31.569  31.516  1.00  0.00     0.167 HD
ATOM     48  C   UNL A   1      40.617  27.925  29.143  1.00  0.00     0.031 A 
ATOM     49  C   UNL A   1      41.458  33.372  33.415  1.00  0.00     0.031 A 
ATOM     50  C   UNL A   1      41.852  27.929  29.883  1.00  0.00     0.049 A 
ATOM     51  C   UNL A   1      42.470  32.263  33.342  1.00  0.00     0.074 A 
ATOM     52  C   UNL A   1      42.887  27.011  29.835  1.00  0.00     0.029 A 
ATOM     53  N   UNL A   1      42.213  28.891  30.812  1.00  0.00    -0.354 N 
ATOM     54  N   UNL A   1      42.478  31.199  32.576  1.00  0.00    -0.248 NA
ATOM     55  C   UNL A   1      43.632  32.368  34.237  1.00  0.00     0.031 C 
ATOM     56  C   UNL A   1      43.850  27.388  30.778  1.00  0.00     0.029 A 
ATOM     57  C   UNL A   1      43.441  28.572  31.368  1.00  0.00     0.049 A 
ATOM     58  H   UNL A   1      41.677  29.684  31.043  1.00  0.00     0.167 HD
ATOM     59  C   UNL A   1      43.652  30.521  32.880  1.00  0.00     0.074 A 
ATOM     60  C   UNL A   1      44.342  31.305  33.884  1.00  0.00     0.031 C 
ATOM     61  C   UNL A   1      44.117  29.354  32.371  1.00  0.00     0.031 A 
BRANCH  48  62
ATOM     62  C   UNL A   1      40.340  26.758  28.233  1.00  0.00    -0.014 A 
ATOM     63  C   UNL A   1      39.628  25.635  28.685  1.00  0.00     0.009 A 
ATOM     64  C   UNL A   1      40.759  26.802  26.894  1.00  0.00     0.009 A 
ATOM     65  C   UNL A   1      39.375  24.564  27.825  1.00  0.00     0.001 A 
ATOM     66  C   UNL A   1      40.478  25.743  26.028  1.00  0.00     0.001 A 
ATOM     67  C   UNL A   1      39.795  24.621  26.498  1.00  0.00     0.000 A 
ENDBRANCH  48  62
BRANCH  49  68
ATOM     68  C   UNL A   1      41.660  34.517  34.341  1.00  0.00    -0.014 A 
ATOM     69  C   UNL A   1      41.166  34.471  35.653  1.00  0.00     0.009 A 
ATOM     70  C   UNL A   1      42.338  35.669  33.911  1.00  0.00     0.009 A 
ATOM     71  C   UNL A   1      41.322  35.565  36.507  1.00  0.00     0.001 A 
ATOM     72  C   UNL A   1      42.520  36.749  34.777  1.00  0.00     0.001 A 
ATOM     73  C   UNL A   1      42.003  36.700  36.071  1.00  0.00     0.000 A 
ENDBRANCH  49  68
BRANCH  61  74
ATOM     74  C   UNL A   1      45.447  28.867  32.874  1.00  0.00    -0.014 A 
ATOM     75  C   UNL A   1      46.650  29.308  32.300  1.00  0.00     0.009 A 
ATOM     76  C   UNL A   1      45.499  27.981  33.962  1.00  0.00     0.009 A 
ATOM     77  C   UNL A   1      47.876  28.843  32.783  1.00  0.00     0.001 A 
ATOM     78  C   UNL A   1      46.725  27.542  34.461  1.00  0.00     0.001 A 
ATOM     79  C   UNL A   1      47.913  27.965  33.866  1.00  0.00     0.000 A 
ENDBRANCH  61  74
ENDBRANCH  35  36
ENDBRANCH  27  30
ENDBRANCH  25  26
ENDBRANCH  24  25
ENDBRANCH   1  24
TORSDOF 14
ENDMDL
MODEL 2
REMARK VINA RESULT:     -11.1      1.573      6.099
REMARK SMILES CO[C@@H]1C[C@@H](C(=O)NCCCNC(=O)c2ccc(-c3c4nc(c(-c5ccccc5)c5ccc([nH]5)c(-c5ccccc5)c5nc(c(-c6ccccc6)c6ccc3[nH]6)C=C5)C=C4)cc2)N(C(=O)c2nc(C(C)C)n[nH]2)C1
REMARK SMILES IDX 9 1 8 2 6 3 7 4 5 6 3 7 4 8 74 9 63 10 2 11 1 12 64 13 65 14
REMARK SMILES IDX 66 15 67 16 73 17 68 18 72 19 69 21 70 22 71 23 10 24 11 25
REMARK SMILES IDX 12 26 13 27 14 29 15 30 16 31 62 32 17 33 61 34 18 35 19 36
REMARK SMILES IDX 20 37 55 38 21 39 60 40 54 41 56 42 22 43 59 44 53 45 52 46
REMARK SMILES IDX 23 48 45 49 30 50 44 51 31 52 34 53 43 54 57 55 32 56 33 57
REMARK SMILES IDX 42 59 58 60 35 61 24 62 25 63 29 64 26 65 28 66 27 67 46 68
REMARK SMILES IDX 47 69 51 70 48 71 50 72 49 73 36 74 37 75 41 76 38 77 40 78
REMARK SMILES IDX 39 79
REMARK H PARENT 8 5 73 20 12 28 56 47 34 58
REMARK Flexibility Score: inf
ROOT
ATOM      1  C   UNL A   1      31.359  31.190  26.402  1.00  0.00     0.117 C 
ENDROOT
BRANCH   1   2
ATOM      2  N   UNL A   1      32.317  30.343  27.097  1.00  0.00    -0.354 N 
ATOM      3  C   UNL A   1      32.721  29.064  26.872  1.00  0.00     0.242 C 
ATOM      4  O   UNL A   1      33.751  28.698  27.442  1.00  0.00    -0.273 OA
ATOM      5  H   UNL A   1      32.750  30.772  27.870  1.00  0.00     0.163 HD
BRANCH   3   6
ATOM      6  C   UNL A   1      31.976  28.102  25.948  1.00  0.00     0.177 C 
ATOM      7  C   UNL A   1      31.728  25.752  25.542  1.00  0.00     0.139 C 
ATOM      8  C   UNL A   1      32.076  26.736  26.641  1.00  0.00     0.069 C 
ATOM      9  C   UNL A   1      32.359  26.405  24.303  1.00  0.00     0.153 C 
ATOM     10  N   UNL A   1      32.406  27.854  24.569  1.00  0.00    -0.321 N 
BRANCH   7  11
ATOM     11  O   UNL A   1      30.314  25.632  25.372  1.00  0.00    -0.380 OA
ATOM     12  C   UNL A   1      29.905  25.601  24.005  1.00  0.00     0.195 C 
ENDBRANCH   7  11
BRANCH  10  13
ATOM     13  C   UNL A   1      32.438  28.712  23.450  1.00  0.00     0.291 C 
ATOM     14  O   UNL A   1      33.548  29.010  22.998  1.00  0.00    -0.265 OA
BRANCH  13  15
ATOM     15  C   UNL A   1      31.231  29.317  22.876  1.00  0.00     0.214 A 
ATOM     16  N   UNL A   1      30.045  29.309  23.480  1.00  0.00    -0.207 NA
ATOM     17  N   UNL A   1      31.023  29.818  21.627  1.00  0.00    -0.255 N 
ATOM     18  C   UNL A   1      29.172  29.793  22.538  1.00  0.00     0.153 A 
ATOM     19  N   UNL A   1      29.742  30.087  21.370  1.00  0.00    -0.158 NA
ATOM     20  H   UNL A   1      31.747  29.969  20.978  1.00  0.00     0.192 HD
BRANCH  18  21
ATOM     21  C   UNL A   1      27.709  29.993  22.751  1.00  0.00     0.053 C 
ATOM     22  C   UNL A   1      27.008  28.712  23.197  1.00  0.00     0.016 C 
ATOM     23  C   UNL A   1      27.439  31.146  23.713  1.00  0.00     0.016 C 
ENDBRANCH  18  21
ENDBRANCH  13  15
ENDBRANCH  10  13
ENDBRANCH   3   6
ENDBRANCH   1   2
BRANCH   1  24
ATOM     24  C   UNL A   1      31.437  32.674  26.756  1.00  0.00     0.042 C 
BRANCH  24  25
ATOM     25  C   UNL A   1      32.792  33.172  27.250  1.00  0.00     0.118 C 
BRANCH  25  26
ATOM     26  N   UNL A   1      32.697  34.408  28.003  1.00  0.00    -0.352 N 
ATOM     27  C   UNL A   1      33.408  34.822  29.101  1.00  0.00     0.251 C 
ATOM     28  H   UNL A   1      32.020  35.046  27.677  1.00  0.00     0.163 HD
ATOM     29  O   UNL A   1      33.070  35.850  29.683  1.00  0.00    -0.269 OA
BRANCH  27  30
ATOM     30  C   UNL A   1      34.555  34.036  29.613  1.00  0.00     0.039 A 
ATOM     31  C   UNL A   1      35.829  34.337  29.123  1.00  0.00     0.014 A 
ATOM     32  C   UNL A   1      34.390  32.982  30.517  1.00  0.00     0.014 A 
ATOM     33  C   UNL A   1      36.938  33.614  29.567  1.00  0.00     0.010 A 
ATOM     34  C   UNL A   1      35.507  32.297  31.004  1.00  0.00     0.010 A 
ATOM     35  C   UNL A   1      36.793  32.601  30.529  1.00  0.00    -0.014 A 
BRANCH  35  36
ATOM     36  C   UNL A   1      37.982  31.863  31.030  1.00  0.00     0.031 A 
ATOM     37  C   UNL A   1      38.566  32.173  32.382  1.00  0.00     0.074 A 
ATOM     38  C   UNL A   1      38.551  30.914  30.261  1.00  0.00     0.049 A 
ATOM     39  N   UNL A   1      39.586  31.616  32.987  1.00  0.00    -0.248 NA
ATOM     40  C   UNL A   1      37.932  33.256  33.148  1.00  0.00     0.031 C 
ATOM     41  C   UNL A   1      38.103  30.532  28.920  1.00  0.00     0.029 A 
ATOM     42  N   UNL A   1      39.628  30.095  30.498  1.00  0.00    -0.354 N 
ATOM     43  C   UNL A   1      39.719  32.283  34.199  1.00  0.00     0.074 A 
ATOM     44  C   UNL A   1      38.704  33.315  34.223  1.00  0.00     0.031 C 
ATOM     45  C   UNL A   1      38.880  29.534  28.467  1.00  0.00     0.029 A 
ATOM     46  C   UNL A   1      39.900  29.232  29.465  1.00  0.00     0.049 A 
ATOM     47  H   UNL A   1      40.153  30.124  31.330  1.00  0.00     0.167 HD
ATOM     48  C   UNL A   1      40.593  32.049  35.206  1.00  0.00     0.031 A 
ATOM     49  C   UNL A   1      40.867  28.304  29.331  1.00  0.00     0.031 A 
ATOM     50  C   UNL A   1      41.606  31.026  35.187  1.00  0.00     0.049 A 
ATOM     51  C   UNL A   1      41.847  28.088  30.450  1.00  0.00     0.074 A 
ATOM     52  C   UNL A   1      42.505  30.685  36.184  1.00  0.00     0.029 A 
ATOM     53  N   UNL A   1      41.864  30.189  34.113  1.00  0.00    -0.354 N 
ATOM     54  N   UNL A   1      41.910  28.677  31.619  1.00  0.00    -0.248 NA
ATOM     55  C   UNL A   1      42.885  27.070  30.233  1.00  0.00     0.031 C 
ATOM     56  C   UNL A   1      43.343  29.678  35.692  1.00  0.00     0.029 A 
ATOM     57  C   UNL A   1      42.927  29.353  34.412  1.00  0.00     0.049 A 
ATOM     58  H   UNL A   1      41.365  30.188  33.265  1.00  0.00     0.167 HD
ATOM     59  C   UNL A   1      42.977  28.087  32.284  1.00  0.00     0.074 A 
ATOM     60  C   UNL A   1      43.519  27.078  31.397  1.00  0.00     0.031 C 
ATOM     61  C   UNL A   1      43.464  28.357  33.520  1.00  0.00     0.031 A 
BRANCH  48  62
ATOM     62  C   UNL A   1      40.501  32.931  36.422  1.00  0.00    -0.014 A 
ATOM     63  C   UNL A   1      41.302  34.078  36.552  1.00  0.00     0.009 A 
ATOM     64  C   UNL A   1      39.569  32.636  37.431  1.00  0.00     0.009 A 
ATOM     65  C   UNL A   1      41.198  34.889  37.685  1.00  0.00     0.001 A 
ATOM     66  C   UNL A   1      39.447  33.465  38.548  1.00  0.00     0.001 A 
ATOM     67  C   UNL A   1      40.268  34.585  38.678  1.00  0.00     0.000 A 
ENDBRANCH  48  62
BRANCH  49  68
ATOM     68  C   UNL A   1      40.954  27.495  28.086  1.00  0.00    -0.014 A 
ATOM     69  C   UNL A   1      40.304  26.257  27.991  1.00  0.00     0.009 A 
ATOM     70  C   UNL A   1      41.703  27.954  26.991  1.00  0.00     0.009 A 
ATOM     71  C   UNL A   1      40.421  25.482  26.835  1.00  0.00     0.001 A 
ATOM     72  C   UNL A   1      41.794  27.192  25.824  1.00  0.00     0.001 A 
ATOM     73  C   UNL A   1      41.162  25.951  25.751  1.00  0.00     0.000 A 
ENDBRANCH  49  68
BRANCH  61  74
ATOM     74  C   UNL A   1      44.625  27.530  33.997  1.00  0.00    -0.014 A 
ATOM     75  C   UNL A   1      45.950  27.950  33.800  1.00  0.00     0.009 A 
ATOM     76  C   UNL A   1      44.389  26.331  34.688  1.00  0.00     0.009 A 
ATOM     77  C   UNL A   1      47.015  27.168  34.252  1.00  0.00     0.001 A 
ATOM     78  C   UNL A   1      45.455  25.566  35.166  1.00  0.00     0.001 A 
ATOM     79  C   UNL A   1      46.766  25.979  34.939  1.00  0.00     0.000 A 
ENDBRANCH  61  74
ENDBRANCH  35  36
ENDBRANCH  27  30
ENDBRANCH  25  26
ENDBRANCH  24  25
ENDBRANCH   1  24
TORSDOF 14
ENDMDL
MODEL 3
REMARK VINA RESULT:     -11.1      4.574      9.434
REMARK SMILES CO[C@@H]1C[C@@H](C(=O)NCCCNC(=O)c2ccc(-c3c4nc(c(-c5ccccc5)c5ccc([nH]5)c(-c5ccccc5)c5nc(c(-c6ccccc6)c6ccc3[nH]6)C=C5)C=C4)cc2)N(C(=O)c2nc(C(C)C)n[nH]2)C1
REMARK SMILES IDX 9 1 8 2 6 3 7 4 5 6 3 7 4 8 74 9 63 10 2 11 1 12 64 13 65 14
REMARK SMILES IDX 66 15 67 16 73 17 68 18 72 19 69 21 70 22 71 23 10 24 11 25
REMARK SMILES IDX 12 26 13 27 14 29 15 30 16 31 62 32 17 33 61 34 18 35 19 36
REMARK SMILES IDX 20 37 55 38 21 39 60 40 54 41 56 42 22 43 59 44 53 45 52 46
REMARK SMILES IDX 23 48 45 49 30 50 44 51 31 52 34 53 43 54 57 55 32 56 33 57
REMARK SMILES IDX 42 59 58 60 35 61 24 62 25 63 29 64 26 65 28 66 27 67 46 68
REMARK SMILES IDX 47 69 51 70 48 71 50 72 49 73 36 74 37 75 41 76 38 77 40 78
REMARK SMILES IDX 39 79
REMARK H PARENT 8 5 73 20 12 28 56 47 34 58
REMARK Flexibility Score: inf
ROOT
ATOM      1  C   UNL A   1      37.003  20.284  24.688  1.00  0.00     0.117 C 
ENDROOT
BRANCH   1   2
ATOM      2  N   UNL A   1      37.311  21.686  24.926  1.00  0.00    -0.354 N 
ATOM      3  C   UNL A   1      36.508  22.773  25.076  1.00  0.00     0.242 C 
ATOM      4  O   UNL A   1      37.028  23.786  25.551  1.00  0.00    -0.273 OA
ATOM      5  H   UNL A   1      38.273  21.883  24.988  1.00  0.00     0.163 HD
BRANCH   3   6
ATOM      6  C   UNL A   1      35.026  22.775  24.710  1.00  0.00     0.177 C 
ATOM      7  C   UNL A   1      33.267  24.302  24.143  1.00  0.00     0.139 C 
ATOM      8  C   UNL A   1      34.774  24.162  24.100  1.00  0.00     0.069 C 
ATOM      9  C   UNL A   1      32.907  23.600  25.462  1.00  0.00     0.153 C 
ATOM     10  N   UNL A   1      33.972  22.613  25.716  1.00  0.00    -0.321 N 
BRANCH   7  11
ATOM     11  O   UNL A   1      32.643  23.636  23.042  1.00  0.00    -0.380 OA
ATOM     12  C   UNL A   1      31.344  23.129  23.344  1.00  0.00     0.195 C 
ENDBRANCH   7  11
BRANCH  10  13
ATOM     13  C   UNL A   1      33.644  21.510  26.531  1.00  0.00     0.291 C 
ATOM     14  O   UNL A   1      33.651  21.689  27.753  1.00  0.00    -0.265 OA
BRANCH  13  15
ATOM     15  C   UNL A   1      33.388  20.170  25.992  1.00  0.00     0.214 A 
ATOM     16  N   UNL A   1      33.369  19.892  24.691  1.00  0.00    -0.207 NA
ATOM     17  N   UNL A   1      32.968  19.044  26.632  1.00  0.00    -0.255 N 
ATOM     18  C   UNL A   1      32.910  18.600  24.618  1.00  0.00     0.153 A 
ATOM     19  N   UNL A   1      32.623  18.059  25.801  1.00  0.00    -0.158 NA
ATOM     20  H   UNL A   1      32.925  18.964  27.612  1.00  0.00     0.192 HD
BRANCH  18  21
ATOM     21  C   UNL A   1      32.732  17.826  23.356  1.00  0.00     0.053 C 
ATOM     22  C   UNL A   1      32.306  18.711  22.188  1.00  0.00     0.016 C 
ATOM     23  C   UNL A   1      33.980  17.015  23.020  1.00  0.00     0.016 C 
ENDBRANCH  18  21
ENDBRANCH  13  15
ENDBRANCH  10  13
ENDBRANCH   3   6
ENDBRANCH   1   2
BRANCH   1  24
ATOM     24  C   UNL A   1      38.125  19.309  25.043  1.00  0.00     0.042 C 
BRANCH  24  25
ATOM     25  C   UNL A   1      39.239  19.866  25.925  1.00  0.00     0.118 C 
BRANCH  25  26
ATOM     26  N   UNL A   1      40.486  19.141  25.780  1.00  0.00    -0.352 N 
ATOM     27  C   UNL A   1      41.775  19.563  25.991  1.00  0.00     0.251 C 
ATOM     28  H   UNL A   1      40.395  18.205  25.486  1.00  0.00     0.163 HD
ATOM     29  O   UNL A   1      42.707  18.831  25.667  1.00  0.00    -0.269 OA
BRANCH  27  30
ATOM     30  C   UNL A   1      42.060  20.895  26.573  1.00  0.00     0.039 A 
ATOM     31  C   UNL A   1      42.398  21.935  25.702  1.00  0.00     0.014 A 
ATOM     32  C   UNL A   1      42.053  21.121  27.953  1.00  0.00     0.014 A 
ATOM     33  C   UNL A   1      42.688  23.205  26.206  1.00  0.00     0.010 A 
ATOM     34  C   UNL A   1      42.287  22.405  28.453  1.00  0.00     0.010 A 
ATOM     35  C   UNL A   1      42.615  23.459  27.585  1.00  0.00    -0.014 A 
BRANCH  35  36
ATOM     36  C   UNL A   1      42.882  24.823  28.113  1.00  0.00     0.031 A 
ATOM     37  C   UNL A   1      44.279  25.246  28.481  1.00  0.00     0.074 A 
ATOM     38  C   UNL A   1      41.861  25.687  28.275  1.00  0.00     0.049 A 
ATOM     39  N   UNL A   1      44.698  26.401  28.935  1.00  0.00    -0.248 NA
ATOM     40  C   UNL A   1      45.340  24.238  28.331  1.00  0.00     0.031 C 
ATOM     41  C   UNL A   1      40.455  25.398  27.984  1.00  0.00     0.029 A 
ATOM     42  N   UNL A   1      41.848  26.986  28.722  1.00  0.00    -0.354 N 
ATOM     43  C   UNL A   1      46.066  26.258  29.130  1.00  0.00     0.074 A 
ATOM     44  C   UNL A   1      46.399  24.891  28.788  1.00  0.00     0.031 C 
ATOM     45  C   UNL A   1      39.722  26.497  28.231  1.00  0.00     0.029 A 
ATOM     46  C   UNL A   1      40.597  27.552  28.733  1.00  0.00     0.049 A 
ATOM     47  H   UNL A   1      42.659  27.465  29.007  1.00  0.00     0.167 HD
ATOM     48  C   UNL A   1      46.968  27.181  29.541  1.00  0.00     0.031 A 
ATOM     49  C   UNL A   1      40.194  28.781  29.109  1.00  0.00     0.031 A 
ATOM     50  C   UNL A   1      46.644  28.541  29.885  1.00  0.00     0.049 A 
ATOM     51  C   UNL A   1      41.211  29.776  29.595  1.00  0.00     0.074 A 
ATOM     52  C   UNL A   1      47.500  29.562  30.264  1.00  0.00     0.029 A 
ATOM     53  N   UNL A   1      45.362  29.068  29.904  1.00  0.00    -0.354 N 
ATOM     54  N   UNL A   1      42.510  29.647  29.701  1.00  0.00    -0.248 NA
ATOM     55  C   UNL A   1      40.702  31.094  30.003  1.00  0.00     0.031 C 
ATOM     56  C   UNL A   1      46.730  30.690  30.567  1.00  0.00     0.029 A 
ATOM     57  C   UNL A   1      45.401  30.389  30.319  1.00  0.00     0.049 A 
ATOM     58  H   UNL A   1      44.545  28.576  29.659  1.00  0.00     0.167 HD
ATOM     59  C   UNL A   1      42.977  30.870  30.166  1.00  0.00     0.074 A 
ATOM     60  C   UNL A   1      41.824  31.736  30.300  1.00  0.00     0.031 C 
ATOM     61  C   UNL A   1      44.248  31.242  30.455  1.00  0.00     0.031 A 
BRANCH  48  62
ATOM     62  C   UNL A   1      48.404  26.745  29.654  1.00  0.00    -0.014 A 
ATOM     63  C   UNL A   1      48.892  26.142  30.825  1.00  0.00     0.009 A 
ATOM     64  C   UNL A   1      49.270  26.901  28.559  1.00  0.00     0.009 A 
ATOM     65  C   UNL A   1      50.226  25.737  30.909  1.00  0.00     0.001 A 
ATOM     66  C   UNL A   1      50.595  26.468  28.636  1.00  0.00     0.001 A 
ATOM     67  C   UNL A   1      51.074  25.897  29.815  1.00  0.00     0.000 A 
ENDBRANCH  48  62
BRANCH  49  68
ATOM     68  C   UNL A   1      38.755  29.147  29.035  1.00  0.00    -0.014 A 
ATOM     69  C   UNL A   1      38.200  29.622  27.838  1.00  0.00     0.009 A 
ATOM     70  C   UNL A   1      37.933  29.037  30.168  1.00  0.00     0.009 A 
ATOM     71  C   UNL A   1      36.857  30.004  27.783  1.00  0.00     0.001 A 
ATOM     72  C   UNL A   1      36.584  29.390  30.102  1.00  0.00     0.001 A 
ATOM     73  C   UNL A   1      36.049  29.883  28.913  1.00  0.00     0.000 A 
ENDBRANCH  49  68
BRANCH  61  74
ATOM     74  C   UNL A   1      44.462  32.655  30.920  1.00  0.00    -0.014 A 
ATOM     75  C   UNL A   1      44.450  32.984  32.284  1.00  0.00     0.009 A 
ATOM     76  C   UNL A   1      44.716  33.666  29.980  1.00  0.00     0.009 A 
ATOM     77  C   UNL A   1      44.652  34.304  32.695  1.00  0.00     0.001 A 
ATOM     78  C   UNL A   1      44.948  34.978  30.395  1.00  0.00     0.001 A 
ATOM     79  C   UNL A   1      44.906  35.298  31.751  1.00  0.00     0.000 A 
ENDBRANCH  61  74
ENDBRANCH  35  36
ENDBRANCH  27  30
ENDBRANCH  25  26
ENDBRANCH  24  25
ENDBRANCH   1  24
TORSDOF 14
ENDMDL
