MODEL 1
REMARK VINA RESULT:     -11.8      0.000      0.000
REMARK SMILES Cc1c[nH]c(C[N@H+]2C[C@@H]3CN(S(C)(=O)=O)C[C@]3(C(=O)NCCCNC(=O)c3ccc(-c4c5nc(c(-c6ccccc6)c6ccc([nH]6)c(-c6ccccc6)c6nc(c(-c7ccccc7)c7ccc4[nH]7)C=C6)C=C5)cc3)C2)n1
REMARK SMILES IDX 22 1 21 2 20 3 18 4 19 5 17 7 7 8 8 9 75 10 9 12 10 13 16 14
REMARK SMILES IDX 11 15 6 16 5 17 1 18 2 19 3 20 76 21 4 22 12 24 13 25 14 26
REMARK SMILES IDX 15 27 23 28 24 29 25 30 26 32 27 33 28 34 74 35 29 36 73 37
REMARK SMILES IDX 30 38 31 39 32 40 67 41 33 42 72 43 66 44 68 45 34 46 71 47
REMARK SMILES IDX 65 48 64 49 35 51 57 52 42 53 56 54 43 55 46 56 55 57 69 58
REMARK SMILES IDX 44 59 45 60 54 62 70 63 47 64 36 65 37 66 41 67 38 68 40 69
REMARK SMILES IDX 39 70 58 71 59 72 63 73 60 74 62 75 61 76 48 77 49 78 53 79
REMARK SMILES IDX 50 80 52 81 51 82
REMARK H PARENT 20 6 7 11 4 23 24 31 68 50 46 61
REMARK Flexibility Score: inf
ROOT
ATOM      1  C   UNL A   1      33.938  28.544  25.777  1.00  0.00     0.042 C 
ENDROOT
BRANCH   1   2
ATOM      2  C   UNL A   1      33.057  29.441  24.910  1.00  0.00     0.117 C 
BRANCH   2   3
ATOM      3  N   UNL A   1      33.140  29.044  23.515  1.00  0.00    -0.355 N 
ATOM      4  C   UNL A   1      32.731  27.851  22.958  1.00  0.00     0.233 C 
ATOM      5  O   UNL A   1      33.289  27.488  21.922  1.00  0.00    -0.274 OA
ATOM      6  H   UNL A   1      33.533  29.701  22.896  1.00  0.00     0.163 HD
BRANCH   4   7
ATOM      7  C   UNL A   1      31.568  27.076  23.690  1.00  0.00     0.121 C 
ATOM      8  N   UNL A   1      29.244  28.057  23.532  1.00  0.00    -0.327 N 
ATOM      9  C   UNL A   1      29.113  26.676  23.929  1.00  0.00     0.268 C 
ATOM     10  C   UNL A   1      30.624  28.181  23.010  1.00  0.00     0.281 C 
ATOM     11  H   UNL A   1      29.081  28.676  24.326  1.00  0.00     0.348 HD
ATOM     12  C   UNL A   1      30.377  26.043  23.382  1.00  0.00     0.082 C 
ATOM     13  C   UNL A   1      30.587  24.703  24.084  1.00  0.00     0.113 C 
ATOM     14  C   UNL A   1      32.537  25.838  23.584  1.00  0.00     0.125 C 
ATOM     15  N   UNL A   1      31.981  24.782  24.464  1.00  0.00    -0.200 NA
BRANCH   8  16
ATOM     16  C   UNL A   1      28.220  28.501  22.559  1.00  0.00     0.338 C 
BRANCH  16  17
ATOM     17  C   UNL A   1      28.194  29.980  22.282  1.00  0.00     0.161 A 
ATOM     18  C   UNL A   1      28.891  33.389  23.017  1.00  0.00     0.068 C 
ATOM     19  C   UNL A   1      28.500  32.112  22.384  1.00  0.00     0.056 A 
ATOM     20  C   UNL A   1      28.127  31.847  21.086  1.00  0.00     0.107 A 
ATOM     21  N   UNL A   1      28.510  30.951  23.116  1.00  0.00    -0.233 NA
ATOM     22  N   UNL A   1      27.904  30.498  21.042  1.00  0.00    -0.344 N 
ATOM     23  H   UNL A   1      27.590  29.989  20.260  1.00  0.00     0.167 HD
ENDBRANCH  16  17
ENDBRANCH   8  16
BRANCH  15  24
ATOM     24  S   UNL A   1      32.379  24.698  26.098  1.00  0.00     0.211 S 
ATOM     25  C   UNL A   1      32.135  22.980  26.543  1.00  0.00     0.176 C 
ATOM     26  O   UNL A   1      33.794  24.959  26.215  1.00  0.00    -0.213 OA
ATOM     27  O   UNL A   1      31.410  25.488  26.831  1.00  0.00    -0.213 OA
ENDBRANCH  15  24
ENDBRANCH   4   7
ENDBRANCH   2   3
ENDBRANCH   1   2
BRANCH   1  28
ATOM     28  C   UNL A   1      33.646  28.707  27.256  1.00  0.00     0.118 C 
BRANCH  28  29
ATOM     29  N   UNL A   1      33.672  30.112  27.635  1.00  0.00    -0.352 N 
ATOM     30  C   UNL A   1      34.589  30.787  28.402  1.00  0.00     0.251 C 
ATOM     31  H   UNL A   1      32.926  30.656  27.293  1.00  0.00     0.163 HD
ATOM     32  O   UNL A   1      34.268  31.847  28.934  1.00  0.00    -0.269 OA
BRANCH  30  33
ATOM     33  C   UNL A   1      35.959  30.253  28.579  1.00  0.00     0.039 A 
ATOM     34  C   UNL A   1      36.320  29.680  29.801  1.00  0.00     0.014 A 
ATOM     35  C   UNL A   1      36.912  30.377  27.566  1.00  0.00     0.014 A 
ATOM     36  C   UNL A   1      37.623  29.209  29.988  1.00  0.00     0.010 A 
ATOM     37  C   UNL A   1      38.162  29.789  27.705  1.00  0.00     0.010 A 
ATOM     38  C   UNL A   1      38.549  29.240  28.933  1.00  0.00    -0.014 A 
BRANCH  38  39
ATOM     39  C   UNL A   1      39.946  28.769  29.102  1.00  0.00     0.031 A 
ATOM     40  C   UNL A   1      40.987  29.703  29.672  1.00  0.00     0.074 A 
ATOM     41  C   UNL A   1      40.292  27.533  28.691  1.00  0.00     0.049 A 
ATOM     42  N   UNL A   1      42.271  29.507  29.837  1.00  0.00    -0.248 NA
ATOM     43  C   UNL A   1      40.536  31.046  30.078  1.00  0.00     0.031 C 
ATOM     44  C   UNL A   1      39.387  26.554  28.082  1.00  0.00     0.029 A 
ATOM     45  N   UNL A   1      41.503  26.889  28.722  1.00  0.00    -0.354 N 
ATOM     46  C   UNL A   1      42.777  30.706  30.327  1.00  0.00     0.074 A 
ATOM     47  C   UNL A   1      41.679  31.641  30.385  1.00  0.00     0.031 C 
ATOM     48  C   UNL A   1      40.065  25.422  27.837  1.00  0.00     0.029 A 
ATOM     49  C   UNL A   1      41.459  25.610  28.219  1.00  0.00     0.049 A 
ATOM     50  H   UNL A   1      42.324  27.303  29.071  1.00  0.00     0.167 HD
ATOM     51  C   UNL A   1      44.040  30.997  30.716  1.00  0.00     0.031 A 
ATOM     52  C   UNL A   1      42.438  24.697  28.078  1.00  0.00     0.031 A 
ATOM     53  C   UNL A   1      45.122  30.051  30.695  1.00  0.00     0.049 A 
ATOM     54  C   UNL A   1      43.832  25.052  28.523  1.00  0.00     0.074 A 
ATOM     55  C   UNL A   1      46.419  30.218  31.146  1.00  0.00     0.029 A 
ATOM     56  N   UNL A   1      45.031  28.762  30.196  1.00  0.00    -0.354 N 
ATOM     57  N   UNL A   1      44.273  26.160  29.069  1.00  0.00    -0.248 NA
ATOM     58  C   UNL A   1      44.862  24.019  28.345  1.00  0.00     0.031 C 
ATOM     59  C   UNL A   1      47.132  29.052  30.860  1.00  0.00     0.029 A 
ATOM     60  C   UNL A   1      46.259  28.133  30.299  1.00  0.00     0.049 A 
ATOM     61  H   UNL A   1      44.215  28.355  29.824  1.00  0.00     0.167 HD
ATOM     62  C   UNL A   1      45.618  25.941  29.337  1.00  0.00     0.074 A 
ATOM     63  C   UNL A   1      45.915  24.589  28.911  1.00  0.00     0.031 C 
ATOM     64  C   UNL A   1      46.529  26.781  29.885  1.00  0.00     0.031 A 
BRANCH  51  65
ATOM     65  C   UNL A   1      44.329  32.393  31.195  1.00  0.00    -0.014 A 
ATOM     66  C   UNL A   1      44.222  32.742  32.550  1.00  0.00     0.009 A 
ATOM     67  C   UNL A   1      44.785  33.358  30.281  1.00  0.00     0.009 A 
ATOM     68  C   UNL A   1      44.541  34.034  32.976  1.00  0.00     0.001 A 
ATOM     69  C   UNL A   1      45.132  34.638  30.714  1.00  0.00     0.001 A 
ATOM     70  C   UNL A   1      45.004  34.978  32.059  1.00  0.00     0.000 A 
ENDBRANCH  51  65
BRANCH  52  71
ATOM     71  C   UNL A   1      42.150  23.357  27.499  1.00  0.00    -0.014 A 
ATOM     72  C   UNL A   1      41.579  22.346  28.289  1.00  0.00     0.009 A 
ATOM     73  C   UNL A   1      42.490  23.063  26.170  1.00  0.00     0.009 A 
ATOM     74  C   UNL A   1      41.404  21.058  27.776  1.00  0.00     0.001 A 
ATOM     75  C   UNL A   1      42.278  21.785  25.648  1.00  0.00     0.001 A 
ATOM     76  C   UNL A   1      41.752  20.779  26.456  1.00  0.00     0.000 A 
ENDBRANCH  52  71
BRANCH  64  77
ATOM     77  C   UNL A   1      47.912  26.241  30.115  1.00  0.00    -0.014 A 
ATOM     78  C   UNL A   1      48.312  25.749  31.367  1.00  0.00     0.009 A 
ATOM     79  C   UNL A   1      48.818  26.192  29.043  1.00  0.00     0.009 A 
ATOM     80  C   UNL A   1      49.608  25.263  31.552  1.00  0.00     0.001 A 
ATOM     81  C   UNL A   1      50.099  25.671  29.221  1.00  0.00     0.001 A 
ATOM     82  C   UNL A   1      50.497  25.219  30.478  1.00  0.00     0.000 A 
ENDBRANCH  64  77
ENDBRANCH  38  39
ENDBRANCH  30  33
ENDBRANCH  28  29
ENDBRANCH   1  28
TORSDOF 13
ENDMDL
MODEL 2
REMARK VINA RESULT:     -11.7      2.114      4.487
REMARK SMILES Cc1c[nH]c(C[N@H+]2C[C@@H]3CN(S(C)(=O)=O)C[C@]3(C(=O)NCCCNC(=O)c3ccc(-c4c5nc(c(-c6ccccc6)c6ccc([nH]6)c(-c6ccccc6)c6nc(c(-c7ccccc7)c7ccc4[nH]7)C=C6)C=C5)cc3)C2)n1
REMARK SMILES IDX 22 1 21 2 20 3 18 4 19 5 17 7 7 8 8 9 75 10 9 12 10 13 16 14
REMARK SMILES IDX 11 15 6 16 5 17 1 18 2 19 3 20 76 21 4 22 12 24 13 25 14 26
REMARK SMILES IDX 15 27 23 28 24 29 25 30 26 32 27 33 28 34 74 35 29 36 73 37
REMARK SMILES IDX 30 38 31 39 32 40 67 41 33 42 72 43 66 44 68 45 34 46 71 47
REMARK SMILES IDX 65 48 64 49 35 51 57 52 42 53 56 54 43 55 46 56 55 57 69 58
REMARK SMILES IDX 44 59 45 60 54 62 70 63 47 64 36 65 37 66 41 67 38 68 40 69
REMARK SMILES IDX 39 70 58 71 59 72 63 73 60 74 62 75 61 76 48 77 49 78 53 79
REMARK SMILES IDX 50 80 52 81 51 82
REMARK H PARENT 20 6 7 11 4 23 24 31 68 50 46 61
REMARK Flexibility Score: inf
ROOT
ATOM      1  C   UNL A   1      33.201  28.086  27.155  1.00  0.00     0.042 C 
ENDROOT
BRANCH   1   2
ATOM      2  C   UNL A   1      31.679  28.146  27.049  1.00  0.00     0.117 C 
BRANCH   2   3
ATOM      3  N   UNL A   1      31.108  26.812  27.123  1.00  0.00    -0.355 N 
ATOM      4  C   UNL A   1      30.745  25.997  26.071  1.00  0.00     0.233 C 
ATOM      5  O   UNL A   1      29.869  25.158  26.281  1.00  0.00    -0.274 OA
ATOM      6  H   UNL A   1      30.964  26.447  28.026  1.00  0.00     0.163 HD
BRANCH   4   7
ATOM      7  C   UNL A   1      31.505  26.205  24.704  1.00  0.00     0.121 C 
ATOM      8  N   UNL A   1      33.591  24.830  24.319  1.00  0.00    -0.327 N 
ATOM      9  C   UNL A   1      33.143  25.320  23.038  1.00  0.00     0.268 C 
ATOM     10  C   UNL A   1      32.434  25.005  25.227  1.00  0.00     0.281 C 
ATOM     11  H   UNL A   1      34.406  25.352  24.639  1.00  0.00     0.348 HD
ATOM     12  C   UNL A   1      31.658  25.532  23.254  1.00  0.00     0.082 C 
ATOM     13  C   UNL A   1      31.135  26.442  22.144  1.00  0.00     0.113 C 
ATOM     14  C   UNL A   1      30.117  26.752  24.195  1.00  0.00     0.125 C 
ATOM     15  N   UNL A   1      30.370  27.414  22.893  1.00  0.00    -0.200 NA
BRANCH   8  16
ATOM     16  C   UNL A   1      34.090  23.437  24.287  1.00  0.00     0.338 C 
BRANCH  16  17
ATOM     17  C   UNL A   1      35.425  23.216  24.946  1.00  0.00     0.161 A 
ATOM     18  C   UNL A   1      38.462  21.456  25.519  1.00  0.00     0.068 C 
ATOM     19  C   UNL A   1      37.363  22.445  25.489  1.00  0.00     0.056 A 
ATOM     20  C   UNL A   1      37.323  23.734  25.969  1.00  0.00     0.107 A 
ATOM     21  N   UNL A   1      36.172  22.132  24.883  1.00  0.00    -0.233 NA
ATOM     22  N   UNL A   1      36.079  24.201  25.648  1.00  0.00    -0.344 N 
ATOM     23  H   UNL A   1      35.715  25.086  25.880  1.00  0.00     0.167 HD
ENDBRANCH  16  17
ENDBRANCH   8  16
BRANCH  15  24
ATOM     24  S   UNL A   1      30.815  29.036  22.802  1.00  0.00     0.211 S 
ATOM     25  C   UNL A   1      32.599  29.015  22.647  1.00  0.00     0.176 C 
ATOM     26  O   UNL A   1      30.297  29.560  21.560  1.00  0.00    -0.213 OA
ATOM     27  O   UNL A   1      30.487  29.658  24.069  1.00  0.00    -0.213 OA
ENDBRANCH  15  24
ENDBRANCH   4   7
ENDBRANCH   2   3
ENDBRANCH   1   2
BRANCH   1  28
ATOM     28  C   UNL A   1      33.883  29.035  26.189  1.00  0.00     0.118 C 
BRANCH  28  29
ATOM     29  N   UNL A   1      33.828  30.402  26.684  1.00  0.00    -0.352 N 
ATOM     30  C   UNL A   1      34.543  30.987  27.700  1.00  0.00     0.251 C 
ATOM     31  H   UNL A   1      33.186  30.992  26.226  1.00  0.00     0.163 HD
ATOM     32  O   UNL A   1      34.113  32.007  28.231  1.00  0.00    -0.269 OA
BRANCH  30  33
ATOM     33  C   UNL A   1      35.831  30.405  28.144  1.00  0.00     0.039 A 
ATOM     34  C   UNL A   1      35.911  29.794  29.398  1.00  0.00     0.014 A 
ATOM     35  C   UNL A   1      36.977  30.517  27.355  1.00  0.00     0.014 A 
ATOM     36  C   UNL A   1      37.132  29.276  29.840  1.00  0.00     0.010 A 
ATOM     37  C   UNL A   1      38.153  29.886  27.736  1.00  0.00     0.010 A 
ATOM     38  C   UNL A   1      38.259  29.299  29.003  1.00  0.00    -0.014 A 
BRANCH  38  39
ATOM     39  C   UNL A   1      39.576  28.777  29.447  1.00  0.00     0.031 A 
ATOM     40  C   UNL A   1      40.424  29.595  30.392  1.00  0.00     0.074 A 
ATOM     41  C   UNL A   1      40.035  27.609  28.958  1.00  0.00     0.049 A 
ATOM     42  N   UNL A   1      41.628  29.349  30.844  1.00  0.00    -0.248 NA
ATOM     43  C   UNL A   1      39.863  30.873  30.865  1.00  0.00     0.031 C 
ATOM     44  C   UNL A   1      39.329  26.750  28.004  1.00  0.00     0.029 A 
ATOM     45  N   UNL A   1      41.209  26.941  29.198  1.00  0.00    -0.354 N 
ATOM     46  C   UNL A   1      41.973  30.452  31.618  1.00  0.00     0.074 A 
ATOM     47  C   UNL A   1      40.881  31.392  31.535  1.00  0.00     0.031 C 
ATOM     48  C   UNL A   1      40.066  25.651  27.772  1.00  0.00     0.029 A 
ATOM     49  C   UNL A   1      41.315  25.752  28.517  1.00  0.00     0.049 A 
ATOM     50  H   UNL A   1      41.909  27.282  29.800  1.00  0.00     0.167 HD
ATOM     51  C   UNL A   1      43.092  30.655  32.352  1.00  0.00     0.031 A 
ATOM     52  C   UNL A   1      42.313  24.849  28.494  1.00  0.00     0.031 A 
ATOM     53  C   UNL A   1      44.160  29.700  32.464  1.00  0.00     0.049 A 
ATOM     54  C   UNL A   1      43.543  25.104  29.323  1.00  0.00     0.074 A 
ATOM     55  C   UNL A   1      45.298  29.771  33.247  1.00  0.00     0.029 A 
ATOM     56  N   UNL A   1      44.219  28.501  31.774  1.00  0.00    -0.354 N 
ATOM     57  N   UNL A   1      43.813  26.110  30.120  1.00  0.00    -0.248 NA
ATOM     58  C   UNL A   1      44.602  24.086  29.259  1.00  0.00     0.031 C 
ATOM     59  C   UNL A   1      46.080  28.645  32.981  1.00  0.00     0.029 A 
ATOM     60  C   UNL A   1      45.392  27.837  32.089  1.00  0.00     0.049 A 
ATOM     61  H   UNL A   1      43.531  28.171  31.152  1.00  0.00     0.167 HD
ATOM     62  C   UNL A   1      45.051  25.825  30.683  1.00  0.00     0.074 A 
ATOM     63  C   UNL A   1      45.468  24.544  30.151  1.00  0.00     0.031 C 
ATOM     64  C   UNL A   1      45.780  26.556  31.561  1.00  0.00     0.031 A 
BRANCH  51  65
ATOM     65  C   UNL A   1      43.228  31.960  33.089  1.00  0.00    -0.014 A 
ATOM     66  C   UNL A   1      43.855  33.072  32.504  1.00  0.00     0.009 A 
ATOM     67  C   UNL A   1      42.657  32.097  34.364  1.00  0.00     0.009 A 
ATOM     68  C   UNL A   1      43.928  34.285  33.192  1.00  0.00     0.001 A 
ATOM     69  C   UNL A   1      42.704  33.319  35.036  1.00  0.00     0.001 A 
ATOM     70  C   UNL A   1      43.345  34.411  34.453  1.00  0.00     0.000 A 
ENDBRANCH  51  65
BRANCH  52  71
ATOM     71  C   UNL A   1      42.203  23.615  27.670  1.00  0.00    -0.014 A 
ATOM     72  C   UNL A   1      41.652  22.441  28.211  1.00  0.00     0.009 A 
ATOM     73  C   UNL A   1      42.692  23.585  26.355  1.00  0.00     0.009 A 
ATOM     74  C   UNL A   1      41.642  21.255  27.472  1.00  0.00     0.001 A 
ATOM     75  C   UNL A   1      42.646  22.408  25.605  1.00  0.00     0.001 A 
ATOM     76  C   UNL A   1      42.138  21.240  26.170  1.00  0.00     0.000 A 
ENDBRANCH  52  71
BRANCH  64  77
ATOM     77  C   UNL A   1      47.069  25.958  32.050  1.00  0.00    -0.014 A 
ATOM     78  C   UNL A   1      47.140  25.246  33.257  1.00  0.00     0.009 A 
ATOM     79  C   UNL A   1      48.226  26.082  31.263  1.00  0.00     0.009 A 
ATOM     80  C   UNL A   1      48.355  24.711  33.689  1.00  0.00     0.001 A 
ATOM     81  C   UNL A   1      49.430  25.514  31.679  1.00  0.00     0.001 A 
ATOM     82  C   UNL A   1      49.496  24.841  32.897  1.00  0.00     0.000 A 
ENDBRANCH  64  77
ENDBRANCH  38  39
ENDBRANCH  30  33
ENDBRANCH  28  29
ENDBRANCH   1  28
TORSDOF 13
ENDMDL
MODEL 3
REMARK VINA RESULT:     -11.5      2.478      4.776
REMARK SMILES Cc1c[nH]c(C[N@H+]2C[C@@H]3CN(S(C)(=O)=O)C[C@]3(C(=O)NCCCNC(=O)c3ccc(-c4c5nc(c(-c6ccccc6)c6ccc([nH]6)c(-c6ccccc6)c6nc(c(-c7ccccc7)c7ccc4[nH]7)C=C6)C=C5)cc3)C2)n1
REMARK SMILES IDX 22 1 21 2 20 3 18 4 19 5 17 7 7 8 8 9 75 10 9 12 10 13 16 14
REMARK SMILES IDX 11 15 6 16 5 17 1 18 2 19 3 20 76 21 4 22 12 24 13 25 14 26
REMARK SMILES IDX 15 27 23 28 24 29 25 30 26 32 27 33 28 34 74 35 29 36 73 37
REMARK SMILES IDX 30 38 31 39 32 40 67 41 33 42 72 43 66 44 68 45 34 46 71 47
REMARK SMILES IDX 65 48 64 49 35 51 57 52 42 53 56 54 43 55 46 56 55 57 69 58
REMARK SMILES IDX 44 59 45 60 54 62 70 63 47 64 36 65 37 66 41 67 38 68 40 69
REMARK SMILES IDX 39 70 58 71 59 72 63 73 60 74 62 75 61 76 48 77 49 78 53 79
REMARK SMILES IDX 50 80 52 81 51 82
REMARK H PARENT 20 6 7 11 4 23 24 31 68 50 46 61
REMARK Flexibility Score: inf
ROOT
ATOM      1  C   UNL A   1      32.152  28.141  27.350  1.00  0.00     0.042 C 
ENDROOT
BRANCH   1   2
ATOM      2  C   UNL A   1      31.910  27.020  26.341  1.00  0.00     0.117 C 
BRANCH   2   3
ATOM      3  N   UNL A   1      31.452  25.816  27.014  1.00  0.00    -0.355 N 
ATOM      4  C   UNL A   1      31.286  24.562  26.466  1.00  0.00     0.233 C 
ATOM      5  O   UNL A   1      30.468  23.813  27.001  1.00  0.00    -0.274 OA
ATOM      6  H   UNL A   1      31.237  25.906  27.971  1.00  0.00     0.163 HD
BRANCH   4   7
ATOM      7  C   UNL A   1      32.179  24.198  25.217  1.00  0.00     0.121 C 
ATOM      8  N   UNL A   1      34.247  22.808  25.638  1.00  0.00    -0.327 N 
ATOM      9  C   UNL A   1      33.939  22.725  24.231  1.00  0.00     0.268 C 
ATOM     10  C   UNL A   1      33.016  23.328  26.275  1.00  0.00     0.281 C 
ATOM     11  H   UNL A   1      35.045  23.424  25.796  1.00  0.00     0.348 HD
ATOM     12  C   UNL A   1      32.448  22.991  24.192  1.00  0.00     0.082 C 
ATOM     13  C   UNL A   1      32.061  23.360  22.761  1.00  0.00     0.113 C 
ATOM     14  C   UNL A   1      30.864  24.474  24.393  1.00  0.00     0.125 C 
ATOM     15  N   UNL A   1      31.259  24.546  22.966  1.00  0.00    -0.200 NA
BRANCH   8  16
ATOM     16  C   UNL A   1      34.703  21.530  26.229  1.00  0.00     0.338 C 
BRANCH  16  17
ATOM     17  C   UNL A   1      34.077  20.291  25.646  1.00  0.00     0.161 A 
ATOM     18  C   UNL A   1      34.031  17.389  23.591  1.00  0.00     0.068 C 
ATOM     19  C   UNL A   1      33.734  18.453  24.573  1.00  0.00     0.056 A 
ATOM     20  C   UNL A   1      32.743  18.524  25.525  1.00  0.00     0.107 A 
ATOM     21  N   UNL A   1      34.533  19.567  24.644  1.00  0.00    -0.233 NA
ATOM     22  N   UNL A   1      32.951  19.709  26.176  1.00  0.00    -0.344 N 
ATOM     23  H   UNL A   1      32.391  20.079  26.898  1.00  0.00     0.167 HD
ENDBRANCH  16  17
ENDBRANCH   8  16
BRANCH  15  24
ATOM     24  S   UNL A   1      31.762  25.992  22.264  1.00  0.00     0.211 S 
ATOM     25  C   UNL A   1      33.549  25.966  22.388  1.00  0.00     0.176 C 
ATOM     26  O   UNL A   1      31.443  25.926  20.857  1.00  0.00    -0.213 OA
ATOM     27  O   UNL A   1      31.275  27.078  23.090  1.00  0.00    -0.213 OA
ENDBRANCH  15  24
ENDBRANCH   4   7
ENDBRANCH   2   3
ENDBRANCH   1   2
BRANCH   1  28
ATOM     28  C   UNL A   1      33.575  28.660  27.303  1.00  0.00     0.118 C 
BRANCH  28  29
ATOM     29  N   UNL A   1      33.614  30.085  27.591  1.00  0.00    -0.352 N 
ATOM     30  C   UNL A   1      34.537  30.799  28.316  1.00  0.00     0.251 C 
ATOM     31  H   UNL A   1      32.873  30.614  27.215  1.00  0.00     0.163 HD
ATOM     32  O   UNL A   1      34.225  31.894  28.778  1.00  0.00    -0.269 OA
BRANCH  30  33
ATOM     33  C   UNL A   1      35.902  30.265  28.528  1.00  0.00     0.039 A 
ATOM     34  C   UNL A   1      36.240  29.720  29.769  1.00  0.00     0.014 A 
ATOM     35  C   UNL A   1      36.871  30.361  27.527  1.00  0.00     0.014 A 
ATOM     36  C   UNL A   1      37.538  29.249  29.988  1.00  0.00     0.010 A 
ATOM     37  C   UNL A   1      38.117  29.773  27.701  1.00  0.00     0.010 A 
ATOM     38  C   UNL A   1      38.482  29.252  28.948  1.00  0.00    -0.014 A 
BRANCH  38  39
ATOM     39  C   UNL A   1      39.874  28.780  29.151  1.00  0.00     0.031 A 
ATOM     40  C   UNL A   1      40.900  29.712  29.750  1.00  0.00     0.074 A 
ATOM     41  C   UNL A   1      40.229  27.546  28.745  1.00  0.00     0.049 A 
ATOM     42  N   UNL A   1      42.179  29.515  29.947  1.00  0.00    -0.248 NA
ATOM     43  C   UNL A   1      40.439  31.054  30.148  1.00  0.00     0.031 C 
ATOM     44  C   UNL A   1      39.341  26.568  28.111  1.00  0.00     0.029 A 
ATOM     45  N   UNL A   1      41.440  26.901  28.806  1.00  0.00    -0.354 N 
ATOM     46  C   UNL A   1      42.672  30.713  30.453  1.00  0.00     0.074 A 
ATOM     47  C   UNL A   1      41.574  31.647  30.486  1.00  0.00     0.031 C 
ATOM     48  C   UNL A   1      40.025  25.437  27.879  1.00  0.00     0.029 A 
ATOM     49  C   UNL A   1      41.408  25.624  28.298  1.00  0.00     0.049 A 
ATOM     50  H   UNL A   1      42.252  27.314  29.176  1.00  0.00     0.167 HD
ATOM     51  C   UNL A   1      43.925  31.002  30.876  1.00  0.00     0.031 A 
ATOM     52  C   UNL A   1      42.391  24.711  28.178  1.00  0.00     0.031 A 
ATOM     53  C   UNL A   1      45.007  30.057  30.879  1.00  0.00     0.049 A 
ATOM     54  C   UNL A   1      43.772  25.064  28.660  1.00  0.00     0.074 A 
ATOM     55  C   UNL A   1      46.292  30.222  31.364  1.00  0.00     0.029 A 
ATOM     56  N   UNL A   1      44.929  28.769  30.375  1.00  0.00    -0.354 N 
ATOM     57  N   UNL A   1      44.199  26.171  29.220  1.00  0.00    -0.248 NA
ATOM     58  C   UNL A   1      44.807  24.031  28.505  1.00  0.00     0.031 C 
ATOM     59  C   UNL A   1      47.012  29.056  31.092  1.00  0.00     0.029 A 
ATOM     60  C   UNL A   1      46.154  28.139  30.507  1.00  0.00     0.049 A 
ATOM     61  H   UNL A   1      44.123  28.363  29.980  1.00  0.00     0.167 HD
ATOM     62  C   UNL A   1      45.537  25.951  29.522  1.00  0.00     0.074 A 
ATOM     63  C   UNL A   1      45.845  24.600  29.100  1.00  0.00     0.031 C 
ATOM     64  C   UNL A   1      46.434  26.789  30.096  1.00  0.00     0.031 A 
BRANCH  51  65
ATOM     65  C   UNL A   1      44.202  32.397  31.366  1.00  0.00    -0.014 A 
ATOM     66  C   UNL A   1      44.074  32.739  32.722  1.00  0.00     0.009 A 
ATOM     67  C   UNL A   1      44.667  33.368  30.464  1.00  0.00     0.009 A 
ATOM     68  C   UNL A   1      44.381  34.029  33.158  1.00  0.00     0.001 A 
ATOM     69  C   UNL A   1      45.004  34.648  30.909  1.00  0.00     0.001 A 
ATOM     70  C   UNL A   1      44.854  34.980  32.253  1.00  0.00     0.000 A 
ENDBRANCH  51  65
BRANCH  52  71
ATOM     71  C   UNL A   1      42.118  23.373  27.588  1.00  0.00    -0.014 A 
ATOM     72  C   UNL A   1      42.378  23.124  26.230  1.00  0.00     0.009 A 
ATOM     73  C   UNL A   1      41.548  22.351  28.364  1.00  0.00     0.009 A 
ATOM     74  C   UNL A   1      42.026  21.901  25.652  1.00  0.00     0.001 A 
ATOM     75  C   UNL A   1      41.233  21.116  27.792  1.00  0.00     0.001 A 
ATOM     76  C   UNL A   1      41.455  20.899  26.434  1.00  0.00     0.000 A 
ENDBRANCH  52  71
BRANCH  64  77
ATOM     77  C   UNL A   1      47.811  26.248  30.359  1.00  0.00    -0.014 A 
ATOM     78  C   UNL A   1      48.796  26.223  29.361  1.00  0.00     0.009 A 
ATOM     79  C   UNL A   1      48.134  25.788  31.646  1.00  0.00     0.009 A 
ATOM     80  C   UNL A   1      50.064  25.705  29.634  1.00  0.00     0.001 A 
ATOM     81  C   UNL A   1      49.412  25.306  31.926  1.00  0.00     0.001 A 
ATOM     82  C   UNL A   1      50.371  25.253  30.917  1.00  0.00     0.000 A 
ENDBRANCH  64  77
ENDBRANCH  38  39
ENDBRANCH  30  33
ENDBRANCH  28  29
ENDBRANCH   1  28
TORSDOF 13
ENDMDL
