MODEL 1
REMARK VINA RESULT:      -9.6      0.000      0.000
REMARK SMILES C[NH2+][C@@]1(C(=O)NCCCNC(=O)c2ccc(-c3c4nc(c(-c5ccccc5)c5ccc([nH]5)c(-c5ccccc5)c5nc(c(-c6ccccc6)c6ccc3[nH]6)C=C5)C=C4)cc2)CCC[C@H]1CCOC
REMARK SMILES IDX 7 1 6 2 4 3 5 4 3 6 61 7 64 8 62 9 63 10 2 11 1 12 65 15
REMARK SMILES IDX 66 16 67 17 68 18 8 19 9 20 10 21 11 22 12 24 13 25 14 26
REMARK SMILES IDX 60 27 15 28 59 29 16 30 17 31 18 32 53 33 19 34 58 35 52 36
REMARK SMILES IDX 54 37 20 38 57 39 51 40 50 41 21 43 43 44 28 45 42 46 29 47
REMARK SMILES IDX 32 48 41 49 55 50 30 51 31 52 40 54 56 55 33 56 22 57 23 58
REMARK SMILES IDX 27 59 24 60 26 61 25 62 44 63 45 64 49 65 46 66 48 67 47 68
REMARK SMILES IDX 34 69 35 70 39 71 36 72 38 73 37 74
REMARK H PARENT 6 5 2 13 2 14 10 23 54 42 32 53
REMARK Flexibility Score: inf
ROOT
ATOM      1  C   UNL A   1      36.654  20.472  24.920  1.00  0.00     0.118 C 
ENDROOT
BRANCH   1   2
ATOM      2  N   UNL A   1      35.415  19.731  24.916  1.00  0.00    -0.351 N 
ATOM      3  C   UNL A   1      34.113  20.108  24.986  1.00  0.00     0.281 C 
ATOM      4  O   UNL A   1      33.320  19.160  25.117  1.00  0.00    -0.268 OA
ATOM      5  H   UNL A   1      35.539  18.757  24.850  1.00  0.00     0.163 HD
BRANCH   3   6
ATOM      6  C   UNL A   1      33.578  21.619  24.996  1.00  0.00     0.178 C 
ATOM      7  C   UNL A   1      32.037  21.679  24.955  1.00  0.00     0.079 C 
ATOM      8  C   UNL A   1      34.101  22.312  23.693  1.00  0.00     0.063 C 
ATOM      9  C   UNL A   1      31.618  22.335  23.648  1.00  0.00     0.008 C 
ATOM     10  C   UNL A   1      32.861  22.543  22.805  1.00  0.00     0.011 C 
BRANCH   6  11
ATOM     11  N   UNL A   1      34.059  22.108  26.302  1.00  0.00    -0.336 N 
ATOM     12  C   UNL A   1      33.243  22.888  27.196  1.00  0.00     0.331 C 
ATOM     13  H   UNL A   1      34.339  21.280  26.827  1.00  0.00     0.346 HD
ATOM     14  H   UNL A   1      34.761  22.792  26.017  1.00  0.00     0.346 HD
ENDBRANCH   6  11
BRANCH   8  15
ATOM     15  C   UNL A   1      34.902  23.629  23.749  1.00  0.00     0.039 C 
BRANCH  15  16
ATOM     16  C   UNL A   1      36.341  23.590  24.263  1.00  0.00     0.160 C 
BRANCH  16  17
ATOM     17  O   UNL A   1      36.456  24.015  25.618  1.00  0.00    -0.385 OA
ATOM     18  C   UNL A   1      37.748  23.837  26.179  1.00  0.00     0.194 C 
ENDBRANCH  16  17
ENDBRANCH  15  16
ENDBRANCH   8  15
ENDBRANCH   3   6
ENDBRANCH   1   2
BRANCH   1  19
ATOM     19  C   UNL A   1      37.864  19.547  24.938  1.00  0.00     0.042 C 
BRANCH  19  20
ATOM     20  C   UNL A   1      39.032  20.120  25.730  1.00  0.00     0.118 C 
BRANCH  20  21
ATOM     21  N   UNL A   1      40.121  19.157  25.870  1.00  0.00    -0.352 N 
ATOM     22  C   UNL A   1      41.463  19.349  26.082  1.00  0.00     0.251 C 
ATOM     23  H   UNL A   1      39.846  18.215  25.802  1.00  0.00     0.163 HD
ATOM     24  O   UNL A   1      42.241  18.415  25.923  1.00  0.00    -0.269 OA
BRANCH  22  25
ATOM     25  C   UNL A   1      41.976  20.673  26.493  1.00  0.00     0.039 A 
ATOM     26  C   UNL A   1      42.346  21.594  25.509  1.00  0.00     0.014 A 
ATOM     27  C   UNL A   1      42.129  20.993  27.843  1.00  0.00     0.014 A 
ATOM     28  C   UNL A   1      42.811  22.856  25.883  1.00  0.00     0.010 A 
ATOM     29  C   UNL A   1      42.491  22.282  28.212  1.00  0.00     0.010 A 
ATOM     30  C   UNL A   1      42.853  23.222  27.238  1.00  0.00    -0.014 A 
BRANCH  30  31
ATOM     31  C   UNL A   1      43.297  24.571  27.665  1.00  0.00     0.031 A 
ATOM     32  C   UNL A   1      42.277  25.623  28.012  1.00  0.00     0.074 A 
ATOM     33  C   UNL A   1      44.610  24.871  27.670  1.00  0.00     0.049 A 
ATOM     34  N   UNL A   1      42.461  26.879  28.331  1.00  0.00    -0.248 NA
ATOM     35  C   UNL A   1      40.862  25.219  27.963  1.00  0.00     0.031 C 
ATOM     36  C   UNL A   1      45.694  23.952  27.313  1.00  0.00     0.029 A 
ATOM     37  N   UNL A   1      45.257  26.041  27.981  1.00  0.00    -0.354 N 
ATOM     38  C   UNL A   1      41.191  27.416  28.492  1.00  0.00     0.074 A 
ATOM     39  C   UNL A   1      40.244  26.369  28.181  1.00  0.00     0.031 C 
ATOM     40  C   UNL A   1      46.870  24.582  27.459  1.00  0.00     0.029 A 
ATOM     41  C   UNL A   1      46.623  25.959  27.872  1.00  0.00     0.049 A 
ATOM     42  H   UNL A   1      44.785  26.861  28.256  1.00  0.00     0.167 HD
ATOM     43  C   UNL A   1      40.840  28.664  28.886  1.00  0.00     0.031 A 
ATOM     44  C   UNL A   1      47.572  26.893  28.076  1.00  0.00     0.031 A 
ATOM     45  C   UNL A   1      41.784  29.698  29.210  1.00  0.00     0.049 A 
ATOM     46  C   UNL A   1      47.157  28.274  28.501  1.00  0.00     0.074 A 
ATOM     47  C   UNL A   1      41.536  30.976  29.679  1.00  0.00     0.029 A 
ATOM     48  N   UNL A   1      43.160  29.572  29.096  1.00  0.00    -0.354 N 
ATOM     49  N   UNL A   1      45.953  28.746  28.720  1.00  0.00    -0.248 NA
ATOM     50  C   UNL A   1      48.236  29.248  28.720  1.00  0.00     0.031 C 
ATOM     51  C   UNL A   1      42.760  31.642  29.795  1.00  0.00     0.029 A 
ATOM     52  C   UNL A   1      43.774  30.758  29.461  1.00  0.00     0.049 A 
ATOM     53  H   UNL A   1      43.631  28.759  28.800  1.00  0.00     0.167 HD
ATOM     54  C   UNL A   1      46.131  30.060  29.133  1.00  0.00     0.074 A 
ATOM     55  C   UNL A   1      47.559  30.304  29.148  1.00  0.00     0.031 C 
ATOM     56  C   UNL A   1      45.196  30.982  29.471  1.00  0.00     0.031 A 
BRANCH  43  57
ATOM     57  C   UNL A   1      39.371  28.975  28.976  1.00  0.00    -0.014 A 
ATOM     58  C   UNL A   1      38.642  28.731  30.152  1.00  0.00     0.009 A 
ATOM     59  C   UNL A   1      38.709  29.544  27.876  1.00  0.00     0.009 A 
ATOM     60  C   UNL A   1      37.274  29.010  30.209  1.00  0.00     0.001 A 
ATOM     61  C   UNL A   1      37.349  29.853  27.947  1.00  0.00     0.001 A 
ATOM     62  C   UNL A   1      36.631  29.574  29.108  1.00  0.00     0.000 A 
ENDBRANCH  43  57
BRANCH  44  63
ATOM     63  C   UNL A   1      49.008  26.550  27.900  1.00  0.00    -0.014 A 
ATOM     64  C   UNL A   1      49.644  26.764  26.668  1.00  0.00     0.009 A 
ATOM     65  C   UNL A   1      49.749  26.005  28.960  1.00  0.00     0.009 A 
ATOM     66  C   UNL A   1      50.983  26.409  26.490  1.00  0.00     0.001 A 
ATOM     67  C   UNL A   1      51.097  25.681  28.789  1.00  0.00     0.001 A 
ATOM     68  C   UNL A   1      51.709  25.873  27.551  1.00  0.00     0.000 A 
ENDBRANCH  44  63
BRANCH  56  69
ATOM     69  C   UNL A   1      45.691  32.326  29.928  1.00  0.00    -0.014 A 
ATOM     70  C   UNL A   1      45.872  33.386  29.027  1.00  0.00     0.009 A 
ATOM     71  C   UNL A   1      45.937  32.543  31.294  1.00  0.00     0.009 A 
ATOM     72  C   UNL A   1      46.325  34.626  29.480  1.00  0.00     0.001 A 
ATOM     73  C   UNL A   1      46.358  33.793  31.748  1.00  0.00     0.001 A 
ATOM     74  C   UNL A   1      46.562  34.831  30.839  1.00  0.00     0.000 A 
ENDBRANCH  56  69
ENDBRANCH  30  31
ENDBRANCH  22  25
ENDBRANCH  20  21
ENDBRANCH  19  20
ENDBRANCH   1  19
TORSDOF 14
ENDMDL
MODEL 2
REMARK VINA RESULT:      -9.6      1.595      6.467
REMARK SMILES C[NH2+][C@@]1(C(=O)NCCCNC(=O)c2ccc(-c3c4nc(c(-c5ccccc5)c5ccc([nH]5)c(-c5ccccc5)c5nc(c(-c6ccccc6)c6ccc3[nH]6)C=C5)C=C4)cc2)CCC[C@H]1CCOC
REMARK SMILES IDX 7 1 6 2 4 3 5 4 3 6 61 7 64 8 62 9 63 10 2 11 1 12 65 15
REMARK SMILES IDX 66 16 67 17 68 18 8 19 9 20 10 21 11 22 12 24 13 25 14 26
REMARK SMILES IDX 60 27 15 28 59 29 16 30 17 31 18 32 53 33 19 34 58 35 52 36
REMARK SMILES IDX 54 37 20 38 57 39 51 40 50 41 21 43 43 44 28 45 42 46 29 47
REMARK SMILES IDX 32 48 41 49 55 50 30 51 31 52 40 54 56 55 33 56 22 57 23 58
REMARK SMILES IDX 27 59 24 60 26 61 25 62 44 63 45 64 49 65 46 66 48 67 47 68
REMARK SMILES IDX 34 69 35 70 39 71 36 72 38 73 37 74
REMARK H PARENT 6 5 2 13 2 14 10 23 54 42 32 53
REMARK Flexibility Score: inf
ROOT
ATOM      1  C   UNL A   1      36.134  20.712  24.790  1.00  0.00     0.118 C 
ENDROOT
BRANCH   1   2
ATOM      2  N   UNL A   1      35.401  20.857  26.026  1.00  0.00    -0.351 N 
ATOM      3  C   UNL A   1      34.399  21.685  26.414  1.00  0.00     0.281 C 
ATOM      4  O   UNL A   1      34.130  21.617  27.625  1.00  0.00    -0.268 OA
ATOM      5  H   UNL A   1      35.685  20.227  26.727  1.00  0.00     0.163 HD
BRANCH   3   6
ATOM      6  C   UNL A   1      33.648  22.746  25.476  1.00  0.00     0.178 C 
ATOM      7  C   UNL A   1      33.311  22.149  24.095  1.00  0.00     0.079 C 
ATOM      8  C   UNL A   1      34.633  23.939  25.235  1.00  0.00     0.063 C 
ATOM      9  C   UNL A   1      34.101  22.908  23.039  1.00  0.00     0.008 C 
ATOM     10  C   UNL A   1      35.042  23.862  23.749  1.00  0.00     0.011 C 
BRANCH   6  11
ATOM     11  N   UNL A   1      32.403  22.995  26.227  1.00  0.00    -0.336 N 
ATOM     12  C   UNL A   1      31.124  22.476  25.817  1.00  0.00     0.331 C 
ATOM     13  H   UNL A   1      32.564  22.635  27.167  1.00  0.00     0.346 HD
ATOM     14  H   UNL A   1      32.274  23.997  26.080  1.00  0.00     0.346 HD
ENDBRANCH   6  11
BRANCH   8  15
ATOM     15  C   UNL A   1      34.224  25.394  25.544  1.00  0.00     0.039 C 
BRANCH  15  16
ATOM     16  C   UNL A   1      33.312  26.124  24.559  1.00  0.00     0.160 C 
BRANCH  16  17
ATOM     17  O   UNL A   1      31.968  25.651  24.595  1.00  0.00    -0.385 OA
ATOM     18  C   UNL A   1      31.389  25.437  23.317  1.00  0.00     0.194 C 
ENDBRANCH  16  17
ENDBRANCH  15  16
ENDBRANCH   8  15
ENDBRANCH   3   6
ENDBRANCH   1   2
BRANCH   1  19
ATOM     19  C   UNL A   1      37.312  19.758  24.941  1.00  0.00     0.042 C 
BRANCH  19  20
ATOM     20  C   UNL A   1      38.584  20.460  25.396  1.00  0.00     0.118 C 
BRANCH  20  21
ATOM     21  N   UNL A   1      39.670  19.516  25.644  1.00  0.00    -0.352 N 
ATOM     22  C   UNL A   1      40.964  19.727  26.048  1.00  0.00     0.251 C 
ATOM     23  H   UNL A   1      39.433  18.572  25.500  1.00  0.00     0.163 HD
ATOM     24  O   UNL A   1      41.782  18.817  25.959  1.00  0.00    -0.269 OA
BRANCH  22  25
ATOM     25  C   UNL A   1      41.379  21.041  26.581  1.00  0.00     0.039 A 
ATOM     26  C   UNL A   1      41.927  21.986  25.709  1.00  0.00     0.014 A 
ATOM     27  C   UNL A   1      41.265  21.329  27.942  1.00  0.00     0.014 A 
ATOM     28  C   UNL A   1      42.303  23.239  26.195  1.00  0.00     0.010 A 
ATOM     29  C   UNL A   1      41.541  22.609  28.404  1.00  0.00     0.010 A 
ATOM     30  C   UNL A   1      42.079  23.573  27.541  1.00  0.00    -0.014 A 
BRANCH  30  31
ATOM     31  C   UNL A   1      42.424  24.912  28.077  1.00  0.00     0.031 A 
ATOM     32  C   UNL A   1      43.840  25.214  28.491  1.00  0.00     0.074 A 
ATOM     33  C   UNL A   1      41.454  25.828  28.260  1.00  0.00     0.049 A 
ATOM     34  N   UNL A   1      44.324  26.293  29.051  1.00  0.00    -0.248 NA
ATOM     35  C   UNL A   1      44.836  24.152  28.276  1.00  0.00     0.031 C 
ATOM     36  C   UNL A   1      40.036  25.641  27.938  1.00  0.00     0.029 A 
ATOM     37  N   UNL A   1      41.513  27.101  28.769  1.00  0.00    -0.354 N 
ATOM     38  C   UNL A   1      45.669  26.027  29.279  1.00  0.00     0.074 A 
ATOM     39  C   UNL A   1      45.912  24.668  28.850  1.00  0.00     0.031 C 
ATOM     40  C   UNL A   1      39.368  26.770  28.225  1.00  0.00     0.029 A 
ATOM     41  C   UNL A   1      40.297  27.740  28.794  1.00  0.00     0.049 A 
ATOM     42  H   UNL A   1      42.347  27.516  29.086  1.00  0.00     0.167 HD
ATOM     43  C   UNL A   1      46.624  26.848  29.779  1.00  0.00     0.031 A 
ATOM     44  C   UNL A   1      39.967  28.970  29.232  1.00  0.00     0.031 A 
ATOM     45  C   UNL A   1      46.382  28.204  30.189  1.00  0.00     0.049 A 
ATOM     46  C   UNL A   1      41.043  29.857  29.793  1.00  0.00     0.074 A 
ATOM     47  C   UNL A   1      47.290  29.140  30.650  1.00  0.00     0.029 A 
ATOM     48  N   UNL A   1      45.138  28.817  30.189  1.00  0.00    -0.354 N 
ATOM     49  N   UNL A   1      42.325  29.617  29.934  1.00  0.00    -0.248 NA
ATOM     50  C   UNL A   1      40.626  31.192  30.246  1.00  0.00     0.031 C 
ATOM     51  C   UNL A   1      46.587  30.302  30.983  1.00  0.00     0.029 A 
ATOM     52  C   UNL A   1      45.251  30.111  30.668  1.00  0.00     0.049 A 
ATOM     53  H   UNL A   1      44.300  28.395  29.893  1.00  0.00     0.167 HD
ATOM     54  C   UNL A   1      42.872  30.780  30.460  1.00  0.00     0.074 A 
ATOM     55  C   UNL A   1      41.786  31.729  30.598  1.00  0.00     0.031 C 
ATOM     56  C   UNL A   1      44.159  31.040  30.797  1.00  0.00     0.031 A 
BRANCH  43  57
ATOM     57  C   UNL A   1      48.014  26.290  29.917  1.00  0.00    -0.014 A 
ATOM     58  C   UNL A   1      48.455  25.714  31.120  1.00  0.00     0.009 A 
ATOM     59  C   UNL A   1      48.890  26.318  28.821  1.00  0.00     0.009 A 
ATOM     60  C   UNL A   1      49.756  25.219  31.234  1.00  0.00     0.001 A 
ATOM     61  C   UNL A   1      50.179  25.792  28.927  1.00  0.00     0.001 A 
ATOM     62  C   UNL A   1      50.614  25.254  30.136  1.00  0.00     0.000 A 
ENDBRANCH  43  57
BRANCH  44  63
ATOM     63  C   UNL A   1      38.561  29.444  29.140  1.00  0.00    -0.014 A 
ATOM     64  C   UNL A   1      37.687  29.291  30.227  1.00  0.00     0.009 A 
ATOM     65  C   UNL A   1      38.083  30.046  27.966  1.00  0.00     0.009 A 
ATOM     66  C   UNL A   1      36.356  29.703  30.130  1.00  0.00     0.001 A 
ATOM     67  C   UNL A   1      36.760  30.486  27.883  1.00  0.00     0.001 A 
ATOM     68  C   UNL A   1      35.895  30.304  28.960  1.00  0.00     0.000 A 
ENDBRANCH  44  63
BRANCH  56  69
ATOM     69  C   UNL A   1      44.470  32.421  31.306  1.00  0.00    -0.014 A 
ATOM     70  C   UNL A   1      44.793  33.469  30.432  1.00  0.00     0.009 A 
ATOM     71  C   UNL A   1      44.394  32.681  32.684  1.00  0.00     0.009 A 
ATOM     72  C   UNL A   1      45.069  34.743  30.932  1.00  0.00     0.001 A 
ATOM     73  C   UNL A   1      44.638  33.963  33.178  1.00  0.00     0.001 A 
ATOM     74  C   UNL A   1      44.986  34.990  32.302  1.00  0.00     0.000 A 
ENDBRANCH  56  69
ENDBRANCH  30  31
ENDBRANCH  22  25
ENDBRANCH  20  21
ENDBRANCH  19  20
ENDBRANCH   1  19
TORSDOF 14
ENDMDL
MODEL 3
REMARK VINA RESULT:      -9.6      5.537     10.212
REMARK SMILES C[NH2+][C@@]1(C(=O)NCCCNC(=O)c2ccc(-c3c4nc(c(-c5ccccc5)c5ccc([nH]5)c(-c5ccccc5)c5nc(c(-c6ccccc6)c6ccc3[nH]6)C=C5)C=C4)cc2)CCC[C@H]1CCOC
REMARK SMILES IDX 7 1 6 2 4 3 5 4 3 6 61 7 64 8 62 9 63 10 2 11 1 12 65 15
REMARK SMILES IDX 66 16 67 17 68 18 8 19 9 20 10 21 11 22 12 24 13 25 14 26
REMARK SMILES IDX 60 27 15 28 59 29 16 30 17 31 18 32 53 33 19 34 58 35 52 36
REMARK SMILES IDX 54 37 20 38 57 39 51 40 50 41 21 43 43 44 28 45 42 46 29 47
REMARK SMILES IDX 32 48 41 49 55 50 30 51 31 52 40 54 56 55 33 56 22 57 23 58
REMARK SMILES IDX 27 59 24 60 26 61 25 62 44 63 45 64 49 65 46 66 48 67 47 68
REMARK SMILES IDX 34 69 35 70 39 71 36 72 38 73 37 74
REMARK H PARENT 6 5 2 13 2 14 10 23 54 42 32 53
REMARK Flexibility Score: inf
ROOT
ATOM      1  C   UNL A   1      31.415  30.637  25.699  1.00  0.00     0.118 C 
ENDROOT
BRANCH   1   2
ATOM      2  N   UNL A   1      32.726  30.054  25.866  1.00  0.00    -0.351 N 
ATOM      3  C   UNL A   1      33.245  28.841  25.551  1.00  0.00     0.281 C 
ATOM      4  O   UNL A   1      34.387  28.649  26.001  1.00  0.00    -0.268 OA
ATOM      5  H   UNL A   1      33.372  30.659  26.295  1.00  0.00     0.163 HD
BRANCH   3   6
ATOM      6  C   UNL A   1      32.482  27.678  24.754  1.00  0.00     0.178 C 
ATOM      7  C   UNL A   1      33.362  26.421  24.598  1.00  0.00     0.079 C 
ATOM      8  C   UNL A   1      32.183  28.213  23.313  1.00  0.00     0.063 C 
ATOM      9  C   UNL A   1      33.646  26.215  23.117  1.00  0.00     0.008 C 
ATOM     10  C   UNL A   1      33.091  27.407  22.361  1.00  0.00     0.011 C 
BRANCH   6  11
ATOM     11  N   UNL A   1      31.349  27.382  25.650  1.00  0.00    -0.336 N 
ATOM     12  C   UNL A   1      30.959  26.042  26.005  1.00  0.00     0.331 C 
ATOM     13  H   UNL A   1      31.552  27.857  26.528  1.00  0.00     0.346 HD
ATOM     14  H   UNL A   1      30.556  27.681  25.081  1.00  0.00     0.346 HD
ENDBRANCH   6  11
BRANCH   8  15
ATOM     15  C   UNL A   1      30.754  28.205  22.733  1.00  0.00     0.039 C 
BRANCH  15  16
ATOM     16  C   UNL A   1      29.999  29.529  22.625  1.00  0.00     0.160 C 
BRANCH  16  17
ATOM     17  O   UNL A   1      29.471  29.760  21.323  1.00  0.00    -0.385 OA
ATOM     18  C   UNL A   1      28.256  30.495  21.307  1.00  0.00     0.194 C 
ENDBRANCH  16  17
ENDBRANCH  15  16
ENDBRANCH   8  15
ENDBRANCH   3   6
ENDBRANCH   1   2
BRANCH   1  19
ATOM     19  C   UNL A   1      31.229  31.869  26.575  1.00  0.00     0.042 C 
BRANCH  19  20
ATOM     20  C   UNL A   1      32.550  32.477  27.024  1.00  0.00     0.118 C 
BRANCH  20  21
ATOM     21  N   UNL A   1      32.400  33.873  27.424  1.00  0.00    -0.352 N 
ATOM     22  C   UNL A   1      33.042  34.601  28.394  1.00  0.00     0.251 C 
ATOM     23  H   UNL A   1      31.726  34.377  26.911  1.00  0.00     0.163 HD
ATOM     24  O   UNL A   1      32.594  35.690  28.731  1.00  0.00    -0.269 OA
BRANCH  22  25
ATOM     25  C   UNL A   1      34.265  34.076  29.038  1.00  0.00     0.039 A 
ATOM     26  C   UNL A   1      34.142  33.241  30.151  1.00  0.00     0.014 A 
ATOM     27  C   UNL A   1      35.530  34.436  28.570  1.00  0.00     0.014 A 
ATOM     28  C   UNL A   1      35.288  32.721  30.756  1.00  0.00     0.010 A 
ATOM     29  C   UNL A   1      36.663  33.837  29.106  1.00  0.00     0.010 A 
ATOM     30  C   UNL A   1      36.557  32.987  30.215  1.00  0.00    -0.014 A 
BRANCH  30  31
ATOM     31  C   UNL A   1      37.789  32.411  30.805  1.00  0.00     0.031 A 
ATOM     32  C   UNL A   1      38.425  31.197  30.181  1.00  0.00     0.074 A 
ATOM     33  C   UNL A   1      38.294  32.934  31.939  1.00  0.00     0.049 A 
ATOM     34  N   UNL A   1      39.455  30.502  30.590  1.00  0.00    -0.248 NA
ATOM     35  C   UNL A   1      37.800  30.676  28.954  1.00  0.00     0.031 C 
ATOM     36  C   UNL A   1      37.744  34.083  32.663  1.00  0.00     0.029 A 
ATOM     37  N   UNL A   1      39.381  32.559  32.688  1.00  0.00    -0.354 N 
ATOM     38  C   UNL A   1      39.582  29.452  29.690  1.00  0.00     0.074 A 
ATOM     39  C   UNL A   1      38.493  29.568  28.746  1.00  0.00     0.031 C 
ATOM     40  C   UNL A   1      38.518  34.341  33.730  1.00  0.00     0.029 A 
ATOM     41  C   UNL A   1      39.586  33.349  33.792  1.00  0.00     0.049 A 
ATOM     42  H   UNL A   1      39.959  31.797  32.454  1.00  0.00     0.167 HD
ATOM     43  C   UNL A   1      40.535  28.490  29.636  1.00  0.00     0.031 A 
ATOM     44  C   UNL A   1      40.527  33.278  34.753  1.00  0.00     0.031 A 
ATOM     45  C   UNL A   1      41.626  28.388  30.565  1.00  0.00     0.049 A 
ATOM     46  C   UNL A   1      41.566  32.193  34.678  1.00  0.00     0.074 A 
ATOM     47  C   UNL A   1      42.679  27.491  30.564  1.00  0.00     0.029 A 
ATOM     48  N   UNL A   1      41.803  29.214  31.665  1.00  0.00    -0.354 N 
ATOM     49  N   UNL A   1      41.715  31.252  33.777  1.00  0.00    -0.248 NA
ATOM     50  C   UNL A   1      42.573  32.171  35.748  1.00  0.00     0.031 C 
ATOM     51  C   UNL A   1      43.462  27.737  31.696  1.00  0.00     0.029 A 
ATOM     52  C   UNL A   1      42.934  28.829  32.365  1.00  0.00     0.049 A 
ATOM     53  H   UNL A   1      41.213  29.962  31.912  1.00  0.00     0.167 HD
ATOM     54  C   UNL A   1      42.851  30.546  34.153  1.00  0.00     0.074 A 
ATOM     55  C   UNL A   1      43.358  31.179  35.354  1.00  0.00     0.031 C 
ATOM     56  C   UNL A   1      43.424  29.472  33.557  1.00  0.00     0.031 A 
BRANCH  43  57
ATOM     57  C   UNL A   1      40.425  27.467  28.538  1.00  0.00    -0.014 A 
ATOM     58  C   UNL A   1      39.677  26.290  28.707  1.00  0.00     0.009 A 
ATOM     59  C   UNL A   1      41.060  27.693  27.307  1.00  0.00     0.009 A 
ATOM     60  C   UNL A   1      39.603  25.343  27.682  1.00  0.00     0.001 A 
ATOM     61  C   UNL A   1      40.957  26.761  26.272  1.00  0.00     0.001 A 
ATOM     62  C   UNL A   1      40.239  25.582  26.465  1.00  0.00     0.000 A 
ENDBRANCH  43  57
BRANCH  44  63
ATOM     63  C   UNL A   1      40.544  34.272  35.858  1.00  0.00    -0.014 A 
ATOM     64  C   UNL A   1      39.815  34.040  37.034  1.00  0.00     0.009 A 
ATOM     65  C   UNL A   1      41.284  35.459  35.743  1.00  0.00     0.009 A 
ATOM     66  C   UNL A   1      39.800  34.990  38.059  1.00  0.00     0.001 A 
ATOM     67  C   UNL A   1      41.293  36.392  36.782  1.00  0.00     0.001 A 
ATOM     68  C   UNL A   1      40.543  36.162  37.934  1.00  0.00     0.000 A 
ENDBRANCH  44  63
BRANCH  56  69
ATOM     69  C   UNL A   1      44.690  28.940  34.170  1.00  0.00    -0.014 A 
ATOM     70  C   UNL A   1      45.948  29.444  33.808  1.00  0.00     0.009 A 
ATOM     71  C   UNL A   1      44.613  27.946  35.160  1.00  0.00     0.009 A 
ATOM     72  C   UNL A   1      47.107  28.937  34.399  1.00  0.00     0.001 A 
ATOM     73  C   UNL A   1      45.770  27.466  35.773  1.00  0.00     0.001 A 
ATOM     74  C   UNL A   1      47.016  27.954  35.384  1.00  0.00     0.000 A 
ENDBRANCH  56  69
ENDBRANCH  30  31
ENDBRANCH  22  25
ENDBRANCH  20  21
ENDBRANCH  19  20
ENDBRANCH   1  19
TORSDOF 14
ENDMDL
