MODEL 1
REMARK VINA RESULT:     -10.6      0.000      0.000
REMARK SMILES CC1(C(=O)N2CC[C@H](C(=O)NCCCNC(=O)c3ccc(-c4c5nc(c(-c6ccccc6)c6ccc([nH]6)c(-c6ccccc6)c6nc(c(-c7ccccc7)c7ccc4[nH]7)C=C6)C=C5)cc3)C2)CCCC1
REMARK SMILES IDX 13 1 12 2 11 3 9 4 10 5 8 7 5 8 6 9 66 10 7 11 3 12 4 13
REMARK SMILES IDX 2 14 1 15 67 16 70 17 68 18 69 19 14 20 15 21 16 22 17 24
REMARK SMILES IDX 18 25 19 26 65 27 20 28 64 29 21 30 22 31 23 32 58 33 24 34
REMARK SMILES IDX 63 35 57 36 59 37 25 38 62 39 56 40 55 41 26 43 48 44 33 45
REMARK SMILES IDX 47 46 34 47 37 48 46 49 60 50 35 51 36 52 45 54 61 55 38 56
REMARK SMILES IDX 27 57 28 58 32 59 29 60 31 61 30 62 49 63 50 64 54 65 51 66
REMARK SMILES IDX 53 67 52 68 39 69 40 70 44 71 41 72 43 73 42 74
REMARK H PARENT 11 6 15 23 59 42 37 53
REMARK Flexibility Score: inf
ROOT
ATOM      1  C   UNL A   1      34.034  28.377  25.883  1.00  0.00     0.042 C 
ENDROOT
BRANCH   1   2
ATOM      2  C   UNL A   1      32.975  28.255  24.799  1.00  0.00     0.117 C 
BRANCH   2   3
ATOM      3  N   UNL A   1      33.526  27.890  23.508  1.00  0.00    -0.356 N 
ATOM      4  C   UNL A   1      33.450  26.729  22.804  1.00  0.00     0.224 C 
ATOM      5  O   UNL A   1      34.007  26.708  21.703  1.00  0.00    -0.275 OA
ATOM      6  H   UNL A   1      34.042  28.603  23.068  1.00  0.00     0.163 HD
BRANCH   4   7
ATOM      7  C   UNL A   1      32.760  25.480  23.330  1.00  0.00     0.099 C 
ATOM      8  N   UNL A   1      33.771  23.506  24.176  1.00  0.00    -0.341 N 
ATOM      9  C   UNL A   1      32.903  23.086  23.097  1.00  0.00     0.120 C 
ATOM     10  C   UNL A   1      33.409  24.864  24.571  1.00  0.00     0.133 C 
ATOM     11  C   UNL A   1      32.674  24.354  22.295  1.00  0.00     0.037 C 
BRANCH   8  12
ATOM     12  C   UNL A   1      34.592  22.751  24.988  1.00  0.00     0.228 C 
ATOM     13  O   UNL A   1      34.142  22.324  26.057  1.00  0.00    -0.274 OA
BRANCH  12  14
ATOM     14  C   UNL A   1      36.119  22.681  24.699  1.00  0.00     0.047 C 
ATOM     15  C   UNL A   1      36.550  22.968  23.258  1.00  0.00     0.022 C 
ATOM     16  C   UNL A   1      36.701  21.316  25.140  1.00  0.00     0.016 C 
ATOM     17  C   UNL A   1      36.836  23.621  25.687  1.00  0.00     0.016 C 
ATOM     18  C   UNL A   1      38.160  21.584  25.503  1.00  0.00     0.001 C 
ATOM     19  C   UNL A   1      38.230  23.050  25.912  1.00  0.00     0.001 C 
ENDBRANCH  12  14
ENDBRANCH   8  12
ENDBRANCH   4   7
ENDBRANCH   2   3
ENDBRANCH   1   2
BRANCH   1  20
ATOM     20  C   UNL A   1      33.469  28.671  27.262  1.00  0.00     0.118 C 
BRANCH  20  21
ATOM     21  N   UNL A   1      33.555  30.085  27.611  1.00  0.00    -0.352 N 
ATOM     22  C   UNL A   1      34.564  30.796  28.209  1.00  0.00     0.251 C 
ATOM     23  H   UNL A   1      32.760  30.615  27.377  1.00  0.00     0.163 HD
ATOM     24  O   UNL A   1      34.354  31.947  28.589  1.00  0.00    -0.269 OA
BRANCH  22  25
ATOM     25  C   UNL A   1      35.894  30.186  28.425  1.00  0.00     0.039 A 
ATOM     26  C   UNL A   1      36.847  30.258  27.405  1.00  0.00     0.014 A 
ATOM     27  C   UNL A   1      36.201  29.533  29.620  1.00  0.00     0.014 A 
ATOM     28  C   UNL A   1      38.129  29.744  27.616  1.00  0.00     0.010 A 
ATOM     29  C   UNL A   1      37.504  29.117  29.867  1.00  0.00     0.010 A 
ATOM     30  C   UNL A   1      38.481  29.209  28.865  1.00  0.00    -0.014 A 
BRANCH  30  31
ATOM     31  C   UNL A   1      39.860  28.740  29.149  1.00  0.00     0.031 A 
ATOM     32  C   UNL A   1      40.865  29.673  29.766  1.00  0.00     0.074 A 
ATOM     33  C   UNL A   1      40.234  27.502  28.773  1.00  0.00     0.049 A 
ATOM     34  N   UNL A   1      42.134  29.472  30.016  1.00  0.00    -0.248 NA
ATOM     35  C   UNL A   1      40.391  31.021  30.119  1.00  0.00     0.031 C 
ATOM     36  C   UNL A   1      39.370  26.519  28.114  1.00  0.00     0.029 A 
ATOM     37  N   UNL A   1      41.443  26.863  28.879  1.00  0.00    -0.354 N 
ATOM     38  C   UNL A   1      42.611  30.670  30.532  1.00  0.00     0.074 A 
ATOM     39  C   UNL A   1      41.512  31.611  30.501  1.00  0.00     0.031 C 
ATOM     40  C   UNL A   1      40.072  25.396  27.894  1.00  0.00     0.029 A 
ATOM     41  C   UNL A   1      41.442  25.594  28.355  1.00  0.00     0.049 A 
ATOM     42  H   UNL A   1      42.236  27.277  29.292  1.00  0.00     0.167 HD
ATOM     43  C   UNL A   1      43.845  30.961  31.009  1.00  0.00     0.031 A 
ATOM     44  C   UNL A   1      42.435  24.692  28.243  1.00  0.00     0.031 A 
ATOM     45  C   UNL A   1      44.937  30.024  31.040  1.00  0.00     0.049 A 
ATOM     46  C   UNL A   1      43.800  25.033  28.773  1.00  0.00     0.074 A 
ATOM     47  C   UNL A   1      46.208  30.198  31.559  1.00  0.00     0.029 A 
ATOM     48  N   UNL A   1      44.888  28.739  30.521  1.00  0.00    -0.354 N 
ATOM     49  N   UNL A   1      44.213  26.144  29.333  1.00  0.00    -0.248 NA
ATOM     50  C   UNL A   1      44.829  23.990  28.668  1.00  0.00     0.031 C 
ATOM     51  C   UNL A   1      46.947  29.039  31.299  1.00  0.00     0.029 A 
ATOM     52  C   UNL A   1      46.116  28.119  30.678  1.00  0.00     0.049 A 
ATOM     53  H   UNL A   1      44.099  28.329  30.101  1.00  0.00     0.167 HD
ATOM     54  C   UNL A   1      45.543  25.927  29.668  1.00  0.00     0.074 A 
ATOM     55  C   UNL A   1      45.860  24.572  29.265  1.00  0.00     0.031 C 
ATOM     56  C   UNL A   1      46.421  26.773  30.261  1.00  0.00     0.031 A 
BRANCH  43  57
ATOM     57  C   UNL A   1      44.074  32.359  31.520  1.00  0.00    -0.014 A 
ATOM     58  C   UNL A   1      44.530  33.383  30.672  1.00  0.00     0.009 A 
ATOM     59  C   UNL A   1      43.827  32.658  32.868  1.00  0.00     0.009 A 
ATOM     60  C   UNL A   1      44.788  34.659  31.176  1.00  0.00     0.001 A 
ATOM     61  C   UNL A   1      44.051  33.945  33.362  1.00  0.00     0.001 A 
ATOM     62  C   UNL A   1      44.546  34.940  32.520  1.00  0.00     0.000 A 
ENDBRANCH  43  57
BRANCH  44  63
ATOM     63  C   UNL A   1      42.165  23.376  27.607  1.00  0.00    -0.014 A 
ATOM     64  C   UNL A   1      41.528  22.352  28.323  1.00  0.00     0.009 A 
ATOM     65  C   UNL A   1      42.520  23.148  26.267  1.00  0.00     0.009 A 
ATOM     66  C   UNL A   1      41.270  21.120  27.717  1.00  0.00     0.001 A 
ATOM     67  C   UNL A   1      42.235  21.926  25.656  1.00  0.00     0.001 A 
ATOM     68  C   UNL A   1      41.617  20.910  26.383  1.00  0.00     0.000 A 
ENDBRANCH  44  63
BRANCH  56  69
ATOM     69  C   UNL A   1      47.804  26.250  30.533  1.00  0.00    -0.014 A 
ATOM     70  C   UNL A   1      48.803  26.270  29.547  1.00  0.00     0.009 A 
ATOM     71  C   UNL A   1      48.122  25.766  31.812  1.00  0.00     0.009 A 
ATOM     72  C   UNL A   1      50.082  25.785  29.828  1.00  0.00     0.001 A 
ATOM     73  C   UNL A   1      49.410  25.312  32.099  1.00  0.00     0.001 A 
ATOM     74  C   UNL A   1      50.386  25.313  31.104  1.00  0.00     0.000 A 
ENDBRANCH  56  69
ENDBRANCH  30  31
ENDBRANCH  22  25
ENDBRANCH  20  21
ENDBRANCH   1  20
TORSDOF 12
ENDMDL
MODEL 2
REMARK VINA RESULT:     -10.4      2.322      7.983
REMARK SMILES CC1(C(=O)N2CC[C@H](C(=O)NCCCNC(=O)c3ccc(-c4c5nc(c(-c6ccccc6)c6ccc([nH]6)c(-c6ccccc6)c6nc(c(-c7ccccc7)c7ccc4[nH]7)C=C6)C=C5)cc3)C2)CCCC1
REMARK SMILES IDX 13 1 12 2 11 3 9 4 10 5 8 7 5 8 6 9 66 10 7 11 3 12 4 13
REMARK SMILES IDX 2 14 1 15 67 16 70 17 68 18 69 19 14 20 15 21 16 22 17 24
REMARK SMILES IDX 18 25 19 26 65 27 20 28 64 29 21 30 22 31 23 32 58 33 24 34
REMARK SMILES IDX 63 35 57 36 59 37 25 38 62 39 56 40 55 41 26 43 48 44 33 45
REMARK SMILES IDX 47 46 34 47 37 48 46 49 60 50 35 51 36 52 45 54 61 55 38 56
REMARK SMILES IDX 27 57 28 58 32 59 29 60 31 61 30 62 49 63 50 64 54 65 51 66
REMARK SMILES IDX 53 67 52 68 39 69 40 70 44 71 41 72 43 73 42 74
REMARK H PARENT 11 6 15 23 59 42 37 53
REMARK Flexibility Score: inf
ROOT
ATOM      1  C   UNL A   1      36.123  23.358  26.356  1.00  0.00     0.042 C 
ENDROOT
BRANCH   1   2
ATOM      2  C   UNL A   1      34.924  22.463  26.088  1.00  0.00     0.117 C 
BRANCH   2   3
ATOM      3  N   UNL A   1      33.770  22.805  26.897  1.00  0.00    -0.356 N 
ATOM      4  C   UNL A   1      32.667  23.546  26.606  1.00  0.00     0.224 C 
ATOM      5  O   UNL A   1      31.820  23.656  27.497  1.00  0.00    -0.275 OA
ATOM      6  H   UNL A   1      33.789  22.439  27.810  1.00  0.00     0.163 HD
BRANCH   4   7
ATOM      7  C   UNL A   1      32.469  24.258  25.277  1.00  0.00     0.099 C 
ATOM      8  N   UNL A   1      32.255  26.590  24.893  1.00  0.00    -0.341 N 
ATOM      9  C   UNL A   1      31.076  25.975  24.321  1.00  0.00     0.120 C 
ATOM     10  C   UNL A   1      33.261  25.558  25.123  1.00  0.00     0.133 C 
ATOM     11  C   UNL A   1      31.007  24.616  24.993  1.00  0.00     0.037 C 
BRANCH   8  12
ATOM     12  C   UNL A   1      32.612  27.922  24.948  1.00  0.00     0.228 C 
ATOM     13  O   UNL A   1      33.147  28.435  23.960  1.00  0.00    -0.274 OA
BRANCH  12  14
ATOM     14  C   UNL A   1      32.602  28.673  26.310  1.00  0.00     0.047 C 
ATOM     15  C   UNL A   1      31.745  28.055  27.419  1.00  0.00     0.022 C 
ATOM     16  C   UNL A   1      32.194  30.154  26.119  1.00  0.00     0.016 C 
ATOM     17  C   UNL A   1      34.062  28.845  26.773  1.00  0.00     0.016 C 
ATOM     18  C   UNL A   1      32.882  30.923  27.245  1.00  0.00     0.001 C 
ATOM     19  C   UNL A   1      34.114  30.110  27.620  1.00  0.00     0.001 C 
ENDBRANCH  12  14
ENDBRANCH   8  12
ENDBRANCH   4   7
ENDBRANCH   2   3
ENDBRANCH   1   2
BRANCH   1  20
ATOM     20  C   UNL A   1      37.147  23.365  25.233  1.00  0.00     0.118 C 
BRANCH  20  21
ATOM     21  N   UNL A   1      38.317  22.550  25.540  1.00  0.00    -0.352 N 
ATOM     22  C   UNL A   1      39.498  22.882  26.153  1.00  0.00     0.251 C 
ATOM     23  H   UNL A   1      38.247  21.608  25.264  1.00  0.00     0.163 HD
ATOM     24  O   UNL A   1      40.435  22.084  26.139  1.00  0.00    -0.269 OA
BRANCH  22  25
ATOM     25  C   UNL A   1      39.667  24.196  26.808  1.00  0.00     0.039 A 
ATOM     26  C   UNL A   1      39.142  24.389  28.089  1.00  0.00     0.014 A 
ATOM     27  C   UNL A   1      40.328  25.243  26.162  1.00  0.00     0.014 A 
ATOM     28  C   UNL A   1      39.347  25.603  28.748  1.00  0.00     0.010 A 
ATOM     29  C   UNL A   1      40.622  26.410  26.858  1.00  0.00     0.010 A 
ATOM     30  C   UNL A   1      40.128  26.608  28.155  1.00  0.00    -0.014 A 
BRANCH  30  31
ATOM     31  C   UNL A   1      40.442  27.871  28.867  1.00  0.00     0.031 A 
ATOM     32  C   UNL A   1      41.740  28.018  29.612  1.00  0.00     0.074 A 
ATOM     33  C   UNL A   1      39.523  28.854  28.917  1.00  0.00     0.049 A 
ATOM     34  N   UNL A   1      42.158  29.011  30.357  1.00  0.00    -0.248 NA
ATOM     35  C   UNL A   1      42.679  26.887  29.539  1.00  0.00     0.031 C 
ATOM     36  C   UNL A   1      38.202  28.813  28.284  1.00  0.00     0.029 A 
ATOM     37  N   UNL A   1      39.555  30.076  29.540  1.00  0.00    -0.354 N 
ATOM     38  C   UNL A   1      43.392  28.615  30.855  1.00  0.00     0.074 A 
ATOM     39  C   UNL A   1      43.627  27.268  30.379  1.00  0.00     0.031 C 
ATOM     40  C   UNL A   1      37.560  29.965  28.534  1.00  0.00     0.029 A 
ATOM     41  C   UNL A   1      38.402  30.805  29.380  1.00  0.00     0.049 A 
ATOM     42  H   UNL A   1      40.330  30.398  30.055  1.00  0.00     0.167 HD
ATOM     43  C   UNL A   1      44.265  29.312  31.621  1.00  0.00     0.031 A 
ATOM     44  C   UNL A   1      38.053  32.010  29.868  1.00  0.00     0.031 A 
ATOM     45  C   UNL A   1      44.030  30.652  32.093  1.00  0.00     0.049 A 
ATOM     46  C   UNL A   1      39.031  32.768  30.721  1.00  0.00     0.074 A 
ATOM     47  C   UNL A   1      44.874  31.470  32.822  1.00  0.00     0.029 A 
ATOM     48  N   UNL A   1      42.859  31.365  31.887  1.00  0.00    -0.354 N 
ATOM     49  N   UNL A   1      40.230  32.412  31.116  1.00  0.00    -0.248 NA
ATOM     50  C   UNL A   1      38.613  34.098  31.182  1.00  0.00     0.031 C 
ATOM     51  C   UNL A   1      44.190  32.655  33.110  1.00  0.00     0.029 A 
ATOM     52  C   UNL A   1      42.945  32.603  32.503  1.00  0.00     0.049 A 
ATOM     53  H   UNL A   1      42.080  31.040  31.380  1.00  0.00     0.167 HD
ATOM     54  C   UNL A   1      40.719  33.483  31.853  1.00  0.00     0.074 A 
ATOM     55  C   UNL A   1      39.694  34.507  31.833  1.00  0.00     0.031 C 
ATOM     56  C   UNL A   1      41.912  33.608  32.485  1.00  0.00     0.031 A 
BRANCH  43  57
ATOM     57  C   UNL A   1      45.546  28.622  32.007  1.00  0.00    -0.014 A 
ATOM     58  C   UNL A   1      45.644  27.865  33.187  1.00  0.00     0.009 A 
ATOM     59  C   UNL A   1      46.673  28.727  31.177  1.00  0.00     0.009 A 
ATOM     60  C   UNL A   1      46.856  27.278  33.555  1.00  0.00     0.001 A 
ATOM     61  C   UNL A   1      47.873  28.108  31.528  1.00  0.00     0.001 A 
ATOM     62  C   UNL A   1      47.969  27.397  32.724  1.00  0.00     0.000 A 
ENDBRANCH  43  57
BRANCH  44  63
ATOM     63  C   UNL A   1      36.714  32.572  29.550  1.00  0.00    -0.014 A 
ATOM     64  C   UNL A   1      35.659  32.474  30.469  1.00  0.00     0.009 A 
ATOM     65  C   UNL A   1      36.493  33.235  28.331  1.00  0.00     0.009 A 
ATOM     66  C   UNL A   1      34.406  33.011  30.167  1.00  0.00     0.001 A 
ATOM     67  C   UNL A   1      35.247  33.795  28.044  1.00  0.00     0.001 A 
ATOM     68  C   UNL A   1      34.202  33.677  28.959  1.00  0.00     0.000 A 
ENDBRANCH  44  63
BRANCH  56  69
ATOM     69  C   UNL A   1      42.185  34.908  33.188  1.00  0.00    -0.014 A 
ATOM     70  C   UNL A   1      41.642  35.187  34.452  1.00  0.00     0.009 A 
ATOM     71  C   UNL A   1      43.034  35.854  32.590  1.00  0.00     0.009 A 
ATOM     72  C   UNL A   1      41.918  36.399  35.087  1.00  0.00     0.001 A 
ATOM     73  C   UNL A   1      43.334  37.050  33.242  1.00  0.00     0.001 A 
ATOM     74  C   UNL A   1      42.768  37.326  34.485  1.00  0.00     0.000 A 
ENDBRANCH  56  69
ENDBRANCH  30  31
ENDBRANCH  22  25
ENDBRANCH  20  21
ENDBRANCH   1  20
TORSDOF 12
ENDMDL
MODEL 3
REMARK VINA RESULT:     -10.4      1.795      7.633
REMARK SMILES CC1(C(=O)N2CC[C@H](C(=O)NCCCNC(=O)c3ccc(-c4c5nc(c(-c6ccccc6)c6ccc([nH]6)c(-c6ccccc6)c6nc(c(-c7ccccc7)c7ccc4[nH]7)C=C6)C=C5)cc3)C2)CCCC1
REMARK SMILES IDX 13 1 12 2 11 3 9 4 10 5 8 7 5 8 6 9 66 10 7 11 3 12 4 13
REMARK SMILES IDX 2 14 1 15 67 16 70 17 68 18 69 19 14 20 15 21 16 22 17 24
REMARK SMILES IDX 18 25 19 26 65 27 20 28 64 29 21 30 22 31 23 32 58 33 24 34
REMARK SMILES IDX 63 35 57 36 59 37 25 38 62 39 56 40 55 41 26 43 48 44 33 45
REMARK SMILES IDX 47 46 34 47 37 48 46 49 60 50 35 51 36 52 45 54 61 55 38 56
REMARK SMILES IDX 27 57 28 58 32 59 29 60 31 61 30 62 49 63 50 64 54 65 51 66
REMARK SMILES IDX 53 67 52 68 39 69 40 70 44 71 41 72 43 73 42 74
REMARK H PARENT 11 6 15 23 59 42 37 53
REMARK Flexibility Score: inf
ROOT
ATOM      1  C   UNL A   1      37.789  19.757  24.946  1.00  0.00     0.042 C 
ENDROOT
BRANCH   1   2
ATOM      2  C   UNL A   1      36.696  20.785  24.698  1.00  0.00     0.117 C 
BRANCH   2   3
ATOM      3  N   UNL A   1      35.634  20.732  25.683  1.00  0.00    -0.356 N 
ATOM      4  C   UNL A   1      34.631  21.608  25.959  1.00  0.00     0.224 C 
ATOM      5  O   UNL A   1      33.843  21.288  26.854  1.00  0.00    -0.275 OA
ATOM      6  H   UNL A   1      35.640  19.925  26.247  1.00  0.00     0.163 HD
BRANCH   4   7
ATOM      7  C   UNL A   1      34.478  22.947  25.254  1.00  0.00     0.099 C 
ATOM      8  N   UNL A   1      32.771  24.566  25.561  1.00  0.00    -0.341 N 
ATOM      9  C   UNL A   1      32.769  24.239  24.152  1.00  0.00     0.120 C 
ATOM     10  C   UNL A   1      34.018  24.096  26.154  1.00  0.00     0.133 C 
ATOM     11  C   UNL A   1      33.491  22.906  24.083  1.00  0.00     0.037 C 
BRANCH   8  12
ATOM     12  C   UNL A   1      31.966  25.443  26.261  1.00  0.00     0.228 C 
ATOM     13  O   UNL A   1      31.039  24.989  26.938  1.00  0.00    -0.274 OA
BRANCH  12  14
ATOM     14  C   UNL A   1      32.051  26.971  25.976  1.00  0.00     0.047 C 
ATOM     15  C   UNL A   1      31.246  27.482  24.778  1.00  0.00     0.022 C 
ATOM     16  C   UNL A   1      33.524  27.421  25.827  1.00  0.00     0.016 C 
ATOM     17  C   UNL A   1      31.659  27.720  27.264  1.00  0.00     0.016 C 
ATOM     18  C   UNL A   1      33.558  28.882  26.275  1.00  0.00     0.001 C 
ATOM     19  C   UNL A   1      32.396  29.053  27.244  1.00  0.00     0.001 C 
ENDBRANCH  12  14
ENDBRANCH   8  12
ENDBRANCH   4   7
ENDBRANCH   2   3
ENDBRANCH   1   2
BRANCH   1  20
ATOM     20  C   UNL A   1      38.918  20.262  25.828  1.00  0.00     0.118 C 
BRANCH  20  21
ATOM     21  N   UNL A   1      40.068  19.366  25.829  1.00  0.00    -0.352 N 
ATOM     22  C   UNL A   1      41.396  19.619  26.065  1.00  0.00     0.251 C 
ATOM     23  H   UNL A   1      39.858  18.425  25.629  1.00  0.00     0.163 HD
ATOM     24  O   UNL A   1      42.233  18.749  25.824  1.00  0.00    -0.269 OA
BRANCH  22  25
ATOM     25  C   UNL A   1      41.834  20.932  26.583  1.00  0.00     0.039 A 
ATOM     26  C   UNL A   1      42.284  21.901  25.683  1.00  0.00     0.014 A 
ATOM     27  C   UNL A   1      41.817  21.208  27.952  1.00  0.00     0.014 A 
ATOM     28  C   UNL A   1      42.641  23.169  26.148  1.00  0.00     0.010 A 
ATOM     29  C   UNL A   1      42.071  22.498  28.401  1.00  0.00     0.010 A 
ATOM     30  C   UNL A   1      42.494  23.491  27.507  1.00  0.00    -0.014 A 
BRANCH  30  31
ATOM     31  C   UNL A   1      42.778  24.856  28.017  1.00  0.00     0.031 A 
ATOM     32  C   UNL A   1      44.167  25.226  28.458  1.00  0.00     0.074 A 
ATOM     33  C   UNL A   1      41.769  25.736  28.163  1.00  0.00     0.049 A 
ATOM     34  N   UNL A   1      44.592  26.338  29.003  1.00  0.00    -0.248 NA
ATOM     35  C   UNL A   1      45.209  24.200  28.298  1.00  0.00     0.031 C 
ATOM     36  C   UNL A   1      40.366  25.481  27.826  1.00  0.00     0.029 A 
ATOM     37  N   UNL A   1      41.766  27.019  28.649  1.00  0.00    -0.354 N 
ATOM     38  C   UNL A   1      45.941  26.136  29.269  1.00  0.00     0.074 A 
ATOM     39  C   UNL A   1      46.248  24.775  28.884  1.00  0.00     0.031 C 
ATOM     40  C   UNL A   1      39.644  26.581  28.095  1.00  0.00     0.029 A 
ATOM     41  C   UNL A   1      40.521  27.599  28.664  1.00  0.00     0.049 A 
ATOM     42  H   UNL A   1      42.580  27.480  28.958  1.00  0.00     0.167 HD
ATOM     43  C   UNL A   1      46.850  27.007  29.768  1.00  0.00     0.031 A 
ATOM     44  C   UNL A   1      40.124  28.810  29.098  1.00  0.00     0.031 A 
ATOM     45  C   UNL A   1      46.543  28.360  30.149  1.00  0.00     0.049 A 
ATOM     46  C   UNL A   1      41.146  29.761  29.654  1.00  0.00     0.074 A 
ATOM     47  C   UNL A   1      47.403  29.344  30.606  1.00  0.00     0.029 A 
ATOM     48  N   UNL A   1      45.274  28.917  30.126  1.00  0.00    -0.354 N 
ATOM     49  N   UNL A   1      42.434  29.583  29.823  1.00  0.00    -0.248 NA
ATOM     50  C   UNL A   1      40.660  31.085  30.065  1.00  0.00     0.031 C 
ATOM     51  C   UNL A   1      46.644  30.476  30.918  1.00  0.00     0.029 A 
ATOM     52  C   UNL A   1      45.321  30.221  30.590  1.00  0.00     0.049 A 
ATOM     53  H   UNL A   1      44.459  28.455  29.824  1.00  0.00     0.167 HD
ATOM     54  C   UNL A   1      42.917  30.779  30.338  1.00  0.00     0.074 A 
ATOM     55  C   UNL A   1      41.786  31.679  30.435  1.00  0.00     0.031 C 
ATOM     56  C   UNL A   1      44.185  31.102  30.693  1.00  0.00     0.031 A 
BRANCH  43  57
ATOM     57  C   UNL A   1      48.259  26.506  29.942  1.00  0.00    -0.014 A 
ATOM     58  C   UNL A   1      48.665  25.856  31.120  1.00  0.00     0.009 A 
ATOM     59  C   UNL A   1      49.195  26.683  28.911  1.00  0.00     0.009 A 
ATOM     60  C   UNL A   1      49.991  25.448  31.284  1.00  0.00     0.001 A 
ATOM     61  C   UNL A   1      50.510  26.240  29.063  1.00  0.00     0.001 A 
ATOM     62  C   UNL A   1      50.911  25.637  30.255  1.00  0.00     0.000 A 
ENDBRANCH  43  57
BRANCH  44  63
ATOM     63  C   UNL A   1      38.689  29.186  29.014  1.00  0.00    -0.014 A 
ATOM     64  C   UNL A   1      37.845  29.048  30.126  1.00  0.00     0.009 A 
ATOM     65  C   UNL A   1      38.161  29.712  27.823  1.00  0.00     0.009 A 
ATOM     66  C   UNL A   1      36.499  29.410  30.042  1.00  0.00     0.001 A 
ATOM     67  C   UNL A   1      36.822  30.099  27.751  1.00  0.00     0.001 A 
ATOM     68  C   UNL A   1      35.990  29.942  28.858  1.00  0.00     0.000 A 
ENDBRANCH  44  63
BRANCH  56  69
ATOM     69  C   UNL A   1      44.423  32.498  31.198  1.00  0.00    -0.014 A 
ATOM     70  C   UNL A   1      44.332  32.809  32.564  1.00  0.00     0.009 A 
ATOM     71  C   UNL A   1      44.783  33.510  30.294  1.00  0.00     0.009 A 
ATOM     72  C   UNL A   1      44.566  34.112  33.008  1.00  0.00     0.001 A 
ATOM     73  C   UNL A   1      45.048  34.803  30.745  1.00  0.00     0.001 A 
ATOM     74  C   UNL A   1      44.930  35.106  32.100  1.00  0.00     0.000 A 
ENDBRANCH  56  69
ENDBRANCH  30  31
ENDBRANCH  22  25
ENDBRANCH  20  21
ENDBRANCH   1  20
TORSDOF 12
ENDMDL
