MODEL 1
REMARK VINA RESULT:     -11.5      0.000      0.000
REMARK SMILES CN1C(=O)C[C@@H](C(=O)NCCCNC(=O)c2ccc(-c3c4nc(c(-c5ccccc5)c5ccc([nH]5)c(-c5ccccc5)c5nc(c(-c6ccccc6)c6ccc3[nH]6)C=C5)C=C4)cc2)C12CC[NH+](CCSc1ccccc1)CC2
REMARK SMILES IDX 10 1 9 2 7 3 8 4 6 6 1 7 2 8 3 9 64 10 4 11 5 12 65 13 78 14
REMARK SMILES IDX 66 15 77 16 67 17 68 19 69 20 70 21 71 22 72 23 76 24 73 25
REMARK SMILES IDX 75 26 74 27 11 28 12 29 13 30 14 31 15 33 16 34 17 35 63 36
REMARK SMILES IDX 18 37 62 38 19 39 20 40 21 41 56 42 22 43 61 44 55 45 57 46
REMARK SMILES IDX 23 47 60 48 54 49 53 50 24 52 46 53 31 54 45 55 32 56 35 57
REMARK SMILES IDX 44 58 58 59 33 60 34 61 43 63 59 64 36 65 25 66 26 67 30 68
REMARK SMILES IDX 27 69 29 70 28 71 47 72 48 73 52 74 49 75 51 76 50 77 37 78
REMARK SMILES IDX 38 79 42 80 39 81 41 82 40 83
REMARK H PARENT 9 5 67 18 13 32 57 51 35 62
REMARK Flexibility Score: inf
ROOT
ATOM      1  C   UNL A   1      35.631  21.430  24.678  1.00  0.00     0.117 C 
ENDROOT
BRANCH   1   2
ATOM      2  N   UNL A   1      35.224  21.272  26.060  1.00  0.00    -0.356 N 
ATOM      3  C   UNL A   1      34.042  21.464  26.683  1.00  0.00     0.226 C 
ATOM      4  O   UNL A   1      34.070  21.547  27.916  1.00  0.00    -0.275 OA
ATOM      5  H   UNL A   1      35.945  20.968  26.658  1.00  0.00     0.163 HD
BRANCH   3   6
ATOM      6  C   UNL A   1      32.717  21.569  25.968  1.00  0.00     0.114 C 
ATOM      7  C   UNL A   1      32.582  23.072  22.514  1.00  0.00     0.147 C 
ATOM      8  N   UNL A   1      32.620  22.283  23.738  1.00  0.00    -0.339 N 
ATOM      9  C   UNL A   1      32.441  20.908  23.682  1.00  0.00     0.223 C 
ATOM     10  C   UNL A   1      32.408  22.819  25.103  1.00  0.00     0.065 C 
ATOM     11  O   UNL A   1      32.366  20.227  22.667  1.00  0.00    -0.275 OA
ATOM     12  C   UNL A   1      32.335  20.371  25.085  1.00  0.00     0.116 C 
ATOM     13  C   UNL A   1      33.200  24.136  25.358  1.00  0.00     0.091 C 
ATOM     14  C   UNL A   1      30.902  23.050  25.308  1.00  0.00     0.091 C 
ATOM     15  C   UNL A   1      32.594  25.154  26.341  1.00  0.00     0.264 C 
ATOM     16  C   UNL A   1      30.600  23.892  26.534  1.00  0.00     0.264 C 
ATOM     17  N   UNL A   1      31.140  25.210  26.372  1.00  0.00    -0.334 N 
ATOM     18  H   UNL A   1      30.930  25.754  27.209  1.00  0.00     0.348 HD
BRANCH  17  19
ATOM     19  C   UNL A   1      30.404  26.151  25.511  1.00  0.00     0.273 C 
BRANCH  19  20
ATOM     20  C   UNL A   1      31.017  26.958  24.317  1.00  0.00     0.136 C 
BRANCH  20  21
ATOM     21  S   UNL A   1      31.060  28.825  24.316  1.00  0.00    -0.120 SA
BRANCH  21  22
ATOM     22  C   UNL A   1      32.297  29.337  25.501  1.00  0.00     0.007 A 
ATOM     23  C   UNL A   1      32.177  30.466  26.321  1.00  0.00     0.015 A 
ATOM     24  C   UNL A   1      33.466  28.567  25.597  1.00  0.00     0.015 A 
ATOM     25  C   UNL A   1      33.142  30.732  27.309  1.00  0.00     0.001 A 
ATOM     26  C   UNL A   1      34.412  28.813  26.598  1.00  0.00     0.001 A 
ATOM     27  C   UNL A   1      34.237  29.882  27.471  1.00  0.00     0.000 A 
ENDBRANCH  21  22
ENDBRANCH  20  21
ENDBRANCH  19  20
ENDBRANCH  17  19
ENDBRANCH   3   6
ENDBRANCH   1   2
BRANCH   1  28
ATOM     28  C   UNL A   1      36.377  22.739  24.475  1.00  0.00     0.042 C 
BRANCH  28  29
ATOM     29  C   UNL A   1      37.101  23.170  25.740  1.00  0.00     0.118 C 
BRANCH  29  30
ATOM     30  N   UNL A   1      38.220  22.279  26.018  1.00  0.00    -0.352 N 
ATOM     31  C   UNL A   1      39.518  22.622  26.283  1.00  0.00     0.251 C 
ATOM     32  H   UNL A   1      38.017  21.316  26.016  1.00  0.00     0.163 HD
ATOM     33  O   UNL A   1      40.428  21.817  26.104  1.00  0.00    -0.269 OA
BRANCH  31  34
ATOM     34  C   UNL A   1      39.798  23.966  26.816  1.00  0.00     0.039 A 
ATOM     35  C   UNL A   1      40.351  24.941  25.986  1.00  0.00     0.014 A 
ATOM     36  C   UNL A   1      39.534  24.238  28.162  1.00  0.00     0.014 A 
ATOM     37  C   UNL A   1      40.632  26.200  26.510  1.00  0.00     0.010 A 
ATOM     38  C   UNL A   1      39.724  25.516  28.656  1.00  0.00     0.010 A 
ATOM     39  C   UNL A   1      40.316  26.495  27.847  1.00  0.00    -0.014 A 
BRANCH  39  40
ATOM     40  C   UNL A   1      40.675  27.790  28.462  1.00  0.00     0.031 A 
ATOM     41  C   UNL A   1      42.079  27.996  28.964  1.00  0.00     0.074 A 
ATOM     42  C   UNL A   1      39.734  28.734  28.635  1.00  0.00     0.049 A 
ATOM     43  N   UNL A   1      42.578  29.007  29.626  1.00  0.00    -0.248 NA
ATOM     44  C   UNL A   1      43.037  26.901  28.727  1.00  0.00     0.031 C 
ATOM     45  C   UNL A   1      38.331  28.622  28.229  1.00  0.00     0.029 A 
ATOM     46  N   UNL A   1      39.818  29.974  29.208  1.00  0.00    -0.354 N 
ATOM     47  C   UNL A   1      43.891  28.651  29.915  1.00  0.00     0.074 A 
ATOM     48  C   UNL A   1      44.095  27.315  29.405  1.00  0.00     0.031 C 
ATOM     49  C   UNL A   1      37.693  29.762  28.541  1.00  0.00     0.029 A 
ATOM     50  C   UNL A   1      38.633  30.666  29.196  1.00  0.00     0.049 A 
ATOM     51  H   UNL A   1      40.650  30.336  29.592  1.00  0.00     0.167 HD
ATOM     52  C   UNL A   1      44.850  29.383  30.528  1.00  0.00     0.031 A 
ATOM     53  C   UNL A   1      38.343  31.894  29.661  1.00  0.00     0.031 A 
ATOM     54  C   UNL A   1      44.651  30.727  30.992  1.00  0.00     0.049 A 
ATOM     55  C   UNL A   1      39.434  32.704  30.302  1.00  0.00     0.074 A 
ATOM     56  C   UNL A   1      45.570  31.589  31.562  1.00  0.00     0.029 A 
ATOM     57  N   UNL A   1      43.445  31.408  30.924  1.00  0.00    -0.354 N 
ATOM     58  N   UNL A   1      40.686  32.379  30.517  1.00  0.00    -0.248 NA
ATOM     59  C   UNL A   1      39.074  34.055  30.753  1.00  0.00     0.031 C 
ATOM     60  C   UNL A   1      44.909  32.784  31.870  1.00  0.00     0.029 A 
ATOM     61  C   UNL A   1      43.592  32.678  31.452  1.00  0.00     0.049 A 
ATOM     62  H   UNL A   1      42.609  31.042  30.556  1.00  0.00     0.167 HD
ATOM     63  C   UNL A   1      41.271  33.492  31.104  1.00  0.00     0.074 A 
ATOM     64  C   UNL A   1      40.239  34.506  31.198  1.00  0.00     0.031 C 
ATOM     65  C   UNL A   1      42.546  33.665  31.529  1.00  0.00     0.031 A 
BRANCH  52  66
ATOM     66  C   UNL A   1      46.193  28.738  30.722  1.00  0.00    -0.014 A 
ATOM     67  C   UNL A   1      46.452  27.915  31.830  1.00  0.00     0.009 A 
ATOM     68  C   UNL A   1      47.212  28.948  29.781  1.00  0.00     0.009 A 
ATOM     69  C   UNL A   1      47.717  27.350  32.013  1.00  0.00     0.001 A 
ATOM     70  C   UNL A   1      48.466  28.359  29.951  1.00  0.00     0.001 A 
ATOM     71  C   UNL A   1      48.720  27.570  31.072  1.00  0.00     0.000 A 
ENDBRANCH  52  66
BRANCH  53  72
ATOM     72  C   UNL A   1      36.973  32.443  29.503  1.00  0.00    -0.014 A 
ATOM     73  C   UNL A   1      36.016  32.256  30.511  1.00  0.00     0.009 A 
ATOM     74  C   UNL A   1      36.618  33.166  28.353  1.00  0.00     0.009 A 
ATOM     75  C   UNL A   1      34.722  32.760  30.362  1.00  0.00     0.001 A 
ATOM     76  C   UNL A   1      35.330  33.690  28.218  1.00  0.00     0.001 A 
ATOM     77  C   UNL A   1      34.382  33.479  29.218  1.00  0.00     0.000 A 
ENDBRANCH  53  72
BRANCH  65  78
ATOM     78  C   UNL A   1      42.898  35.006  32.101  1.00  0.00    -0.014 A 
ATOM     79  C   UNL A   1      43.511  35.992  31.313  1.00  0.00     0.009 A 
ATOM     80  C   UNL A   1      42.569  35.300  33.433  1.00  0.00     0.009 A 
ATOM     81  C   UNL A   1      43.814  37.239  31.860  1.00  0.00     0.001 A 
ATOM     82  C   UNL A   1      42.851  36.556  33.969  1.00  0.00     0.001 A 
ATOM     83  C   UNL A   1      43.480  37.521  33.184  1.00  0.00     0.000 A 
ENDBRANCH  65  78
ENDBRANCH  39  40
ENDBRANCH  31  34
ENDBRANCH  29  30
ENDBRANCH  28  29
ENDBRANCH   1  28
TORSDOF 14
ENDMDL
MODEL 2
REMARK VINA RESULT:     -11.4      2.833      8.118
REMARK SMILES CN1C(=O)C[C@@H](C(=O)NCCCNC(=O)c2ccc(-c3c4nc(c(-c5ccccc5)c5ccc([nH]5)c(-c5ccccc5)c5nc(c(-c6ccccc6)c6ccc3[nH]6)C=C5)C=C4)cc2)C12CC[NH+](CCSc1ccccc1)CC2
REMARK SMILES IDX 10 1 9 2 7 3 8 4 6 6 1 7 2 8 3 9 64 10 4 11 5 12 65 13 78 14
REMARK SMILES IDX 66 15 77 16 67 17 68 19 69 20 70 21 71 22 72 23 76 24 73 25
REMARK SMILES IDX 75 26 74 27 11 28 12 29 13 30 14 31 15 33 16 34 17 35 63 36
REMARK SMILES IDX 18 37 62 38 19 39 20 40 21 41 56 42 22 43 61 44 55 45 57 46
REMARK SMILES IDX 23 47 60 48 54 49 53 50 24 52 46 53 31 54 45 55 32 56 35 57
REMARK SMILES IDX 44 58 58 59 33 60 34 61 43 63 59 64 36 65 25 66 26 67 30 68
REMARK SMILES IDX 27 69 29 70 28 71 47 72 48 73 52 74 49 75 51 76 50 77 37 78
REMARK SMILES IDX 38 79 42 80 39 81 41 82 40 83
REMARK H PARENT 9 5 67 18 13 32 57 51 35 62
REMARK Flexibility Score: inf
ROOT
ATOM      1  C   UNL A   1      31.701  27.710  26.440  1.00  0.00     0.117 C 
ENDROOT
BRANCH   1   2
ATOM      2  N   UNL A   1      30.886  27.326  25.305  1.00  0.00    -0.356 N 
ATOM      3  C   UNL A   1      31.204  26.919  24.058  1.00  0.00     0.226 C 
ATOM      4  O   UNL A   1      30.303  26.957  23.214  1.00  0.00    -0.275 OA
ATOM      5  H   UNL A   1      29.916  27.369  25.474  1.00  0.00     0.163 HD
BRANCH   3   6
ATOM      6  C   UNL A   1      32.571  26.423  23.654  1.00  0.00     0.114 C 
ATOM      7  C   UNL A   1      32.928  23.006  22.104  1.00  0.00     0.147 C 
ATOM      8  N   UNL A   1      32.810  24.407  22.482  1.00  0.00    -0.339 N 
ATOM      9  C   UNL A   1      32.985  25.400  21.528  1.00  0.00     0.223 C 
ATOM     10  C   UNL A   1      32.940  24.930  23.863  1.00  0.00     0.065 C 
ATOM     11  O   UNL A   1      33.120  25.231  20.322  1.00  0.00    -0.275 OA
ATOM     12  C   UNL A   1      33.001  26.741  22.214  1.00  0.00     0.116 C 
ATOM     13  C   UNL A   1      32.140  24.087  24.899  1.00  0.00     0.091 C 
ATOM     14  C   UNL A   1      34.431  24.964  24.234  1.00  0.00     0.091 C 
ATOM     15  C   UNL A   1      32.688  24.014  26.336  1.00  0.00     0.264 C 
ATOM     16  C   UNL A   1      34.660  25.171  25.720  1.00  0.00     0.264 C 
ATOM     17  N   UNL A   1      34.138  24.059  26.459  1.00  0.00    -0.334 N 
ATOM     18  H   UNL A   1      34.298  24.224  27.453  1.00  0.00     0.348 HD
BRANCH  17  19
ATOM     19  C   UNL A   1      34.930  22.818  26.482  1.00  0.00     0.273 C 
BRANCH  19  20
ATOM     20  C   UNL A   1      34.720  21.590  25.533  1.00  0.00     0.136 C 
BRANCH  20  21
ATOM     21  S   UNL A   1      33.236  20.467  25.699  1.00  0.00    -0.120 SA
BRANCH  21  22
ATOM     22  C   UNL A   1      33.431  19.139  24.518  1.00  0.00     0.007 A 
ATOM     23  C   UNL A   1      34.445  18.175  24.581  1.00  0.00     0.015 A 
ATOM     24  C   UNL A   1      32.519  19.076  23.452  1.00  0.00     0.015 A 
ATOM     25  C   UNL A   1      34.456  17.095  23.680  1.00  0.00     0.001 A 
ATOM     26  C   UNL A   1      32.512  17.987  22.573  1.00  0.00     0.001 A 
ATOM     27  C   UNL A   1      33.466  16.983  22.703  1.00  0.00     0.000 A 
ENDBRANCH  21  22
ENDBRANCH  20  21
ENDBRANCH  19  20
ENDBRANCH  17  19
ENDBRANCH   3   6
ENDBRANCH   1   2
BRANCH   1  28
ATOM     28  C   UNL A   1      32.721  28.766  26.046  1.00  0.00     0.042 C 
BRANCH  28  29
ATOM     29  C   UNL A   1      33.775  28.955  27.125  1.00  0.00     0.118 C 
BRANCH  29  30
ATOM     30  N   UNL A   1      33.776  30.330  27.604  1.00  0.00    -0.352 N 
ATOM     31  C   UNL A   1      34.643  30.907  28.492  1.00  0.00     0.251 C 
ATOM     32  H   UNL A   1      33.070  30.915  27.245  1.00  0.00     0.163 HD
ATOM     33  O   UNL A   1      34.323  31.915  29.117  1.00  0.00    -0.269 OA
BRANCH  31  34
ATOM     34  C   UNL A   1      35.979  30.311  28.663  1.00  0.00     0.039 A 
ATOM     35  C   UNL A   1      36.314  29.690  29.866  1.00  0.00     0.014 A 
ATOM     36  C   UNL A   1      36.908  30.405  27.622  1.00  0.00     0.014 A 
ATOM     37  C   UNL A   1      37.589  29.152  30.021  1.00  0.00     0.010 A 
ATOM     38  C   UNL A   1      38.141  29.787  27.742  1.00  0.00     0.010 A 
ATOM     39  C   UNL A   1      38.507  29.194  28.958  1.00  0.00    -0.014 A 
BRANCH  39  40
ATOM     40  C   UNL A   1      39.895  28.710  29.111  1.00  0.00     0.031 A 
ATOM     41  C   UNL A   1      40.942  29.650  29.644  1.00  0.00     0.074 A 
ATOM     42  C   UNL A   1      40.221  27.471  28.706  1.00  0.00     0.049 A 
ATOM     43  N   UNL A   1      42.232  29.469  29.760  1.00  0.00    -0.248 NA
ATOM     44  C   UNL A   1      40.484  30.988  30.061  1.00  0.00     0.031 C 
ATOM     45  C   UNL A   1      39.295  26.491  28.131  1.00  0.00     0.029 A 
ATOM     46  N   UNL A   1      41.429  26.827  28.710  1.00  0.00    -0.354 N 
ATOM     47  C   UNL A   1      42.738  30.677  30.226  1.00  0.00     0.074 A 
ATOM     48  C   UNL A   1      41.629  31.599  30.320  1.00  0.00     0.031 C 
ATOM     49  C   UNL A   1      39.967  25.359  27.865  1.00  0.00     0.029 A 
ATOM     50  C   UNL A   1      41.371  25.547  28.218  1.00  0.00     0.049 A 
ATOM     51  H   UNL A   1      42.261  27.242  29.034  1.00  0.00     0.167 HD
ATOM     52  C   UNL A   1      44.010  30.985  30.569  1.00  0.00     0.031 A 
ATOM     53  C   UNL A   1      42.344  24.630  28.072  1.00  0.00     0.031 A 
ATOM     54  C   UNL A   1      45.098  30.050  30.514  1.00  0.00     0.049 A 
ATOM     55  C   UNL A   1      43.741  24.981  28.498  1.00  0.00     0.074 A 
ATOM     56  C   UNL A   1      46.412  30.230  30.905  1.00  0.00     0.029 A 
ATOM     57  N   UNL A   1      44.989  28.749  30.049  1.00  0.00    -0.354 N 
ATOM     58  N   UNL A   1      44.196  26.108  28.991  1.00  0.00    -0.248 NA
ATOM     59  C   UNL A   1      44.756  23.928  28.359  1.00  0.00     0.031 C 
ATOM     60  C   UNL A   1      47.107  29.044  30.644  1.00  0.00     0.029 A 
ATOM     61  C   UNL A   1      46.215  28.115  30.132  1.00  0.00     0.049 A 
ATOM     62  H   UNL A   1      44.162  28.337  29.709  1.00  0.00     0.167 HD
ATOM     63  C   UNL A   1      45.543  25.894  29.246  1.00  0.00     0.074 A 
ATOM     64  C   UNL A   1      45.828  24.524  28.865  1.00  0.00     0.031 C 
ATOM     65  C   UNL A   1      46.466  26.750  29.747  1.00  0.00     0.031 A 
BRANCH  52  66
ATOM     66  C   UNL A   1      44.280  32.388  31.035  1.00  0.00    -0.014 A 
ATOM     67  C   UNL A   1      44.723  33.378  30.142  1.00  0.00     0.009 A 
ATOM     68  C   UNL A   1      44.080  32.728  32.381  1.00  0.00     0.009 A 
ATOM     69  C   UNL A   1      45.002  34.669  30.599  1.00  0.00     0.001 A 
ATOM     70  C   UNL A   1      44.331  34.027  32.828  1.00  0.00     0.001 A 
ATOM     71  C   UNL A   1      44.802  34.993  31.940  1.00  0.00     0.000 A 
ENDBRANCH  52  66
BRANCH  53  72
ATOM     72  C   UNL A   1      42.021  23.285  27.535  1.00  0.00    -0.014 A 
ATOM     73  C   UNL A   1      41.533  22.282  28.386  1.00  0.00     0.009 A 
ATOM     74  C   UNL A   1      42.185  22.998  26.170  1.00  0.00     0.009 A 
ATOM     75  C   UNL A   1      41.238  21.012  27.888  1.00  0.00     0.001 A 
ATOM     76  C   UNL A   1      41.866  21.734  25.670  1.00  0.00     0.001 A 
ATOM     77  C   UNL A   1      41.401  20.740  26.530  1.00  0.00     0.000 A 
ENDBRANCH  53  72
BRANCH  65  78
ATOM     78  C   UNL A   1      47.855  26.218  29.942  1.00  0.00    -0.014 A 
ATOM     79  C   UNL A   1      48.766  26.164  28.877  1.00  0.00     0.009 A 
ATOM     80  C   UNL A   1      48.268  25.809  31.220  1.00  0.00     0.009 A 
ATOM     81  C   UNL A   1      50.059  25.681  29.084  1.00  0.00     0.001 A 
ATOM     82  C   UNL A   1      49.568  25.350  31.427  1.00  0.00     0.001 A 
ATOM     83  C   UNL A   1      50.460  25.280  30.358  1.00  0.00     0.000 A 
ENDBRANCH  65  78
ENDBRANCH  39  40
ENDBRANCH  31  34
ENDBRANCH  29  30
ENDBRANCH  28  29
ENDBRANCH   1  28
TORSDOF 14
ENDMDL
MODEL 3
REMARK VINA RESULT:     -11.4      2.839      7.767
REMARK SMILES CN1C(=O)C[C@@H](C(=O)NCCCNC(=O)c2ccc(-c3c4nc(c(-c5ccccc5)c5ccc([nH]5)c(-c5ccccc5)c5nc(c(-c6ccccc6)c6ccc3[nH]6)C=C5)C=C4)cc2)C12CC[NH+](CCSc1ccccc1)CC2
REMARK SMILES IDX 10 1 9 2 7 3 8 4 6 6 1 7 2 8 3 9 64 10 4 11 5 12 65 13 78 14
REMARK SMILES IDX 66 15 77 16 67 17 68 19 69 20 70 21 71 22 72 23 76 24 73 25
REMARK SMILES IDX 75 26 74 27 11 28 12 29 13 30 14 31 15 33 16 34 17 35 63 36
REMARK SMILES IDX 18 37 62 38 19 39 20 40 21 41 56 42 22 43 61 44 55 45 57 46
REMARK SMILES IDX 23 47 60 48 54 49 53 50 24 52 46 53 31 54 45 55 32 56 35 57
REMARK SMILES IDX 44 58 58 59 33 60 34 61 43 63 59 64 36 65 25 66 26 67 30 68
REMARK SMILES IDX 27 69 29 70 28 71 47 72 48 73 52 74 49 75 51 76 50 77 37 78
REMARK SMILES IDX 38 79 42 80 39 81 41 82 40 83
REMARK H PARENT 9 5 67 18 13 32 57 51 35 62
REMARK Flexibility Score: inf
ROOT
ATOM      1  C   UNL A   1      31.519  30.492  25.883  1.00  0.00     0.117 C 
ENDROOT
BRANCH   1   2
ATOM      2  N   UNL A   1      31.517  29.609  27.033  1.00  0.00    -0.356 N 
ATOM      3  C   UNL A   1      31.927  28.334  27.197  1.00  0.00     0.226 C 
ATOM      4  O   UNL A   1      31.519  27.743  28.203  1.00  0.00    -0.275 OA
ATOM      5  H   UNL A   1      31.146  30.016  27.850  1.00  0.00     0.163 HD
BRANCH   3   6
ATOM      6  C   UNL A   1      32.845  27.613  26.240  1.00  0.00     0.114 C 
ATOM      7  C   UNL A   1      31.735  27.019  22.687  1.00  0.00     0.147 C 
ATOM      8  N   UNL A   1      32.292  27.425  23.970  1.00  0.00    -0.339 N 
ATOM      9  C   UNL A   1      33.265  28.413  24.022  1.00  0.00     0.223 C 
ATOM     10  C   UNL A   1      32.251  26.615  25.211  1.00  0.00     0.065 C 
ATOM     11  O   UNL A   1      33.650  29.101  23.084  1.00  0.00    -0.275 OA
ATOM     12  C   UNL A   1      33.798  28.502  25.428  1.00  0.00     0.116 C 
ATOM     13  C   UNL A   1      30.848  25.994  25.474  1.00  0.00     0.091 C 
ATOM     14  C   UNL A   1      33.316  25.510  25.107  1.00  0.00     0.091 C 
ATOM     15  C   UNL A   1      30.790  24.648  26.219  1.00  0.00     0.264 C 
ATOM     16  C   UNL A   1      33.148  24.435  26.163  1.00  0.00     0.264 C 
ATOM     17  N   UNL A   1      31.905  23.745  25.973  1.00  0.00    -0.334 N 
ATOM     18  H   UNL A   1      31.813  23.033  26.696  1.00  0.00     0.348 HD
BRANCH  17  19
ATOM     19  C   UNL A   1      31.837  22.740  24.899  1.00  0.00     0.273 C 
BRANCH  19  20
ATOM     20  C   UNL A   1      32.016  21.196  25.088  1.00  0.00     0.136 C 
BRANCH  20  21
ATOM     21  S   UNL A   1      33.622  20.338  24.673  1.00  0.00    -0.120 SA
BRANCH  21  22
ATOM     22  C   UNL A   1      34.910  21.578  24.665  1.00  0.00     0.007 A 
ATOM     23  C   UNL A   1      35.221  22.378  23.558  1.00  0.00     0.015 A 
ATOM     24  C   UNL A   1      35.665  21.742  25.836  1.00  0.00     0.015 A 
ATOM     25  C   UNL A   1      36.169  23.411  23.672  1.00  0.00     0.001 A 
ATOM     26  C   UNL A   1      36.587  22.787  25.960  1.00  0.00     0.001 A 
ATOM     27  C   UNL A   1      36.821  23.638  24.884  1.00  0.00     0.000 A 
ENDBRANCH  21  22
ENDBRANCH  20  21
ENDBRANCH  19  20
ENDBRANCH  17  19
ENDBRANCH   3   6
ENDBRANCH   1   2
BRANCH   1  28
ATOM     28  C   UNL A   1      31.408  31.946  26.312  1.00  0.00     0.042 C 
BRANCH  28  29
ATOM     29  C   UNL A   1      32.514  32.327  27.284  1.00  0.00     0.118 C 
BRANCH  29  30
ATOM     30  N   UNL A   1      32.450  33.747  27.600  1.00  0.00    -0.352 N 
ATOM     31  C   UNL A   1      33.177  34.430  28.537  1.00  0.00     0.251 C 
ATOM     32  H   UNL A   1      31.810  34.279  27.075  1.00  0.00     0.163 HD
ATOM     33  O   UNL A   1      32.772  35.498  28.989  1.00  0.00    -0.269 OA
BRANCH  31  34
ATOM     34  C   UNL A   1      34.469  33.873  28.972  1.00  0.00     0.039 A 
ATOM     35  C   UNL A   1      35.624  34.146  28.241  1.00  0.00     0.014 A 
ATOM     36  C   UNL A   1      34.513  33.046  30.099  1.00  0.00     0.014 A 
ATOM     37  C   UNL A   1      36.835  33.593  28.651  1.00  0.00     0.010 A 
ATOM     38  C   UNL A   1      35.730  32.575  30.560  1.00  0.00     0.010 A 
ATOM     39  C   UNL A   1      36.894  32.808  29.815  1.00  0.00    -0.014 A 
BRANCH  39  40
ATOM     40  C   UNL A   1      38.141  32.135  30.236  1.00  0.00     0.031 A 
ATOM     41  C   UNL A   1      39.043  32.822  31.227  1.00  0.00     0.074 A 
ATOM     42  C   UNL A   1      38.492  30.964  29.680  1.00  0.00     0.049 A 
ATOM     43  N   UNL A   1      40.226  32.465  31.651  1.00  0.00    -0.248 NA
ATOM     44  C   UNL A   1      38.569  34.104  31.779  1.00  0.00     0.031 C 
ATOM     45  C   UNL A   1      37.716  30.232  28.675  1.00  0.00     0.029 A 
ATOM     46  N   UNL A   1      39.602  30.186  29.877  1.00  0.00    -0.354 N 
ATOM     47  C   UNL A   1      40.649  33.492  32.487  1.00  0.00     0.074 A 
ATOM     48  C   UNL A   1      39.623  34.509  32.468  1.00  0.00     0.031 C 
ATOM     49  C   UNL A   1      38.362  29.096  28.366  1.00  0.00     0.029 A 
ATOM     50  C   UNL A   1      39.608  29.039  29.124  1.00  0.00     0.049 A 
ATOM     51  H   UNL A   1      40.326  30.428  30.499  1.00  0.00     0.167 HD
ATOM     52  C   UNL A   1      41.780  33.570  33.225  1.00  0.00     0.031 A 
ATOM     53  C   UNL A   1      40.521  28.053  29.058  1.00  0.00     0.031 A 
ATOM     54  C   UNL A   1      42.774  32.535  33.272  1.00  0.00     0.049 A 
ATOM     55  C   UNL A   1      41.749  28.142  29.917  1.00  0.00     0.074 A 
ATOM     56  C   UNL A   1      43.923  32.474  34.038  1.00  0.00     0.029 A 
ATOM     57  N   UNL A   1      42.723  31.368  32.525  1.00  0.00    -0.354 N 
ATOM     58  N   UNL A   1      42.110  29.091  30.747  1.00  0.00    -0.248 NA
ATOM     59  C   UNL A   1      42.691  27.017  29.839  1.00  0.00     0.031 C 
ATOM     60  C   UNL A   1      44.587  31.282  33.730  1.00  0.00     0.029 A 
ATOM     61  C   UNL A   1      43.827  30.583  32.804  1.00  0.00     0.049 A 
ATOM     62  H   UNL A   1      42.009  31.133  31.890  1.00  0.00     0.167 HD
ATOM     63  C   UNL A   1      43.306  28.668  31.310  1.00  0.00     0.074 A 
ATOM     64  C   UNL A   1      43.602  27.370  30.737  1.00  0.00     0.031 C 
ATOM     65  C   UNL A   1      44.092  29.294  32.219  1.00  0.00     0.031 A 
BRANCH  52  66
ATOM     66  C   UNL A   1      41.990  34.816  34.038  1.00  0.00    -0.014 A 
ATOM     67  C   UNL A   1      41.528  34.909  35.361  1.00  0.00     0.009 A 
ATOM     68  C   UNL A   1      42.668  35.910  33.478  1.00  0.00     0.009 A 
ATOM     69  C   UNL A   1      41.702  36.088  36.090  1.00  0.00     0.001 A 
ATOM     70  C   UNL A   1      42.867  37.076  34.220  1.00  0.00     0.001 A 
ATOM     71  C   UNL A   1      42.374  37.168  35.521  1.00  0.00     0.000 A 
ENDBRANCH  52  66
BRANCH  53  72
ATOM     72  C   UNL A   1      40.285  26.883  28.176  1.00  0.00    -0.014 A 
ATOM     73  C   UNL A   1      39.535  25.790  28.636  1.00  0.00     0.009 A 
ATOM     74  C   UNL A   1      40.794  26.855  26.868  1.00  0.00     0.009 A 
ATOM     75  C   UNL A   1      39.320  24.682  27.814  1.00  0.00     0.001 A 
ATOM     76  C   UNL A   1      40.556  25.756  26.040  1.00  0.00     0.001 A 
ATOM     77  C   UNL A   1      39.827  24.667  26.516  1.00  0.00     0.000 A 
ENDBRANCH  53  72
BRANCH  65  78
ATOM     78  C   UNL A   1      45.325  28.567  32.669  1.00  0.00    -0.014 A 
ATOM     79  C   UNL A   1      46.556  28.760  32.024  1.00  0.00     0.009 A 
ATOM     80  C   UNL A   1      45.259  27.715  33.782  1.00  0.00     0.009 A 
ATOM     81  C   UNL A   1      47.694  28.087  32.470  1.00  0.00     0.001 A 
ATOM     82  C   UNL A   1      46.404  27.064  34.240  1.00  0.00     0.001 A 
ATOM     83  C   UNL A   1      47.618  27.244  33.579  1.00  0.00     0.000 A 
ENDBRANCH  65  78
ENDBRANCH  39  40
ENDBRANCH  31  34
ENDBRANCH  29  30
ENDBRANCH  28  29
ENDBRANCH   1  28
TORSDOF 14
ENDMDL
