MODEL 1
REMARK VINA RESULT:      -9.5      0.000      0.000
REMARK SMILES O=C(Cc1ccccc1Nc1c(F)cccc1C(F)(F)F)NCCCNC(=O)c1ccc(-c2c3nc(c(-c4ccccc4)c4ccc([nH]4)c(-c4ccccc4)c4nc(c(-c5ccccc5)c5ccc2[nH]5)C=C4)C=C3)cc1
REMARK SMILES IDX 23 1 22 2 1 3 2 4 3 6 4 7 5 8 9 9 6 10 8 11 7 12 10 13 11 15
REMARK SMILES IDX 12 16 17 17 13 18 14 19 16 20 15 21 18 22 19 23 20 24 21 25
REMARK SMILES IDX 24 26 25 27 26 28 27 29 28 31 29 32 30 33 76 34 31 35 75 36
REMARK SMILES IDX 32 37 33 38 34 39 69 40 35 41 74 42 68 43 70 44 36 45 73 46
REMARK SMILES IDX 67 47 66 48 37 50 59 51 44 52 58 53 45 54 48 55 57 56 71 57
REMARK SMILES IDX 46 58 47 59 56 61 72 62 49 63 38 64 39 65 43 66 40 67 42 68
REMARK SMILES IDX 41 69 60 70 61 71 65 72 62 73 64 74 63 75 50 76 51 77 55 78
REMARK SMILES IDX 52 79 54 80 53 81
REMARK H PARENT 22 5 10 14 26 30 70 49 48 60
REMARK Flexibility Score: inf
ROOT
ATOM      1  C   UNL A   1      45.243  20.585  24.162  1.00  0.00     0.117 C 
ENDROOT
BRANCH   1   2
ATOM      2  N   UNL A   1      45.898  21.663  24.877  1.00  0.00    -0.356 N 
ATOM      3  O   UNL A   1      45.024  23.365  23.603  1.00  0.00    -0.275 OA
ATOM      4  C   UNL A   1      45.666  22.992  24.580  1.00  0.00     0.224 C 
ATOM      5  H   UNL A   1      46.531  21.440  25.598  1.00  0.00     0.163 HD
BRANCH   4   6
ATOM      6  C   UNL A   1      46.254  23.961  25.590  1.00  0.00     0.137 C 
BRANCH   6   7
ATOM      7  C   UNL A   1      46.909  25.208  25.013  1.00  0.00    -0.015 A 
ATOM      8  C   UNL A   1      48.000  25.117  24.121  1.00  0.00     0.006 A 
ATOM      9  C   UNL A   1      46.400  26.490  25.330  1.00  0.00     0.042 A 
ATOM     10  C   UNL A   1      48.565  26.252  23.543  1.00  0.00     0.000 A 
ATOM     11  C   UNL A   1      47.012  27.621  24.762  1.00  0.00     0.026 A 
ATOM     12  C   UNL A   1      48.075  27.506  23.869  1.00  0.00     0.002 A 
BRANCH   9  13
ATOM     13  N   UNL A   1      45.267  26.625  26.165  1.00  0.00    -0.352 N 
ATOM     14  H   UNL A   1      45.249  26.016  26.939  1.00  0.00     0.167 HD
BRANCH  13  15
ATOM     15  C   UNL A   1      44.154  27.492  26.066  1.00  0.00     0.087 A 
ATOM     16  C   UNL A   1      43.033  27.016  25.354  1.00  0.00     0.147 A 
ATOM     17  C   UNL A   1      44.057  28.747  26.691  1.00  0.00     0.082 A 
ATOM     18  F   UNL A   1      43.116  25.836  24.720  1.00  0.00    -0.205 F 
ATOM     19  C   UNL A   1      41.832  27.716  25.294  1.00  0.00     0.041 A 
ATOM     20  C   UNL A   1      42.822  29.439  26.647  1.00  0.00     0.015 A 
ATOM     21  C   UNL A   1      41.720  28.927  25.960  1.00  0.00     0.004 A 
BRANCH  17  22
ATOM     22  C   UNL A   1      45.209  29.436  27.386  1.00  0.00     0.418 C 
ATOM     23  F   UNL A   1      46.049  28.534  27.983  1.00  0.00    -0.166 F 
ATOM     24  F   UNL A   1      46.005  30.130  26.524  1.00  0.00    -0.166 F 
ATOM     25  F   UNL A   1      44.867  30.295  28.384  1.00  0.00    -0.166 F 
ENDBRANCH  17  22
ENDBRANCH  13  15
ENDBRANCH   9  13
ENDBRANCH   6   7
ENDBRANCH   4   6
ENDBRANCH   1   2
BRANCH   1  26
ATOM     26  C   UNL A   1      45.308  19.260  24.905  1.00  0.00     0.042 C 
BRANCH  26  27
ATOM     27  C   UNL A   1      44.366  19.155  26.097  1.00  0.00     0.118 C 
BRANCH  27  28
ATOM     28  N   UNL A   1      43.001  18.795  25.735  1.00  0.00    -0.352 N 
ATOM     29  C   UNL A   1      41.834  19.501  25.915  1.00  0.00     0.251 C 
ATOM     30  H   UNL A   1      42.900  17.919  25.298  1.00  0.00     0.163 HD
ATOM     31  O   UNL A   1      40.754  18.984  25.645  1.00  0.00    -0.269 OA
BRANCH  29  32
ATOM     32  C   UNL A   1      41.877  20.871  26.470  1.00  0.00     0.039 A 
ATOM     33  C   UNL A   1      41.579  21.060  27.823  1.00  0.00     0.014 A 
ATOM     34  C   UNL A   1      42.232  21.959  25.671  1.00  0.00     0.014 A 
ATOM     35  C   UNL A   1      41.728  22.325  28.395  1.00  0.00     0.010 A 
ATOM     36  C   UNL A   1      42.451  23.202  26.257  1.00  0.00     0.010 A 
ATOM     37  C   UNL A   1      42.213  23.396  27.627  1.00  0.00    -0.014 A 
BRANCH  37  38
ATOM     38  C   UNL A   1      42.502  24.722  28.232  1.00  0.00     0.031 A 
ATOM     39  C   UNL A   1      43.850  24.997  28.837  1.00  0.00     0.074 A 
ATOM     40  C   UNL A   1      41.523  25.644  28.323  1.00  0.00     0.049 A 
ATOM     41  N   UNL A   1      44.252  26.040  29.519  1.00  0.00    -0.248 NA
ATOM     42  C   UNL A   1      44.873  23.952  28.675  1.00  0.00     0.031 C 
ATOM     43  C   UNL A   1      40.162  25.494  27.803  1.00  0.00     0.029 A 
ATOM     44  N   UNL A   1      41.521  26.889  28.902  1.00  0.00    -0.354 N 
ATOM     45  C   UNL A   1      45.563  25.767  29.887  1.00  0.00     0.074 A 
ATOM     46  C   UNL A   1      45.876  24.445  29.388  1.00  0.00     0.031 C 
ATOM     47  C   UNL A   1      39.464  26.608  28.073  1.00  0.00     0.029 A 
ATOM     48  C   UNL A   1      40.308  27.531  28.824  1.00  0.00     0.049 A 
ATOM     49  H   UNL A   1      42.313  27.285  29.333  1.00  0.00     0.167 HD
ATOM     50  C   UNL A   1      46.434  26.550  30.566  1.00  0.00     0.031 A 
ATOM     51  C   UNL A   1      39.913  28.721  29.317  1.00  0.00     0.031 A 
ATOM     52  C   UNL A   1      46.129  27.869  31.051  1.00  0.00     0.049 A 
ATOM     53  C   UNL A   1      40.891  29.560  30.092  1.00  0.00     0.074 A 
ATOM     54  C   UNL A   1      46.964  28.762  31.702  1.00  0.00     0.029 A 
ATOM     55  N   UNL A   1      44.893  28.485  30.942  1.00  0.00    -0.354 N 
ATOM     56  N   UNL A   1      42.144  29.311  30.381  1.00  0.00    -0.248 NA
ATOM     57  C   UNL A   1      40.398  30.848  30.603  1.00  0.00     0.031 C 
ATOM     58  C   UNL A   1      46.219  29.898  32.029  1.00  0.00     0.029 A 
ATOM     59  C   UNL A   1      44.935  29.735  31.533  1.00  0.00     0.049 A 
ATOM     60  H   UNL A   1      44.102  28.092  30.507  1.00  0.00     0.167 HD
ATOM     61  C   UNL A   1      42.599  30.422  31.080  1.00  0.00     0.074 A 
ATOM     62  C   UNL A   1      41.490  31.350  31.163  1.00  0.00     0.031 C 
ATOM     63  C   UNL A   1      43.828  30.653  31.602  1.00  0.00     0.031 A 
BRANCH  50  64
ATOM     64  C   UNL A   1      47.803  25.992  30.835  1.00  0.00    -0.014 A 
ATOM     65  C   UNL A   1      48.784  25.957  29.832  1.00  0.00     0.009 A 
ATOM     66  C   UNL A   1      48.128  25.530  32.120  1.00  0.00     0.009 A 
ATOM     67  C   UNL A   1      50.052  25.436  30.101  1.00  0.00     0.001 A 
ATOM     68  C   UNL A   1      49.405  25.037  32.394  1.00  0.00     0.001 A 
ATOM     69  C   UNL A   1      50.362  24.981  31.382  1.00  0.00     0.000 A 
ENDBRANCH  50  64
BRANCH  51  70
ATOM     70  C   UNL A   1      38.523  29.194  29.091  1.00  0.00    -0.014 A 
ATOM     71  C   UNL A   1      37.563  29.088  30.109  1.00  0.00     0.009 A 
ATOM     72  C   UNL A   1      38.145  29.748  27.857  1.00  0.00     0.009 A 
ATOM     73  C   UNL A   1      36.248  29.504  29.888  1.00  0.00     0.001 A 
ATOM     74  C   UNL A   1      36.838  30.190  27.649  1.00  0.00     0.001 A 
ATOM     75  C   UNL A   1      35.888  30.058  28.661  1.00  0.00     0.000 A 
ENDBRANCH  51  70
BRANCH  63  76
ATOM     76  C   UNL A   1      44.058  31.976  32.272  1.00  0.00    -0.014 A 
ATOM     77  C   UNL A   1      43.975  32.114  33.666  1.00  0.00     0.009 A 
ATOM     78  C   UNL A   1      44.424  33.089  31.498  1.00  0.00     0.009 A 
ATOM     79  C   UNL A   1      44.233  33.347  34.269  1.00  0.00     0.001 A 
ATOM     80  C   UNL A   1      44.708  34.312  32.106  1.00  0.00     0.001 A 
ATOM     81  C   UNL A   1      44.606  34.442  33.489  1.00  0.00     0.000 A 
ENDBRANCH  63  76
ENDBRANCH  37  38
ENDBRANCH  29  32
ENDBRANCH  27  28
ENDBRANCH  26  27
ENDBRANCH   1  26
TORSDOF 14
ENDMDL
MODEL 2
REMARK VINA RESULT:      -8.9      4.521      9.355
REMARK SMILES O=C(Cc1ccccc1Nc1c(F)cccc1C(F)(F)F)NCCCNC(=O)c1ccc(-c2c3nc(c(-c4ccccc4)c4ccc([nH]4)c(-c4ccccc4)c4nc(c(-c5ccccc5)c5ccc2[nH]5)C=C4)C=C3)cc1
REMARK SMILES IDX 23 1 22 2 1 3 2 4 3 6 4 7 5 8 9 9 6 10 8 11 7 12 10 13 11 15
REMARK SMILES IDX 12 16 17 17 13 18 14 19 16 20 15 21 18 22 19 23 20 24 21 25
REMARK SMILES IDX 24 26 25 27 26 28 27 29 28 31 29 32 30 33 76 34 31 35 75 36
REMARK SMILES IDX 32 37 33 38 34 39 69 40 35 41 74 42 68 43 70 44 36 45 73 46
REMARK SMILES IDX 67 47 66 48 37 50 59 51 44 52 58 53 45 54 48 55 57 56 71 57
REMARK SMILES IDX 46 58 47 59 56 61 72 62 49 63 38 64 39 65 43 66 40 67 42 68
REMARK SMILES IDX 41 69 60 70 61 71 65 72 62 73 64 74 63 75 50 76 51 77 55 78
REMARK SMILES IDX 52 79 54 80 53 81
REMARK H PARENT 22 5 10 14 26 30 70 49 48 60
REMARK Flexibility Score: inf
ROOT
ATOM      1  C   UNL A   1      36.962  22.168  23.860  1.00  0.00     0.117 C 
ENDROOT
BRANCH   1   2
ATOM      2  N   UNL A   1      36.367  23.187  24.701  1.00  0.00    -0.356 N 
ATOM      3  O   UNL A   1      34.922  24.003  23.109  1.00  0.00    -0.275 OA
ATOM      4  C   UNL A   1      35.322  23.981  24.269  1.00  0.00     0.224 C 
ATOM      5  H   UNL A   1      36.720  23.318  25.611  1.00  0.00     0.163 HD
BRANCH   4   6
ATOM      6  C   UNL A   1      34.685  24.813  25.368  1.00  0.00     0.137 C 
BRANCH   6   7
ATOM      7  C   UNL A   1      33.242  24.467  25.712  1.00  0.00    -0.015 A 
ATOM      8  C   UNL A   1      32.933  23.435  26.624  1.00  0.00     0.006 A 
ATOM      9  C   UNL A   1      32.179  25.214  25.151  1.00  0.00     0.042 A 
ATOM     10  C   UNL A   1      31.618  23.155  26.988  1.00  0.00     0.000 A 
ATOM     11  C   UNL A   1      30.859  24.887  25.507  1.00  0.00     0.026 A 
ATOM     12  C   UNL A   1      30.579  23.877  26.424  1.00  0.00     0.002 A 
BRANCH   9  13
ATOM     13  N   UNL A   1      32.445  26.301  24.285  1.00  0.00    -0.352 N 
ATOM     14  H   UNL A   1      33.170  26.145  23.637  1.00  0.00     0.167 HD
BRANCH  13  15
ATOM     15  C   UNL A   1      31.839  27.575  24.202  1.00  0.00     0.087 A 
ATOM     16  C   UNL A   1      30.894  27.771  23.173  1.00  0.00     0.147 A 
ATOM     17  C   UNL A   1      32.050  28.624  25.115  1.00  0.00     0.082 A 
ATOM     18  F   UNL A   1      30.704  26.795  22.270  1.00  0.00    -0.205 F 
ATOM     19  C   UNL A   1      30.136  28.932  23.063  1.00  0.00     0.041 A 
ATOM     20  C   UNL A   1      31.253  29.791  25.010  1.00  0.00     0.015 A 
ATOM     21  C   UNL A   1      30.303  29.941  23.999  1.00  0.00     0.004 A 
BRANCH  17  22
ATOM     22  C   UNL A   1      33.109  28.606  26.192  1.00  0.00     0.418 C 
ATOM     23  F   UNL A   1      34.341  28.289  25.683  1.00  0.00    -0.166 F 
ATOM     24  F   UNL A   1      33.282  29.823  26.781  1.00  0.00    -0.166 F 
ATOM     25  F   UNL A   1      32.914  27.708  27.195  1.00  0.00    -0.166 F 
ENDBRANCH  17  22
ENDBRANCH  13  15
ENDBRANCH   9  13
ENDBRANCH   6   7
ENDBRANCH   4   6
ENDBRANCH   1   2
BRANCH   1  26
ATOM     26  C   UNL A   1      37.303  20.898  24.623  1.00  0.00     0.042 C 
BRANCH  26  27
ATOM     27  C   UNL A   1      38.442  21.048  25.624  1.00  0.00     0.118 C 
BRANCH  27  28
ATOM     28  N   UNL A   1      39.391  19.943  25.600  1.00  0.00    -0.352 N 
ATOM     29  C   UNL A   1      40.713  19.919  25.978  1.00  0.00     0.251 C 
ATOM     30  H   UNL A   1      39.035  19.090  25.263  1.00  0.00     0.163 HD
ATOM     31  O   UNL A   1      41.393  18.917  25.779  1.00  0.00    -0.269 OA
BRANCH  29  32
ATOM     32  C   UNL A   1      41.329  21.116  26.592  1.00  0.00     0.039 A 
ATOM     33  C   UNL A   1      41.910  22.077  25.760  1.00  0.00     0.014 A 
ATOM     34  C   UNL A   1      41.311  21.303  27.975  1.00  0.00     0.014 A 
ATOM     35  C   UNL A   1      42.390  23.269  26.309  1.00  0.00     0.010 A 
ATOM     36  C   UNL A   1      41.721  22.520  28.512  1.00  0.00     0.010 A 
ATOM     37  C   UNL A   1      42.255  23.520  27.684  1.00  0.00    -0.014 A 
BRANCH  37  38
ATOM     38  C   UNL A   1      42.640  24.825  28.280  1.00  0.00     0.031 A 
ATOM     39  C   UNL A   1      41.606  25.899  28.475  1.00  0.00     0.074 A 
ATOM     40  C   UNL A   1      43.934  25.079  28.556  1.00  0.00     0.049 A 
ATOM     41  N   UNL A   1      41.767  27.140  28.860  1.00  0.00    -0.248 NA
ATOM     42  C   UNL A   1      40.212  25.537  28.175  1.00  0.00     0.031 C 
ATOM     43  C   UNL A   1      45.041  24.136  28.386  1.00  0.00     0.029 A 
ATOM     44  N   UNL A   1      44.539  26.219  29.026  1.00  0.00    -0.354 N 
ATOM     45  C   UNL A   1      40.502  27.712  28.825  1.00  0.00     0.074 A 
ATOM     46  C   UNL A   1      39.591  26.697  28.343  1.00  0.00     0.031 C 
ATOM     47  C   UNL A   1      46.186  24.729  28.761  1.00  0.00     0.029 A 
ATOM     48  C   UNL A   1      45.903  26.107  29.151  1.00  0.00     0.049 A 
ATOM     49  H   UNL A   1      44.043  27.039  29.251  1.00  0.00     0.167 HD
ATOM     50  C   UNL A   1      40.129  28.966  29.176  1.00  0.00     0.031 A 
ATOM     51  C   UNL A   1      46.826  27.015  29.522  1.00  0.00     0.031 A 
ATOM     52  C   UNL A   1      41.030  29.973  29.667  1.00  0.00     0.049 A 
ATOM     53  C   UNL A   1      46.390  28.408  29.880  1.00  0.00     0.074 A 
ATOM     54  C   UNL A   1      40.736  31.254  30.101  1.00  0.00     0.029 A 
ATOM     55  N   UNL A   1      42.401  29.814  29.788  1.00  0.00    -0.354 N 
ATOM     56  N   UNL A   1      45.182  28.915  29.896  1.00  0.00    -0.248 NA
ATOM     57  C   UNL A   1      47.446  29.351  30.276  1.00  0.00     0.031 C 
ATOM     58  C   UNL A   1      41.935  31.887  30.438  1.00  0.00     0.029 A 
ATOM     59  C   UNL A   1      42.971  30.981  30.267  1.00  0.00     0.049 A 
ATOM     60  H   UNL A   1      42.897  28.993  29.568  1.00  0.00     0.167 HD
ATOM     61  C   UNL A   1      45.328  30.226  30.332  1.00  0.00     0.074 A 
ATOM     62  C   UNL A   1      46.740  30.432  30.580  1.00  0.00     0.031 C 
ATOM     63  C   UNL A   1      44.375  31.171  30.516  1.00  0.00     0.031 A 
BRANCH  50  64
ATOM     64  C   UNL A   1      38.676  29.322  29.028  1.00  0.00    -0.014 A 
ATOM     65  C   UNL A   1      38.151  29.740  27.795  1.00  0.00     0.009 A 
ATOM     66  C   UNL A   1      37.813  29.203  30.129  1.00  0.00     0.009 A 
ATOM     67  C   UNL A   1      36.798  30.066  27.677  1.00  0.00     0.001 A 
ATOM     68  C   UNL A   1      36.455  29.501  30.000  1.00  0.00     0.001 A 
ATOM     69  C   UNL A   1      35.952  29.941  28.777  1.00  0.00     0.000 A 
ENDBRANCH  50  64
BRANCH  51  70
ATOM     70  C   UNL A   1      48.262  26.635  29.576  1.00  0.00    -0.014 A 
ATOM     71  C   UNL A   1      49.096  26.849  28.468  1.00  0.00     0.009 A 
ATOM     72  C   UNL A   1      48.806  26.051  30.731  1.00  0.00     0.009 A 
ATOM     73  C   UNL A   1      50.438  26.465  28.506  1.00  0.00     0.001 A 
ATOM     74  C   UNL A   1      50.155  25.694  30.777  1.00  0.00     0.001 A 
ATOM     75  C   UNL A   1      50.967  25.892  29.661  1.00  0.00     0.000 A 
ENDBRANCH  51  70
BRANCH  63  76
ATOM     76  C   UNL A   1      44.816  32.504  31.050  1.00  0.00    -0.014 A 
ATOM     77  C   UNL A   1      45.153  33.560  30.190  1.00  0.00     0.009 A 
ATOM     78  C   UNL A   1      44.833  32.722  32.438  1.00  0.00     0.009 A 
ATOM     79  C   UNL A   1      45.521  34.803  30.711  1.00  0.00     0.001 A 
ATOM     80  C   UNL A   1      45.175  33.972  32.953  1.00  0.00     0.001 A 
ATOM     81  C   UNL A   1      45.524  35.009  32.091  1.00  0.00     0.000 A 
ENDBRANCH  63  76
ENDBRANCH  37  38
ENDBRANCH  29  32
ENDBRANCH  27  28
ENDBRANCH  26  27
ENDBRANCH   1  26
TORSDOF 14
ENDMDL
MODEL 3
REMARK VINA RESULT:      -8.8      5.372     10.727
REMARK SMILES O=C(Cc1ccccc1Nc1c(F)cccc1C(F)(F)F)NCCCNC(=O)c1ccc(-c2c3nc(c(-c4ccccc4)c4ccc([nH]4)c(-c4ccccc4)c4nc(c(-c5ccccc5)c5ccc2[nH]5)C=C4)C=C3)cc1
REMARK SMILES IDX 23 1 22 2 1 3 2 4 3 6 4 7 5 8 9 9 6 10 8 11 7 12 10 13 11 15
REMARK SMILES IDX 12 16 17 17 13 18 14 19 16 20 15 21 18 22 19 23 20 24 21 25
REMARK SMILES IDX 24 26 25 27 26 28 27 29 28 31 29 32 30 33 76 34 31 35 75 36
REMARK SMILES IDX 32 37 33 38 34 39 69 40 35 41 74 42 68 43 70 44 36 45 73 46
REMARK SMILES IDX 67 47 66 48 37 50 59 51 44 52 58 53 45 54 48 55 57 56 71 57
REMARK SMILES IDX 46 58 47 59 56 61 72 62 49 63 38 64 39 65 43 66 40 67 42 68
REMARK SMILES IDX 41 69 60 70 61 71 65 72 62 73 64 74 63 75 50 76 51 77 55 78
REMARK SMILES IDX 52 79 54 80 53 81
REMARK H PARENT 22 5 10 14 26 30 70 49 48 60
REMARK Flexibility Score: inf
ROOT
ATOM      1  C   UNL A   1      31.765  29.029  27.283  1.00  0.00     0.117 C 
ENDROOT
BRANCH   1   2
ATOM      2  N   UNL A   1      32.808  28.164  26.770  1.00  0.00    -0.356 N 
ATOM      3  O   UNL A   1      31.572  26.227  26.836  1.00  0.00    -0.275 OA
ATOM      4  C   UNL A   1      32.594  26.824  26.511  1.00  0.00     0.224 C 
ATOM      5  H   UNL A   1      33.701  28.544  26.602  1.00  0.00     0.163 HD
BRANCH   4   6
ATOM      6  C   UNL A   1      33.728  26.152  25.759  1.00  0.00     0.137 C 
BRANCH   6   7
ATOM      7  C   UNL A   1      33.425  25.744  24.323  1.00  0.00    -0.015 A 
ATOM      8  C   UNL A   1      33.456  26.685  23.271  1.00  0.00     0.006 A 
ATOM      9  C   UNL A   1      33.147  24.392  24.012  1.00  0.00     0.042 A 
ATOM     10  C   UNL A   1      33.238  26.307  21.948  1.00  0.00     0.000 A 
ATOM     11  C   UNL A   1      32.895  24.042  22.674  1.00  0.00     0.026 A 
ATOM     12  C   UNL A   1      32.951  24.985  21.650  1.00  0.00     0.002 A 
BRANCH   9  13
ATOM     13  N   UNL A   1      33.171  23.403  25.024  1.00  0.00    -0.352 N 
ATOM     14  H   UNL A   1      32.680  23.640  25.844  1.00  0.00     0.167 HD
BRANCH  13  15
ATOM     15  C   UNL A   1      33.789  22.132  25.048  1.00  0.00     0.087 A 
ATOM     16  C   UNL A   1      32.954  21.010  24.866  1.00  0.00     0.147 A 
ATOM     17  C   UNL A   1      35.174  21.915  25.155  1.00  0.00     0.082 A 
ATOM     18  F   UNL A   1      31.625  21.191  24.796  1.00  0.00    -0.205 F 
ATOM     19  C   UNL A   1      33.452  19.718  24.741  1.00  0.00     0.041 A 
ATOM     20  C   UNL A   1      35.674  20.599  24.999  1.00  0.00     0.015 A 
ATOM     21  C   UNL A   1      34.824  19.513  24.788  1.00  0.00     0.004 A 
BRANCH  17  22
ATOM     22  C   UNL A   1      36.177  23.002  25.469  1.00  0.00     0.418 C 
ATOM     23  F   UNL A   1      35.844  23.680  26.612  1.00  0.00    -0.166 F 
ATOM     24  F   UNL A   1      37.426  22.512  25.709  1.00  0.00    -0.166 F 
ATOM     25  F   UNL A   1      36.309  23.972  24.524  1.00  0.00    -0.166 F 
ENDBRANCH  17  22
ENDBRANCH  13  15
ENDBRANCH   9  13
ENDBRANCH   6   7
ENDBRANCH   4   6
ENDBRANCH   1   2
BRANCH   1  26
ATOM     26  C   UNL A   1      31.724  30.380  26.586  1.00  0.00     0.042 C 
BRANCH  26  27
ATOM     27  C   UNL A   1      32.866  31.318  26.956  1.00  0.00     0.118 C 
BRANCH  27  28
ATOM     28  N   UNL A   1      32.426  32.655  27.334  1.00  0.00    -0.352 N 
ATOM     29  C   UNL A   1      33.045  33.583  28.138  1.00  0.00     0.251 C 
ATOM     30  H   UNL A   1      31.560  32.933  26.960  1.00  0.00     0.163 HD
ATOM     31  O   UNL A   1      32.466  34.623  28.438  1.00  0.00    -0.269 OA
BRANCH  29  32
ATOM     32  C   UNL A   1      34.397  33.312  28.675  1.00  0.00     0.039 A 
ATOM     33  C   UNL A   1      34.516  32.649  29.900  1.00  0.00     0.014 A 
ATOM     34  C   UNL A   1      35.540  33.686  27.966  1.00  0.00     0.014 A 
ATOM     35  C   UNL A   1      35.779  32.278  30.367  1.00  0.00     0.010 A 
ATOM     36  C   UNL A   1      36.790  33.252  28.395  1.00  0.00     0.010 A 
ATOM     37  C   UNL A   1      36.922  32.535  29.594  1.00  0.00    -0.014 A 
BRANCH  37  38
ATOM     38  C   UNL A   1      38.265  32.044  30.001  1.00  0.00     0.031 A 
ATOM     39  C   UNL A   1      38.773  30.725  29.490  1.00  0.00     0.074 A 
ATOM     40  C   UNL A   1      38.985  32.739  30.903  1.00  0.00     0.049 A 
ATOM     41  N   UNL A   1      39.856  30.071  29.825  1.00  0.00    -0.248 NA
ATOM     42  C   UNL A   1      37.940  30.039  28.488  1.00  0.00     0.031 C 
ATOM     43  C   UNL A   1      38.596  34.018  31.500  1.00  0.00     0.029 A 
ATOM     44  N   UNL A   1      40.195  32.454  31.488  1.00  0.00    -0.354 N 
ATOM     45  C   UNL A   1      39.824  28.890  29.096  1.00  0.00     0.074 A 
ATOM     46  C   UNL A   1      38.595  28.897  28.332  1.00  0.00     0.031 C 
ATOM     47  C   UNL A   1      39.554  34.414  32.353  1.00  0.00     0.029 A 
ATOM     48  C   UNL A   1      40.601  33.399  32.401  1.00  0.00     0.049 A 
ATOM     49  H   UNL A   1      40.721  31.650  31.275  1.00  0.00     0.167 HD
ATOM     50  C   UNL A   1      40.740  27.893  29.055  1.00  0.00     0.031 A 
ATOM     51  C   UNL A   1      41.685  33.436  33.200  1.00  0.00     0.031 A 
ATOM     52  C   UNL A   1      41.968  27.890  29.804  1.00  0.00     0.049 A 
ATOM     53  C   UNL A   1      42.673  32.304  33.156  1.00  0.00     0.074 A 
ATOM     54  C   UNL A   1      42.985  26.951  29.785  1.00  0.00     0.029 A 
ATOM     55  N   UNL A   1      42.344  28.870  30.708  1.00  0.00    -0.354 N 
ATOM     56  N   UNL A   1      42.656  31.221  32.418  1.00  0.00    -0.248 NA
ATOM     57  C   UNL A   1      43.835  32.405  34.052  1.00  0.00     0.031 C 
ATOM     58  C   UNL A   1      43.955  27.339  30.714  1.00  0.00     0.029 A 
ATOM     59  C   UNL A   1      43.567  28.548  31.271  1.00  0.00     0.049 A 
ATOM     60  H   UNL A   1      41.821  29.677  30.918  1.00  0.00     0.167 HD
ATOM     61  C   UNL A   1      43.816  30.527  32.738  1.00  0.00     0.074 A 
ATOM     62  C   UNL A   1      44.519  31.316  33.728  1.00  0.00     0.031 C 
ATOM     63  C   UNL A   1      44.260  29.344  32.249  1.00  0.00     0.031 A 
BRANCH  50  64
ATOM     64  C   UNL A   1      40.441  26.713  28.174  1.00  0.00    -0.014 A 
ATOM     65  C   UNL A   1      39.647  25.648  28.629  1.00  0.00     0.009 A 
ATOM     66  C   UNL A   1      40.928  26.684  26.858  1.00  0.00     0.009 A 
ATOM     67  C   UNL A   1      39.379  24.560  27.795  1.00  0.00     0.001 A 
ATOM     68  C   UNL A   1      40.633  25.609  26.017  1.00  0.00     0.001 A 
ATOM     69  C   UNL A   1      39.867  24.545  26.490  1.00  0.00     0.000 A 
ENDBRANCH  50  64
BRANCH  51  70
ATOM     70  C   UNL A   1      41.896  34.589  34.113  1.00  0.00    -0.014 A 
ATOM     71  C   UNL A   1      42.601  35.720  33.676  1.00  0.00     0.009 A 
ATOM     72  C   UNL A   1      41.401  34.564  35.426  1.00  0.00     0.009 A 
ATOM     73  C   UNL A   1      42.827  36.792  34.542  1.00  0.00     0.001 A 
ATOM     74  C   UNL A   1      41.603  35.649  36.281  1.00  0.00     0.001 A 
ATOM     75  C   UNL A   1      42.325  36.758  35.842  1.00  0.00     0.000 A 
ENDBRANCH  51  70
BRANCH  63  76
ATOM     76  C   UNL A   1      45.588  28.846  32.742  1.00  0.00    -0.014 A 
ATOM     77  C   UNL A   1      45.681  27.988  33.849  1.00  0.00     0.009 A 
ATOM     78  C   UNL A   1      46.758  29.192  32.047  1.00  0.00     0.009 A 
ATOM     79  C   UNL A   1      46.925  27.506  34.263  1.00  0.00     0.001 A 
ATOM     80  C   UNL A   1      47.995  28.687  32.448  1.00  0.00     0.001 A 
ATOM     81  C   UNL A   1      48.079  27.850  33.558  1.00  0.00     0.000 A 
ENDBRANCH  63  76
ENDBRANCH  37  38
ENDBRANCH  29  32
ENDBRANCH  27  28
ENDBRANCH  26  27
ENDBRANCH   1  26
TORSDOF 14
ENDMDL
