MODEL 1
REMARK VINA RESULT:     -11.7      0.000      0.000
REMARK SMILES CCN1C(=O)c2ccccc2[S@@](=O)c2ccc(C(=O)NCCCNC(=O)c3ccc(-c4c5nc(c(-c6ccccc6)c6ccc([nH]6)c(-c6ccccc6)c6nc(c(-c7ccccc7)c7ccc4[nH]7)C=C6)C=C5)cc3)cc21
REMARK SMILES IDX 22 1 21 2 20 3 18 4 19 5 17 7 3 8 4 9 76 10 5 11 6 12 14 13
REMARK SMILES IDX 75 14 7 15 11 16 12 17 15 18 8 19 10 20 13 21 16 22 9 23
REMARK SMILES IDX 2 24 1 25 23 26 24 27 25 28 26 30 27 31 28 32 74 33 29 34
REMARK SMILES IDX 73 35 30 36 31 37 32 38 67 39 33 40 72 41 66 42 68 43 34 44
REMARK SMILES IDX 71 45 65 46 64 47 35 49 57 50 42 51 56 52 43 53 46 54 55 55
REMARK SMILES IDX 69 56 44 57 45 58 54 60 70 61 47 62 36 63 37 64 41 65 38 66
REMARK SMILES IDX 40 67 39 68 58 69 59 70 63 71 60 72 62 73 61 74 48 75 49 76
REMARK SMILES IDX 53 77 50 78 52 79 51 80
REMARK H PARENT 20 6 24 29 68 48 46 59
REMARK Flexibility Score: inf
ROOT
ATOM      1  C   UNL A   1      34.185  28.581  25.462  1.00  0.00     0.042 C 
ENDROOT
BRANCH   1   2
ATOM      2  C   UNL A   1      33.110  28.870  24.411  1.00  0.00     0.118 C 
BRANCH   2   3
ATOM      3  N   UNL A   1      33.476  28.343  23.104  1.00  0.00    -0.352 N 
ATOM      4  C   UNL A   1      33.446  27.079  22.568  1.00  0.00     0.251 C 
ATOM      5  O   UNL A   1      33.722  26.957  21.375  1.00  0.00    -0.269 OA
ATOM      6  H   UNL A   1      33.811  29.029  22.482  1.00  0.00     0.163 HD
BRANCH   4   7
ATOM      7  C   UNL A   1      33.069  25.864  23.340  1.00  0.00     0.041 A 
ATOM      8  N   UNL A   1      34.649  23.313  25.651  1.00  0.00    -0.307 N 
ATOM      9  C   UNL A   1      34.524  22.059  26.262  1.00  0.00     0.259 C 
ATOM     10  C   UNL A   1      33.620  23.940  24.821  1.00  0.00     0.061 A 
ATOM     11  O   UNL A   1      35.076  21.712  27.304  1.00  0.00    -0.269 OA
ATOM     12  C   UNL A   1      33.937  20.974  25.463  1.00  0.00     0.056 A 
ATOM     13  C   UNL A   1      32.261  23.558  24.760  1.00  0.00     0.068 A 
ATOM     14  C   UNL A   1      33.980  25.080  24.058  1.00  0.00     0.041 A 
ATOM     15  C   UNL A   1      34.791  19.922  25.096  1.00  0.00     0.015 A 
ATOM     16  C   UNL A   1      32.598  20.962  25.100  1.00  0.00     0.057 A 
ATOM     17  S   UNL A   1      31.470  22.217  25.680  1.00  0.00     0.088 S 
ATOM     18  C   UNL A   1      31.347  24.310  23.986  1.00  0.00     0.021 A 
ATOM     19  C   UNL A   1      34.308  18.868  24.327  1.00  0.00     0.001 A 
ATOM     20  C   UNL A   1      32.120  19.904  24.315  1.00  0.00     0.019 A 
ATOM     21  O   UNL A   1      31.814  22.473  27.115  1.00  0.00    -0.249 OA
ATOM     22  C   UNL A   1      31.742  25.452  23.292  1.00  0.00     0.015 A 
ATOM     23  C   UNL A   1      32.974  18.865  23.927  1.00  0.00     0.001 A 
BRANCH   8  24
ATOM     24  C   UNL A   1      35.880  24.095  25.915  1.00  0.00     0.122 C 
ATOM     25  C   UNL A   1      37.232  23.580  25.434  1.00  0.00     0.028 C 
ENDBRANCH   8  24
ENDBRANCH   4   7
ENDBRANCH   2   3
ENDBRANCH   1   2
BRANCH   1  26
ATOM     26  C   UNL A   1      33.682  28.642  26.900  1.00  0.00     0.118 C 
BRANCH  26  27
ATOM     27  N   UNL A   1      33.591  30.002  27.403  1.00  0.00    -0.352 N 
ATOM     28  C   UNL A   1      34.501  30.716  28.150  1.00  0.00     0.251 C 
ATOM     29  H   UNL A   1      32.761  30.482  27.178  1.00  0.00     0.163 HD
ATOM     30  O   UNL A   1      34.179  31.801  28.622  1.00  0.00    -0.269 OA
BRANCH  28  31
ATOM     31  C   UNL A   1      35.857  30.174  28.414  1.00  0.00     0.039 A 
ATOM     32  C   UNL A   1      36.186  29.598  29.644  1.00  0.00     0.014 A 
ATOM     33  C   UNL A   1      36.808  30.212  27.388  1.00  0.00     0.014 A 
ATOM     34  C   UNL A   1      37.492  29.172  29.885  1.00  0.00     0.010 A 
ATOM     35  C   UNL A   1      38.104  29.733  27.613  1.00  0.00     0.010 A 
ATOM     36  C   UNL A   1      38.465  29.239  28.874  1.00  0.00    -0.014 A 
BRANCH  36  37
ATOM     37  C   UNL A   1      39.847  28.776  29.156  1.00  0.00     0.031 A 
ATOM     38  C   UNL A   1      40.302  27.405  28.735  1.00  0.00     0.074 A 
ATOM     39  C   UNL A   1      40.720  29.616  29.743  1.00  0.00     0.049 A 
ATOM     40  N   UNL A   1      41.492  26.865  28.840  1.00  0.00    -0.248 NA
ATOM     41  C   UNL A   1      39.297  26.528  28.115  1.00  0.00     0.031 C 
ATOM     42  C   UNL A   1      40.411  30.977  30.190  1.00  0.00     0.029 A 
ATOM     43  N   UNL A   1      42.053  29.464  30.033  1.00  0.00    -0.354 N 
ATOM     44  C   UNL A   1      41.376  25.588  28.309  1.00  0.00     0.074 A 
ATOM     45  C   UNL A   1      39.997  25.423  27.900  1.00  0.00     0.031 C 
ATOM     46  C   UNL A   1      41.537  31.555  30.640  1.00  0.00     0.029 A 
ATOM     47  C   UNL A   1      42.633  30.595  30.550  1.00  0.00     0.049 A 
ATOM     48  H   UNL A   1      42.545  28.624  29.884  1.00  0.00     0.167 HD
ATOM     49  C   UNL A   1      42.332  24.639  28.167  1.00  0.00     0.031 A 
ATOM     50  C   UNL A   1      43.908  30.842  30.906  1.00  0.00     0.031 A 
ATOM     51  C   UNL A   1      43.705  24.792  28.565  1.00  0.00     0.049 A 
ATOM     52  C   UNL A   1      44.942  29.762  30.766  1.00  0.00     0.074 A 
ATOM     53  C   UNL A   1      44.740  23.879  28.454  1.00  0.00     0.029 A 
ATOM     54  N   UNL A   1      44.235  25.931  29.145  1.00  0.00    -0.354 N 
ATOM     55  N   UNL A   1      44.811  28.559  30.267  1.00  0.00    -0.248 NA
ATOM     56  C   UNL A   1      46.295  30.076  31.247  1.00  0.00     0.031 C 
ATOM     57  C   UNL A   1      45.894  24.458  28.993  1.00  0.00     0.029 A 
ATOM     58  C   UNL A   1      45.580  25.742  29.410  1.00  0.00     0.049 A 
ATOM     59  H   UNL A   1      43.731  26.754  29.340  1.00  0.00     0.167 HD
ATOM     60  C   UNL A   1      46.063  27.971  30.371  1.00  0.00     0.074 A 
ATOM     61  C   UNL A   1      46.945  28.954  30.964  1.00  0.00     0.031 C 
ATOM     62  C   UNL A   1      46.444  26.723  30.009  1.00  0.00     0.031 A 
BRANCH  49  63
ATOM     63  C   UNL A   1      41.922  23.331  27.558  1.00  0.00    -0.014 A 
ATOM     64  C   UNL A   1      41.388  22.318  28.368  1.00  0.00     0.009 A 
ATOM     65  C   UNL A   1      42.122  23.082  26.191  1.00  0.00     0.009 A 
ATOM     66  C   UNL A   1      41.061  21.076  27.822  1.00  0.00     0.001 A 
ATOM     67  C   UNL A   1      41.779  21.843  25.645  1.00  0.00     0.001 A 
ATOM     68  C   UNL A   1      41.253  20.841  26.461  1.00  0.00     0.000 A 
ENDBRANCH  49  63
BRANCH  50  69
ATOM     69  C   UNL A   1      44.279  32.184  31.413  1.00  0.00    -0.014 A 
ATOM     70  C   UNL A   1      44.195  32.479  32.783  1.00  0.00     0.009 A 
ATOM     71  C   UNL A   1      44.688  33.186  30.522  1.00  0.00     0.009 A 
ATOM     72  C   UNL A   1      44.503  33.759  33.248  1.00  0.00     0.001 A 
ATOM     73  C   UNL A   1      45.013  34.459  30.992  1.00  0.00     0.001 A 
ATOM     74  C   UNL A   1      44.914  34.747  32.354  1.00  0.00     0.000 A 
ENDBRANCH  50  69
BRANCH  62  75
ATOM     75  C   UNL A   1      47.875  26.343  30.245  1.00  0.00    -0.014 A 
ATOM     76  C   UNL A   1      48.814  26.475  29.211  1.00  0.00     0.009 A 
ATOM     77  C   UNL A   1      48.275  25.794  31.471  1.00  0.00     0.009 A 
ATOM     78  C   UNL A   1      50.134  26.062  29.403  1.00  0.00     0.001 A 
ATOM     79  C   UNL A   1      49.600  25.395  31.663  1.00  0.00     0.001 A 
ATOM     80  C   UNL A   1      50.526  25.525  30.628  1.00  0.00     0.000 A 
ENDBRANCH  62  75
ENDBRANCH  36  37
ENDBRANCH  28  31
ENDBRANCH  26  27
ENDBRANCH   1  26
TORSDOF 11
ENDMDL
MODEL 2
REMARK VINA RESULT:     -11.6      2.078      7.538
REMARK SMILES CCN1C(=O)c2ccccc2[S@@](=O)c2ccc(C(=O)NCCCNC(=O)c3ccc(-c4c5nc(c(-c6ccccc6)c6ccc([nH]6)c(-c6ccccc6)c6nc(c(-c7ccccc7)c7ccc4[nH]7)C=C6)C=C5)cc3)cc21
REMARK SMILES IDX 22 1 21 2 20 3 18 4 19 5 17 7 3 8 4 9 76 10 5 11 6 12 14 13
REMARK SMILES IDX 75 14 7 15 11 16 12 17 15 18 8 19 10 20 13 21 16 22 9 23
REMARK SMILES IDX 2 24 1 25 23 26 24 27 25 28 26 30 27 31 28 32 74 33 29 34
REMARK SMILES IDX 73 35 30 36 31 37 32 38 67 39 33 40 72 41 66 42 68 43 34 44
REMARK SMILES IDX 71 45 65 46 64 47 35 49 57 50 42 51 56 52 43 53 46 54 55 55
REMARK SMILES IDX 69 56 44 57 45 58 54 60 70 61 47 62 36 63 37 64 41 65 38 66
REMARK SMILES IDX 40 67 39 68 58 69 59 70 63 71 60 72 62 73 61 74 48 75 49 76
REMARK SMILES IDX 53 77 50 78 52 79 51 80
REMARK H PARENT 20 6 24 29 68 48 46 59
REMARK Flexibility Score: inf
ROOT
ATOM      1  C   UNL A   1      37.572  19.619  25.030  1.00  0.00     0.042 C 
ENDROOT
BRANCH   1   2
ATOM      2  C   UNL A   1      36.447  20.627  24.788  1.00  0.00     0.118 C 
BRANCH   2   3
ATOM      3  N   UNL A   1      36.831  21.644  23.820  1.00  0.00    -0.352 N 
ATOM      4  C   UNL A   1      36.386  22.921  23.584  1.00  0.00     0.251 C 
ATOM      5  O   UNL A   1      36.990  23.593  22.748  1.00  0.00    -0.269 OA
ATOM      6  H   UNL A   1      37.554  21.359  23.213  1.00  0.00     0.163 HD
BRANCH   4   7
ATOM      7  C   UNL A   1      35.241  23.542  24.305  1.00  0.00     0.041 A 
ATOM      8  N   UNL A   1      32.021  25.388  23.549  1.00  0.00    -0.307 N 
ATOM      9  C   UNL A   1      30.991  26.189  24.057  1.00  0.00     0.259 C 
ATOM     10  C   UNL A   1      33.103  24.816  24.352  1.00  0.00     0.061 A 
ATOM     11  O   UNL A   1      29.857  26.276  23.591  1.00  0.00    -0.269 OA
ATOM     12  C   UNL A   1      31.360  27.227  25.030  1.00  0.00     0.056 A 
ATOM     13  C   UNL A   1      33.117  24.706  25.761  1.00  0.00     0.068 A 
ATOM     14  C   UNL A   1      34.212  24.252  23.673  1.00  0.00     0.041 A 
ATOM     15  C   UNL A   1      31.233  28.562  24.614  1.00  0.00     0.015 A 
ATOM     16  C   UNL A   1      31.791  26.921  26.312  1.00  0.00     0.057 A 
ATOM     17  S   UNL A   1      31.820  25.237  26.903  1.00  0.00     0.088 S 
ATOM     18  C   UNL A   1      34.186  24.045  26.409  1.00  0.00     0.021 A 
ATOM     19  C   UNL A   1      31.579  29.597  25.476  1.00  0.00     0.001 A 
ATOM     20  C   UNL A   1      32.149  27.967  27.173  1.00  0.00     0.019 A 
ATOM     21  O   UNL A   1      30.567  24.586  26.400  1.00  0.00    -0.249 OA
ATOM     22  C   UNL A   1      35.230  23.463  25.692  1.00  0.00     0.015 A 
ATOM     23  C   UNL A   1      32.047  29.299  26.753  1.00  0.00     0.001 A 
BRANCH   8  24
ATOM     24  C   UNL A   1      31.981  25.034  22.111  1.00  0.00     0.122 C 
ATOM     25  C   UNL A   1      32.512  26.010  21.066  1.00  0.00     0.028 C 
ENDBRANCH   8  24
ENDBRANCH   4   7
ENDBRANCH   2   3
ENDBRANCH   1   2
BRANCH   1  26
ATOM     26  C   UNL A   1      38.778  20.195  25.765  1.00  0.00     0.118 C 
BRANCH  26  27
ATOM     27  N   UNL A   1      39.911  19.285  25.780  1.00  0.00    -0.352 N 
ATOM     28  C   UNL A   1      41.226  19.538  26.097  1.00  0.00     0.251 C 
ATOM     29  H   UNL A   1      39.709  18.354  25.528  1.00  0.00     0.163 HD
ATOM     30  O   UNL A   1      42.075  18.677  25.895  1.00  0.00    -0.269 OA
BRANCH  28  31
ATOM     31  C   UNL A   1      41.632  20.852  26.654  1.00  0.00     0.039 A 
ATOM     32  C   UNL A   1      41.634  21.092  28.031  1.00  0.00     0.014 A 
ATOM     33  C   UNL A   1      42.054  21.855  25.774  1.00  0.00     0.014 A 
ATOM     34  C   UNL A   1      41.943  22.363  28.515  1.00  0.00     0.010 A 
ATOM     35  C   UNL A   1      42.418  23.114  26.265  1.00  0.00     0.010 A 
ATOM     36  C   UNL A   1      42.334  23.387  27.638  1.00  0.00    -0.014 A 
BRANCH  36  37
ATOM     37  C   UNL A   1      42.661  24.731  28.179  1.00  0.00     0.031 A 
ATOM     38  C   UNL A   1      44.089  25.140  28.417  1.00  0.00     0.074 A 
ATOM     39  C   UNL A   1      41.669  25.613  28.404  1.00  0.00     0.049 A 
ATOM     40  N   UNL A   1      44.557  26.296  28.819  1.00  0.00    -0.248 NA
ATOM     41  C   UNL A   1      45.126  24.126  28.169  1.00  0.00     0.031 C 
ATOM     42  C   UNL A   1      40.243  25.348  28.203  1.00  0.00     0.029 A 
ATOM     43  N   UNL A   1      41.711  26.922  28.816  1.00  0.00    -0.354 N 
ATOM     44  C   UNL A   1      45.936  26.145  28.881  1.00  0.00     0.074 A 
ATOM     45  C   UNL A   1      46.231  24.782  28.494  1.00  0.00     0.031 C 
ATOM     46  C   UNL A   1      39.552  26.476  28.434  1.00  0.00     0.029 A 
ATOM     47  C   UNL A   1      40.481  27.529  28.835  1.00  0.00     0.049 A 
ATOM     48  H   UNL A   1      42.544  27.380  29.074  1.00  0.00     0.167 HD
ATOM     49  C   UNL A   1      46.874  27.061  29.221  1.00  0.00     0.031 A 
ATOM     50  C   UNL A   1      40.133  28.795  29.133  1.00  0.00     0.031 A 
ATOM     51  C   UNL A   1      46.595  28.418  29.602  1.00  0.00     0.049 A 
ATOM     52  C   UNL A   1      41.190  29.782  29.535  1.00  0.00     0.074 A 
ATOM     53  C   UNL A   1      47.489  29.413  29.961  1.00  0.00     0.029 A 
ATOM     54  N   UNL A   1      45.329  28.974  29.671  1.00  0.00    -0.354 N 
ATOM     55  N   UNL A   1      42.487  29.618  29.593  1.00  0.00    -0.248 NA
ATOM     56  C   UNL A   1      40.730  31.123  29.921  1.00  0.00     0.031 C 
ATOM     57  C   UNL A   1      46.760  30.566  30.273  1.00  0.00     0.029 A 
ATOM     58  C   UNL A   1      45.416  30.294  30.078  1.00  0.00     0.049 A 
ATOM     59  H   UNL A   1      44.491  28.501  29.462  1.00  0.00     0.167 HD
ATOM     60  C   UNL A   1      43.001  30.835  30.020  1.00  0.00     0.074 A 
ATOM     61  C   UNL A   1      41.878  31.733  30.189  1.00  0.00     0.031 C 
ATOM     62  C   UNL A   1      44.292  31.173  30.253  1.00  0.00     0.031 A 
BRANCH  49  63
ATOM     63  C   UNL A   1      48.307  26.619  29.206  1.00  0.00    -0.014 A 
ATOM     64  C   UNL A   1      49.058  26.717  28.026  1.00  0.00     0.009 A 
ATOM     65  C   UNL A   1      48.895  26.049  30.347  1.00  0.00     0.009 A 
ATOM     66  C   UNL A   1      50.374  26.252  27.985  1.00  0.00     0.001 A 
ATOM     67  C   UNL A   1      50.216  25.599  30.307  1.00  0.00     0.001 A 
ATOM     68  C   UNL A   1      50.952  25.697  29.126  1.00  0.00     0.000 A 
ENDBRANCH  49  63
BRANCH  50  69
ATOM     69  C   UNL A   1      38.712  29.205  29.038  1.00  0.00    -0.014 A 
ATOM     70  C   UNL A   1      37.857  29.081  30.144  1.00  0.00     0.009 A 
ATOM     71  C   UNL A   1      38.198  29.692  27.828  1.00  0.00     0.009 A 
ATOM     72  C   UNL A   1      36.509  29.426  30.035  1.00  0.00     0.001 A 
ATOM     73  C   UNL A   1      36.853  30.053  27.727  1.00  0.00     0.001 A 
ATOM     74  C   UNL A   1      36.009  29.915  28.829  1.00  0.00     0.000 A 
ENDBRANCH  50  69
BRANCH  62  75
ATOM     75  C   UNL A   1      44.564  32.571  30.720  1.00  0.00    -0.014 A 
ATOM     76  C   UNL A   1      44.821  33.585  29.785  1.00  0.00     0.009 A 
ATOM     77  C   UNL A   1      44.630  32.866  32.090  1.00  0.00     0.009 A 
ATOM     78  C   UNL A   1      45.140  34.874  30.215  1.00  0.00     0.001 A 
ATOM     79  C   UNL A   1      44.936  34.161  32.515  1.00  0.00     0.001 A 
ATOM     80  C   UNL A   1      45.195  35.161  31.578  1.00  0.00     0.000 A 
ENDBRANCH  62  75
ENDBRANCH  36  37
ENDBRANCH  28  31
ENDBRANCH  26  27
ENDBRANCH   1  26
TORSDOF 11
ENDMDL
MODEL 3
REMARK VINA RESULT:     -11.6      1.490      2.091
REMARK SMILES CCN1C(=O)c2ccccc2[S@@](=O)c2ccc(C(=O)NCCCNC(=O)c3ccc(-c4c5nc(c(-c6ccccc6)c6ccc([nH]6)c(-c6ccccc6)c6nc(c(-c7ccccc7)c7ccc4[nH]7)C=C6)C=C5)cc3)cc21
REMARK SMILES IDX 22 1 21 2 20 3 18 4 19 5 17 7 3 8 4 9 76 10 5 11 6 12 14 13
REMARK SMILES IDX 75 14 7 15 11 16 12 17 15 18 8 19 10 20 13 21 16 22 9 23
REMARK SMILES IDX 2 24 1 25 23 26 24 27 25 28 26 30 27 31 28 32 74 33 29 34
REMARK SMILES IDX 73 35 30 36 31 37 32 38 67 39 33 40 72 41 66 42 68 43 34 44
REMARK SMILES IDX 71 45 65 46 64 47 35 49 57 50 42 51 56 52 43 53 46 54 55 55
REMARK SMILES IDX 69 56 44 57 45 58 54 60 70 61 47 62 36 63 37 64 41 65 38 66
REMARK SMILES IDX 40 67 39 68 58 69 59 70 63 71 60 72 62 73 61 74 48 75 49 76
REMARK SMILES IDX 53 77 50 78 52 79 51 80
REMARK H PARENT 20 6 24 29 68 48 46 59
REMARK Flexibility Score: inf
ROOT
ATOM      1  C   UNL A   1      32.530  28.729  26.530  1.00  0.00     0.042 C 
ENDROOT
BRANCH   1   2
ATOM      2  C   UNL A   1      32.512  29.361  25.136  1.00  0.00     0.118 C 
BRANCH   2   3
ATOM      3  N   UNL A   1      31.224  29.190  24.481  1.00  0.00    -0.352 N 
ATOM      4  C   UNL A   1      30.637  28.125  23.844  1.00  0.00     0.251 C 
ATOM      5  O   UNL A   1      29.469  28.252  23.475  1.00  0.00    -0.269 OA
ATOM      6  H   UNL A   1      30.662  29.999  24.498  1.00  0.00     0.163 HD
BRANCH   4   7
ATOM      7  C   UNL A   1      31.322  26.824  23.608  1.00  0.00     0.041 A 
ATOM      8  N   UNL A   1      32.285  23.689  25.501  1.00  0.00    -0.307 N 
ATOM      9  C   UNL A   1      33.070  22.529  25.512  1.00  0.00     0.259 C 
ATOM     10  C   UNL A   1      32.214  24.635  24.387  1.00  0.00     0.061 A 
ATOM     11  O   UNL A   1      32.818  21.501  26.136  1.00  0.00    -0.269 OA
ATOM     12  C   UNL A   1      34.439  22.636  24.989  1.00  0.00     0.056 A 
ATOM     13  C   UNL A   1      32.649  24.389  23.065  1.00  0.00     0.068 A 
ATOM     14  C   UNL A   1      31.591  25.889  24.614  1.00  0.00     0.041 A 
ATOM     15  C   UNL A   1      35.486  22.501  25.915  1.00  0.00     0.015 A 
ATOM     16  C   UNL A   1      34.703  22.836  23.642  1.00  0.00     0.057 A 
ATOM     17  S   UNL A   1      33.390  22.866  22.434  1.00  0.00     0.088 S 
ATOM     18  C   UNL A   1      32.435  25.358  22.057  1.00  0.00     0.021 A 
ATOM     19  C   UNL A   1      36.807  22.606  25.493  1.00  0.00     0.001 A 
ATOM     20  C   UNL A   1      36.036  22.953  23.225  1.00  0.00     0.019 A 
ATOM     21  O   UNL A   1      32.433  21.779  22.815  1.00  0.00    -0.249 OA
ATOM     22  C   UNL A   1      31.773  26.556  22.321  1.00  0.00     0.015 A 
ATOM     23  C   UNL A   1      37.082  22.843  24.149  1.00  0.00     0.001 A 
BRANCH   8  24
ATOM     24  C   UNL A   1      31.410  23.947  26.669  1.00  0.00     0.122 C 
ATOM     25  C   UNL A   1      30.094  23.192  26.822  1.00  0.00     0.028 C 
ENDBRANCH   8  24
ENDBRANCH   4   7
ENDBRANCH   2   3
ENDBRANCH   1   2
BRANCH   1  26
ATOM     26  C   UNL A   1      33.797  29.016  27.328  1.00  0.00     0.118 C 
BRANCH  26  27
ATOM     27  N   UNL A   1      33.761  30.312  27.986  1.00  0.00    -0.352 N 
ATOM     28  C   UNL A   1      34.733  30.934  28.736  1.00  0.00     0.251 C 
ATOM     29  H   UNL A   1      32.922  30.816  27.880  1.00  0.00     0.163 HD
ATOM     30  O   UNL A   1      34.462  31.960  29.350  1.00  0.00    -0.269 OA
BRANCH  28  31
ATOM     31  C   UNL A   1      36.099  30.361  28.832  1.00  0.00     0.039 A 
ATOM     32  C   UNL A   1      36.547  29.734  29.997  1.00  0.00     0.014 A 
ATOM     33  C   UNL A   1      36.936  30.426  27.712  1.00  0.00     0.014 A 
ATOM     34  C   UNL A   1      37.862  29.279  30.080  1.00  0.00     0.010 A 
ATOM     35  C   UNL A   1      38.239  29.918  27.778  1.00  0.00     0.010 A 
ATOM     36  C   UNL A   1      38.723  29.370  28.974  1.00  0.00    -0.014 A 
BRANCH  36  37
ATOM     37  C   UNL A   1      40.118  28.875  29.088  1.00  0.00     0.031 A 
ATOM     38  C   UNL A   1      40.471  27.465  28.699  1.00  0.00     0.074 A 
ATOM     39  C   UNL A   1      41.089  29.718  29.489  1.00  0.00     0.049 A 
ATOM     40  N   UNL A   1      41.648  26.891  28.670  1.00  0.00    -0.248 NA
ATOM     41  C   UNL A   1      39.364  26.589  28.285  1.00  0.00     0.031 C 
ATOM     42  C   UNL A   1      40.884  31.114  29.884  1.00  0.00     0.029 A 
ATOM     43  N   UNL A   1      42.445  29.536  29.597  1.00  0.00    -0.354 N 
ATOM     44  C   UNL A   1      41.423  25.588  28.246  1.00  0.00     0.074 A 
ATOM     45  C   UNL A   1      39.996  25.448  28.048  1.00  0.00     0.031 C 
ATOM     46  C   UNL A   1      42.077  31.677  30.132  1.00  0.00     0.029 A 
ATOM     47  C   UNL A   1      43.123  30.675  29.952  1.00  0.00     0.049 A 
ATOM     48  H   UNL A   1      42.887  28.671  29.437  1.00  0.00     0.167 HD
ATOM     49  C   UNL A   1      42.323  24.599  28.034  1.00  0.00     0.031 A 
ATOM     50  C   UNL A   1      44.442  30.896  30.107  1.00  0.00     0.031 A 
ATOM     51  C   UNL A   1      43.742  24.726  28.223  1.00  0.00     0.049 A 
ATOM     52  C   UNL A   1      45.415  29.774  29.894  1.00  0.00     0.074 A 
ATOM     53  C   UNL A   1      44.726  23.771  28.028  1.00  0.00     0.029 A 
ATOM     54  N   UNL A   1      44.381  25.878  28.646  1.00  0.00    -0.354 N 
ATOM     55  N   UNL A   1      45.182  28.548  29.499  1.00  0.00    -0.248 NA
ATOM     56  C   UNL A   1      46.831  30.068  30.158  1.00  0.00     0.031 C 
ATOM     57  C   UNL A   1      45.960  24.340  28.359  1.00  0.00     0.029 A 
ATOM     58  C   UNL A   1      45.744  25.657  28.730  1.00  0.00     0.049 A 
ATOM     59  H   UNL A   1      43.932  26.730  28.855  1.00  0.00     0.167 HD
ATOM     60  C   UNL A   1      46.420  27.922  29.464  1.00  0.00     0.074 A 
ATOM     61  C   UNL A   1      47.404  28.908  29.861  1.00  0.00     0.031 C 
ATOM     62  C   UNL A   1      46.711  26.641  29.136  1.00  0.00     0.031 A 
BRANCH  49  63
ATOM     63  C   UNL A   1      41.795  23.271  27.576  1.00  0.00    -0.014 A 
ATOM     64  C   UNL A   1      41.573  22.247  28.508  1.00  0.00     0.009 A 
ATOM     65  C   UNL A   1      41.575  23.017  26.213  1.00  0.00     0.009 A 
ATOM     66  C   UNL A   1      41.141  20.989  28.085  1.00  0.00     0.001 A 
ATOM     67  C   UNL A   1      41.127  21.762  25.795  1.00  0.00     0.001 A 
ATOM     68  C   UNL A   1      40.915  20.749  26.730  1.00  0.00     0.000 A 
ENDBRANCH  49  63
BRANCH  50  69
ATOM     69  C   UNL A   1      44.918  32.253  30.467  1.00  0.00    -0.014 A 
ATOM     70  C   UNL A   1      45.038  32.635  31.812  1.00  0.00     0.009 A 
ATOM     71  C   UNL A   1      45.224  33.182  29.463  1.00  0.00     0.009 A 
ATOM     72  C   UNL A   1      45.444  33.929  32.143  1.00  0.00     0.001 A 
ATOM     73  C   UNL A   1      45.646  34.470  29.798  1.00  0.00     0.001 A 
ATOM     74  C   UNL A   1      45.751  34.844  31.137  1.00  0.00     0.000 A 
ENDBRANCH  50  69
BRANCH  62  75
ATOM     75  C   UNL A   1      48.150  26.226  29.191  1.00  0.00    -0.014 A 
ATOM     76  C   UNL A   1      48.936  26.260  28.030  1.00  0.00     0.009 A 
ATOM     77  C   UNL A   1      48.707  25.738  30.383  1.00  0.00     0.009 A 
ATOM     78  C   UNL A   1      50.257  25.812  28.060  1.00  0.00     0.001 A 
ATOM     79  C   UNL A   1      50.034  25.304  30.412  1.00  0.00     0.001 A 
ATOM     80  C   UNL A   1      50.805  25.337  29.250  1.00  0.00     0.000 A 
ENDBRANCH  62  75
ENDBRANCH  36  37
ENDBRANCH  28  31
ENDBRANCH  26  27
ENDBRANCH   1  26
TORSDOF 11
ENDMDL
