MODEL 1
REMARK VINA RESULT:     -10.0      0.000      0.000
REMARK SMILES C[NH2+][C@@]1(C(=O)NCCCNC(=O)c2ccc(-c3c4nc(c(-c5ccccc5)c5ccc([nH]5)c(-c5ccccc5)c5nc(c(-c6ccccc6)c6ccc3[nH]6)C=C5)C=C4)cc2)CC[C@H](SC(C)C)C1
REMARK SMILES IDX 8 1 7 2 6 3 4 4 5 5 3 7 61 8 68 9 62 10 63 11 2 12 1 13
REMARK SMILES IDX 64 16 65 17 66 18 67 19 9 20 10 21 11 22 12 24 13 25 14 26
REMARK SMILES IDX 60 27 15 28 59 29 16 30 17 31 18 32 53 33 19 34 58 35 52 36
REMARK SMILES IDX 54 37 20 38 57 39 51 40 50 41 21 43 43 44 28 45 42 46 29 47
REMARK SMILES IDX 32 48 41 49 55 50 30 51 31 52 40 54 56 55 33 56 22 57 23 58
REMARK SMILES IDX 27 59 24 60 26 61 25 62 44 63 45 64 49 65 46 66 48 67 47 68
REMARK SMILES IDX 34 69 35 70 39 71 36 72 38 73 37 74
REMARK H PARENT 6 6 2 14 2 15 10 23 54 42 32 53
REMARK Flexibility Score: inf
ROOT
ATOM      1  C   UNL A   1      31.993  28.176  27.375  1.00  0.00     0.042 C 
ENDROOT
BRANCH   1   2
ATOM      2  C   UNL A   1      31.602  27.194  26.285  1.00  0.00     0.118 C 
BRANCH   2   3
ATOM      3  N   UNL A   1      31.019  25.970  26.776  1.00  0.00    -0.351 N 
ATOM      4  C   UNL A   1      31.167  24.675  26.393  1.00  0.00     0.281 C 
ATOM      5  O   UNL A   1      30.791  23.860  27.251  1.00  0.00    -0.268 OA
ATOM      6  H   UNL A   1      30.399  26.096  27.530  1.00  0.00     0.163 HD
BRANCH   4   7
ATOM      7  C   UNL A   1      31.798  24.174  25.024  1.00  0.00     0.176 C 
ATOM      8  C   UNL A   1      31.602  22.663  24.823  1.00  0.00     0.080 C 
ATOM      9  C   UNL A   1      33.307  24.395  24.825  1.00  0.00     0.093 C 
ATOM     10  C   UNL A   1      32.943  21.982  25.096  1.00  0.00     0.022 C 
ATOM     11  C   UNL A   1      34.034  23.023  24.844  1.00  0.00     0.054 C 
BRANCH   7  12
ATOM     12  N   UNL A   1      31.043  24.841  23.910  1.00  0.00    -0.336 N 
ATOM     13  C   UNL A   1      31.827  25.788  23.114  1.00  0.00     0.331 C 
ATOM     14  H   UNL A   1      30.694  24.114  23.284  1.00  0.00     0.346 HD
ATOM     15  H   UNL A   1      30.301  25.384  24.353  1.00  0.00     0.346 HD
ENDBRANCH   7  12
BRANCH  11  16
ATOM     16  S   UNL A   1      35.501  23.274  25.940  1.00  0.00    -0.155 SA
BRANCH  16  17
ATOM     17  C   UNL A   1      37.059  23.055  25.000  1.00  0.00     0.040 C 
ATOM     18  C   UNL A   1      38.056  22.006  25.457  1.00  0.00     0.019 C 
ATOM     19  C   UNL A   1      36.777  22.956  23.507  1.00  0.00     0.019 C 
ENDBRANCH  16  17
ENDBRANCH  11  16
ENDBRANCH   4   7
ENDBRANCH   2   3
ENDBRANCH   1   2
BRANCH   1  20
ATOM     20  C   UNL A   1      33.410  28.698  27.220  1.00  0.00     0.118 C 
BRANCH  20  21
ATOM     21  N   UNL A   1      33.527  30.096  27.623  1.00  0.00    -0.352 N 
ATOM     22  C   UNL A   1      34.512  30.792  28.281  1.00  0.00     0.251 C 
ATOM     23  H   UNL A   1      32.750  30.646  27.375  1.00  0.00     0.163 HD
ATOM     24  O   UNL A   1      34.241  31.907  28.724  1.00  0.00    -0.269 OA
BRANCH  22  25
ATOM     25  C   UNL A   1      35.878  30.247  28.485  1.00  0.00     0.039 A 
ATOM     26  C   UNL A   1      36.207  29.702  29.734  1.00  0.00     0.014 A 
ATOM     27  C   UNL A   1      36.870  30.345  27.513  1.00  0.00     0.014 A 
ATOM     28  C   UNL A   1      37.502  29.228  29.982  1.00  0.00     0.010 A 
ATOM     29  C   UNL A   1      38.118  29.762  27.714  1.00  0.00     0.010 A 
ATOM     30  C   UNL A   1      38.463  29.227  28.962  1.00  0.00    -0.014 A 
BRANCH  30  31
ATOM     31  C   UNL A   1      39.852  28.737  29.176  1.00  0.00     0.031 A 
ATOM     32  C   UNL A   1      40.892  29.659  29.765  1.00  0.00     0.074 A 
ATOM     33  C   UNL A   1      40.209  27.505  28.765  1.00  0.00     0.049 A 
ATOM     34  N   UNL A   1      42.184  29.482  29.890  1.00  0.00    -0.248 NA
ATOM     35  C   UNL A   1      40.423  30.973  30.237  1.00  0.00     0.031 C 
ATOM     36  C   UNL A   1      39.319  26.523  28.145  1.00  0.00     0.029 A 
ATOM     37  N   UNL A   1      41.427  26.873  28.799  1.00  0.00    -0.354 N 
ATOM     38  C   UNL A   1      42.681  30.675  30.402  1.00  0.00     0.074 A 
ATOM     39  C   UNL A   1      41.563  31.583  30.523  1.00  0.00     0.031 C 
ATOM     40  C   UNL A   1      40.012  25.403  27.885  1.00  0.00     0.029 A 
ATOM     41  C   UNL A   1      41.404  25.603  28.274  1.00  0.00     0.049 A 
ATOM     42  H   UNL A   1      42.240  27.291  29.164  1.00  0.00     0.167 HD
ATOM     43  C   UNL A   1      43.951  30.985  30.761  1.00  0.00     0.031 A 
ATOM     44  C   UNL A   1      42.393  24.705  28.115  1.00  0.00     0.031 A 
ATOM     45  C   UNL A   1      45.055  30.067  30.695  1.00  0.00     0.049 A 
ATOM     46  C   UNL A   1      43.788  25.058  28.551  1.00  0.00     0.074 A 
ATOM     47  C   UNL A   1      46.361  30.257  31.110  1.00  0.00     0.029 A 
ATOM     48  N   UNL A   1      44.976  28.778  30.194  1.00  0.00    -0.354 N 
ATOM     49  N   UNL A   1      44.230  26.173  29.079  1.00  0.00    -0.248 NA
ATOM     50  C   UNL A   1      44.816  24.023  28.376  1.00  0.00     0.031 C 
ATOM     51  C   UNL A   1      47.083  29.093  30.825  1.00  0.00     0.029 A 
ATOM     52  C   UNL A   1      46.213  28.164  30.276  1.00  0.00     0.049 A 
ATOM     53  H   UNL A   1      44.160  28.360  29.833  1.00  0.00     0.167 HD
ATOM     54  C   UNL A   1      45.581  25.964  29.326  1.00  0.00     0.074 A 
ATOM     55  C   UNL A   1      45.881  24.612  28.902  1.00  0.00     0.031 C 
ATOM     56  C   UNL A   1      46.491  26.816  29.856  1.00  0.00     0.031 A 
BRANCH  43  57
ATOM     57  C   UNL A   1      44.209  32.381  31.260  1.00  0.00    -0.014 A 
ATOM     58  C   UNL A   1      44.552  33.420  30.380  1.00  0.00     0.009 A 
ATOM     59  C   UNL A   1      44.086  32.665  32.629  1.00  0.00     0.009 A 
ATOM     60  C   UNL A   1      44.810  34.703  30.866  1.00  0.00     0.001 A 
ATOM     61  C   UNL A   1      44.314  33.957  33.109  1.00  0.00     0.001 A 
ATOM     62  C   UNL A   1      44.687  34.972  32.228  1.00  0.00     0.000 A 
ENDBRANCH  43  57
BRANCH  44  63
ATOM     63  C   UNL A   1      42.097  23.368  27.538  1.00  0.00    -0.014 A 
ATOM     64  C   UNL A   1      42.389  23.099  26.191  1.00  0.00     0.009 A 
ATOM     65  C   UNL A   1      41.527  22.356  28.325  1.00  0.00     0.009 A 
ATOM     66  C   UNL A   1      42.092  21.852  25.639  1.00  0.00     0.001 A 
ATOM     67  C   UNL A   1      41.256  21.100  27.776  1.00  0.00     0.001 A 
ATOM     68  C   UNL A   1      41.530  20.853  26.431  1.00  0.00     0.000 A 
ENDBRANCH  44  63
BRANCH  56  69
ATOM     69  C   UNL A   1      47.887  26.296  30.048  1.00  0.00    -0.014 A 
ATOM     70  C   UNL A   1      48.310  25.782  31.283  1.00  0.00     0.009 A 
ATOM     71  C   UNL A   1      48.776  26.285  28.962  1.00  0.00     0.009 A 
ATOM     72  C   UNL A   1      49.608  25.293  31.434  1.00  0.00     0.001 A 
ATOM     73  C   UNL A   1      50.066  25.771  29.110  1.00  0.00     0.001 A 
ATOM     74  C   UNL A   1      50.483  25.284  30.347  1.00  0.00     0.000 A 
ENDBRANCH  56  69
ENDBRANCH  30  31
ENDBRANCH  22  25
ENDBRANCH  20  21
ENDBRANCH   1  20
TORSDOF 13
ENDMDL
MODEL 2
REMARK VINA RESULT:      -9.9      1.234      2.510
REMARK SMILES C[NH2+][C@@]1(C(=O)NCCCNC(=O)c2ccc(-c3c4nc(c(-c5ccccc5)c5ccc([nH]5)c(-c5ccccc5)c5nc(c(-c6ccccc6)c6ccc3[nH]6)C=C5)C=C4)cc2)CC[C@H](SC(C)C)C1
REMARK SMILES IDX 8 1 7 2 6 3 4 4 5 5 3 7 61 8 68 9 62 10 63 11 2 12 1 13
REMARK SMILES IDX 64 16 65 17 66 18 67 19 9 20 10 21 11 22 12 24 13 25 14 26
REMARK SMILES IDX 60 27 15 28 59 29 16 30 17 31 18 32 53 33 19 34 58 35 52 36
REMARK SMILES IDX 54 37 20 38 57 39 51 40 50 41 21 43 43 44 28 45 42 46 29 47
REMARK SMILES IDX 32 48 41 49 55 50 30 51 31 52 40 54 56 55 33 56 22 57 23 58
REMARK SMILES IDX 27 59 24 60 26 61 25 62 44 63 45 64 49 65 46 66 48 67 47 68
REMARK SMILES IDX 34 69 35 70 39 71 36 72 38 73 37 74
REMARK H PARENT 6 6 2 14 2 15 10 23 54 42 32 53
REMARK Flexibility Score: inf
ROOT
ATOM      1  C   UNL A   1      32.134  28.194  27.604  1.00  0.00     0.042 C 
ENDROOT
BRANCH   1   2
ATOM      2  C   UNL A   1      31.508  27.397  26.473  1.00  0.00     0.118 C 
BRANCH   2   3
ATOM      3  N   UNL A   1      31.147  26.048  26.833  1.00  0.00    -0.351 N 
ATOM      4  C   UNL A   1      31.703  24.847  26.528  1.00  0.00     0.281 C 
ATOM      5  O   UNL A   1      31.345  23.930  27.285  1.00  0.00    -0.268 OA
ATOM      6  H   UNL A   1      30.350  25.986  27.408  1.00  0.00     0.163 HD
BRANCH   4   7
ATOM      7  C   UNL A   1      32.754  24.573  25.369  1.00  0.00     0.176 C 
ATOM      8  C   UNL A   1      33.906  25.589  25.389  1.00  0.00     0.080 C 
ATOM      9  C   UNL A   1      32.230  24.616  23.923  1.00  0.00     0.093 C 
ATOM     10  C   UNL A   1      33.674  26.575  24.243  1.00  0.00     0.022 C 
ATOM     11  C   UNL A   1      32.820  25.856  23.199  1.00  0.00     0.054 C 
BRANCH   7  12
ATOM     12  N   UNL A   1      33.379  23.233  25.636  1.00  0.00    -0.336 N 
ATOM     13  C   UNL A   1      33.268  22.271  24.537  1.00  0.00     0.331 C 
ATOM     14  H   UNL A   1      34.369  23.379  25.831  1.00  0.00     0.346 HD
ATOM     15  H   UNL A   1      32.866  22.830  26.421  1.00  0.00     0.346 HD
ENDBRANCH   7  12
BRANCH  11  16
ATOM     16  S   UNL A   1      31.387  26.626  22.322  1.00  0.00    -0.155 SA
BRANCH  16  17
ATOM     17  C   UNL A   1      30.268  27.458  23.512  1.00  0.00     0.040 C 
ATOM     18  C   UNL A   1      29.911  28.916  23.294  1.00  0.00     0.019 C 
ATOM     19  C   UNL A   1      29.034  26.605  23.774  1.00  0.00     0.019 C 
ENDBRANCH  16  17
ENDBRANCH  11  16
ENDBRANCH   4   7
ENDBRANCH   2   3
ENDBRANCH   1   2
BRANCH   1  20
ATOM     20  C   UNL A   1      33.471  28.806  27.225  1.00  0.00     0.118 C 
BRANCH  20  21
ATOM     21  N   UNL A   1      33.590  30.188  27.678  1.00  0.00    -0.352 N 
ATOM     22  C   UNL A   1      34.574  30.858  28.365  1.00  0.00     0.251 C 
ATOM     23  H   UNL A   1      32.815  30.749  27.446  1.00  0.00     0.163 HD
ATOM     24  O   UNL A   1      34.304  31.956  28.846  1.00  0.00    -0.269 OA
BRANCH  22  25
ATOM     25  C   UNL A   1      35.937  30.302  28.555  1.00  0.00     0.039 A 
ATOM     26  C   UNL A   1      36.283  29.776  29.808  1.00  0.00     0.014 A 
ATOM     27  C   UNL A   1      36.913  30.372  27.564  1.00  0.00     0.014 A 
ATOM     28  C   UNL A   1      37.577  29.293  30.042  1.00  0.00     0.010 A 
ATOM     29  C   UNL A   1      38.159  29.780  27.755  1.00  0.00     0.010 A 
ATOM     30  C   UNL A   1      38.520  29.263  29.006  1.00  0.00    -0.014 A 
BRANCH  30  31
ATOM     31  C   UNL A   1      39.907  28.762  29.204  1.00  0.00     0.031 A 
ATOM     32  C   UNL A   1      40.962  29.678  29.777  1.00  0.00     0.074 A 
ATOM     33  C   UNL A   1      40.249  27.525  28.795  1.00  0.00     0.049 A 
ATOM     34  N   UNL A   1      42.254  29.490  29.886  1.00  0.00    -0.248 NA
ATOM     35  C   UNL A   1      40.510  30.998  30.248  1.00  0.00     0.031 C 
ATOM     36  C   UNL A   1      39.342  26.548  28.190  1.00  0.00     0.029 A 
ATOM     37  N   UNL A   1      41.461  26.883  28.816  1.00  0.00    -0.354 N 
ATOM     38  C   UNL A   1      42.768  30.681  30.387  1.00  0.00     0.074 A 
ATOM     39  C   UNL A   1      41.659  31.599  30.517  1.00  0.00     0.031 C 
ATOM     40  C   UNL A   1      40.023  25.421  27.927  1.00  0.00     0.029 A 
ATOM     41  C   UNL A   1      41.421  25.611  28.298  1.00  0.00     0.049 A 
ATOM     42  H   UNL A   1      42.283  27.295  29.170  1.00  0.00     0.167 HD
ATOM     43  C   UNL A   1      44.044  30.982  30.729  1.00  0.00     0.031 A 
ATOM     44  C   UNL A   1      42.401  24.704  28.130  1.00  0.00     0.031 A 
ATOM     45  C   UNL A   1      45.139  30.054  30.653  1.00  0.00     0.049 A 
ATOM     46  C   UNL A   1      43.804  25.047  28.547  1.00  0.00     0.074 A 
ATOM     47  C   UNL A   1      46.452  30.235  31.051  1.00  0.00     0.029 A 
ATOM     48  N   UNL A   1      45.043  28.764  30.159  1.00  0.00    -0.354 N 
ATOM     49  N   UNL A   1      44.262  26.160  29.065  1.00  0.00    -0.248 NA
ATOM     50  C   UNL A   1      44.821  24.003  28.364  1.00  0.00     0.031 C 
ATOM     51  C   UNL A   1      47.161  29.063  30.762  1.00  0.00     0.029 A 
ATOM     52  C   UNL A   1      46.276  28.139  30.228  1.00  0.00     0.049 A 
ATOM     53  H   UNL A   1      44.220  28.351  29.810  1.00  0.00     0.167 HD
ATOM     54  C   UNL A   1      45.614  25.941  29.296  1.00  0.00     0.074 A 
ATOM     55  C   UNL A   1      45.897  24.585  28.874  1.00  0.00     0.031 C 
ATOM     56  C   UNL A   1      46.538  26.788  29.811  1.00  0.00     0.031 A 
BRANCH  43  57
ATOM     57  C   UNL A   1      44.321  32.378  31.218  1.00  0.00    -0.014 A 
ATOM     58  C   UNL A   1      44.252  32.701  32.582  1.00  0.00     0.009 A 
ATOM     59  C   UNL A   1      44.679  33.379  30.301  1.00  0.00     0.009 A 
ATOM     60  C   UNL A   1      44.490  34.009  33.013  1.00  0.00     0.001 A 
ATOM     61  C   UNL A   1      44.947  34.678  30.738  1.00  0.00     0.001 A 
ATOM     62  C   UNL A   1      44.841  34.994  32.092  1.00  0.00     0.000 A 
ENDBRANCH  43  57
BRANCH  44  63
ATOM     63  C   UNL A   1      42.086  23.367  27.563  1.00  0.00    -0.014 A 
ATOM     64  C   UNL A   1      41.560  22.357  28.383  1.00  0.00     0.009 A 
ATOM     65  C   UNL A   1      42.306  23.094  26.204  1.00  0.00     0.009 A 
ATOM     66  C   UNL A   1      41.285  21.093  27.860  1.00  0.00     0.001 A 
ATOM     67  C   UNL A   1      42.003  21.835  25.678  1.00  0.00     0.001 A 
ATOM     68  C   UNL A   1      41.502  20.833  26.509  1.00  0.00     0.000 A 
ENDBRANCH  44  63
BRANCH  56  69
ATOM     69  C   UNL A   1      47.932  26.257  29.988  1.00  0.00    -0.014 A 
ATOM     70  C   UNL A   1      48.371  25.761  31.225  1.00  0.00     0.009 A 
ATOM     71  C   UNL A   1      48.801  26.216  28.887  1.00  0.00     0.009 A 
ATOM     72  C   UNL A   1      49.667  25.261  31.362  1.00  0.00     0.001 A 
ATOM     73  C   UNL A   1      50.088  25.691  29.021  1.00  0.00     0.001 A 
ATOM     74  C   UNL A   1      50.522  25.223  30.260  1.00  0.00     0.000 A 
ENDBRANCH  56  69
ENDBRANCH  30  31
ENDBRANCH  22  25
ENDBRANCH  20  21
ENDBRANCH   1  20
TORSDOF 13
ENDMDL
MODEL 3
REMARK VINA RESULT:      -9.8      3.688      7.796
REMARK SMILES C[NH2+][C@@]1(C(=O)NCCCNC(=O)c2ccc(-c3c4nc(c(-c5ccccc5)c5ccc([nH]5)c(-c5ccccc5)c5nc(c(-c6ccccc6)c6ccc3[nH]6)C=C5)C=C4)cc2)CC[C@H](SC(C)C)C1
REMARK SMILES IDX 8 1 7 2 6 3 4 4 5 5 3 7 61 8 68 9 62 10 63 11 2 12 1 13
REMARK SMILES IDX 64 16 65 17 66 18 67 19 9 20 10 21 11 22 12 24 13 25 14 26
REMARK SMILES IDX 60 27 15 28 59 29 16 30 17 31 18 32 53 33 19 34 58 35 52 36
REMARK SMILES IDX 54 37 20 38 57 39 51 40 50 41 21 43 43 44 28 45 42 46 29 47
REMARK SMILES IDX 32 48 41 49 55 50 30 51 31 52 40 54 56 55 33 56 22 57 23 58
REMARK SMILES IDX 27 59 24 60 26 61 25 62 44 63 45 64 49 65 46 66 48 67 47 68
REMARK SMILES IDX 34 69 35 70 39 71 36 72 38 73 37 74
REMARK H PARENT 6 6 2 14 2 15 10 23 54 42 32 53
REMARK Flexibility Score: inf
ROOT
ATOM      1  C   UNL A   1      30.932  31.900  26.499  1.00  0.00     0.042 C 
ENDROOT
BRANCH   1   2
ATOM      2  C   UNL A   1      30.874  31.005  25.273  1.00  0.00     0.118 C 
BRANCH   2   3
ATOM      3  N   UNL A   1      32.020  30.144  25.118  1.00  0.00    -0.351 N 
ATOM      4  C   UNL A   1      32.358  29.244  24.159  1.00  0.00     0.281 C 
ATOM      5  O   UNL A   1      33.563  28.945  24.163  1.00  0.00    -0.268 OA
ATOM      6  H   UNL A   1      32.682  30.224  25.843  1.00  0.00     0.163 HD
BRANCH   4   7
ATOM      7  C   UNL A   1      31.377  28.630  23.070  1.00  0.00     0.176 C 
ATOM      8  C   UNL A   1      29.982  28.350  23.648  1.00  0.00     0.080 C 
ATOM      9  C   UNL A   1      31.796  27.301  22.419  1.00  0.00     0.093 C 
ATOM     10  C   UNL A   1      29.862  26.841  23.859  1.00  0.00     0.022 C 
ATOM     11  C   UNL A   1      30.837  26.174  22.889  1.00  0.00     0.054 C 
BRANCH   7  12
ATOM     12  N   UNL A   1      31.182  29.670  22.003  1.00  0.00    -0.336 N 
ATOM     13  C   UNL A   1      29.791  30.071  21.780  1.00  0.00     0.331 C 
ATOM     14  H   UNL A   1      31.713  30.500  22.268  1.00  0.00     0.346 HD
ATOM     15  H   UNL A   1      31.501  29.247  21.130  1.00  0.00     0.346 HD
ENDBRANCH   7  12
BRANCH  11  16
ATOM     16  S   UNL A   1      31.941  24.761  23.335  1.00  0.00    -0.155 SA
BRANCH  16  17
ATOM     17  C   UNL A   1      33.460  25.359  24.168  1.00  0.00     0.040 C 
ATOM     18  C   UNL A   1      33.391  25.762  25.629  1.00  0.00     0.019 C 
ATOM     19  C   UNL A   1      34.628  24.422  23.892  1.00  0.00     0.019 C 
ENDBRANCH  16  17
ENDBRANCH  11  16
ENDBRANCH   4   7
ENDBRANCH   2   3
ENDBRANCH   1   2
BRANCH   1  20
ATOM     20  C   UNL A   1      32.315  32.473  26.748  1.00  0.00     0.118 C 
BRANCH  20  21
ATOM     21  N   UNL A   1      32.260  33.829  27.284  1.00  0.00    -0.352 N 
ATOM     22  C   UNL A   1      32.955  34.458  28.288  1.00  0.00     0.251 C 
ATOM     23  H   UNL A   1      31.596  34.404  26.840  1.00  0.00     0.163 HD
ATOM     24  O   UNL A   1      32.527  35.531  28.709  1.00  0.00    -0.269 OA
BRANCH  22  25
ATOM     25  C   UNL A   1      34.188  33.888  28.887  1.00  0.00     0.039 A 
ATOM     26  C   UNL A   1      34.067  32.851  29.822  1.00  0.00     0.014 A 
ATOM     27  C   UNL A   1      35.452  34.412  28.626  1.00  0.00     0.014 A 
ATOM     28  C   UNL A   1      35.205  32.325  30.450  1.00  0.00     0.010 A 
ATOM     29  C   UNL A   1      36.591  33.809  29.152  1.00  0.00     0.010 A 
ATOM     30  C   UNL A   1      36.483  32.780  30.097  1.00  0.00    -0.014 A 
BRANCH  30  31
ATOM     31  C   UNL A   1      37.720  32.256  30.736  1.00  0.00     0.031 A 
ATOM     32  C   UNL A   1      38.442  31.080  30.125  1.00  0.00     0.074 A 
ATOM     33  C   UNL A   1      38.151  32.770  31.904  1.00  0.00     0.049 A 
ATOM     34  N   UNL A   1      39.440  30.379  30.603  1.00  0.00    -0.248 NA
ATOM     35  C   UNL A   1      37.947  30.600  28.824  1.00  0.00     0.031 C 
ATOM     36  C   UNL A   1      37.530  33.882  32.627  1.00  0.00     0.029 A 
ATOM     37  N   UNL A   1      39.212  32.411  32.697  1.00  0.00    -0.354 N 
ATOM     38  C   UNL A   1      39.653  29.353  29.689  1.00  0.00     0.074 A 
ATOM     39  C   UNL A   1      38.654  29.493  28.654  1.00  0.00     0.031 C 
ATOM     40  C   UNL A   1      38.238  34.134  33.739  1.00  0.00     0.029 A 
ATOM     41  C   UNL A   1      39.332  33.173  33.835  1.00  0.00     0.049 A 
ATOM     42  H   UNL A   1      39.829  31.677  32.472  1.00  0.00     0.167 HD
ATOM     43  C   UNL A   1      40.606  28.389  29.696  1.00  0.00     0.031 A 
ATOM     44  C   UNL A   1      40.217  33.101  34.846  1.00  0.00     0.031 A 
ATOM     45  C   UNL A   1      41.635  28.280  30.694  1.00  0.00     0.049 A 
ATOM     46  C   UNL A   1      41.287  32.045  34.816  1.00  0.00     0.074 A 
ATOM     47  C   UNL A   1      42.693  27.390  30.747  1.00  0.00     0.029 A 
ATOM     48  N   UNL A   1      41.741  29.098  31.807  1.00  0.00    -0.354 N 
ATOM     49  N   UNL A   1      41.503  31.114  33.920  1.00  0.00    -0.248 NA
ATOM     50  C   UNL A   1      42.239  32.037  35.935  1.00  0.00     0.031 C 
ATOM     51  C   UNL A   1      43.420  27.648  31.915  1.00  0.00     0.029 A 
ATOM     52  C   UNL A   1      42.839  28.727  32.561  1.00  0.00     0.049 A 
ATOM     53  H   UNL A   1      41.126  29.835  32.028  1.00  0.00     0.167 HD
ATOM     54  C   UNL A   1      42.632  30.428  34.351  1.00  0.00     0.074 A 
ATOM     55  C   UNL A   1      43.061  31.059  35.582  1.00  0.00     0.031 C 
ATOM     56  C   UNL A   1      43.256  29.371  33.779  1.00  0.00     0.031 A 
BRANCH  43  57
ATOM     57  C   UNL A   1      40.576  27.376  28.584  1.00  0.00    -0.014 A 
ATOM     58  C   UNL A   1      41.274  27.587  27.384  1.00  0.00     0.009 A 
ATOM     59  C   UNL A   1      39.857  26.182  28.749  1.00  0.00     0.009 A 
ATOM     60  C   UNL A   1      41.214  26.644  26.355  1.00  0.00     0.001 A 
ATOM     61  C   UNL A   1      39.825  25.226  27.731  1.00  0.00     0.001 A 
ATOM     62  C   UNL A   1      40.494  25.464  26.531  1.00  0.00     0.000 A 
ENDBRANCH  43  57
BRANCH  44  63
ATOM     63  C   UNL A   1      40.149  34.077  35.965  1.00  0.00    -0.014 A 
ATOM     64  C   UNL A   1      40.838  35.296  35.881  1.00  0.00     0.009 A 
ATOM     65  C   UNL A   1      39.397  33.798  37.116  1.00  0.00     0.009 A 
ATOM     66  C   UNL A   1      40.796  36.206  36.939  1.00  0.00     0.001 A 
ATOM     67  C   UNL A   1      39.335  34.723  38.161  1.00  0.00     0.001 A 
ATOM     68  C   UNL A   1      40.042  35.922  38.075  1.00  0.00     0.000 A 
ENDBRANCH  44  63
BRANCH  56  69
ATOM     69  C   UNL A   1      44.495  28.858  34.455  1.00  0.00    -0.014 A 
ATOM     70  C   UNL A   1      44.433  27.830  35.407  1.00  0.00     0.009 A 
ATOM     71  C   UNL A   1      45.746  29.386  34.099  1.00  0.00     0.009 A 
ATOM     72  C   UNL A   1      45.599  27.361  36.014  1.00  0.00     0.001 A 
ATOM     73  C   UNL A   1      46.913  28.896  34.688  1.00  0.00     0.001 A 
ATOM     74  C   UNL A   1      46.838  27.891  35.650  1.00  0.00     0.000 A 
ENDBRANCH  56  69
ENDBRANCH  30  31
ENDBRANCH  22  25
ENDBRANCH  20  21
ENDBRANCH   1  20
TORSDOF 13
ENDMDL
