MODEL 1
REMARK VINA RESULT:     -10.8      0.000      0.000
REMARK SMILES [NH3+][C@]1(C(=O)NCCCNC(=O)c2ccc(-c3c4nc(c(-c5ccccc5)c5ccc([nH]5)c(-c5ccccc5)c5nc(c(-c6ccccc6)c6ccc3[nH]6)C=C5)C=C4)cc2)CCC[C@@H](OC2CCC2)C1
REMARK SMILES IDX 7 1 6 2 5 3 3 4 4 5 2 7 60 8 69 9 61 10 63 11 62 12 1 13
REMARK SMILES IDX 64 17 65 18 66 19 68 20 67 21 8 22 9 23 10 24 11 26 12 27
REMARK SMILES IDX 13 28 59 29 14 30 58 31 15 32 16 33 17 34 52 35 18 36 57 37
REMARK SMILES IDX 51 38 53 39 19 40 56 41 50 42 49 43 20 45 42 46 27 47 41 48
REMARK SMILES IDX 28 49 31 50 40 51 54 52 29 53 30 54 39 56 55 57 32 58 21 59
REMARK SMILES IDX 22 60 26 61 23 62 25 63 24 64 43 65 44 66 48 67 45 68 47 69
REMARK SMILES IDX 46 70 33 71 34 72 38 73 35 74 37 75 36 76
REMARK H PARENT 5 6 1 14 1 15 1 16 9 25 53 44 31 55
REMARK Flexibility Score: inf
ROOT
ATOM      1  C   UNL A   1      37.107  19.762  24.943  1.00  0.00     0.042 C 
ENDROOT
BRANCH   1   2
ATOM      2  C   UNL A   1      35.868  20.656  24.874  1.00  0.00     0.118 C 
BRANCH   2   3
ATOM      3  N   UNL A   1      35.382  21.111  26.160  1.00  0.00    -0.351 N 
ATOM      4  C   UNL A   1      34.306  21.840  26.568  1.00  0.00     0.281 C 
ATOM      5  O   UNL A   1      34.102  21.769  27.789  1.00  0.00    -0.268 OA
ATOM      6  H   UNL A   1      35.957  20.830  26.907  1.00  0.00     0.163 HD
BRANCH   4   7
ATOM      7  C   UNL A   1      33.302  22.599  25.604  1.00  0.00     0.176 C 
ATOM      8  C   UNL A   1      34.088  23.053  24.335  1.00  0.00     0.079 C 
ATOM      9  C   UNL A   1      32.011  21.849  25.225  1.00  0.00     0.111 C 
ATOM     10  C   UNL A   1      33.433  22.864  22.965  1.00  0.00     0.010 C 
ATOM     11  C   UNL A   1      32.132  20.900  24.030  1.00  0.00     0.125 C 
ATOM     12  C   UNL A   1      32.534  21.644  22.767  1.00  0.00     0.032 C 
BRANCH   7  13
ATOM     13  N   UNL A   1      32.905  23.831  26.343  1.00  0.00    -0.345 N 
ATOM     14  H   UNL A   1      33.351  24.642  25.916  1.00  0.00     0.345 HD
ATOM     15  H   UNL A   1      33.200  23.753  27.317  1.00  0.00     0.345 HD
ATOM     16  H   UNL A   1      31.891  23.940  26.304  1.00  0.00     0.345 HD
ENDBRANCH   7  13
BRANCH  11  17
ATOM     17  O   UNL A   1      32.831  19.763  24.490  1.00  0.00    -0.375 OA
BRANCH  17  18
ATOM     18  C   UNL A   1      32.629  18.370  24.199  1.00  0.00     0.118 C 
ATOM     19  C   UNL A   1      32.713  17.737  22.803  1.00  0.00     0.032 C 
ATOM     20  C   UNL A   1      33.900  17.575  24.591  1.00  0.00     0.032 C 
ATOM     21  C   UNL A   1      34.045  17.080  23.156  1.00  0.00     0.005 C 
ENDBRANCH  17  18
ENDBRANCH  11  17
ENDBRANCH   4   7
ENDBRANCH   2   3
ENDBRANCH   1   2
BRANCH   1  22
ATOM     22  C   UNL A   1      38.420  20.450  25.308  1.00  0.00     0.118 C 
BRANCH  22  23
ATOM     23  N   UNL A   1      39.533  19.532  25.492  1.00  0.00    -0.352 N 
ATOM     24  C   UNL A   1      40.796  19.715  25.981  1.00  0.00     0.251 C 
ATOM     25  H   UNL A   1      39.341  18.607  25.212  1.00  0.00     0.163 HD
ATOM     26  O   UNL A   1      41.607  18.779  25.891  1.00  0.00    -0.269 OA
BRANCH  24  27
ATOM     27  C   UNL A   1      41.246  20.989  26.587  1.00  0.00     0.039 A 
ATOM     28  C   UNL A   1      41.815  21.956  25.749  1.00  0.00     0.014 A 
ATOM     29  C   UNL A   1      41.196  21.224  27.962  1.00  0.00     0.014 A 
ATOM     30  C   UNL A   1      42.269  23.170  26.275  1.00  0.00     0.010 A 
ATOM     31  C   UNL A   1      41.580  22.465  28.478  1.00  0.00     0.010 A 
ATOM     32  C   UNL A   1      42.122  23.453  27.641  1.00  0.00    -0.014 A 
BRANCH  32  33
ATOM     33  C   UNL A   1      42.528  24.771  28.204  1.00  0.00     0.031 A 
ATOM     34  C   UNL A   1      41.514  25.866  28.405  1.00  0.00     0.074 A 
ATOM     35  C   UNL A   1      43.825  25.005  28.491  1.00  0.00     0.049 A 
ATOM     36  N   UNL A   1      41.698  27.097  28.815  1.00  0.00    -0.248 NA
ATOM     37  C   UNL A   1      40.115  25.543  28.087  1.00  0.00     0.031 C 
ATOM     38  C   UNL A   1      44.916  24.042  28.325  1.00  0.00     0.029 A 
ATOM     39  N   UNL A   1      44.447  26.130  28.974  1.00  0.00    -0.354 N 
ATOM     40  C   UNL A   1      40.444  27.697  28.790  1.00  0.00     0.074 A 
ATOM     41  C   UNL A   1      39.517  26.709  28.281  1.00  0.00     0.031 C 
ATOM     42  C   UNL A   1      46.068  24.612  28.716  1.00  0.00     0.029 A 
ATOM     43  C   UNL A   1      45.808  25.991  29.115  1.00  0.00     0.049 A 
ATOM     44  H   UNL A   1      43.964  26.958  29.198  1.00  0.00     0.167 HD
ATOM     45  C   UNL A   1      40.090  28.948  29.172  1.00  0.00     0.031 A 
ATOM     46  C   UNL A   1      46.745  26.876  29.504  1.00  0.00     0.031 A 
ATOM     47  C   UNL A   1      41.008  29.934  29.682  1.00  0.00     0.049 A 
ATOM     48  C   UNL A   1      46.332  28.271  29.887  1.00  0.00     0.074 A 
ATOM     49  C   UNL A   1      40.735  31.214  30.129  1.00  0.00     0.029 A 
ATOM     50  N   UNL A   1      42.376  29.750  29.808  1.00  0.00    -0.354 N 
ATOM     51  N   UNL A   1      45.133  28.801  29.909  1.00  0.00    -0.248 NA
ATOM     52  C   UNL A   1      47.402  29.185  30.312  1.00  0.00     0.031 C 
ATOM     53  C   UNL A   1      41.944  31.826  30.475  1.00  0.00     0.029 A 
ATOM     54  C   UNL A   1      42.962  30.902  30.305  1.00  0.00     0.049 A 
ATOM     55  H   UNL A   1      42.858  28.922  29.580  1.00  0.00     0.167 HD
ATOM     56  C   UNL A   1      45.301  30.097  30.379  1.00  0.00     0.074 A 
ATOM     57  C   UNL A   1      46.715  30.268  30.646  1.00  0.00     0.031 C 
ATOM     58  C   UNL A   1      44.367  31.059  30.575  1.00  0.00     0.031 A 
BRANCH  45  59
ATOM     59  C   UNL A   1      38.639  29.330  29.047  1.00  0.00    -0.014 A 
ATOM     60  C   UNL A   1      38.117  29.815  27.837  1.00  0.00     0.009 A 
ATOM     61  C   UNL A   1      37.773  29.159  30.139  1.00  0.00     0.009 A 
ATOM     62  C   UNL A   1      36.766  30.151  27.733  1.00  0.00     0.001 A 
ATOM     63  C   UNL A   1      36.416  29.467  30.022  1.00  0.00     0.001 A 
ATOM     64  C   UNL A   1      35.916  29.972  28.823  1.00  0.00     0.000 A 
ENDBRANCH  45  59
BRANCH  46  65
ATOM     65  C   UNL A   1      48.178  26.477  29.549  1.00  0.00    -0.014 A 
ATOM     66  C   UNL A   1      49.006  26.653  28.430  1.00  0.00     0.009 A 
ATOM     67  C   UNL A   1      48.719  25.894  30.707  1.00  0.00     0.009 A 
ATOM     68  C   UNL A   1      50.334  26.222  28.457  1.00  0.00     0.001 A 
ATOM     69  C   UNL A   1      50.057  25.495  30.742  1.00  0.00     0.001 A 
ATOM     70  C   UNL A   1      50.860  25.648  29.613  1.00  0.00     0.000 A 
ENDBRANCH  46  65
BRANCH  58  71
ATOM     71  C   UNL A   1      44.833  32.368  31.150  1.00  0.00    -0.014 A 
ATOM     72  C   UNL A   1      44.903  32.580  32.536  1.00  0.00     0.009 A 
ATOM     73  C   UNL A   1      45.248  33.394  30.286  1.00  0.00     0.009 A 
ATOM     74  C   UNL A   1      45.348  33.803  33.043  1.00  0.00     0.001 A 
ATOM     75  C   UNL A   1      45.722  34.604  30.795  1.00  0.00     0.001 A 
ATOM     76  C   UNL A   1      45.763  34.811  32.172  1.00  0.00     0.000 A 
ENDBRANCH  58  71
ENDBRANCH  32  33
ENDBRANCH  24  27
ENDBRANCH  22  23
ENDBRANCH   1  22
TORSDOF 13
ENDMDL
MODEL 2
REMARK VINA RESULT:     -10.6      4.960      9.578
REMARK SMILES [NH3+][C@]1(C(=O)NCCCNC(=O)c2ccc(-c3c4nc(c(-c5ccccc5)c5ccc([nH]5)c(-c5ccccc5)c5nc(c(-c6ccccc6)c6ccc3[nH]6)C=C5)C=C4)cc2)CCC[C@@H](OC2CCC2)C1
REMARK SMILES IDX 7 1 6 2 5 3 3 4 4 5 2 7 60 8 69 9 61 10 63 11 62 12 1 13
REMARK SMILES IDX 64 17 65 18 66 19 68 20 67 21 8 22 9 23 10 24 11 26 12 27
REMARK SMILES IDX 13 28 59 29 14 30 58 31 15 32 16 33 17 34 52 35 18 36 57 37
REMARK SMILES IDX 51 38 53 39 19 40 56 41 50 42 49 43 20 45 42 46 27 47 41 48
REMARK SMILES IDX 28 49 31 50 40 51 54 52 29 53 30 54 39 56 55 57 32 58 21 59
REMARK SMILES IDX 22 60 26 61 23 62 25 63 24 64 43 65 44 66 48 67 45 68 47 69
REMARK SMILES IDX 46 70 33 71 34 72 38 73 35 74 37 75 36 76
REMARK H PARENT 5 6 1 14 1 15 1 16 9 25 53 44 31 55
REMARK Flexibility Score: inf
ROOT
ATOM      1  C   UNL A   1      31.089  31.392  25.967  1.00  0.00     0.042 C 
ENDROOT
BRANCH   1   2
ATOM      2  C   UNL A   1      31.231  29.998  25.351  1.00  0.00     0.118 C 
BRANCH   2   3
ATOM      3  N   UNL A   1      32.434  29.807  24.567  1.00  0.00    -0.351 N 
ATOM      4  C   UNL A   1      32.925  28.787  23.810  1.00  0.00     0.281 C 
ATOM      5  O   UNL A   1      33.861  29.131  23.074  1.00  0.00    -0.268 OA
ATOM      6  H   UNL A   1      33.031  30.589  24.586  1.00  0.00     0.163 HD
BRANCH   4   7
ATOM      7  C   UNL A   1      32.305  27.330  23.733  1.00  0.00     0.176 C 
ATOM      8  C   UNL A   1      31.606  27.021  25.094  1.00  0.00     0.079 C 
ATOM      9  C   UNL A   1      31.369  27.041  22.545  1.00  0.00     0.111 C 
ATOM     10  C   UNL A   1      30.232  26.347  25.072  1.00  0.00     0.010 C 
ATOM     11  C   UNL A   1      29.906  27.439  22.751  1.00  0.00     0.125 C 
ATOM     12  C   UNL A   1      29.286  26.696  23.923  1.00  0.00     0.032 C 
BRANCH   7  13
ATOM     13  N   UNL A   1      33.474  26.413  23.618  1.00  0.00    -0.345 N 
ATOM     14  H   UNL A   1      33.232  25.628  23.013  1.00  0.00     0.345 HD
ATOM     15  H   UNL A   1      33.725  26.064  24.544  1.00  0.00     0.345 HD
ATOM     16  H   UNL A   1      34.265  26.918  23.219  1.00  0.00     0.345 HD
ENDBRANCH   7  13
BRANCH  11  17
ATOM     17  O   UNL A   1      29.853  28.846  22.638  1.00  0.00    -0.375 OA
BRANCH  17  18
ATOM     18  C   UNL A   1      28.762  29.707  22.272  1.00  0.00     0.118 C 
ATOM     19  C   UNL A   1      27.491  29.924  23.104  1.00  0.00     0.032 C 
ATOM     20  C   UNL A   1      29.153  31.179  22.559  1.00  0.00     0.032 C 
ATOM     21  C   UNL A   1      27.962  31.321  23.501  1.00  0.00     0.005 C 
ENDBRANCH  17  18
ENDBRANCH  11  17
ENDBRANCH   4   7
ENDBRANCH   2   3
ENDBRANCH   1   2
BRANCH   1  22
ATOM     22  C   UNL A   1      32.226  31.850  26.876  1.00  0.00     0.118 C 
BRANCH  22  23
ATOM     23  N   UNL A   1      32.131  33.245  27.278  1.00  0.00    -0.352 N 
ATOM     24  C   UNL A   1      32.924  34.021  28.076  1.00  0.00     0.251 C 
ATOM     25  H   UNL A   1      31.350  33.717  26.907  1.00  0.00     0.163 HD
ATOM     26  O   UNL A   1      32.528  35.159  28.376  1.00  0.00    -0.269 OA
BRANCH  24  27
ATOM     27  C   UNL A   1      34.220  33.554  28.618  1.00  0.00     0.039 A 
ATOM     28  C   UNL A   1      34.209  32.782  29.786  1.00  0.00     0.014 A 
ATOM     29  C   UNL A   1      35.444  33.921  28.056  1.00  0.00     0.014 A 
ATOM     30  C   UNL A   1      35.407  32.328  30.347  1.00  0.00     0.010 A 
ATOM     31  C   UNL A   1      36.637  33.406  28.571  1.00  0.00     0.010 A 
ATOM     32  C   UNL A   1      36.634  32.604  29.724  1.00  0.00    -0.014 A 
BRANCH  32  33
ATOM     33  C   UNL A   1      37.912  32.063  30.263  1.00  0.00     0.031 A 
ATOM     34  C   UNL A   1      38.491  30.781  29.727  1.00  0.00     0.074 A 
ATOM     35  C   UNL A   1      38.533  32.701  31.277  1.00  0.00     0.049 A 
ATOM     36  N   UNL A   1      39.554  30.125  30.124  1.00  0.00    -0.248 NA
ATOM     37  C   UNL A   1      37.775  30.143  28.613  1.00  0.00     0.031 C 
ATOM     38  C   UNL A   1      38.073  33.940  31.907  1.00  0.00     0.029 A 
ATOM     39  N   UNL A   1      39.682  32.388  31.962  1.00  0.00    -0.354 N 
ATOM     40  C   UNL A   1      39.624  28.993  29.319  1.00  0.00     0.074 A 
ATOM     41  C   UNL A   1      38.472  29.028  28.445  1.00  0.00     0.031 C 
ATOM     42  C   UNL A   1      38.939  34.290  32.873  1.00  0.00     0.029 A 
ATOM     43  C   UNL A   1      39.987  33.280  32.963  1.00  0.00     0.049 A 
ATOM     44  H   UNL A   1      40.235  31.600  31.756  1.00  0.00     0.167 HD
ATOM     45  C   UNL A   1      40.568  28.021  29.295  1.00  0.00     0.031 A 
ATOM     46  C   UNL A   1      40.988  33.279  33.865  1.00  0.00     0.031 A 
ATOM     47  C   UNL A   1      41.718  27.983  30.162  1.00  0.00     0.049 A 
ATOM     48  C   UNL A   1      42.002  32.169  33.842  1.00  0.00     0.074 A 
ATOM     49  C   UNL A   1      42.748  27.058  30.185  1.00  0.00     0.029 A 
ATOM     50  N   UNL A   1      41.988  28.906  31.159  1.00  0.00    -0.354 N 
ATOM     51  N   UNL A   1      42.081  31.137  33.038  1.00  0.00    -0.248 NA
ATOM     52  C   UNL A   1      43.074  32.232  34.846  1.00  0.00     0.031 C 
ATOM     53  C   UNL A   1      43.613  27.390  31.233  1.00  0.00     0.029 A 
ATOM     54  C   UNL A   1      43.156  28.560  31.818  1.00  0.00     0.049 A 
ATOM     55  H   UNL A   1      41.433  29.692  31.367  1.00  0.00     0.167 HD
ATOM     56  C   UNL A   1      43.226  30.448  33.417  1.00  0.00     0.074 A 
ATOM     57  C   UNL A   1      43.819  31.187  34.512  1.00  0.00     0.031 C 
ATOM     58  C   UNL A   1      43.742  29.306  32.902  1.00  0.00     0.031 A 
BRANCH  45  59
ATOM     59  C   UNL A   1      40.396  26.906  28.299  1.00  0.00    -0.014 A 
ATOM     60  C   UNL A   1      41.001  26.962  27.033  1.00  0.00     0.009 A 
ATOM     61  C   UNL A   1      39.659  25.763  28.648  1.00  0.00     0.009 A 
ATOM     62  C   UNL A   1      40.843  25.913  26.126  1.00  0.00     0.001 A 
ATOM     63  C   UNL A   1      39.529  24.702  27.751  1.00  0.00     0.001 A 
ATOM     64  C   UNL A   1      40.112  24.781  26.487  1.00  0.00     0.000 A 
ENDBRANCH  45  59
BRANCH  46  65
ATOM     65  C   UNL A   1      41.084  34.366  34.876  1.00  0.00    -0.014 A 
ATOM     66  C   UNL A   1      40.443  34.246  36.119  1.00  0.00     0.009 A 
ATOM     67  C   UNL A   1      41.799  35.541  34.594  1.00  0.00     0.009 A 
ATOM     68  C   UNL A   1      40.486  35.293  37.042  1.00  0.00     0.001 A 
ATOM     69  C   UNL A   1      41.868  36.573  35.534  1.00  0.00     0.001 A 
ATOM     70  C   UNL A   1      41.202  36.453  36.751  1.00  0.00     0.000 A 
ENDBRANCH  46  65
BRANCH  58  71
ATOM     71  C   UNL A   1      45.037  28.808  33.481  1.00  0.00    -0.014 A 
ATOM     72  C   UNL A   1      46.278  29.224  32.974  1.00  0.00     0.009 A 
ATOM     73  C   UNL A   1      45.012  27.938  34.584  1.00  0.00     0.009 A 
ATOM     74  C   UNL A   1      47.466  28.753  33.539  1.00  0.00     0.001 A 
ATOM     75  C   UNL A   1      46.200  27.494  35.165  1.00  0.00     0.001 A 
ATOM     76  C   UNL A   1      47.426  27.894  34.637  1.00  0.00     0.000 A 
ENDBRANCH  58  71
ENDBRANCH  32  33
ENDBRANCH  24  27
ENDBRANCH  22  23
ENDBRANCH   1  22
TORSDOF 13
ENDMDL
MODEL 3
REMARK VINA RESULT:     -10.6      2.186      7.217
REMARK SMILES [NH3+][C@]1(C(=O)NCCCNC(=O)c2ccc(-c3c4nc(c(-c5ccccc5)c5ccc([nH]5)c(-c5ccccc5)c5nc(c(-c6ccccc6)c6ccc3[nH]6)C=C5)C=C4)cc2)CCC[C@@H](OC2CCC2)C1
REMARK SMILES IDX 7 1 6 2 5 3 3 4 4 5 2 7 60 8 69 9 61 10 63 11 62 12 1 13
REMARK SMILES IDX 64 17 65 18 66 19 68 20 67 21 8 22 9 23 10 24 11 26 12 27
REMARK SMILES IDX 13 28 59 29 14 30 58 31 15 32 16 33 17 34 52 35 18 36 57 37
REMARK SMILES IDX 51 38 53 39 19 40 56 41 50 42 49 43 20 45 42 46 27 47 41 48
REMARK SMILES IDX 28 49 31 50 40 51 54 52 29 53 30 54 39 56 55 57 32 58 21 59
REMARK SMILES IDX 22 60 26 61 23 62 25 63 24 64 43 65 44 66 48 67 45 68 47 69
REMARK SMILES IDX 46 70 33 71 34 72 38 73 35 74 37 75 36 76
REMARK H PARENT 5 6 1 14 1 15 1 16 9 25 53 44 31 55
REMARK Flexibility Score: inf
ROOT
ATOM      1  C   UNL A   1      33.934  27.844  25.804  1.00  0.00     0.042 C 
ENDROOT
BRANCH   1   2
ATOM      2  C   UNL A   1      33.065  26.872  25.003  1.00  0.00     0.118 C 
BRANCH   2   3
ATOM      3  N   UNL A   1      33.777  26.130  23.983  1.00  0.00    -0.351 N 
ATOM      4  C   UNL A   1      33.509  25.006  23.263  1.00  0.00     0.281 C 
ATOM      5  O   UNL A   1      34.259  24.861  22.286  1.00  0.00    -0.268 OA
ATOM      6  H   UNL A   1      34.649  26.527  23.760  1.00  0.00     0.163 HD
BRANCH   4   7
ATOM      7  C   UNL A   1      32.286  24.030  23.519  1.00  0.00     0.176 C 
ATOM      8  C   UNL A   1      32.546  22.703  22.740  1.00  0.00     0.079 C 
ATOM      9  C   UNL A   1      31.921  23.754  24.989  1.00  0.00     0.111 C 
ATOM     10  C   UNL A   1      32.252  21.376  23.443  1.00  0.00     0.010 C 
ATOM     11  C   UNL A   1      32.708  22.626  25.659  1.00  0.00     0.125 C 
ATOM     12  C   UNL A   1      32.492  21.299  24.951  1.00  0.00     0.032 C 
BRANCH   7  13
ATOM     13  N   UNL A   1      31.114  24.695  22.881  1.00  0.00    -0.345 N 
ATOM     14  H   UNL A   1      31.420  25.547  22.412  1.00  0.00     0.345 HD
ATOM     15  H   UNL A   1      30.425  24.928  23.597  1.00  0.00     0.345 HD
ATOM     16  H   UNL A   1      30.694  24.063  22.199  1.00  0.00     0.345 HD
ENDBRANCH   7  13
BRANCH  11  17
ATOM     17  O   UNL A   1      33.997  23.138  25.924  1.00  0.00    -0.375 OA
BRANCH  17  18
ATOM     18  C   UNL A   1      35.292  22.569  25.669  1.00  0.00     0.118 C 
ATOM     19  C   UNL A   1      35.900  22.344  24.278  1.00  0.00     0.032 C 
ATOM     20  C   UNL A   1      36.382  23.640  25.928  1.00  0.00     0.032 C 
ATOM     21  C   UNL A   1      36.871  23.503  24.490  1.00  0.00     0.005 C 
ENDBRANCH  17  18
ENDBRANCH  11  17
ENDBRANCH   4   7
ENDBRANCH   2   3
ENDBRANCH   1   2
BRANCH   1  22
ATOM     22  C   UNL A   1      33.447  28.191  27.208  1.00  0.00     0.118 C 
BRANCH  22  23
ATOM     23  N   UNL A   1      33.407  29.618  27.481  1.00  0.00    -0.352 N 
ATOM     24  C   UNL A   1      34.342  30.478  27.985  1.00  0.00     0.251 C 
ATOM     25  H   UNL A   1      32.547  30.045  27.261  1.00  0.00     0.163 HD
ATOM     26  O   UNL A   1      33.994  31.638  28.257  1.00  0.00    -0.269 OA
BRANCH  24  27
ATOM     27  C   UNL A   1      35.743  30.077  28.248  1.00  0.00     0.039 A 
ATOM     28  C   UNL A   1      36.079  29.647  29.537  1.00  0.00     0.014 A 
ATOM     29  C   UNL A   1      36.748  30.188  27.284  1.00  0.00     0.014 A 
ATOM     30  C   UNL A   1      37.392  29.271  29.840  1.00  0.00     0.010 A 
ATOM     31  C   UNL A   1      38.043  29.741  27.564  1.00  0.00     0.010 A 
ATOM     32  C   UNL A   1      38.381  29.279  28.845  1.00  0.00    -0.014 A 
BRANCH  32  33
ATOM     33  C   UNL A   1      39.765  28.807  29.129  1.00  0.00     0.031 A 
ATOM     34  C   UNL A   1      40.773  29.724  29.770  1.00  0.00     0.074 A 
ATOM     35  C   UNL A   1      40.135  27.563  28.764  1.00  0.00     0.049 A 
ATOM     36  N   UNL A   1      42.040  29.509  30.025  1.00  0.00    -0.248 NA
ATOM     37  C   UNL A   1      40.303  31.063  30.157  1.00  0.00     0.031 C 
ATOM     38  C   UNL A   1      39.268  26.577  28.116  1.00  0.00     0.029 A 
ATOM     39  N   UNL A   1      41.343  26.918  28.877  1.00  0.00    -0.354 N 
ATOM     40  C   UNL A   1      42.519  30.687  30.588  1.00  0.00     0.074 A 
ATOM     41  C   UNL A   1      41.419  31.627  30.593  1.00  0.00     0.031 C 
ATOM     42  C   UNL A   1      39.967  25.448  27.906  1.00  0.00     0.029 A 
ATOM     43  C   UNL A   1      41.339  25.645  28.359  1.00  0.00     0.049 A 
ATOM     44  H   UNL A   1      42.137  27.329  29.291  1.00  0.00     0.167 HD
ATOM     45  C   UNL A   1      43.755  30.959  31.073  1.00  0.00     0.031 A 
ATOM     46  C   UNL A   1      42.331  24.740  28.245  1.00  0.00     0.031 A 
ATOM     47  C   UNL A   1      44.853  30.026  31.072  1.00  0.00     0.049 A 
ATOM     48  C   UNL A   1      43.704  25.080  28.756  1.00  0.00     0.074 A 
ATOM     49  C   UNL A   1      46.130  30.200  31.576  1.00  0.00     0.029 A 
ATOM     50  N   UNL A   1      44.804  28.748  30.538  1.00  0.00    -0.354 N 
ATOM     51  N   UNL A   1      44.122  26.179  29.335  1.00  0.00    -0.248 NA
ATOM     52  C   UNL A   1      44.739  24.046  28.610  1.00  0.00     0.031 C 
ATOM     53  C   UNL A   1      46.872  29.047  31.299  1.00  0.00     0.029 A 
ATOM     54  C   UNL A   1      46.036  28.131  30.681  1.00  0.00     0.049 A 
ATOM     55  H   UNL A   1      44.012  28.340  30.121  1.00  0.00     0.167 HD
ATOM     56  C   UNL A   1      45.457  25.957  29.650  1.00  0.00     0.074 A 
ATOM     57  C   UNL A   1      45.774  24.613  29.213  1.00  0.00     0.031 C 
ATOM     58  C   UNL A   1      46.340  26.791  30.250  1.00  0.00     0.031 A 
BRANCH  45  59
ATOM     59  C   UNL A   1      43.993  32.331  31.644  1.00  0.00    -0.014 A 
ATOM     60  C   UNL A   1      43.785  32.597  33.007  1.00  0.00     0.009 A 
ATOM     61  C   UNL A   1      44.479  33.358  30.819  1.00  0.00     0.009 A 
ATOM     62  C   UNL A   1      44.024  33.872  33.524  1.00  0.00     0.001 A 
ATOM     63  C   UNL A   1      44.747  34.623  31.345  1.00  0.00     0.001 A 
ATOM     64  C   UNL A   1      44.511  34.882  32.695  1.00  0.00     0.000 A 
ENDBRANCH  45  59
BRANCH  46  65
ATOM     65  C   UNL A   1      42.069  23.419  27.612  1.00  0.00    -0.014 A 
ATOM     66  C   UNL A   1      42.362  23.203  26.257  1.00  0.00     0.009 A 
ATOM     67  C   UNL A   1      41.501  22.373  28.357  1.00  0.00     0.009 A 
ATOM     68  C   UNL A   1      42.059  21.981  25.653  1.00  0.00     0.001 A 
ATOM     69  C   UNL A   1      41.230  21.140  27.757  1.00  0.00     0.001 A 
ATOM     70  C   UNL A   1      41.498  20.950  26.404  1.00  0.00     0.000 A 
ENDBRANCH  46  65
BRANCH  58  71
ATOM     71  C   UNL A   1      47.721  26.261  30.516  1.00  0.00    -0.014 A 
ATOM     72  C   UNL A   1      48.715  26.268  29.526  1.00  0.00     0.009 A 
ATOM     73  C   UNL A   1      48.044  25.785  31.798  1.00  0.00     0.009 A 
ATOM     74  C   UNL A   1      49.994  25.778  29.804  1.00  0.00     0.001 A 
ATOM     75  C   UNL A   1      49.331  25.326  32.082  1.00  0.00     0.001 A 
ATOM     76  C   UNL A   1      50.302  25.313  31.082  1.00  0.00     0.000 A 
ENDBRANCH  58  71
ENDBRANCH  32  33
ENDBRANCH  24  27
ENDBRANCH  22  23
ENDBRANCH   1  22
TORSDOF 13
ENDMDL
