MODEL 1
REMARK VINA RESULT:     -14.6      0.000      0.000
REMARK SMILES O=C1C[C@H](c2cn[nH]c2C(=O)NCCCNC(=O)c2ccc(-c3c4nc(c(-c5ccccc5)c5ccc([nH]5)c(-c5ccccc5)c5nc(c(-c6ccccc6)c6ccc3[nH]6)C=C5)C=C4)cc2)c2c(-c3cccs3)n[nH]c2N1
REMARK SMILES IDX 14 1 13 2 12 3 10 4 11 5 9 7 5 8 6 9 7 10 8 11 4 13 1 14
REMARK SMILES IDX 2 15 3 16 77 17 76 18 67 20 75 21 68 22 74 23 69 25 70 26
REMARK SMILES IDX 73 27 71 28 72 29 15 30 16 31 17 32 18 34 19 35 20 36 66 37
REMARK SMILES IDX 21 38 65 39 22 40 23 41 24 42 59 43 25 44 64 45 58 46 60 47
REMARK SMILES IDX 26 48 63 49 57 50 56 51 27 53 49 54 34 55 48 56 35 57 38 58
REMARK SMILES IDX 47 59 61 60 36 61 37 62 46 64 62 65 39 66 28 67 29 68 33 69
REMARK SMILES IDX 30 70 32 71 31 72 50 73 51 74 55 75 52 76 54 77 53 78 40 79
REMARK SMILES IDX 41 80 45 81 42 82 44 83 43 84
REMARK H PARENT 12 6 8 12 77 19 75 24 16 33 60 52 38 63
REMARK Flexibility Score: inf
ROOT
ATOM      1  C   UNL A   1      38.821  23.836  26.967  1.00  0.00     0.042 C 
ENDROOT
BRANCH   1   2
ATOM      2  C   UNL A   1      37.470  23.945  25.884  1.00  0.00     0.118 C 
BRANCH   2   3
ATOM      3  N   UNL A   1      35.590  22.840  25.804  1.00  0.00    -0.351 N 
ATOM      4  C   UNL A   1      34.183  22.662  25.835  1.00  0.00     0.269 C 
ATOM      5  O   UNL A   1      33.790  21.514  25.603  1.00  0.00    -0.268 OA
ATOM      6  H   UNL A   1      35.906  21.919  25.659  1.00  0.00     0.163 HD
BRANCH   4   7
ATOM      7  C   UNL A   1      33.230  23.730  26.035  1.00  0.00     0.126 A 
ATOM      8  C   UNL A   1      33.063  24.950  25.402  1.00  0.00     0.011 A 
ATOM      9  C   UNL A   1      31.909  25.509  25.980  1.00  0.00     0.140 A 
ATOM     10  N   UNL A   1      31.393  24.728  26.930  1.00  0.00    -0.183 NA
ATOM     11  N   UNL A   1      32.209  23.658  26.943  1.00  0.00    -0.273 N 
ATOM     12  H   UNL A   1      32.083  22.892  27.549  1.00  0.00     0.190 HD
BRANCH   8  13
ATOM     13  C   UNL A   1      33.936  25.469  24.323  1.00  0.00     0.069 C 
ATOM     14  O   UNL A   1      33.475  23.085  21.370  1.00  0.00    -0.275 OA
ATOM     15  C   UNL A   1      33.217  24.010  22.149  1.00  0.00     0.226 C 
ATOM     16  C   UNL A   1      34.249  24.397  23.250  1.00  0.00     0.114 C 
ATOM     17  N   UNL A   1      32.074  24.738  21.915  1.00  0.00    -0.311 N 
ATOM     18  C   UNL A   1      32.028  25.995  22.438  1.00  0.00     0.132 A 
ATOM     19  H   UNL A   1      31.325  24.369  21.394  1.00  0.00     0.171 HD
ATOM     20  C   UNL A   1      33.156  26.530  23.688  1.00  0.00     0.031 A 
ATOM     21  N   UNL A   1      30.881  27.398  22.073  1.00  0.00    -0.262 N 
ATOM     22  C   UNL A   1      32.614  28.336  24.238  1.00  0.00     0.108 A 
ATOM     23  N   UNL A   1      31.236  28.826  23.257  1.00  0.00    -0.173 NA
ATOM     24  H   UNL A   1      30.192  27.401  21.369  1.00  0.00     0.192 HD
BRANCH  22  25
ATOM     25  C   UNL A   1      33.089  28.991  25.474  1.00  0.00     0.055 A 
ATOM     26  C   UNL A   1      34.253  28.639  26.111  1.00  0.00     0.022 A 
ATOM     27  S   UNL A   1      32.318  30.329  26.177  1.00  0.00    -0.142 S 
ATOM     28  C   UNL A   1      34.553  29.547  27.169  1.00  0.00     0.012 A 
ATOM     29  C   UNL A   1      33.547  30.471  27.360  1.00  0.00     0.065 A 
ENDBRANCH  22  25
ENDBRANCH   8  13
ENDBRANCH   4   7
ENDBRANCH   2   3
ENDBRANCH   1   2
BRANCH   1  30
ATOM     30  C   UNL A   1      39.207  25.169  27.563  1.00  0.00     0.118 C 
BRANCH  30  31
ATOM     31  N   UNL A   1      40.574  25.225  28.058  1.00  0.00    -0.352 N 
ATOM     32  C   UNL A   1      41.149  26.337  28.642  1.00  0.00     0.251 C 
ATOM     33  H   UNL A   1      41.126  24.415  27.971  1.00  0.00     0.163 HD
ATOM     34  O   UNL A   1      42.352  26.543  28.639  1.00  0.00    -0.269 OA
BRANCH  32  35
ATOM     35  C   UNL A   1      40.219  27.190  29.399  1.00  0.00     0.039 A 
ATOM     36  C   UNL A   1      39.363  26.731  30.392  1.00  0.00     0.014 A 
ATOM     37  C   UNL A   1      40.386  28.553  29.168  1.00  0.00     0.014 A 
ATOM     38  C   UNL A   1      38.638  27.695  31.102  1.00  0.00     0.010 A 
ATOM     39  C   UNL A   1      40.029  29.389  30.181  1.00  0.00     0.010 A 
ATOM     40  C   UNL A   1      38.945  29.069  30.951  1.00  0.00    -0.014 A 
BRANCH  40  41
ATOM     41  C   UNL A   1      38.491  30.147  31.837  1.00  0.00     0.031 A 
ATOM     42  C   UNL A   1      37.389  30.879  31.168  1.00  0.00     0.074 A 
ATOM     43  C   UNL A   1      38.947  30.421  33.098  1.00  0.00     0.049 A 
ATOM     44  N   UNL A   1      37.607  31.877  30.385  1.00  0.00    -0.248 NA
ATOM     45  C   UNL A   1      36.036  30.313  31.014  1.00  0.00     0.031 C 
ATOM     46  C   UNL A   1      39.909  29.714  33.962  1.00  0.00     0.029 A 
ATOM     47  N   UNL A   1      38.641  31.507  33.890  1.00  0.00    -0.354 N 
ATOM     48  C   UNL A   1      36.378  32.275  29.902  1.00  0.00     0.074 A 
ATOM     49  C   UNL A   1      35.486  31.172  30.144  1.00  0.00     0.031 C 
ATOM     50  C   UNL A   1      39.933  30.263  35.212  1.00  0.00     0.029 A 
ATOM     51  C   UNL A   1      39.111  31.463  35.224  1.00  0.00     0.049 A 
ATOM     52  H   UNL A   1      38.124  32.272  33.546  1.00  0.00     0.167 HD
ATOM     53  C   UNL A   1      36.199  33.599  29.654  1.00  0.00     0.031 A 
ATOM     54  C   UNL A   1      39.021  32.446  36.185  1.00  0.00     0.031 A 
ATOM     55  C   UNL A   1      37.482  34.277  29.627  1.00  0.00     0.049 A 
ATOM     56  C   UNL A   1      38.819  33.724  35.456  1.00  0.00     0.074 A 
ATOM     57  C   UNL A   1      38.618  34.167  28.846  1.00  0.00     0.029 A 
ATOM     58  N   UNL A   1      37.889  34.803  30.833  1.00  0.00    -0.354 N 
ATOM     59  N   UNL A   1      39.764  34.250  34.730  1.00  0.00    -0.248 NA
ATOM     60  C   UNL A   1      37.452  34.039  35.069  1.00  0.00     0.031 C 
ATOM     61  C   UNL A   1      39.709  34.210  29.769  1.00  0.00     0.029 A 
ATOM     62  C   UNL A   1      39.212  34.504  31.039  1.00  0.00     0.049 A 
ATOM     63  H   UNL A   1      37.318  35.314  31.451  1.00  0.00     0.167 HD
ATOM     64  C   UNL A   1      39.139  34.534  33.528  1.00  0.00     0.074 A 
ATOM     65  C   UNL A   1      37.701  34.389  33.802  1.00  0.00     0.031 C 
ATOM     66  C   UNL A   1      39.827  34.499  32.348  1.00  0.00     0.031 A 
BRANCH  53  67
ATOM     67  C   UNL A   1      34.930  34.329  29.997  1.00  0.00    -0.014 A 
ATOM     68  C   UNL A   1      34.288  35.049  28.973  1.00  0.00     0.009 A 
ATOM     69  C   UNL A   1      34.521  34.596  31.318  1.00  0.00     0.009 A 
ATOM     70  C   UNL A   1      33.335  36.030  29.262  1.00  0.00     0.001 A 
ATOM     71  C   UNL A   1      33.548  35.557  31.606  1.00  0.00     0.001 A 
ATOM     72  C   UNL A   1      32.970  36.288  30.578  1.00  0.00     0.000 A 
ENDBRANCH  53  67
BRANCH  54  73
ATOM     73  C   UNL A   1      38.598  32.370  37.626  1.00  0.00    -0.014 A 
ATOM     74  C   UNL A   1      38.953  33.365  38.574  1.00  0.00     0.009 A 
ATOM     75  C   UNL A   1      37.571  31.493  38.002  1.00  0.00     0.009 A 
ATOM     76  C   UNL A   1      38.276  33.498  39.805  1.00  0.00     0.001 A 
ATOM     77  C   UNL A   1      36.888  31.632  39.223  1.00  0.00     0.001 A 
ATOM     78  C   UNL A   1      37.226  32.641  40.118  1.00  0.00     0.000 A 
ENDBRANCH  54  73
BRANCH  66  79
ATOM     79  C   UNL A   1      41.331  34.342  32.401  1.00  0.00    -0.014 A 
ATOM     80  C   UNL A   1      42.266  35.396  32.342  1.00  0.00     0.009 A 
ATOM     81  C   UNL A   1      41.813  33.051  32.654  1.00  0.00     0.009 A 
ATOM     82  C   UNL A   1      43.639  35.145  32.496  1.00  0.00     0.001 A 
ATOM     83  C   UNL A   1      43.174  32.805  32.826  1.00  0.00     0.001 A 
ATOM     84  C   UNL A   1      44.090  33.848  32.735  1.00  0.00     0.000 A 
ENDBRANCH  66  79
ENDBRANCH  40  41
ENDBRANCH  32  35
ENDBRANCH  30  31
ENDBRANCH   1  30
TORSDOF 12
ENDMDL
MODEL 2
REMARK VINA RESULT:     -14.5      5.131     11.167
REMARK SMILES O=C1C[C@H](c2cn[nH]c2C(=O)NCCCNC(=O)c2ccc(-c3c4nc(c(-c5ccccc5)c5ccc([nH]5)c(-c5ccccc5)c5nc(c(-c6ccccc6)c6ccc3[nH]6)C=C5)C=C4)cc2)c2c(-c3cccs3)n[nH]c2N1
REMARK SMILES IDX 14 1 13 2 12 3 10 4 11 5 9 7 5 8 6 9 7 10 8 11 4 13 1 14
REMARK SMILES IDX 2 15 3 16 77 17 76 18 67 20 75 21 68 22 74 23 69 25 70 26
REMARK SMILES IDX 73 27 71 28 72 29 15 30 16 31 17 32 18 34 19 35 20 36 66 37
REMARK SMILES IDX 21 38 65 39 22 40 23 41 24 42 59 43 25 44 64 45 58 46 60 47
REMARK SMILES IDX 26 48 63 49 57 50 56 51 27 53 49 54 34 55 48 56 35 57 38 58
REMARK SMILES IDX 47 59 61 60 36 61 37 62 46 64 62 65 39 66 28 67 29 68 33 69
REMARK SMILES IDX 30 70 32 71 31 72 50 73 51 74 55 75 52 76 54 77 53 78 40 79
REMARK SMILES IDX 41 80 45 81 42 82 44 83 43 84
REMARK H PARENT 12 6 8 12 77 19 75 24 16 33 60 52 38 63
REMARK Flexibility Score: inf
ROOT
ATOM      1  C   UNL A   1      35.407  29.844  27.882  1.00  0.00     0.042 C 
ENDROOT
BRANCH   1   2
ATOM      2  C   UNL A   1      34.508  28.575  27.113  1.00  0.00     0.118 C 
BRANCH   2   3
ATOM      3  N   UNL A   1      33.455  28.502  25.203  1.00  0.00    -0.351 N 
ATOM      4  C   UNL A   1      32.996  27.924  23.992  1.00  0.00     0.269 C 
ATOM      5  O   UNL A   1      32.236  28.633  23.323  1.00  0.00    -0.268 OA
ATOM      6  H   UNL A   1      33.069  29.406  25.153  1.00  0.00     0.163 HD
BRANCH   4   7
ATOM      7  C   UNL A   1      33.297  26.576  23.565  1.00  0.00     0.126 A 
ATOM      8  C   UNL A   1      33.344  25.377  24.256  1.00  0.00     0.011 A 
ATOM      9  C   UNL A   1      33.605  24.401  23.278  1.00  0.00     0.140 A 
ATOM     10  N   UNL A   1      33.747  24.930  22.063  1.00  0.00    -0.183 NA
ATOM     11  N   UNL A   1      33.554  26.247  22.262  1.00  0.00    -0.273 N 
ATOM     12  H   UNL A   1      33.594  26.913  21.538  1.00  0.00     0.190 HD
BRANCH   8  13
ATOM     13  C   UNL A   1      33.117  25.232  25.713  1.00  0.00     0.069 C 
ATOM     14  O   UNL A   1      29.364  25.739  26.238  1.00  0.00    -0.275 OA
ATOM     15  C   UNL A   1      30.412  25.155  25.941  1.00  0.00     0.226 C 
ATOM     16  C   UNL A   1      31.778  25.867  26.168  1.00  0.00     0.114 C 
ATOM     17  N   UNL A   1      30.317  23.841  25.543  1.00  0.00    -0.311 N 
ATOM     18  C   UNL A   1      31.436  23.076  25.674  1.00  0.00     0.132 A 
ATOM     19  H   UNL A   1      29.479  23.472  25.181  1.00  0.00     0.171 HD
ATOM     20  C   UNL A   1      33.031  23.789  25.936  1.00  0.00     0.031 A 
ATOM     21  N   UNL A   1      31.641  21.240  25.606  1.00  0.00    -0.262 N 
ATOM     22  C   UNL A   1      34.343  22.328  25.905  1.00  0.00     0.108 A 
ATOM     23  N   UNL A   1      33.478  20.809  25.694  1.00  0.00    -0.173 NA
ATOM     24  H   UNL A   1      30.907  20.588  25.535  1.00  0.00     0.192 HD
BRANCH  22  25
ATOM     25  C   UNL A   1      35.797  22.538  25.757  1.00  0.00     0.055 A 
ATOM     26  C   UNL A   1      36.425  23.713  26.093  1.00  0.00     0.022 A 
ATOM     27  S   UNL A   1      36.872  21.318  25.272  1.00  0.00    -0.142 S 
ATOM     28  C   UNL A   1      37.842  23.576  26.015  1.00  0.00     0.012 A 
ATOM     29  C   UNL A   1      38.218  22.348  25.512  1.00  0.00     0.065 A 
ENDBRANCH  22  25
ENDBRANCH   8  13
ENDBRANCH   4   7
ENDBRANCH   2   3
ENDBRANCH   1   2
BRANCH   1  30
ATOM     30  C   UNL A   1      36.901  29.681  27.732  1.00  0.00     0.118 C 
BRANCH  30  31
ATOM     31  N   UNL A   1      37.683  30.567  28.580  1.00  0.00    -0.352 N 
ATOM     32  C   UNL A   1      38.897  30.235  29.149  1.00  0.00     0.251 C 
ATOM     33  H   UNL A   1      37.322  31.465  28.761  1.00  0.00     0.163 HD
ATOM     34  O   UNL A   1      39.317  30.753  30.171  1.00  0.00    -0.269 OA
BRANCH  32  35
ATOM     35  C   UNL A   1      39.722  29.312  28.354  1.00  0.00     0.039 A 
ATOM     36  C   UNL A   1      39.946  29.435  26.989  1.00  0.00     0.014 A 
ATOM     37  C   UNL A   1      40.423  28.381  29.116  1.00  0.00     0.014 A 
ATOM     38  C   UNL A   1      40.859  28.546  26.411  1.00  0.00     0.010 A 
ATOM     39  C   UNL A   1      41.586  27.914  28.585  1.00  0.00     0.010 A 
ATOM     40  C   UNL A   1      41.666  27.722  27.234  1.00  0.00    -0.014 A 
BRANCH  40  41
ATOM     41  C   UNL A   1      42.855  26.981  26.795  1.00  0.00     0.031 A 
ATOM     42  C   UNL A   1      42.474  25.569  26.560  1.00  0.00     0.074 A 
ATOM     43  C   UNL A   1      44.105  27.492  26.575  1.00  0.00     0.049 A 
ATOM     44  N   UNL A   1      42.508  24.686  27.495  1.00  0.00    -0.248 NA
ATOM     45  C   UNL A   1      41.671  25.144  25.398  1.00  0.00     0.031 C 
ATOM     46  C   UNL A   1      44.614  28.875  26.608  1.00  0.00     0.029 A 
ATOM     47  N   UNL A   1      45.266  26.799  26.303  1.00  0.00    -0.354 N 
ATOM     48  C   UNL A   1      42.043  23.510  26.946  1.00  0.00     0.074 A 
ATOM     49  C   UNL A   1      41.354  23.887  25.739  1.00  0.00     0.031 C 
ATOM     50  C   UNL A   1      45.902  28.929  26.158  1.00  0.00     0.029 A 
ATOM     51  C   UNL A   1      46.392  27.576  25.942  1.00  0.00     0.049 A 
ATOM     52  H   UNL A   1      45.308  25.816  26.358  1.00  0.00     0.167 HD
ATOM     53  C   UNL A   1      42.574  22.347  27.407  1.00  0.00     0.031 A 
ATOM     54  C   UNL A   1      47.679  27.144  25.712  1.00  0.00     0.031 A 
ATOM     55  C   UNL A   1      43.285  22.585  28.650  1.00  0.00     0.049 A 
ATOM     56  C   UNL A   1      47.806  25.831  26.395  1.00  0.00     0.074 A 
ATOM     57  C   UNL A   1      42.919  23.048  29.900  1.00  0.00     0.029 A 
ATOM     58  N   UNL A   1      44.626  22.862  28.510  1.00  0.00    -0.354 N 
ATOM     59  N   UNL A   1      47.801  25.737  27.694  1.00  0.00    -0.248 NA
ATOM     60  C   UNL A   1      47.331  24.670  25.657  1.00  0.00     0.031 C 
ATOM     61  C   UNL A   1      43.942  23.977  30.266  1.00  0.00     0.029 A 
ATOM     62  C   UNL A   1      44.960  23.922  29.315  1.00  0.00     0.049 A 
ATOM     63  H   UNL A   1      45.249  22.376  27.923  1.00  0.00     0.167 HD
ATOM     64  C   UNL A   1      46.875  24.740  27.950  1.00  0.00     0.074 A 
ATOM     65  C   UNL A   1      46.624  24.109  26.644  1.00  0.00     0.031 C 
ATOM     66  C   UNL A   1      46.127  24.746  29.093  1.00  0.00     0.031 A 
BRANCH  53  67
ATOM     67  C   UNL A   1      42.928  21.197  26.505  1.00  0.00    -0.014 A 
ATOM     68  C   UNL A   1      42.339  19.948  26.772  1.00  0.00     0.009 A 
ATOM     69  C   UNL A   1      44.027  21.210  25.626  1.00  0.00     0.009 A 
ATOM     70  C   UNL A   1      42.866  18.767  26.238  1.00  0.00     0.001 A 
ATOM     71  C   UNL A   1      44.537  20.034  25.069  1.00  0.00     0.001 A 
ATOM     72  C   UNL A   1      43.968  18.811  25.392  1.00  0.00     0.000 A 
ENDBRANCH  53  67
BRANCH  54  73
ATOM     73  C   UNL A   1      48.634  27.465  24.594  1.00  0.00    -0.014 A 
ATOM     74  C   UNL A   1      50.042  27.401  24.760  1.00  0.00     0.009 A 
ATOM     75  C   UNL A   1      48.164  27.515  23.274  1.00  0.00     0.009 A 
ATOM     76  C   UNL A   1      50.919  27.340  23.656  1.00  0.00     0.001 A 
ATOM     77  C   UNL A   1      49.037  27.442  22.175  1.00  0.00     0.001 A 
ATOM     78  C   UNL A   1      50.411  27.337  22.361  1.00  0.00     0.000 A 
ENDBRANCH  54  73
BRANCH  66  79
ATOM     79  C   UNL A   1      46.473  25.753  30.168  1.00  0.00    -0.014 A 
ATOM     80  C   UNL A   1      47.436  25.569  31.182  1.00  0.00     0.009 A 
ATOM     81  C   UNL A   1      45.870  27.013  30.058  1.00  0.00     0.009 A 
ATOM     82  C   UNL A   1      47.746  26.608  32.074  1.00  0.00     0.001 A 
ATOM     83  C   UNL A   1      46.191  28.051  30.932  1.00  0.00     0.001 A 
ATOM     84  C   UNL A   1      47.119  27.848  31.947  1.00  0.00     0.000 A 
ENDBRANCH  66  79
ENDBRANCH  40  41
ENDBRANCH  32  35
ENDBRANCH  30  31
ENDBRANCH   1  30
TORSDOF 12
ENDMDL
MODEL 3
REMARK VINA RESULT:     -13.9      3.053      7.668
REMARK SMILES O=C1C[C@H](c2cn[nH]c2C(=O)NCCCNC(=O)c2ccc(-c3c4nc(c(-c5ccccc5)c5ccc([nH]5)c(-c5ccccc5)c5nc(c(-c6ccccc6)c6ccc3[nH]6)C=C5)C=C4)cc2)c2c(-c3cccs3)n[nH]c2N1
REMARK SMILES IDX 14 1 13 2 12 3 10 4 11 5 9 7 5 8 6 9 7 10 8 11 4 13 1 14
REMARK SMILES IDX 2 15 3 16 77 17 76 18 67 20 75 21 68 22 74 23 69 25 70 26
REMARK SMILES IDX 73 27 71 28 72 29 15 30 16 31 17 32 18 34 19 35 20 36 66 37
REMARK SMILES IDX 21 38 65 39 22 40 23 41 24 42 59 43 25 44 64 45 58 46 60 47
REMARK SMILES IDX 26 48 63 49 57 50 56 51 27 53 49 54 34 55 48 56 35 57 38 58
REMARK SMILES IDX 47 59 61 60 36 61 37 62 46 64 62 65 39 66 28 67 29 68 33 69
REMARK SMILES IDX 30 70 32 71 31 72 50 73 51 74 55 75 52 76 54 77 53 78 40 79
REMARK SMILES IDX 41 80 45 81 42 82 44 83 43 84
REMARK H PARENT 12 6 8 12 77 19 75 24 16 33 60 52 38 63
REMARK Flexibility Score: inf
ROOT
ATOM      1  C   UNL A   1      31.938  31.071  27.091  1.00  0.00     0.042 C 
ENDROOT
BRANCH   1   2
ATOM      2  C   UNL A   1      31.801  30.445  25.480  1.00  0.00     0.118 C 
BRANCH   2   3
ATOM      3  N   UNL A   1      33.268  29.508  24.164  1.00  0.00    -0.351 N 
ATOM      4  C   UNL A   1      33.833  28.477  23.370  1.00  0.00     0.269 C 
ATOM      5  O   UNL A   1      34.861  28.784  22.756  1.00  0.00    -0.268 OA
ATOM      6  H   UNL A   1      33.931  30.227  24.059  1.00  0.00     0.163 HD
BRANCH   4   7
ATOM      7  C   UNL A   1      33.242  27.170  23.190  1.00  0.00     0.126 A 
ATOM      8  C   UNL A   1      33.080  26.101  24.055  1.00  0.00     0.011 A 
ATOM      9  C   UNL A   1      32.354  25.144  23.324  1.00  0.00     0.140 A 
ATOM     10  N   UNL A   1      32.096  25.548  22.080  1.00  0.00    -0.183 NA
ATOM     11  N   UNL A   1      32.642  26.777  22.024  1.00  0.00    -0.273 N 
ATOM     12  H   UNL A   1      32.613  27.343  21.218  1.00  0.00     0.190 HD
BRANCH   8  13
ATOM     13  C   UNL A   1      33.565  26.066  25.455  1.00  0.00     0.069 C 
ATOM     14  O   UNL A   1      30.870  27.807  27.534  1.00  0.00    -0.275 OA
ATOM     15  C   UNL A   1      31.424  26.901  26.902  1.00  0.00     0.226 C 
ATOM     16  C   UNL A   1      32.863  27.120  26.349  1.00  0.00     0.114 C 
ATOM     17  N   UNL A   1      30.779  25.688  26.833  1.00  0.00    -0.311 N 
ATOM     18  C   UNL A   1      31.550  24.596  26.573  1.00  0.00     0.132 A 
ATOM     19  H   UNL A   1      29.807  25.613  26.965  1.00  0.00     0.171 HD
ATOM     20  C   UNL A   1      33.196  24.739  25.946  1.00  0.00     0.031 A 
ATOM     21  N   UNL A   1      31.167  22.795  26.748  1.00  0.00    -0.262 N 
ATOM     22  C   UNL A   1      33.849  22.924  25.582  1.00  0.00     0.108 A 
ATOM     23  N   UNL A   1      32.603  21.777  26.063  1.00  0.00    -0.173 NA
ATOM     24  H   UNL A   1      30.343  22.425  27.137  1.00  0.00     0.192 HD
BRANCH  22  25
ATOM     25  C   UNL A   1      35.036  22.633  24.751  1.00  0.00     0.055 A 
ATOM     26  C   UNL A   1      35.382  23.377  23.649  1.00  0.00     0.022 A 
ATOM     27  S   UNL A   1      36.169  21.429  25.131  1.00  0.00    -0.142 S 
ATOM     28  C   UNL A   1      36.658  22.984  23.147  1.00  0.00     0.012 A 
ATOM     29  C   UNL A   1      37.163  21.889  23.815  1.00  0.00     0.065 A 
ENDBRANCH  22  25
ENDBRANCH   8  13
ENDBRANCH   4   7
ENDBRANCH   2   3
ENDBRANCH   1   2
BRANCH   1  30
ATOM     30  C   UNL A   1      33.120  31.995  27.266  1.00  0.00     0.118 C 
BRANCH  30  31
ATOM     31  N   UNL A   1      32.760  33.358  27.625  1.00  0.00    -0.352 N 
ATOM     32  C   UNL A   1      33.158  33.991  28.787  1.00  0.00     0.251 C 
ATOM     33  H   UNL A   1      32.195  33.863  26.997  1.00  0.00     0.163 HD
ATOM     34  O   UNL A   1      32.529  34.905  29.296  1.00  0.00    -0.269 OA
BRANCH  32  35
ATOM     35  C   UNL A   1      34.478  33.583  29.294  1.00  0.00     0.039 A 
ATOM     36  C   UNL A   1      34.682  32.585  30.238  1.00  0.00     0.014 A 
ATOM     37  C   UNL A   1      35.547  34.161  28.616  1.00  0.00     0.014 A 
ATOM     38  C   UNL A   1      36.008  32.233  30.516  1.00  0.00     0.010 A 
ATOM     39  C   UNL A   1      36.709  33.452  28.598  1.00  0.00     0.010 A 
ATOM     40  C   UNL A   1      37.058  32.725  29.702  1.00  0.00    -0.014 A 
BRANCH  40  41
ATOM     41  C   UNL A   1      38.433  32.212  29.682  1.00  0.00     0.031 A 
ATOM     42  C   UNL A   1      38.401  30.784  29.289  1.00  0.00     0.074 A 
ATOM     43  C   UNL A   1      39.578  32.922  29.924  1.00  0.00     0.049 A 
ATOM     44  N   UNL A   1      38.267  29.839  30.153  1.00  0.00    -0.248 NA
ATOM     45  C   UNL A   1      38.122  30.344  27.910  1.00  0.00     0.031 C 
ATOM     46  C   UNL A   1      39.802  34.358  30.171  1.00  0.00     0.029 A 
ATOM     47  N   UNL A   1      40.862  32.437  30.053  1.00  0.00    -0.354 N 
ATOM     48  C   UNL A   1      38.223  28.658  29.443  1.00  0.00     0.074 A 
ATOM     49  C   UNL A   1      37.927  29.029  28.084  1.00  0.00     0.031 C 
ATOM     50  C   UNL A   1      41.137  34.643  30.197  1.00  0.00     0.029 A 
ATOM     51  C   UNL A   1      41.894  33.402  30.127  1.00  0.00     0.049 A 
ATOM     52  H   UNL A   1      41.050  31.471  30.091  1.00  0.00     0.167 HD
ATOM     53  C   UNL A   1      38.756  27.553  30.028  1.00  0.00     0.031 A 
ATOM     54  C   UNL A   1      43.237  33.190  30.345  1.00  0.00     0.031 A 
ATOM     55  C   UNL A   1      38.954  27.788  31.446  1.00  0.00     0.049 A 
ATOM     56  C   UNL A   1      43.348  31.857  30.992  1.00  0.00     0.074 A 
ATOM     57  C   UNL A   1      38.115  28.082  32.504  1.00  0.00     0.029 A 
ATOM     58  N   UNL A   1      40.196  28.275  31.788  1.00  0.00    -0.354 N 
ATOM     59  N   UNL A   1      42.921  31.653  32.205  1.00  0.00    -0.248 NA
ATOM     60  C   UNL A   1      43.355  30.705  30.103  1.00  0.00     0.031 C 
ATOM     61  C   UNL A   1      38.780  29.120  33.229  1.00  0.00     0.029 A 
ATOM     62  C   UNL A   1      40.053  29.300  32.688  1.00  0.00     0.049 A 
ATOM     63  H   UNL A   1      41.054  27.939  31.440  1.00  0.00     0.167 HD
ATOM     64  C   UNL A   1      42.148  30.510  32.096  1.00  0.00     0.074 A 
ATOM     65  C   UNL A   1      42.463  29.962  30.767  1.00  0.00     0.031 C 
ATOM     66  C   UNL A   1      41.068  30.306  32.909  1.00  0.00     0.031 A 
BRANCH  53  67
ATOM     67  C   UNL A   1      39.585  26.550  29.272  1.00  0.00    -0.014 A 
ATOM     68  C   UNL A   1      40.873  26.938  28.863  1.00  0.00     0.009 A 
ATOM     69  C   UNL A   1      39.051  25.387  28.685  1.00  0.00     0.009 A 
ATOM     70  C   UNL A   1      41.563  26.235  27.870  1.00  0.00     0.001 A 
ATOM     71  C   UNL A   1      39.751  24.668  27.712  1.00  0.00     0.001 A 
ATOM     72  C   UNL A   1      40.998  25.105  27.291  1.00  0.00     0.000 A 
ENDBRANCH  53  67
BRANCH  54  73
ATOM     73  C   UNL A   1      44.443  33.745  29.638  1.00  0.00    -0.014 A 
ATOM     74  C   UNL A   1      44.336  34.520  28.453  1.00  0.00     0.009 A 
ATOM     75  C   UNL A   1      45.676  33.793  30.303  1.00  0.00     0.009 A 
ATOM     76  C   UNL A   1      45.395  35.334  27.998  1.00  0.00     0.001 A 
ATOM     77  C   UNL A   1      46.727  34.613  29.857  1.00  0.00     0.001 A 
ATOM     78  C   UNL A   1      46.584  35.397  28.716  1.00  0.00     0.000 A 
ENDBRANCH  54  73
BRANCH  66  79
ATOM     79  C   UNL A   1      40.854  31.258  34.065  1.00  0.00    -0.014 A 
ATOM     80  C   UNL A   1      40.094  32.445  34.017  1.00  0.00     0.009 A 
ATOM     81  C   UNL A   1      41.353  30.849  35.309  1.00  0.00     0.009 A 
ATOM     82  C   UNL A   1      39.881  33.208  35.176  1.00  0.00     0.001 A 
ATOM     83  C   UNL A   1      41.126  31.596  36.463  1.00  0.00     0.001 A 
ATOM     84  C   UNL A   1      40.400  32.782  36.398  1.00  0.00     0.000 A 
ENDBRANCH  66  79
ENDBRANCH  40  41
ENDBRANCH  32  35
ENDBRANCH  30  31
ENDBRANCH   1  30
TORSDOF 12
ENDMDL
