MODEL 1
REMARK VINA RESULT:     -11.8      0.000      0.000
REMARK SMILES CC[C@@H]1CCCN(S(=O)(=O)c2cc(C(=O)NCCCNC(=O)c3ccc(-c4c5nc(c(-c6ccccc6)c6ccc([nH]6)c(-c6ccccc6)c6nc(c(-c7ccccc7)c7ccc4[nH]7)C=C6)C=C5)cc3)ccc2F)C1
REMARK SMILES IDX 17 1 16 2 14 3 15 4 13 6 11 7 12 8 73 9 72 10 74 11 71 12
REMARK SMILES IDX 8 13 9 14 10 15 7 16 3 17 4 18 75 19 5 20 6 21 2 22 1 23
REMARK SMILES IDX 18 24 19 25 20 26 21 27 22 29 23 30 24 31 70 32 25 33 69 34
REMARK SMILES IDX 26 35 27 36 28 37 63 38 29 39 68 40 62 41 64 42 30 43 67 44
REMARK SMILES IDX 61 45 60 46 31 48 53 49 38 50 52 51 39 52 42 53 51 54 65 55
REMARK SMILES IDX 40 56 41 57 50 59 66 60 43 61 32 62 33 63 37 64 34 65 36 66
REMARK SMILES IDX 35 67 54 68 55 69 59 70 56 71 58 72 57 73 44 74 45 75 49 76
REMARK SMILES IDX 46 77 48 78 47 79
REMARK H PARENT 16 5 20 28 64 47 42 58
REMARK Flexibility Score: inf
ROOT
ATOM      1  C   UNL A   1      35.719  20.491  25.043  1.00  0.00     0.118 C 
ENDROOT
BRANCH   1   2
ATOM      2  N   UNL A   1      34.634  19.553  25.262  1.00  0.00    -0.352 N 
ATOM      3  C   UNL A   1      33.285  19.606  25.017  1.00  0.00     0.251 C 
ATOM      4  O   UNL A   1      32.649  18.567  25.200  1.00  0.00    -0.269 OA
ATOM      5  H   UNL A   1      34.926  18.706  25.670  1.00  0.00     0.163 HD
BRANCH   3   6
ATOM      6  C   UNL A   1      32.547  20.824  24.560  1.00  0.00     0.041 A 
ATOM      7  C   UNL A   1      31.526  22.953  25.204  1.00  0.00     0.119 A 
ATOM      8  C   UNL A   1      32.113  21.725  25.554  1.00  0.00     0.038 A 
ATOM      9  C   UNL A   1      31.386  23.289  23.865  1.00  0.00     0.143 A 
ATOM     10  C   UNL A   1      31.775  22.400  22.874  1.00  0.00     0.041 A 
ATOM     11  F   UNL A   1      30.869  24.463  23.482  1.00  0.00    -0.206 F 
ATOM     12  C   UNL A   1      32.368  21.183  23.220  1.00  0.00     0.017 A 
BRANCH   7  13
ATOM     13  S   UNL A   1      31.186  24.168  26.439  1.00  0.00     0.246 S 
ATOM     14  O   UNL A   1      31.834  23.757  27.668  1.00  0.00    -0.207 OA
ATOM     15  O   UNL A   1      29.758  24.409  26.423  1.00  0.00    -0.207 OA
BRANCH  13  16
ATOM     16  N   UNL A   1      31.942  25.633  25.909  1.00  0.00    -0.197 NA
ATOM     17  C   UNL A   1      31.798  28.155  26.026  1.00  0.00     0.004 C 
ATOM     18  C   UNL A   1      33.320  28.204  26.211  1.00  0.00     0.006 C 
ATOM     19  C   UNL A   1      31.240  26.816  26.526  1.00  0.00     0.106 C 
ATOM     20  C   UNL A   1      34.002  26.994  25.598  1.00  0.00     0.017 C 
ATOM     21  C   UNL A   1      33.414  25.697  26.138  1.00  0.00     0.102 C 
BRANCH  17  22
ATOM     22  C   UNL A   1      31.348  28.576  24.608  1.00  0.00     0.001 C 
ATOM     23  C   UNL A   1      30.205  27.802  23.968  1.00  0.00     0.004 C 
ENDBRANCH  17  22
ENDBRANCH  13  16
ENDBRANCH   7  13
ENDBRANCH   3   6
ENDBRANCH   1   2
BRANCH   1  24
ATOM     24  C   UNL A   1      37.037  19.786  24.716  1.00  0.00     0.042 C 
BRANCH  24  25
ATOM     25  C   UNL A   1      38.264  20.414  25.372  1.00  0.00     0.118 C 
BRANCH  25  26
ATOM     26  N   UNL A   1      39.332  19.446  25.573  1.00  0.00    -0.352 N 
ATOM     27  C   UNL A   1      40.634  19.623  25.967  1.00  0.00     0.251 C 
ATOM     28  H   UNL A   1      39.078  18.511  25.399  1.00  0.00     0.163 HD
ATOM     29  O   UNL A   1      41.421  18.685  25.861  1.00  0.00    -0.269 OA
BRANCH  27  30
ATOM     30  C   UNL A   1      41.113  20.914  26.514  1.00  0.00     0.039 A 
ATOM     31  C   UNL A   1      40.972  21.151  27.887  1.00  0.00     0.014 A 
ATOM     32  C   UNL A   1      41.618  21.922  25.688  1.00  0.00     0.014 A 
ATOM     33  C   UNL A   1      41.364  22.376  28.434  1.00  0.00     0.010 A 
ATOM     34  C   UNL A   1      42.068  23.122  26.243  1.00  0.00     0.010 A 
ATOM     35  C   UNL A   1      41.933  23.366  27.618  1.00  0.00    -0.014 A 
BRANCH  35  36
ATOM     36  C   UNL A   1      42.364  24.671  28.179  1.00  0.00     0.031 A 
ATOM     37  C   UNL A   1      41.361  25.773  28.389  1.00  0.00     0.074 A 
ATOM     38  C   UNL A   1      43.666  24.889  28.447  1.00  0.00     0.049 A 
ATOM     39  N   UNL A   1      41.558  27.005  28.790  1.00  0.00    -0.248 NA
ATOM     40  C   UNL A   1      39.956  25.456  28.087  1.00  0.00     0.031 C 
ATOM     41  C   UNL A   1      44.745  23.916  28.265  1.00  0.00     0.029 A 
ATOM     42  N   UNL A   1      44.304  26.008  28.922  1.00  0.00    -0.354 N 
ATOM     43  C   UNL A   1      40.308  27.614  28.762  1.00  0.00     0.074 A 
ATOM     44  C   UNL A   1      39.369  26.628  28.274  1.00  0.00     0.031 C 
ATOM     45  C   UNL A   1      45.907  24.474  28.640  1.00  0.00     0.029 A 
ATOM     46  C   UNL A   1      45.663  25.852  29.053  1.00  0.00     0.049 A 
ATOM     47  H   UNL A   1      43.833  26.843  29.145  1.00  0.00     0.167 HD
ATOM     48  C   UNL A   1      39.971  28.875  29.122  1.00  0.00     0.031 A 
ATOM     49  C   UNL A   1      46.607  26.723  29.455  1.00  0.00     0.031 A 
ATOM     50  C   UNL A   1      40.898  29.851  29.629  1.00  0.00     0.049 A 
ATOM     51  C   UNL A   1      46.207  28.114  29.855  1.00  0.00     0.074 A 
ATOM     52  C   UNL A   1      40.642  31.139  30.069  1.00  0.00     0.029 A 
ATOM     53  N   UNL A   1      42.262  29.645  29.765  1.00  0.00    -0.354 N 
ATOM     54  N   UNL A   1      45.015  28.659  29.867  1.00  0.00    -0.248 NA
ATOM     55  C   UNL A   1      47.283  29.008  30.305  1.00  0.00     0.031 C 
ATOM     56  C   UNL A   1      41.857  31.724  30.441  1.00  0.00     0.029 A 
ATOM     57  C   UNL A   1      42.863  30.785  30.271  1.00  0.00     0.049 A 
ATOM     58  H   UNL A   1      42.734  28.811  29.538  1.00  0.00     0.167 HD
ATOM     59  C   UNL A   1      45.194  29.948  30.352  1.00  0.00     0.074 A 
ATOM     60  C   UNL A   1      46.607  30.100  30.631  1.00  0.00     0.031 C 
ATOM     61  C   UNL A   1      44.269  30.919  30.548  1.00  0.00     0.031 A 
BRANCH  48  62
ATOM     62  C   UNL A   1      38.530  29.274  28.971  1.00  0.00    -0.014 A 
ATOM     63  C   UNL A   1      37.646  29.232  30.061  1.00  0.00     0.009 A 
ATOM     64  C   UNL A   1      38.056  29.723  27.728  1.00  0.00     0.009 A 
ATOM     65  C   UNL A   1      36.307  29.597  29.900  1.00  0.00     0.001 A 
ATOM     66  C   UNL A   1      36.725  30.113  27.577  1.00  0.00     0.001 A 
ATOM     67  C   UNL A   1      35.849  30.041  28.660  1.00  0.00     0.000 A 
ENDBRANCH  48  62
BRANCH  49  68
ATOM     68  C   UNL A   1      48.029  26.298  29.518  1.00  0.00    -0.014 A 
ATOM     69  C   UNL A   1      48.556  25.762  30.702  1.00  0.00     0.009 A 
ATOM     70  C   UNL A   1      48.862  26.426  28.396  1.00  0.00     0.009 A 
ATOM     71  C   UNL A   1      49.899  25.384  30.770  1.00  0.00     0.001 A 
ATOM     72  C   UNL A   1      50.199  26.023  28.460  1.00  0.00     0.001 A 
ATOM     73  C   UNL A   1      50.718  25.511  29.648  1.00  0.00     0.000 A 
ENDBRANCH  49  68
BRANCH  61  74
ATOM     74  C   UNL A   1      44.751  32.217  31.126  1.00  0.00    -0.014 A 
ATOM     75  C   UNL A   1      45.138  33.282  30.299  1.00  0.00     0.009 A 
ATOM     76  C   UNL A   1      44.781  32.388  32.518  1.00  0.00     0.009 A 
ATOM     77  C   UNL A   1      45.576  34.485  30.858  1.00  0.00     0.001 A 
ATOM     78  C   UNL A   1      45.196  33.599  33.073  1.00  0.00     0.001 A 
ATOM     79  C   UNL A   1      45.600  34.643  32.244  1.00  0.00     0.000 A 
ENDBRANCH  61  74
ENDBRANCH  35  36
ENDBRANCH  27  30
ENDBRANCH  25  26
ENDBRANCH  24  25
ENDBRANCH   1  24
TORSDOF 13
ENDMDL
MODEL 2
REMARK VINA RESULT:     -11.6      3.438      8.687
REMARK SMILES CC[C@@H]1CCCN(S(=O)(=O)c2cc(C(=O)NCCCNC(=O)c3ccc(-c4c5nc(c(-c6ccccc6)c6ccc([nH]6)c(-c6ccccc6)c6nc(c(-c7ccccc7)c7ccc4[nH]7)C=C6)C=C5)cc3)ccc2F)C1
REMARK SMILES IDX 17 1 16 2 14 3 15 4 13 6 11 7 12 8 73 9 72 10 74 11 71 12
REMARK SMILES IDX 8 13 9 14 10 15 7 16 3 17 4 18 75 19 5 20 6 21 2 22 1 23
REMARK SMILES IDX 18 24 19 25 20 26 21 27 22 29 23 30 24 31 70 32 25 33 69 34
REMARK SMILES IDX 26 35 27 36 28 37 63 38 29 39 68 40 62 41 64 42 30 43 67 44
REMARK SMILES IDX 61 45 60 46 31 48 53 49 38 50 52 51 39 52 42 53 51 54 65 55
REMARK SMILES IDX 40 56 41 57 50 59 66 60 43 61 32 62 33 63 37 64 34 65 36 66
REMARK SMILES IDX 35 67 54 68 55 69 59 70 56 71 58 72 57 73 44 74 45 75 49 76
REMARK SMILES IDX 46 77 48 78 47 79
REMARK H PARENT 16 5 20 28 64 47 42 58
REMARK Flexibility Score: inf
ROOT
ATOM      1  C   UNL A   1      31.381  30.024  25.134  1.00  0.00     0.118 C 
ENDROOT
BRANCH   1   2
ATOM      2  N   UNL A   1      30.654  30.211  23.892  1.00  0.00    -0.352 N 
ATOM      3  C   UNL A   1      30.068  29.340  23.009  1.00  0.00     0.251 C 
ATOM      4  O   UNL A   1      29.399  29.839  22.102  1.00  0.00    -0.269 OA
ATOM      5  H   UNL A   1      30.563  31.156  23.631  1.00  0.00     0.163 HD
BRANCH   3   6
ATOM      6  C   UNL A   1      30.194  27.851  23.067  1.00  0.00     0.041 A 
ATOM      7  C   UNL A   1      31.621  25.907  22.654  1.00  0.00     0.119 A 
ATOM      8  C   UNL A   1      31.366  27.282  22.526  1.00  0.00     0.038 A 
ATOM      9  C   UNL A   1      30.717  25.101  23.331  1.00  0.00     0.143 A 
ATOM     10  C   UNL A   1      29.543  25.637  23.838  1.00  0.00     0.041 A 
ATOM     11  F   UNL A   1      30.935  23.792  23.512  1.00  0.00    -0.206 F 
ATOM     12  C   UNL A   1      29.292  27.006  23.721  1.00  0.00     0.017 A 
BRANCH   7  13
ATOM     13  S   UNL A   1      33.183  25.236  22.174  1.00  0.00     0.246 S 
ATOM     14  O   UNL A   1      34.081  26.339  21.895  1.00  0.00    -0.207 OA
ATOM     15  O   UNL A   1      32.928  24.240  21.154  1.00  0.00    -0.207 OA
BRANCH  13  16
ATOM     16  N   UNL A   1      33.800  24.389  23.553  1.00  0.00    -0.197 NA
ATOM     17  C   UNL A   1      35.281  22.469  24.265  1.00  0.00     0.004 C 
ATOM     18  C   UNL A   1      35.857  23.361  25.371  1.00  0.00     0.006 C 
ATOM     19  C   UNL A   1      34.765  23.323  23.101  1.00  0.00     0.106 C 
ATOM     20  C   UNL A   1      34.874  24.436  25.797  1.00  0.00     0.017 C 
ATOM     21  C   UNL A   1      34.404  25.258  24.603  1.00  0.00     0.102 C 
BRANCH  17  22
ATOM     22  C   UNL A   1      34.294  21.405  24.799  1.00  0.00     0.001 C 
ATOM     23  C   UNL A   1      33.068  21.089  23.956  1.00  0.00     0.004 C 
ENDBRANCH  17  22
ENDBRANCH  13  16
ENDBRANCH   7  13
ENDBRANCH   3   6
ENDBRANCH   1   2
BRANCH   1  24
ATOM     24  C   UNL A   1      31.096  31.136  26.146  1.00  0.00     0.042 C 
BRANCH  24  25
ATOM     25  C   UNL A   1      32.332  31.648  26.880  1.00  0.00     0.118 C 
BRANCH  25  26
ATOM     26  N   UNL A   1      32.197  33.044  27.272  1.00  0.00    -0.352 N 
ATOM     27  C   UNL A   1      32.956  33.809  28.120  1.00  0.00     0.251 C 
ATOM     28  H   UNL A   1      31.437  33.514  26.860  1.00  0.00     0.163 HD
ATOM     29  O   UNL A   1      32.530  34.907  28.473  1.00  0.00    -0.269 OA
BRANCH  27  30
ATOM     30  C   UNL A   1      34.271  33.346  28.621  1.00  0.00     0.039 A 
ATOM     31  C   UNL A   1      35.410  33.614  27.852  1.00  0.00     0.014 A 
ATOM     32  C   UNL A   1      34.388  32.582  29.786  1.00  0.00     0.014 A 
ATOM     33  C   UNL A   1      36.663  33.150  28.265  1.00  0.00     0.010 A 
ATOM     34  C   UNL A   1      35.646  32.172  30.230  1.00  0.00     0.010 A 
ATOM     35  C   UNL A   1      36.794  32.439  29.468  1.00  0.00    -0.014 A 
BRANCH  35  36
ATOM     36  C   UNL A   1      38.115  31.944  29.929  1.00  0.00     0.031 A 
ATOM     37  C   UNL A   1      38.651  30.633  29.419  1.00  0.00     0.074 A 
ATOM     38  C   UNL A   1      38.809  32.641  30.848  1.00  0.00     0.049 A 
ATOM     39  N   UNL A   1      39.743  29.997  29.764  1.00  0.00    -0.248 NA
ATOM     40  C   UNL A   1      37.844  29.936  28.406  1.00  0.00     0.031 C 
ATOM     41  C   UNL A   1      38.392  33.912  31.443  1.00  0.00     0.029 A 
ATOM     42  N   UNL A   1      40.012  32.370  31.452  1.00  0.00    -0.354 N 
ATOM     43  C   UNL A   1      39.738  28.815  29.032  1.00  0.00     0.074 A 
ATOM     44  C   UNL A   1      38.520  28.808  28.251  1.00  0.00     0.031 C 
ATOM     45  C   UNL A   1      39.331  34.319  32.313  1.00  0.00     0.029 A 
ATOM     46  C   UNL A   1      40.397  33.323  32.364  1.00  0.00     0.049 A 
ATOM     47  H   UNL A   1      40.548  31.569  31.251  1.00  0.00     0.167 HD
ATOM     48  C   UNL A   1      40.668  27.831  29.002  1.00  0.00     0.031 A 
ATOM     49  C   UNL A   1      41.482  33.385  33.158  1.00  0.00     0.031 A 
ATOM     50  C   UNL A   1      41.890  27.844  29.760  1.00  0.00     0.049 A 
ATOM     51  C   UNL A   1      42.502  32.284  33.102  1.00  0.00     0.074 A 
ATOM     52  C   UNL A   1      42.919  26.918  29.757  1.00  0.00     0.029 A 
ATOM     53  N   UNL A   1      42.249  28.838  30.656  1.00  0.00    -0.354 N 
ATOM     54  N   UNL A   1      42.504  31.197  32.369  1.00  0.00    -0.248 NA
ATOM     55  C   UNL A   1      43.674  32.424  33.977  1.00  0.00     0.031 C 
ATOM     56  C   UNL A   1      43.886  27.335  30.677  1.00  0.00     0.029 A 
ATOM     57  C   UNL A   1      43.478  28.542  31.222  1.00  0.00     0.049 A 
ATOM     58  H   UNL A   1      41.712  29.638  30.860  1.00  0.00     0.167 HD
ATOM     59  C   UNL A   1      43.689  30.539  32.674  1.00  0.00     0.074 A 
ATOM     60  C   UNL A   1      44.383  31.353  33.650  1.00  0.00     0.031 C 
ATOM     61  C   UNL A   1      44.158  29.365  32.188  1.00  0.00     0.031 A 
BRANCH  48  62
ATOM     62  C   UNL A   1      40.391  26.647  28.120  1.00  0.00    -0.014 A 
ATOM     63  C   UNL A   1      40.917  26.568  26.821  1.00  0.00     0.009 A 
ATOM     64  C   UNL A   1      39.614  25.581  28.604  1.00  0.00     0.009 A 
ATOM     65  C   UNL A   1      40.641  25.464  26.011  1.00  0.00     0.001 A 
ATOM     66  C   UNL A   1      39.363  24.467  27.802  1.00  0.00     0.001 A 
ATOM     67  C   UNL A   1      39.868  24.413  26.504  1.00  0.00     0.000 A 
ENDBRANCH  48  62
BRANCH  49  68
ATOM     68  C   UNL A   1      41.672  34.546  34.065  1.00  0.00    -0.014 A 
ATOM     69  C   UNL A   1      41.177  34.507  35.377  1.00  0.00     0.009 A 
ATOM     70  C   UNL A   1      42.348  35.693  33.625  1.00  0.00     0.009 A 
ATOM     71  C   UNL A   1      41.334  35.606  36.225  1.00  0.00     0.001 A 
ATOM     72  C   UNL A   1      42.525  36.782  34.483  1.00  0.00     0.001 A 
ATOM     73  C   UNL A   1      42.011  36.740  35.778  1.00  0.00     0.000 A 
ENDBRANCH  49  68
BRANCH  61  74
ATOM     74  C   UNL A   1      45.502  28.910  32.676  1.00  0.00    -0.014 A 
ATOM     75  C   UNL A   1      45.623  28.046  33.775  1.00  0.00     0.009 A 
ATOM     76  C   UNL A   1      46.661  29.322  32.001  1.00  0.00     0.009 A 
ATOM     77  C   UNL A   1      46.883  27.629  34.207  1.00  0.00     0.001 A 
ATOM     78  C   UNL A   1      47.918  28.884  32.420  1.00  0.00     0.001 A 
ATOM     79  C   UNL A   1      48.029  28.044  33.527  1.00  0.00     0.000 A 
ENDBRANCH  61  74
ENDBRANCH  35  36
ENDBRANCH  27  30
ENDBRANCH  25  26
ENDBRANCH  24  25
ENDBRANCH   1  24
TORSDOF 13
ENDMDL
MODEL 3
REMARK VINA RESULT:     -11.5      1.798      2.476
REMARK SMILES CC[C@@H]1CCCN(S(=O)(=O)c2cc(C(=O)NCCCNC(=O)c3ccc(-c4c5nc(c(-c6ccccc6)c6ccc([nH]6)c(-c6ccccc6)c6nc(c(-c7ccccc7)c7ccc4[nH]7)C=C6)C=C5)cc3)ccc2F)C1
REMARK SMILES IDX 17 1 16 2 14 3 15 4 13 6 11 7 12 8 73 9 72 10 74 11 71 12
REMARK SMILES IDX 8 13 9 14 10 15 7 16 3 17 4 18 75 19 5 20 6 21 2 22 1 23
REMARK SMILES IDX 18 24 19 25 20 26 21 27 22 29 23 30 24 31 70 32 25 33 69 34
REMARK SMILES IDX 26 35 27 36 28 37 63 38 29 39 68 40 62 41 64 42 30 43 67 44
REMARK SMILES IDX 61 45 60 46 31 48 53 49 38 50 52 51 39 52 42 53 51 54 65 55
REMARK SMILES IDX 40 56 41 57 50 59 66 60 43 61 32 62 33 63 37 64 34 65 36 66
REMARK SMILES IDX 35 67 54 68 55 69 59 70 56 71 58 72 57 73 44 74 45 75 49 76
REMARK SMILES IDX 46 77 48 78 47 79
REMARK H PARENT 16 5 20 28 64 47 42 58
REMARK Flexibility Score: inf
ROOT
ATOM      1  C   UNL A   1      37.307  20.991  24.537  1.00  0.00     0.118 C 
ENDROOT
BRANCH   1   2
ATOM      2  N   UNL A   1      37.830  22.232  25.077  1.00  0.00    -0.352 N 
ATOM      3  C   UNL A   1      37.239  23.318  25.671  1.00  0.00     0.251 C 
ATOM      4  O   UNL A   1      37.995  24.165  26.149  1.00  0.00    -0.269 OA
ATOM      5  H   UNL A   1      38.808  22.309  25.001  1.00  0.00     0.163 HD
BRANCH   3   6
ATOM      6  C   UNL A   1      35.764  23.542  25.766  1.00  0.00     0.041 A 
ATOM      7  C   UNL A   1      33.745  24.345  24.640  1.00  0.00     0.119 A 
ATOM      8  C   UNL A   1      35.142  24.207  24.688  1.00  0.00     0.038 A 
ATOM      9  C   UNL A   1      32.966  23.809  25.656  1.00  0.00     0.143 A 
ATOM     10  C   UNL A   1      33.563  23.183  26.741  1.00  0.00     0.041 A 
ATOM     11  F   UNL A   1      31.630  23.881  25.634  1.00  0.00    -0.206 F 
ATOM     12  C   UNL A   1      34.951  23.036  26.787  1.00  0.00     0.017 A 
BRANCH   7  13
ATOM     13  S   UNL A   1      32.957  24.977  23.192  1.00  0.00     0.246 S 
ATOM     14  O   UNL A   1      31.933  24.035  22.786  1.00  0.00    -0.207 OA
ATOM     15  O   UNL A   1      34.002  25.349  22.261  1.00  0.00    -0.207 OA
BRANCH  13  16
ATOM     16  N   UNL A   1      32.166  26.444  23.663  1.00  0.00    -0.197 NA
ATOM     17  C   UNL A   1      32.418  28.959  23.734  1.00  0.00     0.004 C 
ATOM     18  C   UNL A   1      30.962  29.089  23.271  1.00  0.00     0.006 C 
ATOM     19  C   UNL A   1      33.013  27.626  23.264  1.00  0.00     0.106 C 
ATOM     20  C   UNL A   1      30.134  27.880  23.668  1.00  0.00     0.017 C 
ATOM     21  C   UNL A   1      30.767  26.589  23.166  1.00  0.00     0.102 C 
BRANCH  17  22
ATOM     22  C   UNL A   1      32.606  29.280  25.235  1.00  0.00     0.001 C 
ATOM     23  C   UNL A   1      33.880  28.793  25.910  1.00  0.00     0.004 C 
ENDBRANCH  17  22
ENDBRANCH  13  16
ENDBRANCH   7  13
ENDBRANCH   3   6
ENDBRANCH   1   2
BRANCH   1  24
ATOM     24  C   UNL A   1      38.184  19.788  24.893  1.00  0.00     0.042 C 
BRANCH  24  25
ATOM     25  C   UNL A   1      39.167  20.045  26.032  1.00  0.00     0.118 C 
BRANCH  25  26
ATOM     26  N   UNL A   1      40.384  19.258  25.892  1.00  0.00    -0.352 N 
ATOM     27  C   UNL A   1      41.702  19.632  25.974  1.00  0.00     0.251 C 
ATOM     28  H   UNL A   1      40.237  18.302  25.710  1.00  0.00     0.163 HD
ATOM     29  O   UNL A   1      42.568  18.840  25.605  1.00  0.00    -0.269 OA
BRANCH  27  30
ATOM     30  C   UNL A   1      42.104  20.960  26.491  1.00  0.00     0.039 A 
ATOM     31  C   UNL A   1      42.152  21.150  27.877  1.00  0.00     0.014 A 
ATOM     32  C   UNL A   1      42.351  22.039  25.637  1.00  0.00     0.014 A 
ATOM     33  C   UNL A   1      42.478  22.403  28.404  1.00  0.00     0.010 A 
ATOM     34  C   UNL A   1      42.737  23.274  26.163  1.00  0.00     0.010 A 
ATOM     35  C   UNL A   1      42.791  23.471  27.550  1.00  0.00    -0.014 A 
BRANCH  35  36
ATOM     36  C   UNL A   1      43.147  24.808  28.089  1.00  0.00     0.031 A 
ATOM     37  C   UNL A   1      42.074  25.833  28.342  1.00  0.00     0.074 A 
ATOM     38  C   UNL A   1      44.439  25.125  28.298  1.00  0.00     0.049 A 
ATOM     39  N   UNL A   1      42.195  27.077  28.732  1.00  0.00    -0.248 NA
ATOM     40  C   UNL A   1      40.685  25.410  28.104  1.00  0.00     0.031 C 
ATOM     41  C   UNL A   1      45.579  24.234  28.070  1.00  0.00     0.029 A 
ATOM     42  N   UNL A   1      45.012  26.291  28.742  1.00  0.00    -0.354 N 
ATOM     43  C   UNL A   1      40.903  27.591  28.759  1.00  0.00     0.074 A 
ATOM     44  C   UNL A   1      40.020  26.535  28.315  1.00  0.00     0.031 C 
ATOM     45  C   UNL A   1      46.712  24.880  28.391  1.00  0.00     0.029 A 
ATOM     46  C   UNL A   1      46.383  26.238  28.813  1.00  0.00     0.049 A 
ATOM     47  H   UNL A   1      44.490  27.089  28.985  1.00  0.00     0.167 HD
ATOM     48  C   UNL A   1      40.488  28.825  29.132  1.00  0.00     0.031 A 
ATOM     49  C   UNL A   1      47.276  27.179  29.171  1.00  0.00     0.031 A 
ATOM     50  C   UNL A   1      41.361  29.871  29.594  1.00  0.00     0.049 A 
ATOM     51  C   UNL A   1      46.791  28.539  29.585  1.00  0.00     0.074 A 
ATOM     52  C   UNL A   1      41.029  31.138  30.044  1.00  0.00     0.029 A 
ATOM     53  N   UNL A   1      42.741  29.768  29.670  1.00  0.00    -0.354 N 
ATOM     54  N   UNL A   1      45.562  28.993  29.650  1.00  0.00    -0.248 NA
ATOM     55  C   UNL A   1      47.815  29.513  29.986  1.00  0.00     0.031 C 
ATOM     56  C   UNL A   1      42.212  31.814  30.360  1.00  0.00     0.029 A 
ATOM     57  C   UNL A   1      43.277  30.953  30.146  1.00  0.00     0.049 A 
ATOM     58  H   UNL A   1      43.264  28.971  29.423  1.00  0.00     0.167 HD
ATOM     59  C   UNL A   1      45.665  30.294  30.124  1.00  0.00     0.074 A 
ATOM     60  C   UNL A   1      47.074  30.553  30.340  1.00  0.00     0.031 C 
ATOM     61  C   UNL A   1      44.680  31.193  30.359  1.00  0.00     0.031 A 
BRANCH  48  62
ATOM     62  C   UNL A   1      39.016  29.114  29.044  1.00  0.00    -0.014 A 
ATOM     63  C   UNL A   1      38.179  28.965  30.161  1.00  0.00     0.009 A 
ATOM     64  C   UNL A   1      38.463  29.566  27.836  1.00  0.00     0.009 A 
ATOM     65  C   UNL A   1      36.811  29.229  30.060  1.00  0.00     0.001 A 
ATOM     66  C   UNL A   1      37.101  29.854  27.745  1.00  0.00     0.001 A 
ATOM     67  C   UNL A   1      36.275  29.677  28.853  1.00  0.00     0.000 A 
ENDBRANCH  48  62
BRANCH  49  68
ATOM     68  C   UNL A   1      48.727  26.863  29.170  1.00  0.00    -0.014 A 
ATOM     69  C   UNL A   1      49.503  27.100  28.026  1.00  0.00     0.009 A 
ATOM     70  C   UNL A   1      49.341  26.325  30.311  1.00  0.00     0.009 A 
ATOM     71  C   UNL A   1      50.864  26.782  28.016  1.00  0.00     0.001 A 
ATOM     72  C   UNL A   1      50.707  26.031  30.306  1.00  0.00     0.001 A 
ATOM     73  C   UNL A   1      51.464  26.252  29.158  1.00  0.00     0.000 A 
ENDBRANCH  49  68
BRANCH  61  74
ATOM     74  C   UNL A   1      45.088  32.527  30.913  1.00  0.00    -0.014 A 
ATOM     75  C   UNL A   1      45.221  32.732  32.294  1.00  0.00     0.009 A 
ATOM     76  C   UNL A   1      45.380  33.582  30.035  1.00  0.00     0.009 A 
ATOM     77  C   UNL A   1      45.611  33.979  32.787  1.00  0.00     0.001 A 
ATOM     78  C   UNL A   1      45.793  34.820  30.529  1.00  0.00     0.001 A 
ATOM     79  C   UNL A   1      45.901  35.020  31.904  1.00  0.00     0.000 A 
ENDBRANCH  61  74
ENDBRANCH  35  36
ENDBRANCH  27  30
ENDBRANCH  25  26
ENDBRANCH  24  25
ENDBRANCH   1  24
TORSDOF 13
ENDMDL
