MODEL 1
REMARK VINA RESULT:     -12.3      0.000      0.000
REMARK SMILES CC1(C)[C@H](C(=O)NCCCNC(=O)c2ccc(-c3c4nc(c(-c5ccccc5)c5ccc([nH]5)c(-c5ccccc5)c5nc(c(-c6ccccc6)c6ccc3[nH]6)C=C5)C=C4)cc2)[C@@H]1C(=O)Nc1ccc(NC(=O)C2CCC2)cc1
REMARK SMILES IDX 8 1 7 2 5 3 6 4 4 6 1 7 2 8 3 9 62 10 63 11 64 12 65 13
REMARK SMILES IDX 66 15 67 16 78 17 68 18 77 19 69 20 70 21 71 22 72 24 73 25
REMARK SMILES IDX 74 26 76 27 75 28 9 29 10 30 11 31 12 32 13 34 14 35 15 36
REMARK SMILES IDX 61 37 16 38 60 39 17 40 18 41 19 42 54 43 20 44 59 45 53 46
REMARK SMILES IDX 55 47 21 48 58 49 52 50 51 51 22 53 44 54 29 55 43 56 30 57
REMARK SMILES IDX 33 58 42 59 56 60 31 61 32 62 41 64 57 65 34 66 23 67 24 68
REMARK SMILES IDX 28 69 25 70 27 71 26 72 45 73 46 74 50 75 47 76 49 77 48 78
REMARK SMILES IDX 35 79 36 80 40 81 37 82 39 83 38 84
REMARK H PARENT 7 5 65 14 70 23 11 33 55 52 33 63
REMARK Flexibility Score: inf
ROOT
ATOM      1  C   UNL A   1      32.093  30.501  26.237  1.00  0.00     0.117 C 
ENDROOT
BRANCH   1   2
ATOM      2  N   UNL A   1      31.305  30.156  25.071  1.00  0.00    -0.356 N 
ATOM      3  C   UNL A   1      31.238  29.102  24.213  1.00  0.00     0.224 C 
ATOM      4  O   UNL A   1      30.404  29.221  23.312  1.00  0.00    -0.275 OA
ATOM      5  H   UNL A   1      30.656  30.860  24.843  1.00  0.00     0.163 HD
BRANCH   3   6
ATOM      6  C   UNL A   1      32.026  27.848  24.223  1.00  0.00     0.098 C 
ATOM      7  C   UNL A   1      33.673  26.586  25.728  1.00  0.00     0.013 C 
ATOM      8  C   UNL A   1      32.232  26.929  25.414  1.00  0.00    -0.011 C 
ATOM      9  C   UNL A   1      31.412  27.109  26.669  1.00  0.00     0.013 C 
ATOM     10  C   UNL A   1      31.655  26.406  24.080  1.00  0.00     0.098 C 
BRANCH  10  11
ATOM     11  C   UNL A   1      30.305  25.836  23.897  1.00  0.00     0.228 C 
ATOM     12  O   UNL A   1      29.377  26.558  23.542  1.00  0.00    -0.274 OA
ATOM     13  N   UNL A   1      30.063  24.503  24.155  1.00  0.00    -0.326 N 
ATOM     14  H   UNL A   1      29.118  24.232  24.212  1.00  0.00     0.169 HD
BRANCH  13  15
ATOM     15  C   UNL A   1      31.014  23.496  24.342  1.00  0.00     0.041 A 
ATOM     16  C   UNL A   1      31.614  23.016  23.188  1.00  0.00     0.028 A 
ATOM     17  C   UNL A   1      31.464  23.055  25.582  1.00  0.00     0.028 A 
ATOM     18  C   UNL A   1      32.797  22.301  23.283  1.00  0.00     0.028 A 
ATOM     19  C   UNL A   1      32.535  22.148  25.645  1.00  0.00     0.028 A 
ATOM     20  C   UNL A   1      33.217  21.765  24.481  1.00  0.00     0.041 A 
BRANCH  20  21
ATOM     21  N   UNL A   1      34.286  20.870  24.583  1.00  0.00    -0.326 N 
ATOM     22  C   UNL A   1      35.565  20.949  25.099  1.00  0.00     0.227 C 
ATOM     23  H   UNL A   1      34.083  19.987  24.199  1.00  0.00     0.169 HD
ATOM     24  O   UNL A   1      36.215  19.889  25.004  1.00  0.00    -0.274 OA
BRANCH  22  25
ATOM     25  C   UNL A   1      36.214  22.193  25.764  1.00  0.00     0.079 C 
ATOM     26  C   UNL A   1      37.781  22.226  25.619  1.00  0.00     0.013 C 
ATOM     27  C   UNL A   1      36.287  23.635  25.166  1.00  0.00     0.013 C 
ATOM     28  C   UNL A   1      37.704  23.750  25.734  1.00  0.00     0.002 C 
ENDBRANCH  22  25
ENDBRANCH  20  21
ENDBRANCH  13  15
ENDBRANCH  10  11
ENDBRANCH   3   6
ENDBRANCH   1   2
BRANCH   1  29
ATOM     29  C   UNL A   1      31.652  31.825  26.837  1.00  0.00     0.042 C 
BRANCH  29  30
ATOM     30  C   UNL A   1      32.820  32.643  27.377  1.00  0.00     0.118 C 
BRANCH  30  31
ATOM     31  N   UNL A   1      32.469  34.038  27.633  1.00  0.00    -0.352 N 
ATOM     32  C   UNL A   1      32.987  34.907  28.564  1.00  0.00     0.251 C 
ATOM     33  H   UNL A   1      31.761  34.408  27.058  1.00  0.00     0.163 HD
ATOM     34  O   UNL A   1      32.457  35.996  28.761  1.00  0.00    -0.269 OA
BRANCH  32  35
ATOM     35  C   UNL A   1      34.173  34.503  29.343  1.00  0.00     0.039 A 
ATOM     36  C   UNL A   1      34.006  33.939  30.609  1.00  0.00     0.014 A 
ATOM     37  C   UNL A   1      35.449  34.638  28.791  1.00  0.00     0.014 A 
ATOM     38  C   UNL A   1      35.116  33.430  31.286  1.00  0.00     0.010 A 
ATOM     39  C   UNL A   1      36.534  34.043  29.419  1.00  0.00     0.010 A 
ATOM     40  C   UNL A   1      36.381  33.438  30.676  1.00  0.00    -0.014 A 
BRANCH  40  41
ATOM     41  C   UNL A   1      37.572  32.843  31.331  1.00  0.00     0.031 A 
ATOM     42  C   UNL A   1      38.250  31.657  30.699  1.00  0.00     0.074 A 
ATOM     43  C   UNL A   1      37.991  33.305  32.526  1.00  0.00     0.049 A 
ATOM     44  N   UNL A   1      39.216  30.909  31.168  1.00  0.00    -0.248 NA
ATOM     45  C   UNL A   1      37.751  31.234  29.379  1.00  0.00     0.031 C 
ATOM     46  C   UNL A   1      37.399  34.424  33.263  1.00  0.00     0.029 A 
ATOM     47  N   UNL A   1      39.014  32.880  33.336  1.00  0.00    -0.354 N 
ATOM     48  C   UNL A   1      39.417  29.918  30.217  1.00  0.00     0.074 A 
ATOM     49  C   UNL A   1      38.441  30.123  29.171  1.00  0.00     0.031 C 
ATOM     50  C   UNL A   1      38.086  34.614  34.401  1.00  0.00     0.029 A 
ATOM     51  C   UNL A   1      39.136  33.606  34.497  1.00  0.00     0.049 A 
ATOM     52  H   UNL A   1      39.605  32.127  33.108  1.00  0.00     0.167 HD
ATOM     53  C   UNL A   1      40.349  28.936  30.200  1.00  0.00     0.031 A 
ATOM     54  C   UNL A   1      39.994  33.467  35.525  1.00  0.00     0.031 A 
ATOM     55  C   UNL A   1      41.342  28.748  31.221  1.00  0.00     0.049 A 
ATOM     56  C   UNL A   1      41.019  32.368  35.482  1.00  0.00     0.074 A 
ATOM     57  C   UNL A   1      42.359  27.813  31.274  1.00  0.00     0.029 A 
ATOM     58  N   UNL A   1      41.447  29.522  32.366  1.00  0.00    -0.354 N 
ATOM     59  N   UNL A   1      41.225  31.466  34.552  1.00  0.00    -0.248 NA
ATOM     60  C   UNL A   1      41.937  32.273  36.627  1.00  0.00     0.031 C 
ATOM     61  C   UNL A   1      43.062  28.001  32.467  1.00  0.00     0.029 A 
ATOM     62  C   UNL A   1      42.508  29.081  33.135  1.00  0.00     0.049 A 
ATOM     63  H   UNL A   1      40.854  30.274  32.596  1.00  0.00     0.167 HD
ATOM     64  C   UNL A   1      42.315  30.722  34.984  1.00  0.00     0.074 A 
ATOM     65  C   UNL A   1      42.733  31.283  36.251  1.00  0.00     0.031 C 
ATOM     66  C   UNL A   1      42.918  29.667  34.383  1.00  0.00     0.031 A 
BRANCH  53  67
ATOM     67  C   UNL A   1      40.341  27.997  29.026  1.00  0.00    -0.014 A 
ATOM     68  C   UNL A   1      39.643  26.780  29.078  1.00  0.00     0.009 A 
ATOM     69  C   UNL A   1      41.012  28.347  27.844  1.00  0.00     0.009 A 
ATOM     70  C   UNL A   1      39.646  25.916  27.983  1.00  0.00     0.001 A 
ATOM     71  C   UNL A   1      40.989  27.492  26.740  1.00  0.00     0.001 A 
ATOM     72  C   UNL A   1      40.315  26.275  26.812  1.00  0.00     0.000 A 
ENDBRANCH  53  67
BRANCH  54  73
ATOM     73  C   UNL A   1      39.942  34.402  36.680  1.00  0.00    -0.014 A 
ATOM     74  C   UNL A   1      39.188  34.078  37.820  1.00  0.00     0.009 A 
ATOM     75  C   UNL A   1      40.617  35.630  36.642  1.00  0.00     0.009 A 
ATOM     76  C   UNL A   1      39.083  34.980  38.881  1.00  0.00     0.001 A 
ATOM     77  C   UNL A   1      40.534  36.519  37.717  1.00  0.00     0.001 A 
ATOM     78  C   UNL A   1      39.758  36.197  38.830  1.00  0.00     0.000 A 
ENDBRANCH  54  73
BRANCH  66  79
ATOM     79  C   UNL A   1      44.124  29.086  35.062  1.00  0.00    -0.014 A 
ATOM     80  C   UNL A   1      45.413  29.576  34.804  1.00  0.00     0.009 A 
ATOM     81  C   UNL A   1      43.958  28.065  36.012  1.00  0.00     0.009 A 
ATOM     82  C   UNL A   1      46.516  29.035  35.466  1.00  0.00     0.001 A 
ATOM     83  C   UNL A   1      45.060  27.545  36.691  1.00  0.00     0.001 A 
ATOM     84  C   UNL A   1      46.338  28.025  36.411  1.00  0.00     0.000 A 
ENDBRANCH  66  79
ENDBRANCH  40  41
ENDBRANCH  32  35
ENDBRANCH  30  31
ENDBRANCH  29  30
ENDBRANCH   1  29
TORSDOF 14
ENDMDL
MODEL 2
REMARK VINA RESULT:     -12.3      0.603      5.844
REMARK SMILES CC1(C)[C@H](C(=O)NCCCNC(=O)c2ccc(-c3c4nc(c(-c5ccccc5)c5ccc([nH]5)c(-c5ccccc5)c5nc(c(-c6ccccc6)c6ccc3[nH]6)C=C5)C=C4)cc2)[C@@H]1C(=O)Nc1ccc(NC(=O)C2CCC2)cc1
REMARK SMILES IDX 8 1 7 2 5 3 6 4 4 6 1 7 2 8 3 9 62 10 63 11 64 12 65 13
REMARK SMILES IDX 66 15 67 16 78 17 68 18 77 19 69 20 70 21 71 22 72 24 73 25
REMARK SMILES IDX 74 26 76 27 75 28 9 29 10 30 11 31 12 32 13 34 14 35 15 36
REMARK SMILES IDX 61 37 16 38 60 39 17 40 18 41 19 42 54 43 20 44 59 45 53 46
REMARK SMILES IDX 55 47 21 48 58 49 52 50 51 51 22 53 44 54 29 55 43 56 30 57
REMARK SMILES IDX 33 58 42 59 56 60 31 61 32 62 41 64 57 65 34 66 23 67 24 68
REMARK SMILES IDX 28 69 25 70 27 71 26 72 45 73 46 74 50 75 47 76 49 77 48 78
REMARK SMILES IDX 35 79 36 80 40 81 37 82 39 83 38 84
REMARK H PARENT 7 5 65 14 70 23 11 33 55 52 33 63
REMARK Flexibility Score: inf
ROOT
ATOM      1  C   UNL A   1      31.837  30.661  26.308  1.00  0.00     0.117 C 
ENDROOT
BRANCH   1   2
ATOM      2  N   UNL A   1      31.155  30.353  25.068  1.00  0.00    -0.356 N 
ATOM      3  C   UNL A   1      31.151  29.318  24.186  1.00  0.00     0.224 C 
ATOM      4  O   UNL A   1      30.405  29.469  23.214  1.00  0.00    -0.275 OA
ATOM      5  H   UNL A   1      30.540  31.072  24.796  1.00  0.00     0.163 HD
BRANCH   3   6
ATOM      6  C   UNL A   1      31.915  28.049  24.241  1.00  0.00     0.098 C 
ATOM      7  C   UNL A   1      33.479  26.778  25.825  1.00  0.00     0.013 C 
ATOM      8  C   UNL A   1      32.057  27.142  25.451  1.00  0.00    -0.011 C 
ATOM      9  C   UNL A   1      31.192  27.352  26.669  1.00  0.00     0.013 C 
ATOM     10  C   UNL A   1      31.523  26.613  24.101  1.00  0.00     0.098 C 
BRANCH  10  11
ATOM     11  C   UNL A   1      30.172  26.065  23.872  1.00  0.00     0.228 C 
ATOM     12  O   UNL A   1      29.265  26.804  23.500  1.00  0.00    -0.274 OA
ATOM     13  N   UNL A   1      29.904  24.732  24.105  1.00  0.00    -0.326 N 
ATOM     14  H   UNL A   1      28.954  24.474  24.132  1.00  0.00     0.169 HD
BRANCH  13  15
ATOM     15  C   UNL A   1      30.835  23.709  24.307  1.00  0.00     0.041 A 
ATOM     16  C   UNL A   1      31.389  23.168  23.158  1.00  0.00     0.028 A 
ATOM     17  C   UNL A   1      31.310  23.308  25.552  1.00  0.00     0.028 A 
ATOM     18  C   UNL A   1      32.556  22.427  23.249  1.00  0.00     0.028 A 
ATOM     19  C   UNL A   1      32.360  22.376  25.622  1.00  0.00     0.028 A 
ATOM     20  C   UNL A   1      32.998  21.930  24.456  1.00  0.00     0.041 A 
BRANCH  20  21
ATOM     21  N   UNL A   1      34.048  21.012  24.564  1.00  0.00    -0.326 N 
ATOM     22  C   UNL A   1      35.322  21.062  25.095  1.00  0.00     0.227 C 
ATOM     23  H   UNL A   1      33.830  20.135  24.174  1.00  0.00     0.169 HD
ATOM     24  O   UNL A   1      35.950  19.989  25.001  1.00  0.00    -0.274 OA
BRANCH  22  25
ATOM     25  C   UNL A   1      35.989  22.288  25.774  1.00  0.00     0.079 C 
ATOM     26  C   UNL A   1      37.554  22.312  25.611  1.00  0.00     0.013 C 
ATOM     27  C   UNL A   1      36.066  23.741  25.201  1.00  0.00     0.013 C 
ATOM     28  C   UNL A   1      37.491  23.834  25.754  1.00  0.00     0.002 C 
ENDBRANCH  22  25
ENDBRANCH  20  21
ENDBRANCH  13  15
ENDBRANCH  10  11
ENDBRANCH   3   6
ENDBRANCH   1   2
BRANCH   1  29
ATOM     29  C   UNL A   1      31.522  32.069  26.783  1.00  0.00     0.042 C 
BRANCH  29  30
ATOM     30  C   UNL A   1      32.768  32.841  27.203  1.00  0.00     0.118 C 
BRANCH  30  31
ATOM     31  N   UNL A   1      32.475  34.203  27.642  1.00  0.00    -0.352 N 
ATOM     32  C   UNL A   1      33.030  34.920  28.675  1.00  0.00     0.251 C 
ATOM     33  H   UNL A   1      31.782  34.673  27.126  1.00  0.00     0.163 HD
ATOM     34  O   UNL A   1      32.546  35.994  29.017  1.00  0.00    -0.269 OA
BRANCH  32  35
ATOM     35  C   UNL A   1      34.201  34.370  29.385  1.00  0.00     0.039 A 
ATOM     36  C   UNL A   1      34.010  33.607  30.538  1.00  0.00     0.014 A 
ATOM     37  C   UNL A   1      35.485  34.572  28.873  1.00  0.00     0.014 A 
ATOM     38  C   UNL A   1      35.105  32.972  31.129  1.00  0.00     0.010 A 
ATOM     39  C   UNL A   1      36.553  33.861  29.402  1.00  0.00     0.010 A 
ATOM     40  C   UNL A   1      36.376  33.057  30.539  1.00  0.00    -0.014 A 
BRANCH  40  41
ATOM     41  C   UNL A   1      37.549  32.340  31.095  1.00  0.00     0.031 A 
ATOM     42  C   UNL A   1      38.194  32.840  32.360  1.00  0.00     0.074 A 
ATOM     43  C   UNL A   1      38.087  31.300  30.426  1.00  0.00     0.049 A 
ATOM     44  N   UNL A   1      39.297  32.443  32.939  1.00  0.00    -0.248 NA
ATOM     45  C   UNL A   1      37.526  33.960  33.045  1.00  0.00     0.031 C 
ATOM     46  C   UNL A   1      37.582  30.739  29.170  1.00  0.00     0.029 A 
ATOM     47  N   UNL A   1      39.190  30.533  30.710  1.00  0.00    -0.354 N 
ATOM     48  C   UNL A   1      39.468  33.281  34.034  1.00  0.00     0.074 A 
ATOM     49  C   UNL A   1      38.387  34.240  34.010  1.00  0.00     0.031 C 
ATOM     50  C   UNL A   1      38.355  29.703  28.809  1.00  0.00     0.029 A 
ATOM     51  C   UNL A   1      39.434  29.552  29.779  1.00  0.00     0.049 A 
ATOM     52  H   UNL A   1      39.753  30.673  31.505  1.00  0.00     0.167 HD
ATOM     53  C   UNL A   1      40.424  33.241  34.991  1.00  0.00     0.031 A 
ATOM     54  C   UNL A   1      40.423  28.640  29.713  1.00  0.00     0.031 A 
ATOM     55  C   UNL A   1      41.480  32.268  35.036  1.00  0.00     0.049 A 
ATOM     56  C   UNL A   1      41.473  28.618  30.789  1.00  0.00     0.074 A 
ATOM     57  C   UNL A   1      42.471  32.113  35.988  1.00  0.00     0.029 A 
ATOM     58  N   UNL A   1      41.674  31.275  34.088  1.00  0.00    -0.354 N 
ATOM     59  N   UNL A   1      41.593  29.389  31.843  1.00  0.00    -0.248 NA
ATOM     60  C   UNL A   1      42.519  27.592  30.670  1.00  0.00     0.031 C 
ATOM     61  C   UNL A   1      43.285  31.045  35.601  1.00  0.00     0.029 A 
ATOM     62  C   UNL A   1      42.773  30.508  34.430  1.00  0.00     0.049 A 
ATOM     63  H   UNL A   1      41.114  31.138  33.291  1.00  0.00     0.167 HD
ATOM     64  C   UNL A   1      42.705  28.919  32.529  1.00  0.00     0.074 A 
ATOM     65  C   UNL A   1      43.217  27.791  31.779  1.00  0.00     0.031 C 
ATOM     66  C   UNL A   1      43.254  29.379  33.679  1.00  0.00     0.031 A 
BRANCH  53  67
ATOM     67  C   UNL A   1      40.358  34.277  36.077  1.00  0.00    -0.014 A 
ATOM     68  C   UNL A   1      41.042  35.497  35.955  1.00  0.00     0.009 A 
ATOM     69  C   UNL A   1      39.577  34.046  37.220  1.00  0.00     0.009 A 
ATOM     70  C   UNL A   1      40.974  36.450  36.972  1.00  0.00     0.001 A 
ATOM     71  C   UNL A   1      39.489  35.014  38.222  1.00  0.00     0.001 A 
ATOM     72  C   UNL A   1      40.194  36.210  38.103  1.00  0.00     0.000 A 
ENDBRANCH  53  67
BRANCH  54  73
ATOM     73  C   UNL A   1      40.464  27.655  28.600  1.00  0.00    -0.014 A 
ATOM     74  C   UNL A   1      39.878  26.388  28.754  1.00  0.00     0.009 A 
ATOM     75  C   UNL A   1      41.112  27.959  27.394  1.00  0.00     0.009 A 
ATOM     76  C   UNL A   1      39.969  25.436  27.736  1.00  0.00     0.001 A 
ATOM     77  C   UNL A   1      41.177  27.014  26.367  1.00  0.00     0.001 A 
ATOM     78  C   UNL A   1      40.616  25.751  26.543  1.00  0.00     0.000 A 
ENDBRANCH  54  73
BRANCH  66  79
ATOM     79  C   UNL A   1      44.436  28.633  34.224  1.00  0.00    -0.014 A 
ATOM     80  C   UNL A   1      44.273  27.536  35.084  1.00  0.00     0.009 A 
ATOM     81  C   UNL A   1      45.730  29.006  33.829  1.00  0.00     0.009 A 
ATOM     82  C   UNL A   1      45.388  26.844  35.558  1.00  0.00     0.001 A 
ATOM     83  C   UNL A   1      46.841  28.295  34.284  1.00  0.00     0.001 A 
ATOM     84  C   UNL A   1      46.670  27.220  35.154  1.00  0.00     0.000 A 
ENDBRANCH  66  79
ENDBRANCH  40  41
ENDBRANCH  32  35
ENDBRANCH  30  31
ENDBRANCH  29  30
ENDBRANCH   1  29
TORSDOF 14
ENDMDL
MODEL 3
REMARK VINA RESULT:     -12.3      3.953      9.413
REMARK SMILES CC1(C)[C@H](C(=O)NCCCNC(=O)c2ccc(-c3c4nc(c(-c5ccccc5)c5ccc([nH]5)c(-c5ccccc5)c5nc(c(-c6ccccc6)c6ccc3[nH]6)C=C5)C=C4)cc2)[C@@H]1C(=O)Nc1ccc(NC(=O)C2CCC2)cc1
REMARK SMILES IDX 8 1 7 2 5 3 6 4 4 6 1 7 2 8 3 9 62 10 63 11 64 12 65 13
REMARK SMILES IDX 66 15 67 16 78 17 68 18 77 19 69 20 70 21 71 22 72 24 73 25
REMARK SMILES IDX 74 26 76 27 75 28 9 29 10 30 11 31 12 32 13 34 14 35 15 36
REMARK SMILES IDX 61 37 16 38 60 39 17 40 18 41 19 42 54 43 20 44 59 45 53 46
REMARK SMILES IDX 55 47 21 48 58 49 52 50 51 51 22 53 44 54 29 55 43 56 30 57
REMARK SMILES IDX 33 58 42 59 56 60 31 61 32 62 41 64 57 65 34 66 23 67 24 68
REMARK SMILES IDX 28 69 25 70 27 71 26 72 45 73 46 74 50 75 47 76 49 77 48 78
REMARK SMILES IDX 35 79 36 80 40 81 37 82 39 83 38 84
REMARK H PARENT 7 5 65 14 70 23 11 33 55 52 33 63
REMARK Flexibility Score: inf
ROOT
ATOM      1  C   UNL A   1      37.006  20.803  25.153  1.00  0.00     0.117 C 
ENDROOT
BRANCH   1   2
ATOM      2  N   UNL A   1      35.785  20.074  24.875  1.00  0.00    -0.356 N 
ATOM      3  C   UNL A   1      34.453  20.346  24.915  1.00  0.00     0.224 C 
ATOM      4  O   UNL A   1      33.722  19.403  24.601  1.00  0.00    -0.275 OA
ATOM      5  H   UNL A   1      35.965  19.151  24.583  1.00  0.00     0.163 HD
BRANCH   3   6
ATOM      6  C   UNL A   1      33.776  21.612  25.282  1.00  0.00     0.098 C 
ATOM      7  C   UNL A   1      34.358  24.028  25.913  1.00  0.00     0.013 C 
ATOM      8  C   UNL A   1      34.165  23.004  24.814  1.00  0.00    -0.011 C 
ATOM      9  C   UNL A   1      35.165  23.182  23.698  1.00  0.00     0.013 C 
ATOM     10  C   UNL A   1      32.738  22.450  24.606  1.00  0.00     0.098 C 
BRANCH  10  11
ATOM     11  C   UNL A   1      32.096  22.209  23.299  1.00  0.00     0.228 C 
ATOM     12  O   UNL A   1      32.064  21.074  22.831  1.00  0.00    -0.274 OA
ATOM     13  N   UNL A   1      31.560  23.253  22.575  1.00  0.00    -0.326 N 
ATOM     14  H   UNL A   1      31.333  23.064  21.635  1.00  0.00     0.169 HD
BRANCH  13  15
ATOM     15  C   UNL A   1      31.302  24.548  23.032  1.00  0.00     0.041 A 
ATOM     16  C   UNL A   1      32.116  25.541  22.510  1.00  0.00     0.028 A 
ATOM     17  C   UNL A   1      30.234  24.899  23.852  1.00  0.00     0.028 A 
ATOM     18  C   UNL A   1      31.721  26.866  22.608  1.00  0.00     0.028 A 
ATOM     19  C   UNL A   1      29.985  26.255  24.119  1.00  0.00     0.028 A 
ATOM     20  C   UNL A   1      30.735  27.258  23.487  1.00  0.00     0.041 A 
BRANCH  20  21
ATOM     21  N   UNL A   1      30.451  28.598  23.766  1.00  0.00    -0.326 N 
ATOM     22  C   UNL A   1      30.995  29.542  24.615  1.00  0.00     0.227 C 
ATOM     23  H   UNL A   1      29.695  28.946  23.242  1.00  0.00     0.169 HD
ATOM     24  O   UNL A   1      30.444  30.659  24.548  1.00  0.00    -0.274 OA
BRANCH  22  25
ATOM     25  C   UNL A   1      32.185  29.328  25.589  1.00  0.00     0.079 C 
ATOM     26  C   UNL A   1      31.947  28.156  26.612  1.00  0.00     0.013 C 
ATOM     27  C   UNL A   1      33.518  28.572  25.276  1.00  0.00     0.013 C 
ATOM     28  C   UNL A   1      33.466  27.991  26.692  1.00  0.00     0.002 C 
ENDBRANCH  22  25
ENDBRANCH  20  21
ENDBRANCH  13  15
ENDBRANCH  10  11
ENDBRANCH   3   6
ENDBRANCH   1   2
BRANCH   1  29
ATOM     29  C   UNL A   1      38.234  19.934  24.948  1.00  0.00     0.042 C 
BRANCH  29  30
ATOM     30  C   UNL A   1      39.323  20.201  25.982  1.00  0.00     0.118 C 
BRANCH  30  31
ATOM     31  N   UNL A   1      40.447  19.274  25.878  1.00  0.00    -0.352 N 
ATOM     32  C   UNL A   1      41.791  19.521  26.024  1.00  0.00     0.251 C 
ATOM     33  H   UNL A   1      40.208  18.341  25.676  1.00  0.00     0.163 HD
ATOM     34  O   UNL A   1      42.617  18.660  25.734  1.00  0.00    -0.269 OA
BRANCH  32  35
ATOM     35  C   UNL A   1      42.232  20.843  26.509  1.00  0.00     0.039 A 
ATOM     36  C   UNL A   1      42.601  21.825  25.589  1.00  0.00     0.014 A 
ATOM     37  C   UNL A   1      42.227  21.120  27.878  1.00  0.00     0.014 A 
ATOM     38  C   UNL A   1      42.882  23.117  26.041  1.00  0.00     0.010 A 
ATOM     39  C   UNL A   1      42.410  22.425  28.314  1.00  0.00     0.010 A 
ATOM     40  C   UNL A   1      42.745  23.437  27.401  1.00  0.00    -0.014 A 
BRANCH  40  41
ATOM     41  C   UNL A   1      42.965  24.812  27.910  1.00  0.00     0.031 A 
ATOM     42  C   UNL A   1      44.346  25.235  28.332  1.00  0.00     0.074 A 
ATOM     43  C   UNL A   1      41.921  25.649  28.075  1.00  0.00     0.049 A 
ATOM     44  N   UNL A   1      44.731  26.337  28.923  1.00  0.00    -0.248 NA
ATOM     45  C   UNL A   1      45.436  24.274  28.089  1.00  0.00     0.031 C 
ATOM     46  C   UNL A   1      40.526  25.351  27.740  1.00  0.00     0.029 A 
ATOM     47  N   UNL A   1      41.874  26.926  28.577  1.00  0.00    -0.354 N 
ATOM     48  C   UNL A   1      46.093  26.187  29.145  1.00  0.00     0.074 A 
ATOM     49  C   UNL A   1      46.461  24.870  28.678  1.00  0.00     0.031 C 
ATOM     50  C   UNL A   1      39.767  26.422  28.020  1.00  0.00     0.029 A 
ATOM     51  C   UNL A   1      40.610  27.466  28.594  1.00  0.00     0.049 A 
ATOM     52  H   UNL A   1      42.670  27.409  28.896  1.00  0.00     0.167 HD
ATOM     53  C   UNL A   1      46.969  27.076  29.669  1.00  0.00     0.031 A 
ATOM     54  C   UNL A   1      40.180  28.665  29.031  1.00  0.00     0.031 A 
ATOM     55  C   UNL A   1      46.614  28.398  30.105  1.00  0.00     0.049 A 
ATOM     56  C   UNL A   1      41.174  29.634  29.609  1.00  0.00     0.074 A 
ATOM     57  C   UNL A   1      47.434  29.392  30.606  1.00  0.00     0.029 A 
ATOM     58  N   UNL A   1      45.327  28.914  30.078  1.00  0.00    -0.354 N 
ATOM     59  N   UNL A   1      42.468  29.494  29.771  1.00  0.00    -0.248 NA
ATOM     60  C   UNL A   1      40.648  30.932  30.058  1.00  0.00     0.031 C 
ATOM     61  C   UNL A   1      46.640  30.500  30.914  1.00  0.00     0.029 A 
ATOM     62  C   UNL A   1      45.332  30.211  30.561  1.00  0.00     0.049 A 
ATOM     63  H   UNL A   1      44.531  28.430  29.763  1.00  0.00     0.167 HD
ATOM     64  C   UNL A   1      42.914  30.695  30.305  1.00  0.00     0.074 A 
ATOM     65  C   UNL A   1      41.756  31.556  30.430  1.00  0.00     0.031 C 
ATOM     66  C   UNL A   1      44.171  31.055  30.660  1.00  0.00     0.031 A 
BRANCH  53  67
ATOM     67  C   UNL A   1      48.404  26.645  29.786  1.00  0.00    -0.014 A 
ATOM     68  C   UNL A   1      48.862  25.951  30.917  1.00  0.00     0.009 A 
ATOM     69  C   UNL A   1      49.302  26.907  28.739  1.00  0.00     0.009 A 
ATOM     70  C   UNL A   1      50.197  25.559  31.014  1.00  0.00     0.001 A 
ATOM     71  C   UNL A   1      50.630  26.487  28.827  1.00  0.00     0.001 A 
ATOM     72  C   UNL A   1      51.079  25.823  29.966  1.00  0.00     0.000 A 
ENDBRANCH  53  67
BRANCH  54  73
ATOM     73  C   UNL A   1      38.744  29.034  28.924  1.00  0.00    -0.014 A 
ATOM     74  C   UNL A   1      38.232  29.548  27.722  1.00  0.00     0.009 A 
ATOM     75  C   UNL A   1      37.885  28.905  30.025  1.00  0.00     0.009 A 
ATOM     76  C   UNL A   1      36.900  29.956  27.635  1.00  0.00     0.001 A 
ATOM     77  C   UNL A   1      36.544  29.287  29.927  1.00  0.00     0.001 A 
ATOM     78  C   UNL A   1      36.057  29.823  28.736  1.00  0.00     0.000 A 
ENDBRANCH  54  73
BRANCH  66  79
ATOM     79  C   UNL A   1      44.369  32.454  31.166  1.00  0.00    -0.014 A 
ATOM     80  C   UNL A   1      44.630  33.517  30.289  1.00  0.00     0.009 A 
ATOM     81  C   UNL A   1      44.242  32.715  32.540  1.00  0.00     0.009 A 
ATOM     82  C   UNL A   1      44.787  34.813  30.783  1.00  0.00     0.001 A 
ATOM     83  C   UNL A   1      44.373  34.016  33.027  1.00  0.00     0.001 A 
ATOM     84  C   UNL A   1      44.653  35.062  32.149  1.00  0.00     0.000 A 
ENDBRANCH  66  79
ENDBRANCH  40  41
ENDBRANCH  32  35
ENDBRANCH  30  31
ENDBRANCH  29  30
ENDBRANCH   1  29
TORSDOF 14
ENDMDL
