MODEL 1
REMARK VINA RESULT:     -12.8      0.000      0.000
REMARK SMILES O=C(NCCCNC(=O)c1ccc(-c2c3nc(c(-c4ccccc4)c4ccc([nH]4)c(-c4ccccc4)c4nc(c(-c5ccccc5)c5ccc2[nH]5)C=C4)C=C3)cc1)C1=Cc2cc(Cl)cc(C#Cc3ccccc3)c2O[C@@H]1C(F)(F)F
REMARK SMILES IDX 5 1 4 2 3 3 1 4 2 5 58 7 59 8 76 9 60 10 75 11 61 12 74 13
REMARK SMILES IDX 62 14 65 15 63 16 64 17 77 18 78 19 79 20 80 21 66 22 67 23
REMARK SMILES IDX 68 24 69 25 73 26 70 27 72 28 71 29 6 30 7 31 8 32 9 34
REMARK SMILES IDX 10 35 11 36 57 37 12 38 56 39 13 40 14 41 15 42 50 43 16 44
REMARK SMILES IDX 55 45 49 46 51 47 17 48 54 49 48 50 47 51 18 53 40 54 25 55
REMARK SMILES IDX 39 56 26 57 29 58 38 59 52 60 27 61 28 62 37 64 53 65 30 66
REMARK SMILES IDX 19 67 20 68 24 69 21 70 23 71 22 72 41 73 42 74 46 75 43 76
REMARK SMILES IDX 45 77 44 78 31 79 32 80 36 81 33 82 35 83 34 84
REMARK H PARENT 3 6 7 33 51 52 29 63
REMARK Flexibility Score: inf
ROOT
ATOM      1  C   UNL A   1      31.776  28.229  27.485  1.00  0.00     0.042 C 
ENDROOT
BRANCH   1   2
ATOM      2  C   UNL A   1      31.422  27.220  26.423  1.00  0.00     0.118 C 
BRANCH   2   3
ATOM      3  N   UNL A   1      31.368  25.845  26.859  1.00  0.00    -0.352 N 
ATOM      4  O   UNL A   1      32.121  23.739  27.054  1.00  0.00    -0.270 OA
ATOM      5  C   UNL A   1      32.083  24.774  26.394  1.00  0.00     0.251 C 
ATOM      6  H   UNL A   1      30.734  25.651  27.587  1.00  0.00     0.163 HD
BRANCH   5   7
ATOM      7  C   UNL A   1      32.922  24.881  25.162  1.00  0.00     0.067 C 
ATOM      8  C   UNL A   1      34.234  25.164  25.225  1.00  0.00     0.025 C 
ATOM      9  C   UNL A   1      32.432  23.990  24.052  1.00  0.00     0.314 C 
ATOM     10  C   UNL A   1      35.119  24.052  24.796  1.00  0.00     0.020 A 
ATOM     11  O   UNL A   1      33.220  22.774  23.944  1.00  0.00    -0.474 OA
ATOM     12  C   UNL A   1      36.429  24.076  25.296  1.00  0.00     0.032 A 
ATOM     13  C   UNL A   1      34.524  22.833  24.386  1.00  0.00     0.143 A 
ATOM     14  C   UNL A   1      37.103  22.874  25.500  1.00  0.00     0.043 A 
ATOM     15  C   UNL A   1      35.193  21.626  24.665  1.00  0.00     0.069 A 
ATOM     16  Cl  UNL A   1      38.627  22.881  26.299  1.00  0.00    -0.084 Cl
ATOM     17  C   UNL A   1      36.485  21.657  25.214  1.00  0.00     0.041 A 
BRANCH   9  18
ATOM     18  C   UNL A   1      32.366  24.805  22.746  1.00  0.00     0.429 C 
ATOM     19  F   UNL A   1      33.017  24.187  21.735  1.00  0.00    -0.167 F 
ATOM     20  F   UNL A   1      31.082  24.977  22.339  1.00  0.00    -0.167 F 
ATOM     21  F   UNL A   1      32.902  26.042  22.878  1.00  0.00    -0.167 F 
ENDBRANCH   9  18
BRANCH  15  22
ATOM     22  C   UNL A   1      34.529  20.346  24.676  1.00  0.00    -0.058 C 
ATOM     23  C   UNL A   1      34.127  19.220  24.796  1.00  0.00    -0.062 C 
BRANCH  23  24
ATOM     24  C   UNL A   1      33.780  17.829  24.906  1.00  0.00     0.025 A 
ATOM     25  C   UNL A   1      32.481  17.423  25.234  1.00  0.00     0.017 A 
ATOM     26  C   UNL A   1      34.778  16.865  24.759  1.00  0.00     0.017 A 
ATOM     27  C   UNL A   1      32.192  16.069  25.436  1.00  0.00     0.001 A 
ATOM     28  C   UNL A   1      34.489  15.512  24.956  1.00  0.00     0.001 A 
ATOM     29  C   UNL A   1      33.198  15.114  25.301  1.00  0.00     0.000 A 
ENDBRANCH  23  24
ENDBRANCH  15  22
ENDBRANCH   5   7
ENDBRANCH   2   3
ENDBRANCH   1   2
BRANCH   1  30
ATOM     30  C   UNL A   1      33.187  28.738  27.309  1.00  0.00     0.118 C 
BRANCH  30  31
ATOM     31  N   UNL A   1      33.335  30.176  27.553  1.00  0.00    -0.352 N 
ATOM     32  C   UNL A   1      34.402  30.891  28.047  1.00  0.00     0.251 C 
ATOM     33  H   UNL A   1      32.544  30.717  27.326  1.00  0.00     0.163 HD
ATOM     34  O   UNL A   1      34.278  32.083  28.307  1.00  0.00    -0.269 OA
BRANCH  32  35
ATOM     35  C   UNL A   1      35.687  30.217  28.309  1.00  0.00     0.039 A 
ATOM     36  C   UNL A   1      36.688  30.244  27.338  1.00  0.00     0.014 A 
ATOM     37  C   UNL A   1      35.926  29.614  29.540  1.00  0.00     0.014 A 
ATOM     38  C   UNL A   1      37.954  29.750  27.650  1.00  0.00     0.010 A 
ATOM     39  C   UNL A   1      37.222  29.331  29.916  1.00  0.00     0.010 A 
ATOM     40  C   UNL A   1      38.244  29.341  28.962  1.00  0.00    -0.014 A 
BRANCH  40  41
ATOM     41  C   UNL A   1      39.581  28.847  29.357  1.00  0.00     0.031 A 
ATOM     42  C   UNL A   1      40.449  29.699  30.248  1.00  0.00     0.074 A 
ATOM     43  C   UNL A   1      40.033  27.678  28.866  1.00  0.00     0.049 A 
ATOM     44  N   UNL A   1      41.669  29.481  30.665  1.00  0.00    -0.248 NA
ATOM     45  C   UNL A   1      39.896  30.995  30.688  1.00  0.00     0.031 C 
ATOM     46  C   UNL A   1      39.311  26.804  27.937  1.00  0.00     0.029 A 
ATOM     47  N   UNL A   1      41.213  27.020  29.089  1.00  0.00    -0.354 N 
ATOM     48  C   UNL A   1      42.028  30.618  31.380  1.00  0.00     0.074 A 
ATOM     49  C   UNL A   1      40.944  31.562  31.259  1.00  0.00     0.031 C 
ATOM     50  C   UNL A   1      40.036  25.695  27.724  1.00  0.00     0.029 A 
ATOM     51  C   UNL A   1      41.291  25.803  28.456  1.00  0.00     0.049 A 
ATOM     52  H   UNL A   1      41.936  27.383  29.650  1.00  0.00     0.167 HD
ATOM     53  C   UNL A   1      43.141  30.844  32.114  1.00  0.00     0.031 A 
ATOM     54  C   UNL A   1      42.267  24.878  28.477  1.00  0.00     0.031 A 
ATOM     55  C   UNL A   1      44.199  29.885  32.256  1.00  0.00     0.049 A 
ATOM     56  C   UNL A   1      43.488  25.141  29.313  1.00  0.00     0.074 A 
ATOM     57  C   UNL A   1      45.347  29.972  33.023  1.00  0.00     0.029 A 
ATOM     58  N   UNL A   1      44.232  28.655  31.616  1.00  0.00    -0.354 N 
ATOM     59  N   UNL A   1      43.780  26.188  30.048  1.00  0.00    -0.248 NA
ATOM     60  C   UNL A   1      44.504  24.082  29.340  1.00  0.00     0.031 C 
ATOM     61  C   UNL A   1      46.103  28.818  32.798  1.00  0.00     0.029 A 
ATOM     62  C   UNL A   1      45.392  27.980  31.952  1.00  0.00     0.049 A 
ATOM     63  H   UNL A   1      43.533  28.314  31.012  1.00  0.00     0.167 HD
ATOM     64  C   UNL A   1      44.997  25.900  30.652  1.00  0.00     0.074 A 
ATOM     65  C   UNL A   1      45.372  24.570  30.213  1.00  0.00     0.031 C 
ATOM     66  C   UNL A   1      45.741  26.661  31.494  1.00  0.00     0.031 A 
BRANCH  53  67
ATOM     67  C   UNL A   1      43.252  32.174  32.810  1.00  0.00    -0.014 A 
ATOM     68  C   UNL A   1      43.913  33.262  32.213  1.00  0.00     0.009 A 
ATOM     69  C   UNL A   1      42.689  32.344  34.083  1.00  0.00     0.009 A 
ATOM     70  C   UNL A   1      44.049  34.473  32.896  1.00  0.00     0.001 A 
ATOM     71  C   UNL A   1      42.793  33.568  34.748  1.00  0.00     0.001 A 
ATOM     72  C   UNL A   1      43.485  34.626  34.160  1.00  0.00     0.000 A 
ENDBRANCH  53  67
BRANCH  54  73
ATOM     73  C   UNL A   1      42.112  23.607  27.721  1.00  0.00    -0.014 A 
ATOM     74  C   UNL A   1      42.491  23.528  26.371  1.00  0.00     0.009 A 
ATOM     75  C   UNL A   1      41.581  22.465  28.341  1.00  0.00     0.009 A 
ATOM     76  C   UNL A   1      42.306  22.345  25.650  1.00  0.00     0.001 A 
ATOM     77  C   UNL A   1      41.430  21.275  27.628  1.00  0.00     0.001 A 
ATOM     78  C   UNL A   1      41.781  21.218  26.280  1.00  0.00     0.000 A 
ENDBRANCH  54  73
BRANCH  66  79
ATOM     79  C   UNL A   1      47.005  26.046  32.026  1.00  0.00    -0.014 A 
ATOM     80  C   UNL A   1      47.022  25.318  33.225  1.00  0.00     0.009 A 
ATOM     81  C   UNL A   1      48.200  26.193  31.303  1.00  0.00     0.009 A 
ATOM     82  C   UNL A   1      48.221  24.801  33.720  1.00  0.00     0.001 A 
ATOM     83  C   UNL A   1      49.388  25.638  31.777  1.00  0.00     0.001 A 
ATOM     84  C   UNL A   1      49.401  24.959  32.994  1.00  0.00     0.000 A 
ENDBRANCH  66  79
ENDBRANCH  40  41
ENDBRANCH  32  35
ENDBRANCH  30  31
ENDBRANCH   1  30
TORSDOF 13
ENDMDL
MODEL 2
REMARK VINA RESULT:     -12.1      2.079      2.807
REMARK SMILES O=C(NCCCNC(=O)c1ccc(-c2c3nc(c(-c4ccccc4)c4ccc([nH]4)c(-c4ccccc4)c4nc(c(-c5ccccc5)c5ccc2[nH]5)C=C4)C=C3)cc1)C1=Cc2cc(Cl)cc(C#Cc3ccccc3)c2O[C@@H]1C(F)(F)F
REMARK SMILES IDX 5 1 4 2 3 3 1 4 2 5 58 7 59 8 76 9 60 10 75 11 61 12 74 13
REMARK SMILES IDX 62 14 65 15 63 16 64 17 77 18 78 19 79 20 80 21 66 22 67 23
REMARK SMILES IDX 68 24 69 25 73 26 70 27 72 28 71 29 6 30 7 31 8 32 9 34
REMARK SMILES IDX 10 35 11 36 57 37 12 38 56 39 13 40 14 41 15 42 50 43 16 44
REMARK SMILES IDX 55 45 49 46 51 47 17 48 54 49 48 50 47 51 18 53 40 54 25 55
REMARK SMILES IDX 39 56 26 57 29 58 38 59 52 60 27 61 28 62 37 64 53 65 30 66
REMARK SMILES IDX 19 67 20 68 24 69 21 70 23 71 22 72 41 73 42 74 46 75 43 76
REMARK SMILES IDX 45 77 44 78 31 79 32 80 36 81 33 82 35 83 34 84
REMARK H PARENT 3 6 7 33 51 52 29 63
REMARK Flexibility Score: inf
ROOT
ATOM      1  C   UNL A   1      31.712  28.389  26.777  1.00  0.00     0.042 C 
ENDROOT
BRANCH   1   2
ATOM      2  C   UNL A   1      31.342  27.259  25.851  1.00  0.00     0.118 C 
BRANCH   2   3
ATOM      3  N   UNL A   1      31.367  25.938  26.434  1.00  0.00    -0.352 N 
ATOM      4  O   UNL A   1      32.264  23.934  26.901  1.00  0.00    -0.270 OA
ATOM      5  C   UNL A   1      32.187  24.886  26.129  1.00  0.00     0.251 C 
ATOM      6  H   UNL A   1      30.707  25.772  27.145  1.00  0.00     0.163 HD
BRANCH   5   7
ATOM      7  C   UNL A   1      33.088  24.929  24.937  1.00  0.00     0.067 C 
ATOM      8  C   UNL A   1      34.401  25.190  25.055  1.00  0.00     0.025 C 
ATOM      9  C   UNL A   1      32.636  24.005  23.839  1.00  0.00     0.314 C 
ATOM     10  C   UNL A   1      35.283  24.046  24.714  1.00  0.00     0.020 A 
ATOM     11  O   UNL A   1      33.403  22.771  23.817  1.00  0.00    -0.474 OA
ATOM     12  C   UNL A   1      36.567  24.064  25.277  1.00  0.00     0.032 A 
ATOM     13  C   UNL A   1      34.685  22.823  24.321  1.00  0.00     0.143 A 
ATOM     14  C   UNL A   1      37.205  22.859  25.561  1.00  0.00     0.043 A 
ATOM     15  C   UNL A   1      35.314  21.615  24.679  1.00  0.00     0.069 A 
ATOM     16  Cl  UNL A   1      38.688  22.869  26.434  1.00  0.00    -0.084 Cl
ATOM     17  C   UNL A   1      36.577  21.644  25.290  1.00  0.00     0.041 A 
BRANCH   9  18
ATOM     18  C   UNL A   1      32.651  24.769  22.501  1.00  0.00     0.429 C 
ATOM     19  F   UNL A   1      31.414  25.180  22.142  1.00  0.00    -0.167 F 
ATOM     20  F   UNL A   1      33.429  25.879  22.578  1.00  0.00    -0.167 F 
ATOM     21  F   UNL A   1      33.141  24.021  21.482  1.00  0.00    -0.167 F 
ENDBRANCH   9  18
BRANCH  15  22
ATOM     22  C   UNL A   1      34.624  20.350  24.705  1.00  0.00    -0.058 C 
ATOM     23  C   UNL A   1      34.200  19.233  24.837  1.00  0.00    -0.062 C 
BRANCH  23  24
ATOM     24  C   UNL A   1      33.826  17.850  24.959  1.00  0.00     0.025 A 
ATOM     25  C   UNL A   1      32.529  17.473  25.326  1.00  0.00     0.017 A 
ATOM     26  C   UNL A   1      34.797  16.864  24.783  1.00  0.00     0.017 A 
ATOM     27  C   UNL A   1      32.216  16.126  25.540  1.00  0.00     0.001 A 
ATOM     28  C   UNL A   1      34.485  15.517  24.991  1.00  0.00     0.001 A 
ATOM     29  C   UNL A   1      33.196  15.148  25.376  1.00  0.00     0.000 A 
ENDBRANCH  23  24
ENDBRANCH  15  22
ENDBRANCH   5   7
ENDBRANCH   2   3
ENDBRANCH   1   2
BRANCH   1  30
ATOM     30  C   UNL A   1      32.699  29.330  26.128  1.00  0.00     0.118 C 
BRANCH  30  31
ATOM     31  N   UNL A   1      32.508  30.736  26.493  1.00  0.00    -0.352 N 
ATOM     32  C   UNL A   1      33.293  31.575  27.251  1.00  0.00     0.251 C 
ATOM     33  H   UNL A   1      31.686  31.147  26.138  1.00  0.00     0.163 HD
ATOM     34  O   UNL A   1      32.886  32.691  27.557  1.00  0.00    -0.269 OA
BRANCH  32  35
ATOM     35  C   UNL A   1      34.607  31.118  27.737  1.00  0.00     0.039 A 
ATOM     36  C   UNL A   1      35.608  32.055  27.996  1.00  0.00     0.014 A 
ATOM     37  C   UNL A   1      34.830  29.771  28.001  1.00  0.00     0.014 A 
ATOM     38  C   UNL A   1      36.790  31.640  28.609  1.00  0.00     0.010 A 
ATOM     39  C   UNL A   1      35.894  29.402  28.798  1.00  0.00     0.010 A 
ATOM     40  C   UNL A   1      36.916  30.318  29.064  1.00  0.00    -0.014 A 
BRANCH  40  41
ATOM     41  C   UNL A   1      38.130  29.834  29.757  1.00  0.00     0.031 A 
ATOM     42  C   UNL A   1      38.357  30.212  31.199  1.00  0.00     0.074 A 
ATOM     43  C   UNL A   1      39.049  29.123  29.077  1.00  0.00     0.049 A 
ATOM     44  N   UNL A   1      39.377  29.942  31.973  1.00  0.00    -0.248 NA
ATOM     45  C   UNL A   1      37.327  31.047  31.847  1.00  0.00     0.031 C 
ATOM     46  C   UNL A   1      38.972  28.762  27.658  1.00  0.00     0.029 A 
ATOM     47  N   UNL A   1      40.229  28.568  29.495  1.00  0.00    -0.354 N 
ATOM     48  C   UNL A   1      39.120  30.599  33.171  1.00  0.00     0.074 A 
ATOM     49  C   UNL A   1      37.907  31.357  32.994  1.00  0.00     0.031 C 
ATOM     50  C   UNL A   1      40.024  27.991  27.343  1.00  0.00     0.029 A 
ATOM     51  C   UNL A   1      40.873  27.848  28.519  1.00  0.00     0.049 A 
ATOM     52  H   UNL A   1      40.581  28.675  30.409  1.00  0.00     0.167 HD
ATOM     53  C   UNL A   1      39.806  30.541  34.335  1.00  0.00     0.031 A 
ATOM     54  C   UNL A   1      42.018  27.144  28.577  1.00  0.00     0.031 A 
ATOM     55  C   UNL A   1      40.994  29.755  34.512  1.00  0.00     0.049 A 
ATOM     56  C   UNL A   1      42.755  27.079  29.885  1.00  0.00     0.074 A 
ATOM     57  C   UNL A   1      41.742  29.566  35.659  1.00  0.00     0.029 A 
ATOM     58  N   UNL A   1      41.604  29.023  33.505  1.00  0.00    -0.354 N 
ATOM     59  N   UNL A   1      42.459  27.640  31.033  1.00  0.00    -0.248 NA
ATOM     60  C   UNL A   1      43.973  26.260  29.909  1.00  0.00     0.031 C 
ATOM     61  C   UNL A   1      42.840  28.766  35.330  1.00  0.00     0.029 A 
ATOM     62  C   UNL A   1      42.734  28.395  33.998  1.00  0.00     0.049 A 
ATOM     63  H   UNL A   1      41.281  28.959  32.577  1.00  0.00     0.167 HD
ATOM     64  C   UNL A   1      43.436  27.218  31.926  1.00  0.00     0.074 A 
ATOM     65  C   UNL A   1      44.315  26.333  31.187  1.00  0.00     0.031 C 
ATOM     66  C   UNL A   1      43.595  27.527  33.237  1.00  0.00     0.031 A 
BRANCH  53  67
ATOM     67  C   UNL A   1      39.276  31.348  35.491  1.00  0.00    -0.014 A 
ATOM     68  C   UNL A   1      38.292  30.835  36.354  1.00  0.00     0.009 A 
ATOM     69  C   UNL A   1      39.767  32.641  35.720  1.00  0.00     0.009 A 
ATOM     70  C   UNL A   1      37.777  31.618  37.390  1.00  0.00     0.001 A 
ATOM     71  C   UNL A   1      39.279  33.408  36.780  1.00  0.00     0.001 A 
ATOM     72  C   UNL A   1      38.275  32.901  37.605  1.00  0.00     0.000 A 
ENDBRANCH  53  67
BRANCH  54  73
ATOM     73  C   UNL A   1      42.510  26.414  27.379  1.00  0.00    -0.014 A 
ATOM     74  C   UNL A   1      42.082  25.103  27.114  1.00  0.00     0.009 A 
ATOM     75  C   UNL A   1      43.415  27.021  26.493  1.00  0.00     0.009 A 
ATOM     76  C   UNL A   1      42.578  24.404  26.010  1.00  0.00     0.001 A 
ATOM     77  C   UNL A   1      43.882  26.333  25.372  1.00  0.00     0.001 A 
ATOM     78  C   UNL A   1      43.473  25.020  25.138  1.00  0.00     0.000 A 
ENDBRANCH  54  73
BRANCH  66  79
ATOM     79  C   UNL A   1      44.735  26.864  33.958  1.00  0.00    -0.014 A 
ATOM     80  C   UNL A   1      44.569  25.646  34.635  1.00  0.00     0.009 A 
ATOM     81  C   UNL A   1      46.002  27.469  33.946  1.00  0.00     0.009 A 
ATOM     82  C   UNL A   1      45.635  25.079  35.337  1.00  0.00     0.001 A 
ATOM     83  C   UNL A   1      47.075  26.879  34.612  1.00  0.00     0.001 A 
ATOM     84  C   UNL A   1      46.886  25.694  35.322  1.00  0.00     0.000 A 
ENDBRANCH  66  79
ENDBRANCH  40  41
ENDBRANCH  32  35
ENDBRANCH  30  31
ENDBRANCH   1  30
TORSDOF 13
ENDMDL
MODEL 3
REMARK VINA RESULT:     -11.9      2.695      4.534
REMARK SMILES O=C(NCCCNC(=O)c1ccc(-c2c3nc(c(-c4ccccc4)c4ccc([nH]4)c(-c4ccccc4)c4nc(c(-c5ccccc5)c5ccc2[nH]5)C=C4)C=C3)cc1)C1=Cc2cc(Cl)cc(C#Cc3ccccc3)c2O[C@@H]1C(F)(F)F
REMARK SMILES IDX 5 1 4 2 3 3 1 4 2 5 58 7 59 8 76 9 60 10 75 11 61 12 74 13
REMARK SMILES IDX 62 14 65 15 63 16 64 17 77 18 78 19 79 20 80 21 66 22 67 23
REMARK SMILES IDX 68 24 69 25 73 26 70 27 72 28 71 29 6 30 7 31 8 32 9 34
REMARK SMILES IDX 10 35 11 36 57 37 12 38 56 39 13 40 14 41 15 42 50 43 16 44
REMARK SMILES IDX 55 45 49 46 51 47 17 48 54 49 48 50 47 51 18 53 40 54 25 55
REMARK SMILES IDX 39 56 26 57 29 58 38 59 52 60 27 61 28 62 37 64 53 65 30 66
REMARK SMILES IDX 19 67 20 68 24 69 21 70 23 71 22 72 41 73 42 74 46 75 43 76
REMARK SMILES IDX 45 77 44 78 31 79 32 80 36 81 33 82 35 83 34 84
REMARK H PARENT 3 6 7 33 51 52 29 63
REMARK Flexibility Score: inf
ROOT
ATOM      1  C   UNL A   1      33.409  28.973  23.469  1.00  0.00     0.042 C 
ENDROOT
BRANCH   1   2
ATOM      2  C   UNL A   1      32.553  27.810  23.038  1.00  0.00     0.118 C 
BRANCH   2   3
ATOM      3  N   UNL A   1      33.235  26.767  22.307  1.00  0.00    -0.352 N 
ATOM      4  O   UNL A   1      33.609  24.655  21.645  1.00  0.00    -0.270 OA
ATOM      5  C   UNL A   1      33.200  25.415  22.519  1.00  0.00     0.251 C 
ATOM      6  H   UNL A   1      33.799  27.068  21.559  1.00  0.00     0.163 HD
BRANCH   5   7
ATOM      7  C   UNL A   1      32.556  24.839  23.738  1.00  0.00     0.067 C 
ATOM      8  C   UNL A   1      31.830  23.710  23.686  1.00  0.00     0.025 C 
ATOM      9  C   UNL A   1      33.329  25.139  24.994  1.00  0.00     0.314 C 
ATOM     10  C   UNL A   1      32.436  22.563  24.409  1.00  0.00     0.020 A 
ATOM     11  O   UNL A   1      34.127  24.003  25.424  1.00  0.00    -0.474 OA
ATOM     12  C   UNL A   1      32.033  21.286  23.992  1.00  0.00     0.032 A 
ATOM     13  C   UNL A   1      33.683  22.752  25.055  1.00  0.00     0.143 A 
ATOM     14  C   UNL A   1      32.921  20.219  24.109  1.00  0.00     0.043 A 
ATOM     15  C   UNL A   1      34.592  21.678  25.100  1.00  0.00     0.069 A 
ATOM     16  Cl  UNL A   1      32.513  18.696  23.418  1.00  0.00    -0.084 Cl
ATOM     17  C   UNL A   1      34.198  20.414  24.633  1.00  0.00     0.041 A 
BRANCH   9  18
ATOM     18  C   UNL A   1      32.357  25.658  26.071  1.00  0.00     0.429 C 
ATOM     19  F   UNL A   1      31.940  24.667  26.891  1.00  0.00    -0.167 F 
ATOM     20  F   UNL A   1      32.949  26.594  26.856  1.00  0.00    -0.167 F 
ATOM     21  F   UNL A   1      31.254  26.238  25.540  1.00  0.00    -0.167 F 
ENDBRANCH   9  18
BRANCH  15  22
ATOM     22  C   UNL A   1      36.001  21.853  25.347  1.00  0.00    -0.058 C 
ATOM     23  C   UNL A   1      37.119  22.111  25.706  1.00  0.00    -0.062 C 
BRANCH  23  24
ATOM     24  C   UNL A   1      38.414  22.556  26.144  1.00  0.00     0.025 A 
ATOM     25  C   UNL A   1      39.505  21.682  26.210  1.00  0.00     0.017 A 
ATOM     26  C   UNL A   1      38.567  23.871  26.586  1.00  0.00     0.017 A 
ATOM     27  C   UNL A   1      40.728  22.113  26.736  1.00  0.00     0.001 A 
ATOM     28  C   UNL A   1      39.790  24.304  27.107  1.00  0.00     0.001 A 
ATOM     29  C   UNL A   1      40.868  23.424  27.189  1.00  0.00     0.000 A 
ENDBRANCH  23  24
ENDBRANCH  15  22
ENDBRANCH   5   7
ENDBRANCH   2   3
ENDBRANCH   1   2
BRANCH   1  30
ATOM     30  C   UNL A   1      33.664  28.944  24.958  1.00  0.00     0.118 C 
BRANCH  30  31
ATOM     31  N   UNL A   1      32.976  30.005  25.699  1.00  0.00    -0.352 N 
ATOM     32  C   UNL A   1      33.376  30.726  26.801  1.00  0.00     0.251 C 
ATOM     33  H   UNL A   1      32.084  30.240  25.353  1.00  0.00     0.163 HD
ATOM     34  O   UNL A   1      32.591  31.484  27.361  1.00  0.00    -0.269 OA
BRANCH  32  35
ATOM     35  C   UNL A   1      34.737  30.557  27.341  1.00  0.00     0.039 A 
ATOM     36  C   UNL A   1      35.512  31.683  27.619  1.00  0.00     0.014 A 
ATOM     37  C   UNL A   1      35.224  29.287  27.634  1.00  0.00     0.014 A 
ATOM     38  C   UNL A   1      36.730  31.527  28.280  1.00  0.00     0.010 A 
ATOM     39  C   UNL A   1      36.311  29.154  28.474  1.00  0.00     0.010 A 
ATOM     40  C   UNL A   1      37.110  30.264  28.761  1.00  0.00    -0.014 A 
BRANCH  40  41
ATOM     41  C   UNL A   1      38.371  30.050  29.504  1.00  0.00     0.031 A 
ATOM     42  C   UNL A   1      38.483  30.540  30.925  1.00  0.00     0.074 A 
ATOM     43  C   UNL A   1      39.423  29.482  28.885  1.00  0.00     0.049 A 
ATOM     44  N   UNL A   1      39.512  30.505  31.733  1.00  0.00    -0.248 NA
ATOM     45  C   UNL A   1      37.301  31.208  31.503  1.00  0.00     0.031 C 
ATOM     46  C   UNL A   1      39.454  29.035  27.488  1.00  0.00     0.029 A 
ATOM     47  N   UNL A   1      40.671  29.176  29.357  1.00  0.00    -0.354 N 
ATOM     48  C   UNL A   1      39.105  31.168  32.884  1.00  0.00     0.074 A 
ATOM     49  C   UNL A   1      37.780  31.681  32.640  1.00  0.00     0.031 C 
ATOM     50  C   UNL A   1      40.638  28.453  27.240  1.00  0.00     0.029 A 
ATOM     51  C   UNL A   1      41.464  28.533  28.438  1.00  0.00     0.049 A 
ATOM     52  H   UNL A   1      40.971  29.395  30.269  1.00  0.00     0.167 HD
ATOM     53  C   UNL A   1      39.756  31.300  34.062  1.00  0.00     0.031 A 
ATOM     54  C   UNL A   1      42.715  28.054  28.558  1.00  0.00     0.031 A 
ATOM     55  C   UNL A   1      41.061  30.756  34.308  1.00  0.00     0.049 A 
ATOM     56  C   UNL A   1      43.413  28.196  29.882  1.00  0.00     0.074 A 
ATOM     57  C   UNL A   1      41.797  30.769  35.478  1.00  0.00     0.029 A 
ATOM     58  N   UNL A   1      41.823  30.093  33.358  1.00  0.00    -0.354 N 
ATOM     59  N   UNL A   1      42.987  28.757  30.989  1.00  0.00    -0.248 NA
ATOM     60  C   UNL A   1      44.758  27.617  29.978  1.00  0.00     0.031 C 
ATOM     61  C   UNL A   1      43.031  30.166  35.218  1.00  0.00     0.029 A 
ATOM     62  C   UNL A   1      43.033  29.711  33.908  1.00  0.00     0.049 A 
ATOM     63  H   UNL A   1      41.544  29.921  32.429  1.00  0.00     0.167 HD
ATOM     64  C   UNL A   1      43.997  28.569  31.924  1.00  0.00     0.074 A 
ATOM     65  C   UNL A   1      45.044  27.820  31.255  1.00  0.00     0.031 C 
ATOM     66  C   UNL A   1      44.059  28.974  33.217  1.00  0.00     0.031 A 
BRANCH  53  67
ATOM     67  C   UNL A   1      39.055  32.058  35.158  1.00  0.00    -0.014 A 
ATOM     68  C   UNL A   1      39.071  33.463  35.206  1.00  0.00     0.009 A 
ATOM     69  C   UNL A   1      38.367  31.358  36.160  1.00  0.00     0.009 A 
ATOM     70  C   UNL A   1      38.458  34.146  36.258  1.00  0.00     0.001 A 
ATOM     71  C   UNL A   1      37.721  32.045  37.191  1.00  0.00     0.001 A 
ATOM     72  C   UNL A   1      37.779  33.437  37.246  1.00  0.00     0.000 A 
ENDBRANCH  53  67
BRANCH  54  73
ATOM     73  C   UNL A   1      43.366  27.362  27.416  1.00  0.00    -0.014 A 
ATOM     74  C   UNL A   1      43.282  25.967  27.282  1.00  0.00     0.009 A 
ATOM     75  C   UNL A   1      44.080  28.090  26.451  1.00  0.00     0.009 A 
ATOM     76  C   UNL A   1      43.930  25.314  26.230  1.00  0.00     0.001 A 
ATOM     77  C   UNL A   1      44.697  27.439  25.381  1.00  0.00     0.001 A 
ATOM     78  C   UNL A   1      44.633  26.050  25.278  1.00  0.00     0.000 A 
ENDBRANCH  54  73
BRANCH  66  79
ATOM     79  C   UNL A   1      45.279  28.570  33.997  1.00  0.00    -0.014 A 
ATOM     80  C   UNL A   1      46.411  29.396  34.072  1.00  0.00     0.009 A 
ATOM     81  C   UNL A   1      45.286  27.342  34.677  1.00  0.00     0.009 A 
ATOM     82  C   UNL A   1      47.548  28.972  34.763  1.00  0.00     0.001 A 
ATOM     83  C   UNL A   1      46.407  26.940  35.401  1.00  0.00     0.001 A 
ATOM     84  C   UNL A   1      47.544  27.747  35.428  1.00  0.00     0.000 A 
ENDBRANCH  66  79
ENDBRANCH  40  41
ENDBRANCH  32  35
ENDBRANCH  30  31
ENDBRANCH   1  30
TORSDOF 13
ENDMDL
