MODEL 1
REMARK VINA RESULT:     -10.8      0.000      0.000
REMARK SMILES COc1ccc(-c2cc(Cl)cc3c2O[C@@H](C(F)(F)F)C(C(=O)NCCCNC(=O)c2ccc(-c4c5nc(c(-c6ccccc6)c6ccc([nH]6)c(-c6ccccc6)c6nc(c(-c7ccccc7)c7ccc4[nH]7)C=C6)C=C5)cc2)=C3)cc1C
REMARK SMILES IDX 25 1 24 2 23 3 21 4 22 5 20 7 7 8 8 9 13 10 9 11 12 12 14 13
REMARK SMILES IDX 10 14 11 15 78 16 15 17 6 18 3 19 4 20 80 21 5 22 79 23
REMARK SMILES IDX 81 24 2 25 1 26 16 27 17 28 18 29 19 30 26 31 27 32 28 33
REMARK SMILES IDX 29 35 30 36 31 37 77 38 32 39 76 40 33 41 34 42 35 43 70 44
REMARK SMILES IDX 36 45 75 46 69 47 71 48 37 49 74 50 68 51 67 52 38 54 60 55
REMARK SMILES IDX 45 56 59 57 46 58 49 59 58 60 72 61 47 62 48 63 57 65 73 66
REMARK SMILES IDX 50 67 39 68 40 69 44 70 41 71 43 72 42 73 61 74 62 75 66 76
REMARK SMILES IDX 63 77 65 78 64 79 51 80 52 81 56 82 53 83 55 84 54 85
REMARK H PARENT 23 6 27 34 71 53 49 64
REMARK Flexibility Score: inf
ROOT
ATOM      1  C   UNL A   1      33.915  33.254  28.371  1.00  0.00     0.042 C 
ENDROOT
BRANCH   1   2
ATOM      2  C   UNL A   1      34.053  33.923  29.737  1.00  0.00     0.118 C 
BRANCH   2   3
ATOM      3  N   UNL A   1      35.178  33.425  30.513  1.00  0.00    -0.352 N 
ATOM      4  C   UNL A   1      35.254  32.942  31.787  1.00  0.00     0.251 C 
ATOM      5  O   UNL A   1      36.009  31.980  31.959  1.00  0.00    -0.270 OA
ATOM      6  H   UNL A   1      36.037  33.437  30.033  1.00  0.00     0.163 HD
BRANCH   4   7
ATOM      7  C   UNL A   1      34.576  33.612  32.988  1.00  0.00     0.067 C 
ATOM      8  C   UNL A   1      38.317  34.834  33.914  1.00  0.00     0.026 A 
ATOM      9  C   UNL A   1      38.783  34.780  35.241  1.00  0.00     0.033 A 
ATOM     10  C   UNL A   1      36.953  34.597  33.750  1.00  0.00     0.135 A 
ATOM     11  C   UNL A   1      38.016  34.161  36.235  1.00  0.00     0.042 A 
ATOM     12  C   UNL A   1      36.283  33.716  34.639  1.00  0.00     0.019 A 
ATOM     13  O   UNL A   1      36.218  35.330  32.800  1.00  0.00    -0.475 OA
ATOM     14  Cl  UNL A   1      38.646  34.034  37.831  1.00  0.00    -0.084 Cl
ATOM     15  C   UNL A   1      36.809  33.535  35.913  1.00  0.00     0.032 A 
ATOM     16  C   UNL A   1      35.016  33.062  34.153  1.00  0.00     0.025 C 
ATOM     17  C   UNL A   1      34.799  35.116  33.079  1.00  0.00     0.314 C 
BRANCH   8  18
ATOM     18  C   UNL A   1      39.274  34.292  32.911  1.00  0.00    -0.014 A 
ATOM     19  C   UNL A   1      41.326  33.684  31.040  1.00  0.00     0.121 A 
ATOM     20  C   UNL A   1      39.961  33.561  30.713  1.00  0.00     0.047 A 
ATOM     21  C   UNL A   1      41.687  34.104  32.321  1.00  0.00    -0.008 A 
ATOM     22  C   UNL A   1      38.940  33.864  31.633  1.00  0.00     0.013 A 
ATOM     23  C   UNL A   1      40.653  34.350  33.242  1.00  0.00     0.016 A 
ATOM     24  C   UNL A   1      43.092  34.389  32.771  1.00  0.00     0.048 C 
BRANCH  19  25
ATOM     25  O   UNL A   1      42.172  33.480  29.983  1.00  0.00    -0.496 OA
ATOM     26  C   UNL A   1      42.434  34.596  29.140  1.00  0.00     0.278 C 
ENDBRANCH  19  25
ENDBRANCH   8  18
BRANCH  17  27
ATOM     27  C   UNL A   1      33.721  36.040  32.504  1.00  0.00     0.429 C 
ATOM     28  F   UNL A   1      32.570  35.339  32.296  1.00  0.00    -0.167 F 
ATOM     29  F   UNL A   1      33.397  37.057  33.323  1.00  0.00    -0.167 F 
ATOM     30  F   UNL A   1      34.045  36.548  31.295  1.00  0.00    -0.167 F 
ENDBRANCH  17  27
ENDBRANCH   4   7
ENDBRANCH   2   3
ENDBRANCH   1   2
BRANCH   1  31
ATOM     31  C   UNL A   1      35.153  32.502  27.898  1.00  0.00     0.118 C 
BRANCH  31  32
ATOM     32  N   UNL A   1      34.874  31.129  27.458  1.00  0.00    -0.352 N 
ATOM     33  C   UNL A   1      35.529  29.959  27.813  1.00  0.00     0.251 C 
ATOM     34  H   UNL A   1      34.124  31.025  26.830  1.00  0.00     0.163 HD
ATOM     35  O   UNL A   1      35.130  28.875  27.476  1.00  0.00    -0.269 OA
BRANCH  33  36
ATOM     36  C   UNL A   1      36.699  30.091  28.720  1.00  0.00     0.039 A 
ATOM     37  C   UNL A   1      37.708  30.976  28.340  1.00  0.00     0.014 A 
ATOM     38  C   UNL A   1      36.906  29.125  29.700  1.00  0.00     0.014 A 
ATOM     39  C   UNL A   1      39.010  30.710  28.748  1.00  0.00     0.010 A 
ATOM     40  C   UNL A   1      38.209  28.817  30.043  1.00  0.00     0.010 A 
ATOM     41  C   UNL A   1      39.263  29.548  29.480  1.00  0.00    -0.014 A 
BRANCH  41  42
ATOM     42  C   UNL A   1      40.570  28.892  29.455  1.00  0.00     0.031 A 
ATOM     43  C   UNL A   1      40.765  27.555  28.871  1.00  0.00     0.074 A 
ATOM     44  C   UNL A   1      41.645  29.550  29.948  1.00  0.00     0.049 A 
ATOM     45  N   UNL A   1      41.756  26.782  29.170  1.00  0.00    -0.248 NA
ATOM     46  C   UNL A   1      39.802  26.935  27.969  1.00  0.00     0.031 C 
ATOM     47  C   UNL A   1      43.056  29.221  29.765  1.00  0.00     0.029 A 
ATOM     48  N   UNL A   1      41.645  30.535  30.936  1.00  0.00    -0.354 N 
ATOM     49  C   UNL A   1      41.744  25.739  28.280  1.00  0.00     0.074 A 
ATOM     50  C   UNL A   1      40.435  25.796  27.672  1.00  0.00     0.031 C 
ATOM     51  C   UNL A   1      43.761  29.781  30.759  1.00  0.00     0.029 A 
ATOM     52  C   UNL A   1      42.817  30.364  31.695  1.00  0.00     0.049 A 
ATOM     53  H   UNL A   1      40.954  31.222  31.076  1.00  0.00     0.167 HD
ATOM     54  C   UNL A   1      42.894  25.044  28.051  1.00  0.00     0.031 A 
ATOM     55  C   UNL A   1      42.752  30.077  33.029  1.00  0.00     0.031 A 
ATOM     56  C   UNL A   1      43.946  25.359  29.027  1.00  0.00     0.049 A 
ATOM     57  C   UNL A   1      43.365  28.747  33.425  1.00  0.00     0.074 A 
ATOM     58  C   UNL A   1      45.182  25.983  28.972  1.00  0.00     0.029 A 
ATOM     59  N   UNL A   1      43.673  25.185  30.378  1.00  0.00    -0.354 N 
ATOM     60  N   UNL A   1      43.908  27.898  32.597  1.00  0.00    -0.248 NA
ATOM     61  C   UNL A   1      43.289  28.219  34.790  1.00  0.00     0.031 C 
ATOM     62  C   UNL A   1      45.643  26.181  30.308  1.00  0.00     0.029 A 
ATOM     63  C   UNL A   1      44.697  25.662  31.171  1.00  0.00     0.049 A 
ATOM     64  H   UNL A   1      42.851  24.771  30.726  1.00  0.00     0.167 HD
ATOM     65  C   UNL A   1      44.140  26.718  33.253  1.00  0.00     0.074 A 
ATOM     66  C   UNL A   1      43.758  26.973  34.629  1.00  0.00     0.031 C 
ATOM     67  C   UNL A   1      44.555  25.586  32.616  1.00  0.00     0.031 A 
BRANCH  54  68
ATOM     68  C   UNL A   1      43.148  24.208  26.811  1.00  0.00    -0.014 A 
ATOM     69  C   UNL A   1      42.648  22.893  26.746  1.00  0.00     0.009 A 
ATOM     70  C   UNL A   1      43.942  24.602  25.718  1.00  0.00     0.009 A 
ATOM     71  C   UNL A   1      42.961  22.024  25.688  1.00  0.00     0.001 A 
ATOM     72  C   UNL A   1      44.246  23.748  24.650  1.00  0.00     0.001 A 
ATOM     73  C   UNL A   1      43.766  22.451  24.641  1.00  0.00     0.000 A 
ENDBRANCH  54  68
BRANCH  55  74
ATOM     74  C   UNL A   1      41.575  30.679  33.715  1.00  0.00    -0.014 A 
ATOM     75  C   UNL A   1      40.282  30.311  33.294  1.00  0.00     0.009 A 
ATOM     76  C   UNL A   1      41.718  31.344  34.941  1.00  0.00     0.009 A 
ATOM     77  C   UNL A   1      39.177  30.518  34.123  1.00  0.00     0.001 A 
ATOM     78  C   UNL A   1      40.606  31.563  35.761  1.00  0.00     0.001 A 
ATOM     79  C   UNL A   1      39.343  31.123  35.366  1.00  0.00     0.000 A 
ENDBRANCH  55  74
BRANCH  67  80
ATOM     80  C   UNL A   1      44.798  24.286  33.328  1.00  0.00    -0.014 A 
ATOM     81  C   UNL A   1      43.770  23.370  33.593  1.00  0.00     0.009 A 
ATOM     82  C   UNL A   1      46.072  23.991  33.853  1.00  0.00     0.009 A 
ATOM     83  C   UNL A   1      44.017  22.183  34.296  1.00  0.00     0.001 A 
ATOM     84  C   UNL A   1      46.317  22.821  34.575  1.00  0.00     0.001 A 
ATOM     85  C   UNL A   1      45.291  21.910  34.786  1.00  0.00     0.000 A 
ENDBRANCH  67  80
ENDBRANCH  41  42
ENDBRANCH  33  36
ENDBRANCH  31  32
ENDBRANCH   1  31
TORSDOF 13
ENDMDL
MODEL 2
REMARK VINA RESULT:     -10.7      5.311     11.033
REMARK SMILES COc1ccc(-c2cc(Cl)cc3c2O[C@@H](C(F)(F)F)C(C(=O)NCCCNC(=O)c2ccc(-c4c5nc(c(-c6ccccc6)c6ccc([nH]6)c(-c6ccccc6)c6nc(c(-c7ccccc7)c7ccc4[nH]7)C=C6)C=C5)cc2)=C3)cc1C
REMARK SMILES IDX 25 1 24 2 23 3 21 4 22 5 20 7 7 8 8 9 13 10 9 11 12 12 14 13
REMARK SMILES IDX 10 14 11 15 78 16 15 17 6 18 3 19 4 20 80 21 5 22 79 23
REMARK SMILES IDX 81 24 2 25 1 26 16 27 17 28 18 29 19 30 26 31 27 32 28 33
REMARK SMILES IDX 29 35 30 36 31 37 77 38 32 39 76 40 33 41 34 42 35 43 70 44
REMARK SMILES IDX 36 45 75 46 69 47 71 48 37 49 74 50 68 51 67 52 38 54 60 55
REMARK SMILES IDX 45 56 59 57 46 58 49 59 58 60 72 61 47 62 48 63 57 65 73 66
REMARK SMILES IDX 50 67 39 68 40 69 44 70 41 71 43 72 42 73 61 74 62 75 66 76
REMARK SMILES IDX 63 77 65 78 64 79 51 80 52 81 56 82 53 83 55 84 54 85
REMARK H PARENT 23 6 27 34 71 53 49 64
REMARK Flexibility Score: inf
ROOT
ATOM      1  C   UNL A   1      36.765  23.549  26.529  1.00  0.00     0.042 C 
ENDROOT
BRANCH   1   2
ATOM      2  C   UNL A   1      35.448  23.260  25.812  1.00  0.00     0.118 C 
BRANCH   2   3
ATOM      3  N   UNL A   1      34.352  24.110  26.249  1.00  0.00    -0.352 N 
ATOM      4  C   UNL A   1      33.000  23.973  26.130  1.00  0.00     0.251 C 
ATOM      5  O   UNL A   1      32.331  24.328  27.106  1.00  0.00    -0.270 OA
ATOM      6  H   UNL A   1      34.638  24.928  26.716  1.00  0.00     0.163 HD
BRANCH   4   7
ATOM      7  C   UNL A   1      32.303  23.550  24.833  1.00  0.00     0.067 C 
ATOM      8  C   UNL A   1      31.834  27.524  24.253  1.00  0.00     0.026 A 
ATOM      9  C   UNL A   1      30.613  28.043  23.784  1.00  0.00     0.033 A 
ATOM     10  C   UNL A   1      31.951  26.135  24.206  1.00  0.00     0.135 A 
ATOM     11  C   UNL A   1      29.494  27.211  23.656  1.00  0.00     0.042 A 
ATOM     12  C   UNL A   1      30.795  25.328  24.373  1.00  0.00     0.019 A 
ATOM     13  O   UNL A   1      33.178  25.541  23.857  1.00  0.00    -0.475 OA
ATOM     14  Cl  UNL A   1      27.992  27.888  23.160  1.00  0.00    -0.084 Cl
ATOM     15  C   UNL A   1      29.557  25.872  24.051  1.00  0.00     0.032 A 
ATOM     16  C   UNL A   1      30.991  23.915  24.855  1.00  0.00     0.025 C 
ATOM     17  C   UNL A   1      32.920  24.132  23.568  1.00  0.00     0.314 C 
BRANCH   8  18
ATOM     18  C   UNL A   1      32.401  28.261  25.417  1.00  0.00    -0.014 A 
ATOM     19  C   UNL A   1      33.505  30.045  27.334  1.00  0.00     0.121 A 
ATOM     20  C   UNL A   1      34.094  28.796  27.054  1.00  0.00     0.047 A 
ATOM     21  C   UNL A   1      32.339  30.416  26.663  1.00  0.00    -0.008 A 
ATOM     22  C   UNL A   1      33.556  27.910  26.103  1.00  0.00     0.013 A 
ATOM     23  C   UNL A   1      31.786  29.494  25.757  1.00  0.00     0.016 A 
ATOM     24  C   UNL A   1      31.669  31.756  26.776  1.00  0.00     0.048 C 
BRANCH  19  25
ATOM     25  O   UNL A   1      34.239  30.830  28.182  1.00  0.00    -0.496 OA
ATOM     26  C   UNL A   1      35.410  31.440  27.649  1.00  0.00     0.278 C 
ENDBRANCH  19  25
ENDBRANCH   8  18
BRANCH  17  27
ATOM     27  C   UNL A   1      33.928  23.274  22.798  1.00  0.00     0.429 C 
ATOM     28  F   UNL A   1      33.573  23.207  21.483  1.00  0.00    -0.167 F 
ATOM     29  F   UNL A   1      35.180  23.769  22.823  1.00  0.00    -0.167 F 
ATOM     30  F   UNL A   1      33.965  21.991  23.217  1.00  0.00    -0.167 F 
ENDBRANCH  17  27
ENDBRANCH   4   7
ENDBRANCH   2   3
ENDBRANCH   1   2
BRANCH   1  31
ATOM     31  C   UNL A   1      37.981  23.658  25.618  1.00  0.00     0.118 C 
BRANCH  31  32
ATOM     32  N   UNL A   1      39.247  23.323  26.284  1.00  0.00    -0.352 N 
ATOM     33  C   UNL A   1      39.913  24.026  27.275  1.00  0.00     0.251 C 
ATOM     34  H   UNL A   1      39.678  22.490  25.988  1.00  0.00     0.163 HD
ATOM     35  O   UNL A   1      40.888  23.586  27.827  1.00  0.00    -0.269 OA
BRANCH  33  36
ATOM     36  C   UNL A   1      39.312  25.316  27.706  1.00  0.00     0.039 A 
ATOM     37  C   UNL A   1      39.563  26.436  26.913  1.00  0.00     0.014 A 
ATOM     38  C   UNL A   1      38.825  25.433  29.004  1.00  0.00     0.014 A 
ATOM     39  C   UNL A   1      39.587  27.685  27.523  1.00  0.00     0.010 A 
ATOM     40  C   UNL A   1      38.923  26.665  29.625  1.00  0.00     0.010 A 
ATOM     41  C   UNL A   1      39.406  27.765  28.905  1.00  0.00    -0.014 A 
BRANCH  41  42
ATOM     42  C   UNL A   1      39.964  28.864  29.692  1.00  0.00     0.031 A 
ATOM     43  C   UNL A   1      39.133  29.973  30.188  1.00  0.00     0.074 A 
ATOM     44  C   UNL A   1      41.280  28.844  30.010  1.00  0.00     0.049 A 
ATOM     45  N   UNL A   1      39.607  31.129  30.519  1.00  0.00    -0.248 NA
ATOM     46  C   UNL A   1      37.679  29.903  30.263  1.00  0.00     0.031 C 
ATOM     47  C   UNL A   1      41.972  29.658  31.005  1.00  0.00     0.029 A 
ATOM     48  N   UNL A   1      42.306  28.225  29.296  1.00  0.00    -0.354 N 
ATOM     49  C   UNL A   1      38.600  31.818  31.146  1.00  0.00     0.074 A 
ATOM     50  C   UNL A   1      37.399  31.087  30.817  1.00  0.00     0.031 C 
ATOM     51  C   UNL A   1      43.275  29.700  30.695  1.00  0.00     0.029 A 
ATOM     52  C   UNL A   1      43.446  29.039  29.414  1.00  0.00     0.049 A 
ATOM     53  H   UNL A   1      42.244  27.376  28.801  1.00  0.00     0.167 HD
ATOM     54  C   UNL A   1      38.918  32.838  31.993  1.00  0.00     0.031 A 
ATOM     55  C   UNL A   1      44.025  29.599  28.311  1.00  0.00     0.031 A 
ATOM     56  C   UNL A   1      40.330  33.231  31.897  1.00  0.00     0.049 A 
ATOM     57  C   UNL A   1      44.036  31.117  28.298  1.00  0.00     0.074 A 
ATOM     58  C   UNL A   1      41.427  33.168  32.741  1.00  0.00     0.029 A 
ATOM     59  N   UNL A   1      40.831  33.612  30.659  1.00  0.00    -0.354 N 
ATOM     60  N   UNL A   1      43.531  31.875  29.230  1.00  0.00    -0.248 NA
ATOM     61  C   UNL A   1      44.511  31.891  27.148  1.00  0.00     0.031 C 
ATOM     62  C   UNL A   1      42.590  33.515  31.992  1.00  0.00     0.029 A 
ATOM     63  C   UNL A   1      42.198  33.804  30.698  1.00  0.00     0.049 A 
ATOM     64  H   UNL A   1      40.280  33.730  29.852  1.00  0.00     0.167 HD
ATOM     65  C   UNL A   1      43.503  33.172  28.788  1.00  0.00     0.074 A 
ATOM     66  C   UNL A   1      44.148  33.137  27.488  1.00  0.00     0.031 C 
ATOM     67  C   UNL A   1      42.887  34.176  29.474  1.00  0.00     0.031 A 
BRANCH  54  68
ATOM     68  C   UNL A   1      37.990  33.366  33.071  1.00  0.00    -0.014 A 
ATOM     69  C   UNL A   1      38.082  32.853  34.379  1.00  0.00     0.009 A 
ATOM     70  C   UNL A   1      36.944  34.284  32.859  1.00  0.00     0.009 A 
ATOM     71  C   UNL A   1      37.166  33.200  35.386  1.00  0.00     0.001 A 
ATOM     72  C   UNL A   1      36.035  34.649  33.861  1.00  0.00     0.001 A 
ATOM     73  C   UNL A   1      36.139  34.095  35.125  1.00  0.00     0.000 A 
ENDBRANCH  54  68
BRANCH  55  74
ATOM     74  C   UNL A   1      43.905  28.766  27.082  1.00  0.00    -0.014 A 
ATOM     75  C   UNL A   1      44.727  27.630  26.949  1.00  0.00     0.009 A 
ATOM     76  C   UNL A   1      42.806  28.903  26.222  1.00  0.00     0.009 A 
ATOM     77  C   UNL A   1      44.401  26.615  26.046  1.00  0.00     0.001 A 
ATOM     78  C   UNL A   1      42.493  27.892  25.308  1.00  0.00     0.001 A 
ATOM     79  C   UNL A   1      43.271  26.737  25.242  1.00  0.00     0.000 A 
ENDBRANCH  55  74
BRANCH  67  80
ATOM     80  C   UNL A   1      42.843  35.596  28.986  1.00  0.00    -0.014 A 
ATOM     81  C   UNL A   1      41.936  36.026  28.006  1.00  0.00     0.009 A 
ATOM     82  C   UNL A   1      43.798  36.530  29.432  1.00  0.00     0.009 A 
ATOM     83  C   UNL A   1      41.943  37.347  27.539  1.00  0.00     0.001 A 
ATOM     84  C   UNL A   1      43.824  37.842  28.952  1.00  0.00     0.001 A 
ATOM     85  C   UNL A   1      42.888  38.254  28.013  1.00  0.00     0.000 A 
ENDBRANCH  67  80
ENDBRANCH  41  42
ENDBRANCH  33  36
ENDBRANCH  31  32
ENDBRANCH   1  31
TORSDOF 13
ENDMDL
MODEL 3
REMARK VINA RESULT:     -10.6      5.527     10.711
REMARK SMILES COc1ccc(-c2cc(Cl)cc3c2O[C@@H](C(F)(F)F)C(C(=O)NCCCNC(=O)c2ccc(-c4c5nc(c(-c6ccccc6)c6ccc([nH]6)c(-c6ccccc6)c6nc(c(-c7ccccc7)c7ccc4[nH]7)C=C6)C=C5)cc2)=C3)cc1C
REMARK SMILES IDX 25 1 24 2 23 3 21 4 22 5 20 7 7 8 8 9 13 10 9 11 12 12 14 13
REMARK SMILES IDX 10 14 11 15 78 16 15 17 6 18 3 19 4 20 80 21 5 22 79 23
REMARK SMILES IDX 81 24 2 25 1 26 16 27 17 28 18 29 19 30 26 31 27 32 28 33
REMARK SMILES IDX 29 35 30 36 31 37 77 38 32 39 76 40 33 41 34 42 35 43 70 44
REMARK SMILES IDX 36 45 75 46 69 47 71 48 37 49 74 50 68 51 67 52 38 54 60 55
REMARK SMILES IDX 45 56 59 57 46 58 49 59 58 60 72 61 47 62 48 63 57 65 73 66
REMARK SMILES IDX 50 67 39 68 40 69 44 70 41 71 43 72 42 73 61 74 62 75 66 76
REMARK SMILES IDX 63 77 65 78 64 79 51 80 52 81 56 82 53 83 55 84 54 85
REMARK H PARENT 23 6 27 34 71 53 49 64
REMARK Flexibility Score: inf
ROOT
ATOM      1  C   UNL A   1      36.271  22.739  26.355  1.00  0.00     0.042 C 
ENDROOT
BRANCH   1   2
ATOM      2  C   UNL A   1      34.866  22.636  25.763  1.00  0.00     0.118 C 
BRANCH   2   3
ATOM      3  N   UNL A   1      34.033  23.793  26.047  1.00  0.00    -0.352 N 
ATOM      4  C   UNL A   1      32.697  24.010  25.873  1.00  0.00     0.251 C 
ATOM      5  O   UNL A   1      32.129  24.643  26.768  1.00  0.00    -0.270 OA
ATOM      6  H   UNL A   1      34.520  24.555  26.437  1.00  0.00     0.163 HD
BRANCH   4   7
ATOM      7  C   UNL A   1      31.939  23.636  24.594  1.00  0.00     0.067 C 
ATOM      8  C   UNL A   1      31.699  27.634  24.042  1.00  0.00     0.026 A 
ATOM      9  C   UNL A   1      30.499  28.230  23.609  1.00  0.00     0.033 A 
ATOM     10  C   UNL A   1      31.729  26.242  23.987  1.00  0.00     0.135 A 
ATOM     11  C   UNL A   1      29.329  27.469  23.510  1.00  0.00     0.042 A 
ATOM     12  C   UNL A   1      30.531  25.506  24.184  1.00  0.00     0.019 A 
ATOM     13  O   UNL A   1      32.907  25.575  23.600  1.00  0.00    -0.475 OA
ATOM     14  Cl  UNL A   1      27.858  28.239  23.059  1.00  0.00    -0.084 Cl
ATOM     15  C   UNL A   1      29.320  26.126  23.898  1.00  0.00     0.032 A 
ATOM     16  C   UNL A   1      30.654  24.081  24.654  1.00  0.00     0.025 C 
ATOM     17  C   UNL A   1      32.555  24.186  23.315  1.00  0.00     0.314 C 
BRANCH   8  18
ATOM     18  C   UNL A   1      32.343  28.329  25.191  1.00  0.00    -0.014 A 
ATOM     19  C   UNL A   1      33.554  30.049  27.102  1.00  0.00     0.121 A 
ATOM     20  C   UNL A   1      34.156  28.839  26.704  1.00  0.00     0.047 A 
ATOM     21  C   UNL A   1      32.322  30.412  26.556  1.00  0.00    -0.008 A 
ATOM     22  C   UNL A   1      33.564  27.985  25.755  1.00  0.00     0.013 A 
ATOM     23  C   UNL A   1      31.722  29.520  25.651  1.00  0.00     0.016 A 
ATOM     24  C   UNL A   1      31.623  31.720  26.800  1.00  0.00     0.048 C 
BRANCH  19  25
ATOM     25  O   UNL A   1      34.335  30.814  27.926  1.00  0.00    -0.496 OA
ATOM     26  C   UNL A   1      35.738  30.795  27.689  1.00  0.00     0.278 C 
ENDBRANCH  19  25
ENDBRANCH   8  18
BRANCH  17  27
ATOM     27  C   UNL A   1      33.487  23.272  22.513  1.00  0.00     0.429 C 
ATOM     28  F   UNL A   1      33.312  21.976  22.899  1.00  0.00    -0.167 F 
ATOM     29  F   UNL A   1      33.255  23.302  21.187  1.00  0.00    -0.167 F 
ATOM     30  F   UNL A   1      34.796  23.528  22.727  1.00  0.00    -0.167 F 
ENDBRANCH  17  27
ENDBRANCH   4   7
ENDBRANCH   2   3
ENDBRANCH   1   2
BRANCH   1  31
ATOM     31  C   UNL A   1      37.399  22.722  25.332  1.00  0.00     0.118 C 
BRANCH  31  32
ATOM     32  N   UNL A   1      38.655  22.162  25.849  1.00  0.00    -0.352 N 
ATOM     33  C   UNL A   1      39.632  22.789  26.607  1.00  0.00     0.251 C 
ATOM     34  H   UNL A   1      38.824  21.218  25.631  1.00  0.00     0.163 HD
ATOM     35  O   UNL A   1      40.564  22.187  27.074  1.00  0.00    -0.269 OA
BRANCH  33  36
ATOM     36  C   UNL A   1      39.430  24.230  26.908  1.00  0.00     0.039 A 
ATOM     37  C   UNL A   1      40.115  25.153  26.118  1.00  0.00     0.014 A 
ATOM     38  C   UNL A   1      38.858  24.592  28.125  1.00  0.00     0.014 A 
ATOM     39  C   UNL A   1      40.467  26.374  26.682  1.00  0.00     0.010 A 
ATOM     40  C   UNL A   1      39.273  25.773  28.711  1.00  0.00     0.010 A 
ATOM     41  C   UNL A   1      40.163  26.610  28.024  1.00  0.00    -0.014 A 
BRANCH  41  42
ATOM     42  C   UNL A   1      40.947  27.535  28.840  1.00  0.00     0.031 A 
ATOM     43  C   UNL A   1      40.492  28.905  29.129  1.00  0.00     0.074 A 
ATOM     44  C   UNL A   1      42.112  27.109  29.382  1.00  0.00     0.049 A 
ATOM     45  N   UNL A   1      41.285  29.863  29.479  1.00  0.00    -0.248 NA
ATOM     46  C   UNL A   1      39.110  29.335  28.953  1.00  0.00     0.031 C 
ATOM     47  C   UNL A   1      42.892  27.745  30.440  1.00  0.00     0.029 A 
ATOM     48  N   UNL A   1      42.951  26.109  28.888  1.00  0.00    -0.354 N 
ATOM     49  C   UNL A   1      40.503  30.913  29.886  1.00  0.00     0.074 A 
ATOM     50  C   UNL A   1      39.183  30.597  29.391  1.00  0.00     0.031 C 
ATOM     51  C   UNL A   1      44.159  27.314  30.359  1.00  0.00     0.029 A 
ATOM     52  C   UNL A   1      44.273  26.501  29.161  1.00  0.00     0.049 A 
ATOM     53  H   UNL A   1      42.669  25.283  28.433  1.00  0.00     0.167 HD
ATOM     54  C   UNL A   1      41.029  31.851  30.724  1.00  0.00     0.031 A 
ATOM     55  C   UNL A   1      45.165  26.714  28.149  1.00  0.00     0.031 A 
ATOM     56  C   UNL A   1      42.487  31.735  30.855  1.00  0.00     0.049 A 
ATOM     57  C   UNL A   1      45.705  28.129  28.063  1.00  0.00     0.074 A 
ATOM     58  C   UNL A   1      43.357  31.399  31.879  1.00  0.00     0.029 A 
ATOM     59  N   UNL A   1      43.264  31.792  29.705  1.00  0.00    -0.354 N 
ATOM     60  N   UNL A   1      45.366  29.108  28.855  1.00  0.00    -0.248 NA
ATOM     61  C   UNL A   1      46.583  28.572  26.975  1.00  0.00     0.031 C 
ATOM     62  C   UNL A   1      44.665  31.253  31.326  1.00  0.00     0.029 A 
ATOM     63  C   UNL A   1      44.591  31.517  29.971  1.00  0.00     0.049 A 
ATOM     64  H   UNL A   1      42.913  32.001  28.810  1.00  0.00     0.167 HD
ATOM     65  C   UNL A   1      45.857  30.284  28.350  1.00  0.00     0.074 A 
ATOM     66  C   UNL A   1      46.631  29.897  27.185  1.00  0.00     0.031 C 
ATOM     67  C   UNL A   1      45.537  31.503  28.868  1.00  0.00     0.031 A 
BRANCH  54  68
ATOM     68  C   UNL A   1      40.196  32.771  31.597  1.00  0.00    -0.014 A 
ATOM     69  C   UNL A   1      39.954  32.424  32.940  1.00  0.00     0.009 A 
ATOM     70  C   UNL A   1      39.540  33.933  31.150  1.00  0.00     0.009 A 
ATOM     71  C   UNL A   1      39.084  33.161  33.759  1.00  0.00     0.001 A 
ATOM     72  C   UNL A   1      38.682  34.685  31.965  1.00  0.00     0.001 A 
ATOM     73  C   UNL A   1      38.442  34.290  33.269  1.00  0.00     0.000 A 
ENDBRANCH  54  68
BRANCH  55  74
ATOM     74  C   UNL A   1      44.942  25.843  26.961  1.00  0.00    -0.014 A 
ATOM     75  C   UNL A   1      45.369  24.502  27.014  1.00  0.00     0.009 A 
ATOM     76  C   UNL A   1      44.064  26.229  25.939  1.00  0.00     0.009 A 
ATOM     77  C   UNL A   1      44.853  23.555  26.125  1.00  0.00     0.001 A 
ATOM     78  C   UNL A   1      43.563  25.281  25.042  1.00  0.00     0.001 A 
ATOM     79  C   UNL A   1      43.933  23.941  25.154  1.00  0.00     0.000 A 
ENDBRANCH  55  74
BRANCH  67  80
ATOM     80  C   UNL A   1      46.061  32.795  28.309  1.00  0.00    -0.014 A 
ATOM     81  C   UNL A   1      47.191  33.439  28.836  1.00  0.00     0.009 A 
ATOM     82  C   UNL A   1      45.360  33.464  27.287  1.00  0.00     0.009 A 
ATOM     83  C   UNL A   1      47.634  34.664  28.322  1.00  0.00     0.001 A 
ATOM     84  C   UNL A   1      45.785  34.697  26.787  1.00  0.00     0.001 A 
ATOM     85  C   UNL A   1      46.930  35.292  27.297  1.00  0.00     0.000 A 
ENDBRANCH  67  80
ENDBRANCH  41  42
ENDBRANCH  33  36
ENDBRANCH  31  32
ENDBRANCH   1  31
TORSDOF 13
ENDMDL
