MODEL 1
REMARK VINA RESULT:     -11.1      0.000      0.000
REMARK SMILES Cc1ccc2c(c1)c(-c1ccnc3c(C)cccc13)c(C)n2CC(=O)NCCCNC(=O)c1ccc(-c2c3nc(c(-c4ccccc4)c4ccc([nH]4)c(-c4ccccc4)c4nc(c(-c5ccccc5)c5ccc2[nH]5)C=C4)C=C3)cc1
REMARK SMILES IDX 28 1 27 2 26 3 24 4 25 5 23 7 22 8 1 9 2 10 3 11 7 12 4 13
REMARK SMILES IDX 6 14 5 15 8 16 20 17 21 18 9 19 10 20 19 21 11 22 13 23
REMARK SMILES IDX 18 24 12 25 14 26 17 27 15 28 16 29 29 30 30 31 31 32 32 34
REMARK SMILES IDX 33 35 34 36 80 37 35 38 79 39 36 40 37 41 38 42 73 43 39 44
REMARK SMILES IDX 78 45 72 46 74 47 40 48 77 49 71 50 70 51 41 53 63 54 48 55
REMARK SMILES IDX 62 56 49 57 52 58 61 59 75 60 50 61 51 62 60 64 76 65 53 66
REMARK SMILES IDX 42 67 43 68 47 69 44 70 46 71 45 72 64 73 65 74 69 75 66 76
REMARK SMILES IDX 68 77 67 78 54 79 55 80 59 81 56 82 58 83 57 84
REMARK H PARENT 26 6 30 33 74 52 52 63
REMARK Flexibility Score: inf
ROOT
ATOM      1  C   UNL A   1      34.165  35.359  28.642  1.00  0.00     0.042 C 
ENDROOT
BRANCH   1   2
ATOM      2  C   UNL A   1      33.349  35.087  29.908  1.00  0.00     0.117 C 
BRANCH   2   3
ATOM      3  N   UNL A   1      33.897  35.734  31.090  1.00  0.00    -0.354 N 
ATOM      4  C   UNL A   1      34.818  35.292  31.993  1.00  0.00     0.239 C 
ATOM      5  O   UNL A   1      35.155  36.072  32.888  1.00  0.00    -0.273 OA
ATOM      6  H   UNL A   1      33.546  36.637  31.265  1.00  0.00     0.163 HD
BRANCH   4   7
ATOM      7  C   UNL A   1      35.447  33.917  31.874  1.00  0.00     0.222 C 
BRANCH   7   8
ATOM      8  N   UNL A   1      36.815  33.866  32.374  1.00  0.00    -0.335 N 
ATOM      9  C   UNL A   1      41.828  34.222  29.786  1.00  0.00     0.044 C 
ATOM     10  C   UNL A   1      40.479  34.219  30.447  1.00  0.00    -0.050 A 
ATOM     11  C   UNL A   1      39.355  34.604  29.717  1.00  0.00     0.005 A 
ATOM     12  C   UNL A   1      40.332  33.809  31.781  1.00  0.00     0.014 A 
ATOM     13  C   UNL A   1      38.076  34.568  30.279  1.00  0.00     0.027 A 
ATOM     14  C   UNL A   1      39.050  33.761  32.372  1.00  0.00     0.008 A 
ATOM     15  C   UNL A   1      37.939  34.112  31.601  1.00  0.00     0.049 A 
ATOM     16  C   UNL A   1      38.568  33.401  33.663  1.00  0.00     0.011 A 
ATOM     17  C   UNL A   1      37.188  33.540  33.665  1.00  0.00     0.024 A 
ATOM     18  C   UNL A   1      36.220  33.328  34.785  1.00  0.00     0.065 C 
BRANCH  16  19
ATOM     19  C   UNL A   1      39.313  32.940  34.829  1.00  0.00    -0.005 A 
ATOM     20  C   UNL A   1      39.581  31.578  34.937  1.00  0.00     0.029 A 
ATOM     21  C   UNL A   1      39.787  33.843  35.816  1.00  0.00     0.008 A 
ATOM     22  C   UNL A   1      40.329  31.158  36.013  1.00  0.00     0.112 A 
ATOM     23  C   UNL A   1      40.558  33.309  36.874  1.00  0.00     0.074 A 
ATOM     24  C   UNL A   1      39.528  35.234  35.784  1.00  0.00     0.011 A 
ATOM     25  N   UNL A   1      40.816  31.987  36.959  1.00  0.00    -0.256 NA
ATOM     26  C   UNL A   1      41.061  34.190  37.843  1.00  0.00    -0.025 A 
ATOM     27  C   UNL A   1      40.015  36.090  36.763  1.00  0.00     0.001 A 
ATOM     28  C   UNL A   1      41.923  33.703  38.980  1.00  0.00     0.047 C 
ATOM     29  C   UNL A   1      40.785  35.569  37.789  1.00  0.00     0.005 A 
ENDBRANCH  16  19
ENDBRANCH   7   8
ENDBRANCH   4   7
ENDBRANCH   2   3
ENDBRANCH   1   2
BRANCH   1  30
ATOM     30  C   UNL A   1      35.098  34.213  28.245  1.00  0.00     0.118 C 
BRANCH  30  31
ATOM     31  N   UNL A   1      34.394  33.006  27.855  1.00  0.00    -0.352 N 
ATOM     32  C   UNL A   1      34.651  31.666  27.900  1.00  0.00     0.251 C 
ATOM     33  H   UNL A   1      33.512  33.201  27.463  1.00  0.00     0.163 HD
ATOM     34  O   UNL A   1      33.743  30.937  27.484  1.00  0.00    -0.269 OA
BRANCH  32  35
ATOM     35  C   UNL A   1      35.917  31.027  28.361  1.00  0.00     0.039 A 
ATOM     36  C   UNL A   1      36.982  31.670  28.988  1.00  0.00     0.014 A 
ATOM     37  C   UNL A   1      36.036  29.646  28.101  1.00  0.00     0.014 A 
ATOM     38  C   UNL A   1      38.155  30.970  29.287  1.00  0.00     0.010 A 
ATOM     39  C   UNL A   1      37.198  28.941  28.408  1.00  0.00     0.010 A 
ATOM     40  C   UNL A   1      38.279  29.614  28.966  1.00  0.00    -0.014 A 
BRANCH  40  41
ATOM     41  C   UNL A   1      39.551  28.947  29.261  1.00  0.00     0.031 A 
ATOM     42  C   UNL A   1      39.873  28.711  30.700  1.00  0.00     0.074 A 
ATOM     43  C   UNL A   1      40.390  28.467  28.320  1.00  0.00     0.049 A 
ATOM     44  N   UNL A   1      40.896  29.133  31.374  1.00  0.00    -0.248 NA
ATOM     45  C   UNL A   1      38.917  27.926  31.494  1.00  0.00     0.031 C 
ATOM     46  C   UNL A   1      40.155  28.301  26.883  1.00  0.00     0.029 A 
ATOM     47  N   UNL A   1      41.632  27.931  28.495  1.00  0.00    -0.354 N 
ATOM     48  C   UNL A   1      40.782  28.584  32.652  1.00  0.00     0.074 A 
ATOM     49  C   UNL A   1      39.512  27.902  32.688  1.00  0.00     0.031 C 
ATOM     50  C   UNL A   1      41.120  27.506  26.363  1.00  0.00     0.029 A 
ATOM     51  C   UNL A   1      42.116  27.252  27.389  1.00  0.00     0.049 A 
ATOM     52  H   UNL A   1      42.140  28.018  29.334  1.00  0.00     0.167 HD
ATOM     53  C   UNL A   1      41.789  28.625  33.569  1.00  0.00     0.031 A 
ATOM     54  C   UNL A   1      43.235  26.492  27.334  1.00  0.00     0.031 A 
ATOM     55  C   UNL A   1      42.788  29.601  33.238  1.00  0.00     0.049 A 
ATOM     56  C   UNL A   1      44.119  26.893  28.449  1.00  0.00     0.074 A 
ATOM     57  C   UNL A   1      42.811  30.976  33.138  1.00  0.00     0.029 A 
ATOM     58  N   UNL A   1      43.944  29.161  32.645  1.00  0.00    -0.354 N 
ATOM     59  N   UNL A   1      44.716  28.047  28.527  1.00  0.00    -0.248 NA
ATOM     60  C   UNL A   1      44.074  26.127  29.683  1.00  0.00     0.031 C 
ATOM     61  C   UNL A   1      43.725  31.253  32.080  1.00  0.00     0.029 A 
ATOM     62  C   UNL A   1      44.224  30.031  31.623  1.00  0.00     0.049 A 
ATOM     63  H   UNL A   1      44.473  28.372  32.903  1.00  0.00     0.167 HD
ATOM     64  C   UNL A   1      44.747  28.338  29.880  1.00  0.00     0.074 A 
ATOM     65  C   UNL A   1      44.460  27.071  30.545  1.00  0.00     0.031 C 
ATOM     66  C   UNL A   1      44.733  29.629  30.327  1.00  0.00     0.031 A 
BRANCH  53  67
ATOM     67  C   UNL A   1      42.008  27.606  34.658  1.00  0.00    -0.014 A 
ATOM     68  C   UNL A   1      41.517  27.763  35.965  1.00  0.00     0.009 A 
ATOM     69  C   UNL A   1      42.504  26.331  34.319  1.00  0.00     0.009 A 
ATOM     70  C   UNL A   1      41.519  26.712  36.889  1.00  0.00     0.001 A 
ATOM     71  C   UNL A   1      42.470  25.265  35.227  1.00  0.00     0.001 A 
ATOM     72  C   UNL A   1      41.975  25.456  36.512  1.00  0.00     0.000 A 
ENDBRANCH  53  67
BRANCH  54  73
ATOM     73  C   UNL A   1      43.432  25.226  26.600  1.00  0.00    -0.014 A 
ATOM     74  C   UNL A   1      44.371  25.166  25.554  1.00  0.00     0.009 A 
ATOM     75  C   UNL A   1      42.506  24.179  26.715  1.00  0.00     0.009 A 
ATOM     76  C   UNL A   1      44.356  24.120  24.627  1.00  0.00     0.001 A 
ATOM     77  C   UNL A   1      42.490  23.131  25.784  1.00  0.00     0.001 A 
ATOM     78  C   UNL A   1      43.404  23.112  24.732  1.00  0.00     0.000 A 
ENDBRANCH  54  73
BRANCH  66  79
ATOM     79  C   UNL A   1      44.946  30.740  29.324  1.00  0.00    -0.014 A 
ATOM     80  C   UNL A   1      46.158  31.447  29.350  1.00  0.00     0.009 A 
ATOM     81  C   UNL A   1      43.918  31.218  28.490  1.00  0.00     0.009 A 
ATOM     82  C   UNL A   1      46.335  32.599  28.580  1.00  0.00     0.001 A 
ATOM     83  C   UNL A   1      44.105  32.357  27.699  1.00  0.00     0.001 A 
ATOM     84  C   UNL A   1      45.310  33.053  27.753  1.00  0.00     0.000 A 
ENDBRANCH  66  79
ENDBRANCH  40  41
ENDBRANCH  32  35
ENDBRANCH  30  31
ENDBRANCH   1  30
TORSDOF 12
ENDMDL
MODEL 2
REMARK VINA RESULT:     -11.1      3.688     11.215
REMARK SMILES Cc1ccc2c(c1)c(-c1ccnc3c(C)cccc13)c(C)n2CC(=O)NCCCNC(=O)c1ccc(-c2c3nc(c(-c4ccccc4)c4ccc([nH]4)c(-c4ccccc4)c4nc(c(-c5ccccc5)c5ccc2[nH]5)C=C4)C=C3)cc1
REMARK SMILES IDX 28 1 27 2 26 3 24 4 25 5 23 7 22 8 1 9 2 10 3 11 7 12 4 13
REMARK SMILES IDX 6 14 5 15 8 16 20 17 21 18 9 19 10 20 19 21 11 22 13 23
REMARK SMILES IDX 18 24 12 25 14 26 17 27 15 28 16 29 29 30 30 31 31 32 32 34
REMARK SMILES IDX 33 35 34 36 80 37 35 38 79 39 36 40 37 41 38 42 73 43 39 44
REMARK SMILES IDX 78 45 72 46 74 47 40 48 77 49 71 50 70 51 41 53 63 54 48 55
REMARK SMILES IDX 62 56 49 57 52 58 61 59 75 60 50 61 51 62 60 64 76 65 53 66
REMARK SMILES IDX 42 67 43 68 47 69 44 70 46 71 45 72 64 73 65 74 69 75 66 76
REMARK SMILES IDX 68 77 67 78 54 79 55 80 59 81 56 82 58 83 57 84
REMARK H PARENT 26 6 30 33 74 52 52 63
REMARK Flexibility Score: inf
ROOT
ATOM      1  C   UNL A   1      42.252  19.332  27.158  1.00  0.00     0.042 C 
ENDROOT
BRANCH   1   2
ATOM      2  C   UNL A   1      42.829  19.431  25.744  1.00  0.00     0.117 C 
BRANCH   2   3
ATOM      3  N   UNL A   1      44.259  19.697  25.729  1.00  0.00    -0.354 N 
ATOM      4  C   UNL A   1      44.938  20.879  25.708  1.00  0.00     0.239 C 
ATOM      5  O   UNL A   1      46.170  20.826  25.755  1.00  0.00    -0.273 OA
ATOM      6  H   UNL A   1      44.827  18.893  25.735  1.00  0.00     0.163 HD
BRANCH   4   7
ATOM      7  C   UNL A   1      44.211  22.210  25.683  1.00  0.00     0.222 C 
BRANCH   7   8
ATOM      8  N   UNL A   1      44.939  23.275  26.362  1.00  0.00    -0.335 N 
ATOM      9  C   UNL A   1      44.663  25.317  31.625  1.00  0.00     0.044 C 
ATOM     10  C   UNL A   1      44.767  24.691  30.264  1.00  0.00    -0.050 A 
ATOM     11  C   UNL A   1      44.141  23.469  30.019  1.00  0.00     0.005 A 
ATOM     12  C   UNL A   1      45.464  25.332  29.228  1.00  0.00     0.014 A 
ATOM     13  C   UNL A   1      44.173  22.877  28.754  1.00  0.00     0.027 A 
ATOM     14  C   UNL A   1      45.509  24.756  27.939  1.00  0.00     0.008 A 
ATOM     15  C   UNL A   1      44.836  23.552  27.716  1.00  0.00     0.049 A 
ATOM     16  C   UNL A   1      46.109  25.137  26.705  1.00  0.00     0.011 A 
ATOM     17  C   UNL A   1      45.804  24.170  25.758  1.00  0.00     0.024 A 
ATOM     18  C   UNL A   1      46.229  24.083  24.327  1.00  0.00     0.065 C 
BRANCH  16  19
ATOM     19  C   UNL A   1      46.904  26.319  26.393  1.00  0.00    -0.005 A 
ATOM     20  C   UNL A   1      46.235  27.460  25.959  1.00  0.00     0.029 A 
ATOM     21  C   UNL A   1      48.314  26.333  26.553  1.00  0.00     0.008 A 
ATOM     22  C   UNL A   1      46.986  28.587  25.717  1.00  0.00     0.112 A 
ATOM     23  C   UNL A   1      48.989  27.547  26.289  1.00  0.00     0.074 A 
ATOM     24  C   UNL A   1      49.060  25.202  26.962  1.00  0.00     0.011 A 
ATOM     25  N   UNL A   1      48.324  28.647  25.879  1.00  0.00    -0.256 NA
ATOM     26  C   UNL A   1      50.380  27.589  26.471  1.00  0.00    -0.025 A 
ATOM     27  C   UNL A   1      50.439  25.254  27.116  1.00  0.00     0.001 A 
ATOM     28  C   UNL A   1      51.166  28.856  26.248  1.00  0.00     0.047 C 
ATOM     29  C   UNL A   1      51.098  26.448  26.875  1.00  0.00     0.005 A 
ENDBRANCH  16  19
ENDBRANCH   7   8
ENDBRANCH   4   7
ENDBRANCH   2   3
ENDBRANCH   1   2
BRANCH   1  30
ATOM     30  C   UNL A   1      41.552  20.606  27.636  1.00  0.00     0.118 C 
BRANCH  30  31
ATOM     31  N   UNL A   1      40.368  20.936  26.866  1.00  0.00    -0.352 N 
ATOM     32  C   UNL A   1      39.710  22.084  26.526  1.00  0.00     0.251 C 
ATOM     33  H   UNL A   1      39.932  20.135  26.495  1.00  0.00     0.163 HD
ATOM     34  O   UNL A   1      38.722  21.933  25.799  1.00  0.00    -0.269 OA
BRANCH  32  35
ATOM     35  C   UNL A   1      40.053  23.462  26.977  1.00  0.00     0.039 A 
ATOM     36  C   UNL A   1      41.249  23.859  27.575  1.00  0.00     0.014 A 
ATOM     37  C   UNL A   1      39.047  24.433  26.799  1.00  0.00     0.014 A 
ATOM     38  C   UNL A   1      41.407  25.168  28.038  1.00  0.00     0.010 A 
ATOM     39  C   UNL A   1      39.205  25.743  27.248  1.00  0.00     0.010 A 
ATOM     40  C   UNL A   1      40.375  26.103  27.908  1.00  0.00    -0.014 A 
BRANCH  40  41
ATOM     41  C   UNL A   1      40.585  27.445  28.458  1.00  0.00     0.031 A 
ATOM     42  C   UNL A   1      41.670  28.266  27.841  1.00  0.00     0.074 A 
ATOM     43  C   UNL A   1      39.811  28.003  29.411  1.00  0.00     0.049 A 
ATOM     44  N   UNL A   1      42.715  28.776  28.413  1.00  0.00    -0.248 NA
ATOM     45  C   UNL A   1      41.592  28.527  26.397  1.00  0.00     0.031 C 
ATOM     46  C   UNL A   1      38.528  27.532  29.940  1.00  0.00     0.029 A 
ATOM     47  N   UNL A   1      39.991  29.194  30.052  1.00  0.00    -0.354 N 
ATOM     48  C   UNL A   1      43.380  29.517  27.435  1.00  0.00     0.074 A 
ATOM     49  C   UNL A   1      42.678  29.276  26.198  1.00  0.00     0.031 C 
ATOM     50  C   UNL A   1      37.943  28.530  30.644  1.00  0.00     0.029 A 
ATOM     51  C   UNL A   1      38.880  29.635  30.751  1.00  0.00     0.049 A 
ATOM     52  H   UNL A   1      40.837  29.697  30.019  1.00  0.00     0.167 HD
ATOM     53  C   UNL A   1      44.398  30.376  27.720  1.00  0.00     0.031 A 
ATOM     54  C   UNL A   1      38.722  30.846  31.336  1.00  0.00     0.031 A 
ATOM     55  C   UNL A   1      44.957  30.146  29.022  1.00  0.00     0.049 A 
ATOM     56  C   UNL A   1      40.062  31.428  31.559  1.00  0.00     0.074 A 
ATOM     57  C   UNL A   1      45.650  29.112  29.616  1.00  0.00     0.029 A 
ATOM     58  N   UNL A   1      44.565  30.973  30.045  1.00  0.00    -0.354 N 
ATOM     59  N   UNL A   1      40.930  30.955  32.406  1.00  0.00    -0.248 NA
ATOM     60  C   UNL A   1      40.590  32.356  30.574  1.00  0.00     0.031 C 
ATOM     61  C   UNL A   1      45.227  29.118  30.976  1.00  0.00     0.029 A 
ATOM     62  C   UNL A   1      44.325  30.174  31.133  1.00  0.00     0.049 A 
ATOM     63  H   UNL A   1      44.474  31.952  30.006  1.00  0.00     0.167 HD
ATOM     64  C   UNL A   1      42.161  31.186  31.816  1.00  0.00     0.074 A 
ATOM     65  C   UNL A   1      41.898  32.161  30.763  1.00  0.00     0.031 C 
ATOM     66  C   UNL A   1      43.226  30.365  32.057  1.00  0.00     0.031 A 
BRANCH  53  67
ATOM     67  C   UNL A   1      44.744  31.603  26.916  1.00  0.00    -0.014 A 
ATOM     68  C   UNL A   1      43.777  32.498  26.426  1.00  0.00     0.009 A 
ATOM     69  C   UNL A   1      46.087  32.026  26.847  1.00  0.00     0.009 A 
ATOM     70  C   UNL A   1      44.122  33.745  25.896  1.00  0.00     0.001 A 
ATOM     71  C   UNL A   1      46.434  33.291  26.354  1.00  0.00     0.001 A 
ATOM     72  C   UNL A   1      45.450  34.151  25.881  1.00  0.00     0.000 A 
ENDBRANCH  53  67
BRANCH  54  73
ATOM     73  C   UNL A   1      37.496  31.666  31.396  1.00  0.00    -0.014 A 
ATOM     74  C   UNL A   1      36.840  31.851  32.627  1.00  0.00     0.009 A 
ATOM     75  C   UNL A   1      36.807  32.013  30.224  1.00  0.00     0.009 A 
ATOM     76  C   UNL A   1      35.525  32.321  32.684  1.00  0.00     0.001 A 
ATOM     77  C   UNL A   1      35.487  32.483  30.282  1.00  0.00     0.001 A 
ATOM     78  C   UNL A   1      34.843  32.621  31.510  1.00  0.00     0.000 A 
ENDBRANCH  54  73
BRANCH  66  79
ATOM     79  C   UNL A   1      43.117  29.355  33.176  1.00  0.00    -0.014 A 
ATOM     80  C   UNL A   1      42.455  28.142  32.925  1.00  0.00     0.009 A 
ATOM     81  C   UNL A   1      43.483  29.646  34.503  1.00  0.00     0.009 A 
ATOM     82  C   UNL A   1      42.157  27.257  33.964  1.00  0.00     0.001 A 
ATOM     83  C   UNL A   1      43.209  28.747  35.540  1.00  0.00     0.001 A 
ATOM     84  C   UNL A   1      42.536  27.558  35.271  1.00  0.00     0.000 A 
ENDBRANCH  66  79
ENDBRANCH  40  41
ENDBRANCH  32  35
ENDBRANCH  30  31
ENDBRANCH   1  30
TORSDOF 12
ENDMDL
MODEL 3
REMARK VINA RESULT:     -10.8      5.377     12.142
REMARK SMILES Cc1ccc2c(c1)c(-c1ccnc3c(C)cccc13)c(C)n2CC(=O)NCCCNC(=O)c1ccc(-c2c3nc(c(-c4ccccc4)c4ccc([nH]4)c(-c4ccccc4)c4nc(c(-c5ccccc5)c5ccc2[nH]5)C=C4)C=C3)cc1
REMARK SMILES IDX 28 1 27 2 26 3 24 4 25 5 23 7 22 8 1 9 2 10 3 11 7 12 4 13
REMARK SMILES IDX 6 14 5 15 8 16 20 17 21 18 9 19 10 20 19 21 11 22 13 23
REMARK SMILES IDX 18 24 12 25 14 26 17 27 15 28 16 29 29 30 30 31 31 32 32 34
REMARK SMILES IDX 33 35 34 36 80 37 35 38 79 39 36 40 37 41 38 42 73 43 39 44
REMARK SMILES IDX 78 45 72 46 74 47 40 48 77 49 71 50 70 51 41 53 63 54 48 55
REMARK SMILES IDX 62 56 49 57 52 58 61 59 75 60 50 61 51 62 60 64 76 65 53 66
REMARK SMILES IDX 42 67 43 68 47 69 44 70 46 71 45 72 64 73 65 74 69 75 66 76
REMARK SMILES IDX 68 77 67 78 54 79 55 80 59 81 56 82 58 83 57 84
REMARK H PARENT 26 6 30 33 74 52 52 63
REMARK Flexibility Score: inf
ROOT
ATOM      1  C   UNL A   1      40.534  21.045  26.698  1.00  0.00     0.042 C 
ENDROOT
BRANCH   1   2
ATOM      2  C   UNL A   1      39.554  22.219  26.665  1.00  0.00     0.117 C 
BRANCH   2   3
ATOM      3  N   UNL A   1      38.865  22.351  25.391  1.00  0.00    -0.354 N 
ATOM      4  C   UNL A   1      37.658  21.864  24.985  1.00  0.00     0.239 C 
ATOM      5  O   UNL A   1      37.274  22.171  23.853  1.00  0.00    -0.273 OA
ATOM      6  H   UNL A   1      39.349  22.876  24.714  1.00  0.00     0.163 HD
BRANCH   4   7
ATOM      7  C   UNL A   1      36.793  21.024  25.904  1.00  0.00     0.222 C 
BRANCH   7   8
ATOM      8  N   UNL A   1      35.370  21.121  25.602  1.00  0.00    -0.335 N 
ATOM      9  C   UNL A   1      31.876  17.815  22.633  1.00  0.00     0.044 C 
ATOM     10  C   UNL A   1      32.815  18.620  23.485  1.00  0.00    -0.050 A 
ATOM     11  C   UNL A   1      34.057  18.088  23.831  1.00  0.00     0.005 A 
ATOM     12  C   UNL A   1      32.470  19.911  23.914  1.00  0.00     0.014 A 
ATOM     13  C   UNL A   1      34.979  18.824  24.580  1.00  0.00     0.027 A 
ATOM     14  C   UNL A   1      33.384  20.677  24.670  1.00  0.00     0.008 A 
ATOM     15  C   UNL A   1      34.637  20.132  24.964  1.00  0.00     0.049 A 
ATOM     16  C   UNL A   1      33.349  21.980  25.244  1.00  0.00     0.011 A 
ATOM     17  C   UNL A   1      34.562  22.209  25.877  1.00  0.00     0.024 A 
ATOM     18  C   UNL A   1      35.007  23.402  26.660  1.00  0.00     0.065 C 
BRANCH  16  19
ATOM     19  C   UNL A   1      32.282  22.973  25.208  1.00  0.00    -0.005 A 
ATOM     20  C   UNL A   1      31.393  23.016  26.278  1.00  0.00     0.029 A 
ATOM     21  C   UNL A   1      32.158  23.897  24.137  1.00  0.00     0.008 A 
ATOM     22  C   UNL A   1      30.420  23.990  26.262  1.00  0.00     0.112 A 
ATOM     23  C   UNL A   1      31.132  24.865  24.225  1.00  0.00     0.074 A 
ATOM     24  C   UNL A   1      33.008  23.892  23.005  1.00  0.00     0.011 A 
ATOM     25  N   UNL A   1      30.284  24.899  25.275  1.00  0.00    -0.256 NA
ATOM     26  C   UNL A   1      31.013  25.807  23.191  1.00  0.00    -0.025 A 
ATOM     27  C   UNL A   1      32.864  24.816  21.980  1.00  0.00     0.001 A 
ATOM     28  C   UNL A   1      29.969  26.894  23.230  1.00  0.00     0.047 C 
ATOM     29  C   UNL A   1      31.870  25.776  22.075  1.00  0.00     0.005 A 
ENDBRANCH  16  19
ENDBRANCH   7   8
ENDBRANCH   4   7
ENDBRANCH   2   3
ENDBRANCH   1   2
BRANCH   1  30
ATOM     30  C   UNL A   1      41.975  21.444  27.025  1.00  0.00     0.118 C 
BRANCH  30  31
ATOM     31  N   UNL A   1      42.668  22.061  25.910  1.00  0.00    -0.352 N 
ATOM     32  C   UNL A   1      42.932  23.340  25.508  1.00  0.00     0.251 C 
ATOM     33  H   UNL A   1      43.041  21.394  25.290  1.00  0.00     0.163 HD
ATOM     34  O   UNL A   1      43.609  23.443  24.479  1.00  0.00    -0.269 OA
BRANCH  32  35
ATOM     35  C   UNL A   1      42.453  24.587  26.169  1.00  0.00     0.039 A 
ATOM     36  C   UNL A   1      41.431  25.419  25.715  1.00  0.00     0.014 A 
ATOM     37  C   UNL A   1      43.133  24.955  27.348  1.00  0.00     0.014 A 
ATOM     38  C   UNL A   1      41.142  26.613  26.382  1.00  0.00     0.010 A 
ATOM     39  C   UNL A   1      42.840  26.138  28.024  1.00  0.00     0.010 A 
ATOM     40  C   UNL A   1      41.868  26.993  27.516  1.00  0.00    -0.014 A 
BRANCH  40  41
ATOM     41  C   UNL A   1      41.550  28.279  28.141  1.00  0.00     0.031 A 
ATOM     42  C   UNL A   1      42.557  29.373  27.991  1.00  0.00     0.074 A 
ATOM     43  C   UNL A   1      40.382  28.553  28.758  1.00  0.00     0.049 A 
ATOM     44  N   UNL A   1      43.183  30.021  28.922  1.00  0.00    -0.248 NA
ATOM     45  C   UNL A   1      42.933  29.771  26.628  1.00  0.00     0.031 C 
ATOM     46  C   UNL A   1      39.144  27.769  28.764  1.00  0.00     0.029 A 
ATOM     47  N   UNL A   1      40.040  29.676  29.454  1.00  0.00    -0.354 N 
ATOM     48  C   UNL A   1      43.955  30.990  28.278  1.00  0.00     0.074 A 
ATOM     49  C   UNL A   1      43.812  30.748  26.864  1.00  0.00     0.031 C 
ATOM     50  C   UNL A   1      38.132  28.538  29.231  1.00  0.00     0.029 A 
ATOM     51  C   UNL A   1      38.684  29.794  29.707  1.00  0.00     0.049 A 
ATOM     52  H   UNL A   1      40.700  30.345  29.749  1.00  0.00     0.167 HD
ATOM     53  C   UNL A   1      44.576  32.005  28.943  1.00  0.00     0.031 A 
ATOM     54  C   UNL A   1      38.050  30.872  30.226  1.00  0.00     0.031 A 
ATOM     55  C   UNL A   1      44.678  31.751  30.352  1.00  0.00     0.049 A 
ATOM     56  C   UNL A   1      39.049  31.692  30.943  1.00  0.00     0.074 A 
ATOM     57  C   UNL A   1      45.340  30.825  31.130  1.00  0.00     0.029 A 
ATOM     58  N   UNL A   1      43.769  32.358  31.181  1.00  0.00    -0.354 N 
ATOM     59  N   UNL A   1      39.648  31.319  32.036  1.00  0.00    -0.248 NA
ATOM     60  C   UNL A   1      39.656  32.814  30.248  1.00  0.00     0.031 C 
ATOM     61  C   UNL A   1      44.476  30.590  32.238  1.00  0.00     0.029 A 
ATOM     62  C   UNL A   1      43.356  31.410  32.082  1.00  0.00     0.049 A 
ATOM     63  H   UNL A   1      43.470  33.295  31.139  1.00  0.00     0.167 HD
ATOM     64  C   UNL A   1      40.917  31.866  31.949  1.00  0.00     0.074 A 
ATOM     65  C   UNL A   1      40.820  32.876  30.900  1.00  0.00     0.031 C 
ATOM     66  C   UNL A   1      41.990  31.263  32.541  1.00  0.00     0.031 A 
BRANCH  53  67
ATOM     67  C   UNL A   1      44.884  33.359  28.357  1.00  0.00    -0.014 A 
ATOM     68  C   UNL A   1      46.141  33.697  27.827  1.00  0.00     0.009 A 
ATOM     69  C   UNL A   1      43.827  34.253  28.095  1.00  0.00     0.009 A 
ATOM     70  C   UNL A   1      46.340  34.861  27.076  1.00  0.00     0.001 A 
ATOM     71  C   UNL A   1      44.012  35.399  27.310  1.00  0.00     0.001 A 
ATOM     72  C   UNL A   1      45.269  35.701  26.798  1.00  0.00     0.000 A 
ENDBRANCH  53  67
BRANCH  54  73
ATOM     73  C   UNL A   1      36.725  31.407  29.853  1.00  0.00    -0.014 A 
ATOM     74  C   UNL A   1      36.466  31.758  28.516  1.00  0.00     0.009 A 
ATOM     75  C   UNL A   1      35.829  31.851  30.836  1.00  0.00     0.009 A 
ATOM     76  C   UNL A   1      35.377  32.566  28.176  1.00  0.00     0.001 A 
ATOM     77  C   UNL A   1      34.737  32.662  30.495  1.00  0.00     0.001 A 
ATOM     78  C   UNL A   1      34.522  33.031  29.169  1.00  0.00     0.000 A 
ENDBRANCH  54  73
BRANCH  66  79
ATOM     79  C   UNL A   1      41.735  30.133  33.512  1.00  0.00    -0.014 A 
ATOM     80  C   UNL A   1      41.825  30.396  34.889  1.00  0.00     0.009 A 
ATOM     81  C   UNL A   1      41.594  28.795  33.102  1.00  0.00     0.009 A 
ATOM     82  C   UNL A   1      41.788  29.357  35.823  1.00  0.00     0.001 A 
ATOM     83  C   UNL A   1      41.530  27.757  34.038  1.00  0.00     0.001 A 
ATOM     84  C   UNL A   1      41.638  28.039  35.398  1.00  0.00     0.000 A 
ENDBRANCH  66  79
ENDBRANCH  40  41
ENDBRANCH  32  35
ENDBRANCH  30  31
ENDBRANCH   1  30
TORSDOF 12
ENDMDL
