MODEL 1
REMARK VINA RESULT:     -10.1      0.000      0.000
REMARK SMILES O=C(CCC(=O)Nc1cccc2c1C(=O)c1ccccc1C2=O)NCCCNC(=O)c1ccc(-c2c3nc(c(-c4ccccc4)c4ccc([nH]4)c(-c4ccccc4)c4nc(c(-c5ccccc5)c5ccc2[nH]5)C=C4)C=C3)cc1
REMARK SMILES IDX 25 1 24 2 1 3 2 4 3 6 4 7 5 8 6 9 7 10 8 12 9 13 13 14 10 15
REMARK SMILES IDX 12 16 14 17 11 18 22 19 15 20 16 21 21 22 23 23 17 24 20 25
REMARK SMILES IDX 18 26 19 27 26 28 27 29 28 30 29 31 30 33 31 34 32 35 78 36
REMARK SMILES IDX 33 37 77 38 34 39 35 40 36 41 71 42 37 43 76 44 70 45 72 46
REMARK SMILES IDX 38 47 75 48 69 49 68 50 39 52 61 53 46 54 60 55 47 56 50 57
REMARK SMILES IDX 59 58 73 59 48 60 49 61 58 63 74 64 51 65 40 66 41 67 45 68
REMARK SMILES IDX 42 69 44 70 43 71 62 72 63 73 67 74 64 75 66 76 65 77 52 78
REMARK SMILES IDX 53 79 57 80 54 81 56 82 55 83
REMARK H PARENT 24 5 7 11 28 32 72 51 50 62
REMARK Flexibility Score: inf
ROOT
ATOM      1  C   UNL A   1      33.422  35.435  31.992  1.00  0.00     0.117 C 
ENDROOT
BRANCH   1   2
ATOM      2  N   UNL A   1      34.655  34.689  31.882  1.00  0.00    -0.356 N 
ATOM      3  O   UNL A   1      35.902  35.366  33.697  1.00  0.00    -0.275 OA
ATOM      4  C   UNL A   1      35.379  34.478  33.038  1.00  0.00     0.220 C 
ATOM      5  H   UNL A   1      34.966  34.344  31.014  1.00  0.00     0.163 HD
BRANCH   4   6
ATOM      6  C   UNL A   1      35.269  33.078  33.586  1.00  0.00     0.110 C 
BRANCH   6   7
ATOM      7  C   UNL A   1      36.672  32.629  34.032  1.00  0.00     0.110 C 
BRANCH   7   8
ATOM      8  C   UNL A   1      37.037  31.344  33.345  1.00  0.00     0.224 C 
ATOM      9  O   UNL A   1      36.308  30.929  32.430  1.00  0.00    -0.275 OA
ATOM     10  N   UNL A   1      38.126  30.581  33.603  1.00  0.00    -0.325 N 
ATOM     11  H   UNL A   1      38.150  29.829  32.969  1.00  0.00     0.169 HD
BRANCH  10  12
ATOM     12  C   UNL A   1      39.243  30.495  34.474  1.00  0.00     0.053 A 
ATOM     13  C   UNL A   1      40.068  29.407  34.105  1.00  0.00     0.027 A 
ATOM     14  C   UNL A   1      39.668  31.269  35.578  1.00  0.00     0.057 A 
ATOM     15  C   UNL A   1      41.302  29.160  34.703  1.00  0.00     0.003 A 
ATOM     16  C   UNL A   1      40.979  31.100  36.081  1.00  0.00     0.036 A 
ATOM     17  C   UNL A   1      38.796  31.784  36.670  1.00  0.00     0.196 C 
ATOM     18  C   UNL A   1      41.783  30.041  35.654  1.00  0.00     0.013 A 
ATOM     19  C   UNL A   1      41.510  32.010  37.130  1.00  0.00     0.194 C 
ATOM     20  O   UNL A   1      37.916  31.075  37.139  1.00  0.00    -0.288 OA
ATOM     21  C   UNL A   1      39.252  32.914  37.491  1.00  0.00     0.034 A 
ATOM     22  C   UNL A   1      40.619  33.038  37.701  1.00  0.00     0.034 A 
ATOM     23  O   UNL A   1      42.670  31.917  37.512  1.00  0.00    -0.289 OA
ATOM     24  C   UNL A   1      38.363  33.740  38.182  1.00  0.00     0.013 A 
ATOM     25  C   UNL A   1      41.113  34.050  38.528  1.00  0.00     0.013 A 
ATOM     26  C   UNL A   1      38.851  34.767  38.992  1.00  0.00     0.001 A 
ATOM     27  C   UNL A   1      40.227  34.931  39.152  1.00  0.00     0.001 A 
ENDBRANCH  10  12
ENDBRANCH   7   8
ENDBRANCH   6   7
ENDBRANCH   4   6
ENDBRANCH   1   2
BRANCH   1  28
ATOM     28  C   UNL A   1      33.097  36.429  30.906  1.00  0.00     0.042 C 
BRANCH  28  29
ATOM     29  C   UNL A   1      33.684  35.997  29.590  1.00  0.00     0.118 C 
BRANCH  29  30
ATOM     30  N   UNL A   1      32.739  35.281  28.726  1.00  0.00    -0.352 N 
ATOM     31  C   UNL A   1      32.913  34.075  28.082  1.00  0.00     0.251 C 
ATOM     32  H   UNL A   1      31.868  35.718  28.589  1.00  0.00     0.163 HD
ATOM     33  O   UNL A   1      32.057  33.622  27.346  1.00  0.00    -0.269 OA
BRANCH  31  34
ATOM     34  C   UNL A   1      34.210  33.394  28.258  1.00  0.00     0.039 A 
ATOM     35  C   UNL A   1      35.343  33.945  27.659  1.00  0.00     0.014 A 
ATOM     36  C   UNL A   1      34.315  32.329  29.150  1.00  0.00     0.014 A 
ATOM     37  C   UNL A   1      36.601  33.484  28.045  1.00  0.00     0.010 A 
ATOM     38  C   UNL A   1      35.558  31.987  29.642  1.00  0.00     0.010 A 
ATOM     39  C   UNL A   1      36.716  32.547  29.084  1.00  0.00    -0.014 A 
BRANCH  39  40
ATOM     40  C   UNL A   1      38.029  32.098  29.600  1.00  0.00     0.031 A 
ATOM     41  C   UNL A   1      38.574  30.769  29.151  1.00  0.00     0.074 A 
ATOM     42  C   UNL A   1      38.672  32.822  30.537  1.00  0.00     0.049 A 
ATOM     43  N   UNL A   1      39.620  30.115  29.584  1.00  0.00    -0.248 NA
ATOM     44  C   UNL A   1      37.808  30.053  28.114  1.00  0.00     0.031 C 
ATOM     45  C   UNL A   1      38.211  34.093  31.103  1.00  0.00     0.029 A 
ATOM     46  N   UNL A   1      39.855  32.582  31.186  1.00  0.00    -0.354 N 
ATOM     47  C   UNL A   1      39.601  28.899  28.913  1.00  0.00     0.074 A 
ATOM     48  C   UNL A   1      38.410  28.876  28.097  1.00  0.00     0.031 C 
ATOM     49  C   UNL A   1      39.123  34.542  31.980  1.00  0.00     0.029 A 
ATOM     50  C   UNL A   1      40.206  33.570  32.074  1.00  0.00     0.049 A 
ATOM     51  H   UNL A   1      40.403  31.779  31.031  1.00  0.00     0.167 HD
ATOM     52  C   UNL A   1      40.515  27.903  28.943  1.00  0.00     0.031 A 
ATOM     53  C   UNL A   1      41.281  33.673  32.877  1.00  0.00     0.031 A 
ATOM     54  C   UNL A   1      41.727  27.958  29.708  1.00  0.00     0.049 A 
ATOM     55  C   UNL A   1      42.304  32.573  32.864  1.00  0.00     0.074 A 
ATOM     56  C   UNL A   1      42.768  27.049  29.744  1.00  0.00     0.029 A 
ATOM     57  N   UNL A   1      42.066  28.996  30.563  1.00  0.00    -0.354 N 
ATOM     58  N   UNL A   1      42.311  31.460  32.169  1.00  0.00    -0.248 NA
ATOM     59  C   UNL A   1      43.471  32.745  33.740  1.00  0.00     0.031 C 
ATOM     60  C   UNL A   1      43.722  27.520  30.651  1.00  0.00     0.029 A 
ATOM     61  C   UNL A   1      43.295  28.743  31.144  1.00  0.00     0.049 A 
ATOM     62  H   UNL A   1      41.515  29.794  30.730  1.00  0.00     0.167 HD
ATOM     63  C   UNL A   1      43.489  30.809  32.509  1.00  0.00     0.074 A 
ATOM     64  C   UNL A   1      44.180  31.661  33.455  1.00  0.00     0.031 C 
ATOM     65  C   UNL A   1      43.957  29.612  32.080  1.00  0.00     0.031 A 
BRANCH  52  66
ATOM     66  C   UNL A   1      40.231  26.683  28.112  1.00  0.00    -0.014 A 
ATOM     67  C   UNL A   1      39.433  25.637  28.603  1.00  0.00     0.009 A 
ATOM     68  C   UNL A   1      40.770  26.578  26.821  1.00  0.00     0.009 A 
ATOM     69  C   UNL A   1      39.218  24.491  27.835  1.00  0.00     0.001 A 
ATOM     70  C   UNL A   1      40.525  25.444  26.043  1.00  0.00     0.001 A 
ATOM     71  C   UNL A   1      39.760  24.397  26.555  1.00  0.00     0.000 A 
ENDBRANCH  52  66
BRANCH  53  72
ATOM     72  C   UNL A   1      41.462  34.873  33.736  1.00  0.00    -0.014 A 
ATOM     73  C   UNL A   1      40.649  35.062  34.865  1.00  0.00     0.009 A 
ATOM     74  C   UNL A   1      42.442  35.831  33.440  1.00  0.00     0.009 A 
ATOM     75  C   UNL A   1      40.795  36.200  35.661  1.00  0.00     0.001 A 
ATOM     76  C   UNL A   1      42.604  36.955  34.253  1.00  0.00     0.001 A 
ATOM     77  C   UNL A   1      41.774  37.143  35.357  1.00  0.00     0.000 A 
ENDBRANCH  53  72
BRANCH  65  78
ATOM     78  C   UNL A   1      45.289  29.170  32.613  1.00  0.00    -0.014 A 
ATOM     79  C   UNL A   1      45.381  28.385  33.771  1.00  0.00     0.009 A 
ATOM     80  C   UNL A   1      46.460  29.500  31.912  1.00  0.00     0.009 A 
ATOM     81  C   UNL A   1      46.627  27.960  34.234  1.00  0.00     0.001 A 
ATOM     82  C   UNL A   1      47.701  29.051  32.363  1.00  0.00     0.001 A 
ATOM     83  C   UNL A   1      47.784  28.288  33.528  1.00  0.00     0.000 A 
ENDBRANCH  65  78
ENDBRANCH  39  40
ENDBRANCH  31  34
ENDBRANCH  29  30
ENDBRANCH  28  29
ENDBRANCH   1  28
TORSDOF 13
ENDMDL
MODEL 2
REMARK VINA RESULT:      -9.9      4.661     10.843
REMARK SMILES O=C(CCC(=O)Nc1cccc2c1C(=O)c1ccccc1C2=O)NCCCNC(=O)c1ccc(-c2c3nc(c(-c4ccccc4)c4ccc([nH]4)c(-c4ccccc4)c4nc(c(-c5ccccc5)c5ccc2[nH]5)C=C4)C=C3)cc1
REMARK SMILES IDX 25 1 24 2 1 3 2 4 3 6 4 7 5 8 6 9 7 10 8 12 9 13 13 14 10 15
REMARK SMILES IDX 12 16 14 17 11 18 22 19 15 20 16 21 21 22 23 23 17 24 20 25
REMARK SMILES IDX 18 26 19 27 26 28 27 29 28 30 29 31 30 33 31 34 32 35 78 36
REMARK SMILES IDX 33 37 77 38 34 39 35 40 36 41 71 42 37 43 76 44 70 45 72 46
REMARK SMILES IDX 38 47 75 48 69 49 68 50 39 52 61 53 46 54 60 55 47 56 50 57
REMARK SMILES IDX 59 58 73 59 48 60 49 61 58 63 74 64 51 65 40 66 41 67 45 68
REMARK SMILES IDX 42 69 44 70 43 71 62 72 63 73 67 74 64 75 66 76 65 77 52 78
REMARK SMILES IDX 53 79 57 80 54 81 56 82 55 83
REMARK H PARENT 24 5 7 11 28 32 72 51 50 62
REMARK Flexibility Score: inf
ROOT
ATOM      1  C   UNL A   1      31.459  28.572  26.730  1.00  0.00     0.117 C 
ENDROOT
BRANCH   1   2
ATOM      2  N   UNL A   1      31.372  28.012  25.401  1.00  0.00    -0.356 N 
ATOM      3  O   UNL A   1      30.457  29.698  24.124  1.00  0.00    -0.275 OA
ATOM      4  C   UNL A   1      31.353  28.892  24.337  1.00  0.00     0.220 C 
ATOM      5  H   UNL A   1      31.329  27.039  25.260  1.00  0.00     0.163 HD
BRANCH   4   6
ATOM      6  C   UNL A   1      32.654  28.971  23.580  1.00  0.00     0.110 C 
BRANCH   6   7
ATOM      7  C   UNL A   1      33.405  27.644  23.783  1.00  0.00     0.110 C 
BRANCH   7   8
ATOM      8  C   UNL A   1      33.640  26.985  22.454  1.00  0.00     0.224 C 
ATOM      9  O   UNL A   1      33.839  27.701  21.460  1.00  0.00    -0.275 OA
ATOM     10  N   UNL A   1      33.689  25.652  22.221  1.00  0.00    -0.325 N 
ATOM     11  H   UNL A   1      33.914  25.497  21.275  1.00  0.00     0.169 HD
BRANCH  10  12
ATOM     12  C   UNL A   1      33.527  24.401  22.873  1.00  0.00     0.053 A 
ATOM     13  C   UNL A   1      32.211  23.918  22.684  1.00  0.00     0.027 A 
ATOM     14  C   UNL A   1      34.402  23.584  23.625  1.00  0.00     0.057 A 
ATOM     15  C   UNL A   1      31.805  22.653  23.102  1.00  0.00     0.003 A 
ATOM     16  C   UNL A   1      34.028  22.252  23.918  1.00  0.00     0.036 A 
ATOM     17  C   UNL A   1      35.359  24.056  24.664  1.00  0.00     0.196 C 
ATOM     18  C   UNL A   1      32.731  21.797  23.671  1.00  0.00     0.013 A 
ATOM     19  C   UNL A   1      34.991  21.320  24.562  1.00  0.00     0.194 C 
ATOM     20  O   UNL A   1      35.023  24.924  25.459  1.00  0.00    -0.288 OA
ATOM     21  C   UNL A   1      36.495  23.205  25.044  1.00  0.00     0.034 A 
ATOM     22  C   UNL A   1      36.314  21.831  24.969  1.00  0.00     0.034 A 
ATOM     23  O   UNL A   1      34.699  20.145  24.746  1.00  0.00    -0.289 OA
ATOM     24  C   UNL A   1      37.655  23.726  25.622  1.00  0.00     0.013 A 
ATOM     25  C   UNL A   1      37.331  20.965  25.382  1.00  0.00     0.013 A 
ATOM     26  C   UNL A   1      38.684  22.867  26.014  1.00  0.00     0.001 A 
ATOM     27  C   UNL A   1      38.527  21.488  25.879  1.00  0.00     0.001 A 
ENDBRANCH  10  12
ENDBRANCH   7   8
ENDBRANCH   6   7
ENDBRANCH   4   6
ENDBRANCH   1   2
BRANCH   1  28
ATOM     28  C   UNL A   1      32.735  28.360  27.505  1.00  0.00     0.042 C 
BRANCH  28  29
ATOM     29  C   UNL A   1      33.786  29.354  27.091  1.00  0.00     0.118 C 
BRANCH  29  30
ATOM     30  N   UNL A   1      33.837  30.550  27.937  1.00  0.00    -0.352 N 
ATOM     31  C   UNL A   1      34.882  31.009  28.710  1.00  0.00     0.251 C 
ATOM     32  H   UNL A   1      33.018  31.097  27.956  1.00  0.00     0.163 HD
ATOM     33  O   UNL A   1      34.765  31.995  29.412  1.00  0.00    -0.269 OA
BRANCH  31  34
ATOM     34  C   UNL A   1      36.122  30.209  28.714  1.00  0.00     0.039 A 
ATOM     35  C   UNL A   1      36.990  30.310  27.627  1.00  0.00     0.014 A 
ATOM     36  C   UNL A   1      36.490  29.514  29.864  1.00  0.00     0.014 A 
ATOM     37  C   UNL A   1      38.279  29.792  27.742  1.00  0.00     0.010 A 
ATOM     38  C   UNL A   1      37.810  29.145  30.031  1.00  0.00     0.010 A 
ATOM     39  C   UNL A   1      38.715  29.264  28.967  1.00  0.00    -0.014 A 
BRANCH  39  40
ATOM     40  C   UNL A   1      40.103  28.793  29.174  1.00  0.00     0.031 A 
ATOM     41  C   UNL A   1      41.114  29.736  29.769  1.00  0.00     0.074 A 
ATOM     42  C   UNL A   1      40.477  27.575  28.735  1.00  0.00     0.049 A 
ATOM     43  N   UNL A   1      42.406  29.589  29.899  1.00  0.00    -0.248 NA
ATOM     44  C   UNL A   1      40.611  31.044  30.230  1.00  0.00     0.031 C 
ATOM     45  C   UNL A   1      39.605  26.596  28.078  1.00  0.00     0.029 A 
ATOM     46  N   UNL A   1      41.699  26.955  28.772  1.00  0.00    -0.354 N 
ATOM     47  C   UNL A   1      42.868  30.798  30.404  1.00  0.00     0.074 A 
ATOM     48  C   UNL A   1      41.735  31.688  30.493  1.00  0.00     0.031 C 
ATOM     49  C   UNL A   1      40.310  25.484  27.816  1.00  0.00     0.029 A 
ATOM     50  C   UNL A   1      41.690  25.689  28.239  1.00  0.00     0.049 A 
ATOM     51  H   UNL A   1      42.507  27.377  29.143  1.00  0.00     0.167 HD
ATOM     52  C   UNL A   1      44.120  31.128  30.794  1.00  0.00     0.031 A 
ATOM     53  C   UNL A   1      42.689  24.797  28.106  1.00  0.00     0.031 A 
ATOM     54  C   UNL A   1      45.229  30.219  30.760  1.00  0.00     0.049 A 
ATOM     55  C   UNL A   1      44.063  25.170  28.583  1.00  0.00     0.074 A 
ATOM     56  C   UNL A   1      46.520  30.415  31.215  1.00  0.00     0.029 A 
ATOM     57  N   UNL A   1      45.169  28.929  30.254  1.00  0.00    -0.354 N 
ATOM     58  N   UNL A   1      44.472  26.292  29.126  1.00  0.00    -0.248 NA
ATOM     59  C   UNL A   1      45.113  24.153  28.438  1.00  0.00     0.031 C 
ATOM     60  C   UNL A   1      47.252  29.253  30.949  1.00  0.00     0.029 A 
ATOM     61  C   UNL A   1      46.405  28.322  30.370  1.00  0.00     0.049 A 
ATOM     62  H   UNL A   1      44.366  28.510  29.869  1.00  0.00     0.167 HD
ATOM     63  C   UNL A   1      45.820  26.109  29.404  1.00  0.00     0.074 A 
ATOM     64  C   UNL A   1      46.153  24.762  28.989  1.00  0.00     0.031 C 
ATOM     65  C   UNL A   1      46.705  26.978  29.950  1.00  0.00     0.031 A 
BRANCH  52  66
ATOM     66  C   UNL A   1      44.337  32.526  31.299  1.00  0.00    -0.014 A 
ATOM     67  C   UNL A   1      44.188  32.840  32.660  1.00  0.00     0.009 A 
ATOM     68  C   UNL A   1      44.695  33.544  30.403  1.00  0.00     0.009 A 
ATOM     69  C   UNL A   1      44.348  34.153  33.106  1.00  0.00     0.001 A 
ATOM     70  C   UNL A   1      44.887  34.851  30.858  1.00  0.00     0.001 A 
ATOM     71  C   UNL A   1      44.701  35.156  32.205  1.00  0.00     0.000 A 
ENDBRANCH  52  66
BRANCH  53  72
ATOM     72  C   UNL A   1      42.422  23.455  27.522  1.00  0.00    -0.014 A 
ATOM     73  C   UNL A   1      41.918  22.422  28.327  1.00  0.00     0.009 A 
ATOM     74  C   UNL A   1      42.667  23.199  26.165  1.00  0.00     0.009 A 
ATOM     75  C   UNL A   1      41.692  21.152  27.792  1.00  0.00     0.001 A 
ATOM     76  C   UNL A   1      42.415  21.935  25.625  1.00  0.00     0.001 A 
ATOM     77  C   UNL A   1      41.937  20.911  26.442  1.00  0.00     0.000 A 
ENDBRANCH  53  72
BRANCH  65  78
ATOM     78  C   UNL A   1      48.108  26.486  30.152  1.00  0.00    -0.014 A 
ATOM     79  C   UNL A   1      48.486  25.847  31.341  1.00  0.00     0.009 A 
ATOM     80  C   UNL A   1      49.044  26.614  29.114  1.00  0.00     0.009 A 
ATOM     81  C   UNL A   1      49.788  25.370  31.498  1.00  0.00     0.001 A 
ATOM     82  C   UNL A   1      50.337  26.112  29.264  1.00  0.00     0.001 A 
ATOM     83  C   UNL A   1      50.710  25.497  30.459  1.00  0.00     0.000 A 
ENDBRANCH  65  78
ENDBRANCH  39  40
ENDBRANCH  31  34
ENDBRANCH  29  30
ENDBRANCH  28  29
ENDBRANCH   1  28
TORSDOF 13
ENDMDL
MODEL 3
REMARK VINA RESULT:      -9.8      5.307     11.413
REMARK SMILES O=C(CCC(=O)Nc1cccc2c1C(=O)c1ccccc1C2=O)NCCCNC(=O)c1ccc(-c2c3nc(c(-c4ccccc4)c4ccc([nH]4)c(-c4ccccc4)c4nc(c(-c5ccccc5)c5ccc2[nH]5)C=C4)C=C3)cc1
REMARK SMILES IDX 25 1 24 2 1 3 2 4 3 6 4 7 5 8 6 9 7 10 8 12 9 13 13 14 10 15
REMARK SMILES IDX 12 16 14 17 11 18 22 19 15 20 16 21 21 22 23 23 17 24 20 25
REMARK SMILES IDX 18 26 19 27 26 28 27 29 28 30 29 31 30 33 31 34 32 35 78 36
REMARK SMILES IDX 33 37 77 38 34 39 35 40 36 41 71 42 37 43 76 44 70 45 72 46
REMARK SMILES IDX 38 47 75 48 69 49 68 50 39 52 61 53 46 54 60 55 47 56 50 57
REMARK SMILES IDX 59 58 73 59 48 60 49 61 58 63 74 64 51 65 40 66 41 67 45 68
REMARK SMILES IDX 42 69 44 70 43 71 62 72 63 73 67 74 64 75 66 76 65 77 52 78
REMARK SMILES IDX 53 79 57 80 54 81 56 82 55 83
REMARK H PARENT 24 5 7 11 28 32 72 51 50 62
REMARK Flexibility Score: inf
ROOT
ATOM      1  C   UNL A   1      31.731  28.343  27.396  1.00  0.00     0.117 C 
ENDROOT
BRANCH   1   2
ATOM      2  N   UNL A   1      31.005  27.231  26.826  1.00  0.00    -0.356 N 
ATOM      3  O   UNL A   1      30.644  27.841  24.634  1.00  0.00    -0.275 OA
ATOM      4  C   UNL A   1      31.082  27.051  25.459  1.00  0.00     0.220 C 
ATOM      5  H   UNL A   1      30.477  26.624  27.393  1.00  0.00     0.163 HD
BRANCH   4   6
ATOM      6  C   UNL A   1      31.981  25.918  25.037  1.00  0.00     0.110 C 
BRANCH   6   7
ATOM      7  C   UNL A   1      31.153  24.621  25.051  1.00  0.00     0.110 C 
BRANCH   7   8
ATOM      8  C   UNL A   1      31.337  23.914  26.363  1.00  0.00     0.224 C 
ATOM      9  O   UNL A   1      30.465  24.043  27.237  1.00  0.00    -0.275 OA
ATOM     10  N   UNL A   1      32.368  23.103  26.696  1.00  0.00    -0.325 N 
ATOM     11  H   UNL A   1      32.209  22.728  27.592  1.00  0.00     0.169 HD
BRANCH  10  12
ATOM     12  C   UNL A   1      33.601  22.607  26.195  1.00  0.00     0.053 A 
ATOM     13  C   UNL A   1      34.625  23.565  26.383  1.00  0.00     0.027 A 
ATOM     14  C   UNL A   1      33.976  21.387  25.588  1.00  0.00     0.057 A 
ATOM     15  C   UNL A   1      35.964  23.301  26.105  1.00  0.00     0.003 A 
ATOM     16  C   UNL A   1      35.347  21.076  25.444  1.00  0.00     0.036 A 
ATOM     17  C   UNL A   1      33.204  20.660  24.542  1.00  0.00     0.196 C 
ATOM     18  C   UNL A   1      36.333  22.035  25.687  1.00  0.00     0.013 A 
ATOM     19  C   UNL A   1      35.773  19.735  24.961  1.00  0.00     0.194 C 
ATOM     20  O   UNL A   1      32.667  21.279  23.633  1.00  0.00    -0.288 OA
ATOM     21  C   UNL A   1      33.453  19.229  24.320  1.00  0.00     0.034 A 
ATOM     22  C   UNL A   1      34.740  18.763  24.554  1.00  0.00     0.034 A 
ATOM     23  O   UNL A   1      36.959  19.434  24.910  1.00  0.00    -0.289 OA
ATOM     24  C   UNL A   1      32.503  18.389  23.735  1.00  0.00     0.013 A 
ATOM     25  C   UNL A   1      35.061  17.427  24.296  1.00  0.00     0.013 A 
ATOM     26  C   UNL A   1      32.810  17.048  23.497  1.00  0.00     0.001 A 
ATOM     27  C   UNL A   1      34.085  16.565  23.791  1.00  0.00     0.001 A 
ENDBRANCH  10  12
ENDBRANCH   7   8
ENDBRANCH   6   7
ENDBRANCH   4   6
ENDBRANCH   1   2
BRANCH   1  28
ATOM     28  C   UNL A   1      33.237  28.312  27.335  1.00  0.00     0.042 C 
BRANCH  28  29
ATOM     29  C   UNL A   1      33.779  29.600  26.778  1.00  0.00     0.118 C 
BRANCH  29  30
ATOM     30  N   UNL A   1      33.796  30.702  27.745  1.00  0.00    -0.352 N 
ATOM     31  C   UNL A   1      34.797  31.054  28.624  1.00  0.00     0.251 C 
ATOM     32  H   UNL A   1      32.988  31.264  27.769  1.00  0.00     0.163 HD
ATOM     33  O   UNL A   1      34.653  31.966  29.415  1.00  0.00    -0.269 OA
BRANCH  31  34
ATOM     34  C   UNL A   1      36.021  30.229  28.622  1.00  0.00     0.039 A 
ATOM     35  C   UNL A   1      36.897  30.329  27.542  1.00  0.00     0.014 A 
ATOM     36  C   UNL A   1      36.367  29.507  29.763  1.00  0.00     0.014 A 
ATOM     37  C   UNL A   1      38.174  29.782  27.656  1.00  0.00     0.010 A 
ATOM     38  C   UNL A   1      37.678  29.108  29.932  1.00  0.00     0.010 A 
ATOM     39  C   UNL A   1      38.591  29.225  28.875  1.00  0.00    -0.014 A 
BRANCH  39  40
ATOM     40  C   UNL A   1      39.968  28.721  29.082  1.00  0.00     0.031 A 
ATOM     41  C   UNL A   1      41.008  29.649  29.651  1.00  0.00     0.074 A 
ATOM     42  C   UNL A   1      40.306  27.485  28.666  1.00  0.00     0.049 A 
ATOM     43  N   UNL A   1      42.296  29.469  29.775  1.00  0.00    -0.248 NA
ATOM     44  C   UNL A   1      40.543  30.978  30.088  1.00  0.00     0.031 C 
ATOM     45  C   UNL A   1      39.404  26.517  28.035  1.00  0.00     0.029 A 
ATOM     46  N   UNL A   1      41.511  26.833  28.706  1.00  0.00    -0.354 N 
ATOM     47  C   UNL A   1      42.794  30.676  30.252  1.00  0.00     0.074 A 
ATOM     48  C   UNL A   1      41.686  31.598  30.331  1.00  0.00     0.031 C 
ATOM     49  C   UNL A   1      40.077  25.381  27.790  1.00  0.00     0.029 A 
ATOM     50  C   UNL A   1      41.465  25.557  28.200  1.00  0.00     0.049 A 
ATOM     51  H   UNL A   1      42.333  27.241  29.064  1.00  0.00     0.167 HD
ATOM     52  C   UNL A   1      44.057  30.980  30.627  1.00  0.00     0.031 A 
ATOM     53  C   UNL A   1      42.439  24.636  28.078  1.00  0.00     0.031 A 
ATOM     54  C   UNL A   1      45.142  30.041  30.604  1.00  0.00     0.049 A 
ATOM     55  C   UNL A   1      43.826  24.983  28.539  1.00  0.00     0.074 A 
ATOM     56  C   UNL A   1      46.440  30.212  31.046  1.00  0.00     0.029 A 
ATOM     57  N   UNL A   1      45.043  28.744  30.124  1.00  0.00    -0.354 N 
ATOM     58  N   UNL A   1      44.268  26.104  29.056  1.00  0.00    -0.248 NA
ATOM     59  C   UNL A   1      44.847  23.935  28.407  1.00  0.00     0.031 C 
ATOM     60  C   UNL A   1      47.140  29.026  30.799  1.00  0.00     0.029 A 
ATOM     61  C   UNL A   1      46.264  28.106  30.245  1.00  0.00     0.049 A 
ATOM     62  H   UNL A   1      44.227  28.338  29.754  1.00  0.00     0.167 HD
ATOM     63  C   UNL A   1      45.613  25.891  29.328  1.00  0.00     0.074 A 
ATOM     64  C   UNL A   1      45.908  24.527  28.939  1.00  0.00     0.031 C 
ATOM     65  C   UNL A   1      46.525  26.747  29.850  1.00  0.00     0.031 A 
BRANCH  52  66
ATOM     66  C   UNL A   1      44.315  32.382  31.102  1.00  0.00    -0.014 A 
ATOM     67  C   UNL A   1      44.172  32.730  32.455  1.00  0.00     0.009 A 
ATOM     68  C   UNL A   1      44.706  33.369  30.185  1.00  0.00     0.009 A 
ATOM     69  C   UNL A   1      44.370  34.048  32.872  1.00  0.00     0.001 A 
ATOM     70  C   UNL A   1      44.936  34.679  30.611  1.00  0.00     0.001 A 
ATOM     71  C   UNL A   1      44.756  35.020  31.951  1.00  0.00     0.000 A 
ENDBRANCH  52  66
BRANCH  53  72
ATOM     72  C   UNL A   1      42.133  23.291  27.524  1.00  0.00    -0.014 A 
ATOM     73  C   UNL A   1      42.619  22.920  26.260  1.00  0.00     0.009 A 
ATOM     74  C   UNL A   1      41.358  22.373  28.247  1.00  0.00     0.009 A 
ATOM     75  C   UNL A   1      42.313  21.669  25.721  1.00  0.00     0.001 A 
ATOM     76  C   UNL A   1      41.075  21.111  27.718  1.00  0.00     0.001 A 
ATOM     77  C   UNL A   1      41.544  20.765  26.451  1.00  0.00     0.000 A 
ENDBRANCH  53  72
BRANCH  65  78
ATOM     78  C   UNL A   1      47.916  26.221  30.053  1.00  0.00    -0.014 A 
ATOM     79  C   UNL A   1      48.849  26.223  29.006  1.00  0.00     0.009 A 
ATOM     80  C   UNL A   1      48.310  25.772  31.322  1.00  0.00     0.009 A 
ATOM     81  C   UNL A   1      50.147  25.757  29.222  1.00  0.00     0.001 A 
ATOM     82  C   UNL A   1      49.615  25.332  31.541  1.00  0.00     0.001 A 
ATOM     83  C   UNL A   1      50.530  25.318  30.489  1.00  0.00     0.000 A 
ENDBRANCH  65  78
ENDBRANCH  39  40
ENDBRANCH  31  34
ENDBRANCH  29  30
ENDBRANCH  28  29
ENDBRANCH   1  28
TORSDOF 13
ENDMDL
