MODEL 1
REMARK VINA RESULT:     -12.2      0.000      0.000
REMARK SMILES Cc1ccc(CNc2ccc(C(=O)NCCCNC(=O)c3ccc(-c4c5nc(c(-c6ccccc6)c6ccc([nH]6)c(-c6ccccc6)c6nc(c(-c7ccccc7)c7ccc4[nH]7)C=C6)C=C5)cc3)cc2Br)cc1
REMARK SMILES IDX 15 1 14 2 12 3 13 4 11 6 8 7 9 8 70 9 10 10 69 11 71 12 7 13
REMARK SMILES IDX 6 15 5 16 1 17 2 18 3 19 73 20 4 21 72 22 16 23 17 24 18 25
REMARK SMILES IDX 19 26 20 28 21 29 22 30 68 31 23 32 67 33 24 34 25 35 26 36
REMARK SMILES IDX 61 37 27 38 66 39 60 40 62 41 28 42 65 43 59 44 58 45 29 47
REMARK SMILES IDX 51 48 36 49 50 50 37 51 40 52 49 53 63 54 38 55 39 56 48 58
REMARK SMILES IDX 64 59 41 60 30 61 31 62 35 63 32 64 34 65 33 66 52 67 53 68
REMARK SMILES IDX 57 69 54 70 56 71 55 72 42 73 43 74 47 75 44 76 46 77 45 78
REMARK H PARENT 14 5 7 14 18 27 62 46 40 57
REMARK Flexibility Score: inf
ROOT
ATOM      1  C   UNL A   1      32.641  29.927  25.335  1.00  0.00     0.118 C 
ENDROOT
BRANCH   1   2
ATOM      2  N   UNL A   1      31.385  30.062  24.610  1.00  0.00    -0.352 N 
ATOM      3  C   UNL A   1      30.598  29.166  23.925  1.00  0.00     0.251 C 
ATOM      4  O   UNL A   1      29.523  29.589  23.496  1.00  0.00    -0.269 OA
ATOM      5  H   UNL A   1      31.028  30.980  24.610  1.00  0.00     0.163 HD
BRANCH   3   6
ATOM      6  C   UNL A   1      30.951  27.732  23.683  1.00  0.00     0.041 A 
ATOM      7  C   UNL A   1      31.583  24.965  23.386  1.00  0.00     0.049 A 
ATOM      8  C   UNL A   1      31.742  25.864  22.335  1.00  0.00     0.028 A 
ATOM      9  C   UNL A   1      31.042  25.465  24.582  1.00  0.00     0.041 A 
ATOM     10  C   UNL A   1      31.435  27.217  22.483  1.00  0.00     0.016 A 
ATOM     11  C   UNL A   1      30.733  26.824  24.732  1.00  0.00     0.031 A 
ATOM     12  Br  UNL A   1      30.750  24.315  26.070  1.00  0.00    -0.049 Br
BRANCH   7  13
ATOM     13  N   UNL A   1      31.998  23.649  23.254  1.00  0.00    -0.380 N 
ATOM     14  H   UNL A   1      31.469  22.930  23.671  1.00  0.00     0.160 HD
BRANCH  13  15
ATOM     15  C   UNL A   1      33.202  23.315  22.509  1.00  0.00     0.148 C 
BRANCH  15  16
ATOM     16  C   UNL A   1      34.401  23.443  23.414  1.00  0.00    -0.029 A 
ATOM     17  C   UNL A   1      37.778  23.718  26.081  1.00  0.00     0.044 C 
ATOM     18  C   UNL A   1      36.616  23.647  25.136  1.00  0.00    -0.051 A 
ATOM     19  C   UNL A   1      35.366  24.128  25.537  1.00  0.00     0.004 A 
ATOM     20  C   UNL A   1      36.756  23.083  23.862  1.00  0.00     0.004 A 
ATOM     21  C   UNL A   1      34.271  24.035  24.680  1.00  0.00     0.006 A 
ATOM     22  C   UNL A   1      35.658  22.983  23.007  1.00  0.00     0.006 A 
ENDBRANCH  15  16
ENDBRANCH  13  15
ENDBRANCH   7  13
ENDBRANCH   3   6
ENDBRANCH   1   2
BRANCH   1  23
ATOM     23  C   UNL A   1      32.563  30.537  26.736  1.00  0.00     0.042 C 
BRANCH  23  24
ATOM     24  C   UNL A   1      33.687  30.112  27.658  1.00  0.00     0.118 C 
BRANCH  24  25
ATOM     25  N   UNL A   1      34.274  31.210  28.420  1.00  0.00    -0.352 N 
ATOM     26  C   UNL A   1      35.519  31.261  29.024  1.00  0.00     0.251 C 
ATOM     27  H   UNL A   1      33.715  32.015  28.515  1.00  0.00     0.163 HD
ATOM     28  O   UNL A   1      35.888  32.254  29.626  1.00  0.00    -0.269 OA
BRANCH  26  29
ATOM     29  C   UNL A   1      36.438  30.119  28.812  1.00  0.00     0.039 A 
ATOM     30  C   UNL A   1      36.762  29.338  29.924  1.00  0.00     0.014 A 
ATOM     31  C   UNL A   1      37.168  30.021  27.629  1.00  0.00     0.014 A 
ATOM     32  C   UNL A   1      37.970  28.650  29.930  1.00  0.00     0.010 A 
ATOM     33  C   UNL A   1      38.410  29.422  27.671  1.00  0.00     0.010 A 
ATOM     34  C   UNL A   1      38.837  28.795  28.845  1.00  0.00    -0.014 A 
BRANCH  34  35
ATOM     35  C   UNL A   1      40.248  28.438  28.919  1.00  0.00     0.031 A 
ATOM     36  C   UNL A   1      40.722  27.155  28.370  1.00  0.00     0.074 A 
ATOM     37  C   UNL A   1      41.130  29.268  29.517  1.00  0.00     0.049 A 
ATOM     38  N   UNL A   1      41.704  26.481  28.868  1.00  0.00    -0.248 NA
ATOM     39  C   UNL A   1      40.084  26.505  27.229  1.00  0.00     0.031 C 
ATOM     40  C   UNL A   1      42.586  29.166  29.521  1.00  0.00     0.029 A 
ATOM     41  N   UNL A   1      40.859  30.272  30.437  1.00  0.00    -0.354 N 
ATOM     42  C   UNL A   1      42.002  25.484  27.974  1.00  0.00     0.074 A 
ATOM     43  C   UNL A   1      40.922  25.486  27.012  1.00  0.00     0.031 C 
ATOM     44  C   UNL A   1      43.070  29.885  30.546  1.00  0.00     0.029 A 
ATOM     45  C   UNL A   1      41.939  30.368  31.322  1.00  0.00     0.049 A 
ATOM     46  H   UNL A   1      40.043  30.823  30.462  1.00  0.00     0.167 HD
ATOM     47  C   UNL A   1      43.203  24.847  28.026  1.00  0.00     0.031 A 
ATOM     48  C   UNL A   1      41.768  30.168  32.661  1.00  0.00     0.031 A 
ATOM     49  C   UNL A   1      44.052  25.341  29.098  1.00  0.00     0.049 A 
ATOM     50  C   UNL A   1      42.511  28.961  33.197  1.00  0.00     0.074 A 
ATOM     51  C   UNL A   1      45.079  26.271  29.129  1.00  0.00     0.029 A 
ATOM     52  N   UNL A   1      43.684  25.119  30.420  1.00  0.00    -0.354 N 
ATOM     53  N   UNL A   1      43.039  28.037  32.443  1.00  0.00    -0.248 NA
ATOM     54  C   UNL A   1      42.669  28.669  34.621  1.00  0.00     0.031 C 
ATOM     55  C   UNL A   1      45.270  26.671  30.476  1.00  0.00     0.029 A 
ATOM     56  C   UNL A   1      44.384  25.959  31.263  1.00  0.00     0.049 A 
ATOM     57  H   UNL A   1      43.017  24.456  30.712  1.00  0.00     0.167 HD
ATOM     58  C   UNL A   1      43.565  27.046  33.230  1.00  0.00     0.074 A 
ATOM     59  C   UNL A   1      43.326  27.496  34.587  1.00  0.00     0.031 C 
ATOM     60  C   UNL A   1      44.135  25.928  32.696  1.00  0.00     0.031 A 
BRANCH  47  61
ATOM     61  C   UNL A   1      43.679  24.014  26.871  1.00  0.00    -0.014 A 
ATOM     62  C   UNL A   1      44.406  24.613  25.828  1.00  0.00     0.009 A 
ATOM     63  C   UNL A   1      43.376  22.649  26.733  1.00  0.00     0.009 A 
ATOM     64  C   UNL A   1      44.724  23.911  24.659  1.00  0.00     0.001 A 
ATOM     65  C   UNL A   1      43.656  21.954  25.550  1.00  0.00     0.001 A 
ATOM     66  C   UNL A   1      44.320  22.590  24.508  1.00  0.00     0.000 A 
ENDBRANCH  47  61
BRANCH  48  67
ATOM     67  C   UNL A   1      40.453  30.648  33.170  1.00  0.00    -0.014 A 
ATOM     68  C   UNL A   1      40.199  32.034  33.152  1.00  0.00     0.009 A 
ATOM     69  C   UNL A   1      39.369  29.771  33.307  1.00  0.00     0.009 A 
ATOM     70  C   UNL A   1      38.890  32.525  33.155  1.00  0.00     0.001 A 
ATOM     71  C   UNL A   1      38.059  30.267  33.319  1.00  0.00     0.001 A 
ATOM     72  C   UNL A   1      37.819  31.637  33.206  1.00  0.00     0.000 A 
ENDBRANCH  48  67
BRANCH  60  73
ATOM     73  C   UNL A   1      44.573  24.711  33.465  1.00  0.00    -0.014 A 
ATOM     74  C   UNL A   1      43.767  23.584  33.671  1.00  0.00     0.009 A 
ATOM     75  C   UNL A   1      45.920  24.621  33.880  1.00  0.00     0.009 A 
ATOM     76  C   UNL A   1      44.275  22.437  34.297  1.00  0.00     0.001 A 
ATOM     77  C   UNL A   1      46.441  23.466  34.466  1.00  0.00     0.001 A 
ATOM     78  C   UNL A   1      45.612  22.374  34.683  1.00  0.00     0.000 A 
ENDBRANCH  60  73
ENDBRANCH  34  35
ENDBRANCH  26  29
ENDBRANCH  24  25
ENDBRANCH  23  24
ENDBRANCH   1  23
TORSDOF 13
ENDMDL
MODEL 2
REMARK VINA RESULT:     -12.1      1.882      2.547
REMARK SMILES Cc1ccc(CNc2ccc(C(=O)NCCCNC(=O)c3ccc(-c4c5nc(c(-c6ccccc6)c6ccc([nH]6)c(-c6ccccc6)c6nc(c(-c7ccccc7)c7ccc4[nH]7)C=C6)C=C5)cc3)cc2Br)cc1
REMARK SMILES IDX 15 1 14 2 12 3 13 4 11 6 8 7 9 8 70 9 10 10 69 11 71 12 7 13
REMARK SMILES IDX 6 15 5 16 1 17 2 18 3 19 73 20 4 21 72 22 16 23 17 24 18 25
REMARK SMILES IDX 19 26 20 28 21 29 22 30 68 31 23 32 67 33 24 34 25 35 26 36
REMARK SMILES IDX 61 37 27 38 66 39 60 40 62 41 28 42 65 43 59 44 58 45 29 47
REMARK SMILES IDX 51 48 36 49 50 50 37 51 40 52 49 53 63 54 38 55 39 56 48 58
REMARK SMILES IDX 64 59 41 60 30 61 31 62 35 63 32 64 34 65 33 66 52 67 53 68
REMARK SMILES IDX 57 69 54 70 56 71 55 72 42 73 43 74 47 75 44 76 46 77 45 78
REMARK H PARENT 14 5 7 14 18 27 62 46 40 57
REMARK Flexibility Score: inf
ROOT
ATOM      1  C   UNL A   1      32.682  30.504  26.489  1.00  0.00     0.118 C 
ENDROOT
BRANCH   1   2
ATOM      2  N   UNL A   1      31.841  29.601  27.262  1.00  0.00    -0.352 N 
ATOM      3  C   UNL A   1      31.625  28.244  27.207  1.00  0.00     0.251 C 
ATOM      4  O   UNL A   1      30.908  27.762  28.085  1.00  0.00    -0.269 OA
ATOM      5  H   UNL A   1      31.321  30.054  27.965  1.00  0.00     0.163 HD
BRANCH   3   6
ATOM      6  C   UNL A   1      32.206  27.329  26.174  1.00  0.00     0.041 A 
ATOM      7  C   UNL A   1      33.153  25.531  24.171  1.00  0.00     0.049 A 
ATOM      8  C   UNL A   1      34.029  26.313  24.919  1.00  0.00     0.028 A 
ATOM      9  C   UNL A   1      31.778  25.706  24.403  1.00  0.00     0.041 A 
ATOM     10  C   UNL A   1      33.564  27.190  25.900  1.00  0.00     0.016 A 
ATOM     11  C   UNL A   1      31.310  26.587  25.388  1.00  0.00     0.031 A 
ATOM     12  Br  UNL A   1      30.493  24.713  23.412  1.00  0.00    -0.049 Br
BRANCH   7  13
ATOM     13  N   UNL A   1      33.639  24.587  23.281  1.00  0.00    -0.380 N 
ATOM     14  H   UNL A   1      33.213  24.487  22.399  1.00  0.00     0.160 HD
BRANCH  13  15
ATOM     15  C   UNL A   1      34.769  23.739  23.631  1.00  0.00     0.148 C 
BRANCH  15  16
ATOM     16  C   UNL A   1      34.273  22.352  23.950  1.00  0.00    -0.029 A 
ATOM     17  C   UNL A   1      32.846  18.417  24.986  1.00  0.00     0.044 C 
ATOM     18  C   UNL A   1      33.346  19.775  24.595  1.00  0.00    -0.051 A 
ATOM     19  C   UNL A   1      34.631  20.177  24.974  1.00  0.00     0.004 A 
ATOM     20  C   UNL A   1      32.537  20.662  23.874  1.00  0.00     0.004 A 
ATOM     21  C   UNL A   1      35.093  21.450  24.646  1.00  0.00     0.006 A 
ATOM     22  C   UNL A   1      32.997  21.939  23.552  1.00  0.00     0.006 A 
ENDBRANCH  15  16
ENDBRANCH  13  15
ENDBRANCH   7  13
ENDBRANCH   3   6
ENDBRANCH   1   2
BRANCH   1  23
ATOM     23  C   UNL A   1      33.559  31.380  27.386  1.00  0.00     0.042 C 
BRANCH  23  24
ATOM     24  C   UNL A   1      34.956  30.836  27.604  1.00  0.00     0.118 C 
BRANCH  24  25
ATOM     25  N   UNL A   1      35.740  31.592  28.577  1.00  0.00    -0.352 N 
ATOM     26  C   UNL A   1      36.897  31.202  29.229  1.00  0.00     0.251 C 
ATOM     27  H   UNL A   1      35.403  32.491  28.796  1.00  0.00     0.163 HD
ATOM     28  O   UNL A   1      37.458  31.943  30.017  1.00  0.00    -0.269 OA
BRANCH  26  29
ATOM     29  C   UNL A   1      37.503  29.906  28.848  1.00  0.00     0.039 A 
ATOM     30  C   UNL A   1      37.657  28.947  29.851  1.00  0.00     0.014 A 
ATOM     31  C   UNL A   1      38.154  29.773  27.623  1.00  0.00     0.014 A 
ATOM     32  C   UNL A   1      38.659  27.992  29.719  1.00  0.00     0.010 A 
ATOM     33  C   UNL A   1      39.212  28.892  27.533  1.00  0.00     0.010 A 
ATOM     34  C   UNL A   1      39.506  28.050  28.609  1.00  0.00    -0.014 A 
BRANCH  34  35
ATOM     35  C   UNL A   1      40.788  27.358  28.567  1.00  0.00     0.031 A 
ATOM     36  C   UNL A   1      40.845  25.907  28.317  1.00  0.00     0.074 A 
ATOM     37  C   UNL A   1      41.935  28.038  28.787  1.00  0.00     0.049 A 
ATOM     38  N   UNL A   1      41.737  25.126  28.827  1.00  0.00    -0.248 NA
ATOM     39  C   UNL A   1      39.857  25.213  27.498  1.00  0.00     0.031 C 
ATOM     40  C   UNL A   1      43.302  27.558  28.604  1.00  0.00     0.029 A 
ATOM     41  N   UNL A   1      42.088  29.256  29.435  1.00  0.00    -0.354 N 
ATOM     42  C   UNL A   1      41.617  23.914  28.197  1.00  0.00     0.074 A 
ATOM     43  C   UNL A   1      40.388  23.987  27.439  1.00  0.00     0.031 C 
ATOM     44  C   UNL A   1      44.134  28.333  29.317  1.00  0.00     0.029 A 
ATOM     45  C   UNL A   1      43.323  29.258  30.094  1.00  0.00     0.049 A 
ATOM     46  H   UNL A   1      41.436  29.994  29.432  1.00  0.00     0.167 HD
ATOM     47  C   UNL A   1      42.633  23.010  28.240  1.00  0.00     0.031 A 
ATOM     48  C   UNL A   1      43.395  29.413  31.448  1.00  0.00     0.031 A 
ATOM     49  C   UNL A   1      43.774  23.488  29.005  1.00  0.00     0.049 A 
ATOM     50  C   UNL A   1      43.951  28.203  32.171  1.00  0.00     0.074 A 
ATOM     51  C   UNL A   1      44.963  24.096  28.635  1.00  0.00     0.029 A 
ATOM     52  N   UNL A   1      43.650  23.670  30.377  1.00  0.00    -0.354 N 
ATOM     53  N   UNL A   1      44.096  27.028  31.622  1.00  0.00    -0.248 NA
ATOM     54  C   UNL A   1      44.334  28.202  33.582  1.00  0.00     0.031 C 
ATOM     55  C   UNL A   1      45.513  24.721  29.784  1.00  0.00     0.029 A 
ATOM     56  C   UNL A   1      44.676  24.461  30.854  1.00  0.00     0.049 A 
ATOM     57  H   UNL A   1      42.930  23.288  30.930  1.00  0.00     0.167 HD
ATOM     58  C   UNL A   1      44.544  26.134  32.557  1.00  0.00     0.074 A 
ATOM     59  C   UNL A   1      44.697  26.921  33.766  1.00  0.00     0.031 C 
ATOM     60  C   UNL A   1      44.731  24.816  32.263  1.00  0.00     0.031 A 
BRANCH  47  61
ATOM     61  C   UNL A   1      42.664  21.847  27.292  1.00  0.00    -0.014 A 
ATOM     62  C   UNL A   1      41.915  20.692  27.574  1.00  0.00     0.009 A 
ATOM     63  C   UNL A   1      43.473  21.816  26.143  1.00  0.00     0.009 A 
ATOM     64  C   UNL A   1      42.045  19.529  26.806  1.00  0.00     0.001 A 
ATOM     65  C   UNL A   1      43.637  20.643  25.396  1.00  0.00     0.001 A 
ATOM     66  C   UNL A   1      42.931  19.495  25.736  1.00  0.00     0.000 A 
ENDBRANCH  47  61
BRANCH  48  67
ATOM     67  C   UNL A   1      42.353  30.322  31.998  1.00  0.00    -0.014 A 
ATOM     68  C   UNL A   1      42.400  31.684  31.634  1.00  0.00     0.009 A 
ATOM     69  C   UNL A   1      41.163  29.816  32.537  1.00  0.00     0.009 A 
ATOM     70  C   UNL A   1      41.256  32.485  31.701  1.00  0.00     0.001 A 
ATOM     71  C   UNL A   1      40.022  30.624  32.610  1.00  0.00     0.001 A 
ATOM     72  C   UNL A   1      40.059  31.944  32.160  1.00  0.00     0.000 A 
ENDBRANCH  48  67
BRANCH  60  73
ATOM     73  C   UNL A   1      45.042  23.728  33.256  1.00  0.00    -0.014 A 
ATOM     74  C   UNL A   1      46.299  23.542  33.845  1.00  0.00     0.009 A 
ATOM     75  C   UNL A   1      43.981  22.934  33.745  1.00  0.00     0.009 A 
ATOM     76  C   UNL A   1      46.492  22.583  34.849  1.00  0.00     0.001 A 
ATOM     77  C   UNL A   1      44.160  22.007  34.772  1.00  0.00     0.001 A 
ATOM     78  C   UNL A   1      45.422  21.824  35.319  1.00  0.00     0.000 A 
ENDBRANCH  60  73
ENDBRANCH  34  35
ENDBRANCH  26  29
ENDBRANCH  24  25
ENDBRANCH  23  24
ENDBRANCH   1  23
TORSDOF 13
ENDMDL
MODEL 3
REMARK VINA RESULT:     -11.9      3.606      8.743
REMARK SMILES Cc1ccc(CNc2ccc(C(=O)NCCCNC(=O)c3ccc(-c4c5nc(c(-c6ccccc6)c6ccc([nH]6)c(-c6ccccc6)c6nc(c(-c7ccccc7)c7ccc4[nH]7)C=C6)C=C5)cc3)cc2Br)cc1
REMARK SMILES IDX 15 1 14 2 12 3 13 4 11 6 8 7 9 8 70 9 10 10 69 11 71 12 7 13
REMARK SMILES IDX 6 15 5 16 1 17 2 18 3 19 73 20 4 21 72 22 16 23 17 24 18 25
REMARK SMILES IDX 19 26 20 28 21 29 22 30 68 31 23 32 67 33 24 34 25 35 26 36
REMARK SMILES IDX 61 37 27 38 66 39 60 40 62 41 28 42 65 43 59 44 58 45 29 47
REMARK SMILES IDX 51 48 36 49 50 50 37 51 40 52 49 53 63 54 38 55 39 56 48 58
REMARK SMILES IDX 64 59 41 60 30 61 31 62 35 63 32 64 34 65 33 66 52 67 53 68
REMARK SMILES IDX 57 69 54 70 56 71 55 72 42 73 43 74 47 75 44 76 46 77 45 78
REMARK H PARENT 14 5 7 14 18 27 62 46 40 57
REMARK Flexibility Score: inf
ROOT
ATOM      1  C   UNL A   1      36.598  21.879  24.833  1.00  0.00     0.118 C 
ENDROOT
BRANCH   1   2
ATOM      2  N   UNL A   1      35.805  20.660  24.901  1.00  0.00    -0.352 N 
ATOM      3  C   UNL A   1      34.465  20.404  24.730  1.00  0.00     0.251 C 
ATOM      4  O   UNL A   1      34.119  19.222  24.760  1.00  0.00    -0.269 OA
ATOM      5  H   UNL A   1      36.335  19.857  25.112  1.00  0.00     0.163 HD
BRANCH   3   6
ATOM      6  C   UNL A   1      33.419  21.450  24.502  1.00  0.00     0.041 A 
ATOM      7  C   UNL A   1      31.360  23.406  24.222  1.00  0.00     0.049 A 
ATOM      8  C   UNL A   1      32.286  23.174  23.208  1.00  0.00     0.028 A 
ATOM      9  C   UNL A   1      31.516  22.677  25.412  1.00  0.00     0.041 A 
ATOM     10  C   UNL A   1      33.290  22.216  23.346  1.00  0.00     0.016 A 
ATOM     11  C   UNL A   1      32.525  21.714  25.552  1.00  0.00     0.031 A 
ATOM     12  Br  UNL A   1      30.327  22.940  26.874  1.00  0.00    -0.049 Br
BRANCH   7  13
ATOM     13  N   UNL A   1      30.304  24.281  24.022  1.00  0.00    -0.380 N 
ATOM     14  H   UNL A   1      29.386  23.986  24.222  1.00  0.00     0.160 HD
BRANCH  13  15
ATOM     15  C   UNL A   1      30.532  25.629  23.524  1.00  0.00     0.148 C 
BRANCH  15  16
ATOM     16  C   UNL A   1      31.400  26.383  24.500  1.00  0.00    -0.029 A 
ATOM     17  C   UNL A   1      33.850  28.648  27.229  1.00  0.00     0.044 C 
ATOM     18  C   UNL A   1      33.008  27.833  26.295  1.00  0.00    -0.051 A 
ATOM     19  C   UNL A   1      33.409  27.667  24.965  1.00  0.00     0.004 A 
ATOM     20  C   UNL A   1      31.809  27.252  26.725  1.00  0.00     0.004 A 
ATOM     21  C   UNL A   1      32.617  26.940  24.079  1.00  0.00     0.006 A 
ATOM     22  C   UNL A   1      31.012  26.531  25.836  1.00  0.00     0.006 A 
ENDBRANCH  15  16
ENDBRANCH  13  15
ENDBRANCH   7  13
ENDBRANCH   3   6
ENDBRANCH   1   2
BRANCH   1  23
ATOM     23  C   UNL A   1      38.020  21.668  25.360  1.00  0.00     0.042 C 
BRANCH  23  24
ATOM     24  C   UNL A   1      38.569  22.845  26.141  1.00  0.00     0.118 C 
BRANCH  24  25
ATOM     25  N   UNL A   1      40.026  22.861  26.237  1.00  0.00    -0.352 N 
ATOM     26  C   UNL A   1      40.845  23.914  26.612  1.00  0.00     0.251 C 
ATOM     27  H   UNL A   1      40.482  22.020  26.006  1.00  0.00     0.163 HD
ATOM     28  O   UNL A   1      42.056  23.785  26.657  1.00  0.00    -0.269 OA
BRANCH  26  29
ATOM     29  C   UNL A   1      40.199  25.162  27.075  1.00  0.00     0.039 A 
ATOM     30  C   UNL A   1      40.556  26.349  26.432  1.00  0.00     0.014 A 
ATOM     31  C   UNL A   1      39.503  25.181  28.283  1.00  0.00     0.014 A 
ATOM     32  C   UNL A   1      40.440  27.549  27.125  1.00  0.00     0.010 A 
ATOM     33  C   UNL A   1      39.480  26.355  29.008  1.00  0.00     0.010 A 
ATOM     34  C   UNL A   1      40.011  27.523  28.455  1.00  0.00    -0.014 A 
BRANCH  34  35
ATOM     35  C   UNL A   1      40.215  28.644  29.364  1.00  0.00     0.031 A 
ATOM     36  C   UNL A   1      39.152  29.645  29.564  1.00  0.00     0.074 A 
ATOM     37  C   UNL A   1      41.392  28.790  30.010  1.00  0.00     0.049 A 
ATOM     38  N   UNL A   1      39.379  30.893  29.804  1.00  0.00    -0.248 NA
ATOM     39  C   UNL A   1      37.734  29.316  29.460  1.00  0.00     0.031 C 
ATOM     40  C   UNL A   1      41.708  29.728  31.082  1.00  0.00     0.029 A 
ATOM     41  N   UNL A   1      42.622  28.244  29.665  1.00  0.00    -0.354 N 
ATOM     42  C   UNL A   1      38.181  31.458  30.158  1.00  0.00     0.074 A 
ATOM     43  C   UNL A   1      37.175  30.465  29.853  1.00  0.00     0.031 C 
ATOM     44  C   UNL A   1      43.040  29.874  31.156  1.00  0.00     0.029 A 
ATOM     45  C   UNL A   1      43.628  29.139  30.047  1.00  0.00     0.049 A 
ATOM     46  H   UNL A   1      42.761  27.374  29.226  1.00  0.00     0.167 HD
ATOM     47  C   UNL A   1      38.147  32.647  30.819  1.00  0.00     0.031 A 
ATOM     48  C   UNL A   1      44.481  29.670  29.123  1.00  0.00     0.031 A 
ATOM     49  C   UNL A   1      39.475  33.188  31.065  1.00  0.00     0.049 A 
ATOM     50  C   UNL A   1      44.357  31.172  28.970  1.00  0.00     0.074 A 
ATOM     51  C   UNL A   1      40.318  33.141  32.163  1.00  0.00     0.029 A 
ATOM     52  N   UNL A   1      40.250  33.611  29.992  1.00  0.00    -0.354 N 
ATOM     53  N   UNL A   1      43.367  31.874  29.450  1.00  0.00    -0.248 NA
ATOM     54  C   UNL A   1      45.303  31.995  28.218  1.00  0.00     0.031 C 
ATOM     55  C   UNL A   1      41.629  33.459  31.725  1.00  0.00     0.029 A 
ATOM     56  C   UNL A   1      41.572  33.731  30.371  1.00  0.00     0.049 A 
ATOM     57  H   UNL A   1      39.904  33.798  29.089  1.00  0.00     0.167 HD
ATOM     58  C   UNL A   1      43.506  33.183  29.074  1.00  0.00     0.074 A 
ATOM     59  C   UNL A   1      44.744  33.214  28.319  1.00  0.00     0.031 C 
ATOM     60  C   UNL A   1      42.578  34.129  29.398  1.00  0.00     0.031 A 
BRANCH  47  61
ATOM     61  C   UNL A   1      36.894  33.105  31.508  1.00  0.00    -0.014 A 
ATOM     62  C   UNL A   1      36.692  32.805  32.865  1.00  0.00     0.009 A 
ATOM     63  C   UNL A   1      35.854  33.776  30.842  1.00  0.00     0.009 A 
ATOM     64  C   UNL A   1      35.472  33.069  33.500  1.00  0.00     0.001 A 
ATOM     65  C   UNL A   1      34.619  34.004  31.460  1.00  0.00     0.001 A 
ATOM     66  C   UNL A   1      34.424  33.638  32.787  1.00  0.00     0.000 A 
ENDBRANCH  47  61
BRANCH  48  67
ATOM     67  C   UNL A   1      44.816  28.731  28.016  1.00  0.00    -0.014 A 
ATOM     68  C   UNL A   1      45.576  27.584  28.325  1.00  0.00     0.009 A 
ATOM     69  C   UNL A   1      44.112  28.760  26.806  1.00  0.00     0.009 A 
ATOM     70  C   UNL A   1      45.538  26.455  27.502  1.00  0.00     0.001 A 
ATOM     71  C   UNL A   1      44.083  27.630  25.979  1.00  0.00     0.001 A 
ATOM     72  C   UNL A   1      44.766  26.468  26.344  1.00  0.00     0.000 A 
ENDBRANCH  48  67
BRANCH  60  73
ATOM     73  C   UNL A   1      42.545  35.543  28.883  1.00  0.00    -0.014 A 
ATOM     74  C   UNL A   1      43.152  36.626  29.531  1.00  0.00     0.009 A 
ATOM     75  C   UNL A   1      42.005  35.783  27.600  1.00  0.00     0.009 A 
ATOM     76  C   UNL A   1      43.184  37.896  28.939  1.00  0.00     0.001 A 
ATOM     77  C   UNL A   1      42.071  37.037  26.990  1.00  0.00     0.001 A 
ATOM     78  C   UNL A   1      42.654  38.099  27.667  1.00  0.00     0.000 A 
ENDBRANCH  60  73
ENDBRANCH  34  35
ENDBRANCH  26  29
ENDBRANCH  24  25
ENDBRANCH  23  24
ENDBRANCH   1  23
TORSDOF 13
ENDMDL
