MODEL 1
REMARK VINA RESULT:     -12.0      0.000      0.000
REMARK SMILES C[C@@H](C(=O)NCCCNC(=O)c1ccc(-c2c3nc(c(-c4ccccc4)c4ccc([nH]4)c(-c4ccccc4)c4nc(c(-c5ccccc5)c5ccc2[nH]5)C=C4)C=C3)cc1)c1ccccc1-c1ccn(C(F)F)c(=O)c1
REMARK SMILES IDX 6 1 5 2 3 3 4 4 2 6 1 7 60 8 61 9 65 10 62 11 64 12 63 13
REMARK SMILES IDX 66 14 67 15 75 16 68 17 73 18 69 19 74 20 70 21 71 22 72 23
REMARK SMILES IDX 7 24 8 25 9 26 10 27 11 29 12 30 13 31 59 32 14 33 58 34
REMARK SMILES IDX 15 35 16 36 17 37 52 38 18 39 57 40 51 41 53 42 19 43 56 44
REMARK SMILES IDX 50 45 49 46 20 48 42 49 27 50 41 51 28 52 31 53 40 54 54 55
REMARK SMILES IDX 29 56 30 57 39 59 55 60 32 61 21 62 22 63 26 64 23 65 25 66
REMARK SMILES IDX 24 67 43 68 44 69 48 70 45 71 47 72 46 73 33 74 34 75 38 76
REMARK SMILES IDX 35 77 37 78 36 79
REMARK H PARENT 5 5 9 28 53 47 31 58
REMARK Flexibility Score: inf
ROOT
ATOM      1  C   UNL A   1      31.033  30.940  25.323  1.00  0.00     0.117 C 
ENDROOT
BRANCH   1   2
ATOM      2  N   UNL A   1      32.253  30.161  25.226  1.00  0.00    -0.356 N 
ATOM      3  C   UNL A   1      32.517  28.862  25.550  1.00  0.00     0.227 C 
ATOM      4  O   UNL A   1      33.691  28.511  25.417  1.00  0.00    -0.274 OA
ATOM      5  H   UNL A   1      33.023  30.656  24.864  1.00  0.00     0.163 HD
BRANCH   3   6
ATOM      6  C   UNL A   1      31.378  27.940  26.027  1.00  0.00     0.106 C 
ATOM      7  C   UNL A   1      31.396  27.757  27.543  1.00  0.00     0.023 C 
BRANCH   6   8
ATOM      8  C   UNL A   1      31.302  26.566  25.346  1.00  0.00    -0.028 A 
ATOM      9  C   UNL A   1      31.725  25.409  26.030  1.00  0.00     0.005 A 
ATOM     10  C   UNL A   1      30.719  26.401  24.064  1.00  0.00    -0.014 A 
ATOM     11  C   UNL A   1      31.651  24.144  25.445  1.00  0.00     0.000 A 
ATOM     12  C   UNL A   1      30.655  25.120  23.484  1.00  0.00     0.009 A 
ATOM     13  C   UNL A   1      31.126  24.001  24.167  1.00  0.00     0.001 A 
BRANCH  10  14
ATOM     14  C   UNL A   1      30.080  27.519  23.333  1.00  0.00    -0.011 A 
ATOM     15  C   UNL A   1      30.810  28.455  22.498  1.00  0.00     0.027 A 
ATOM     16  C   UNL A   1      28.762  27.703  23.521  1.00  0.00     0.080 A 
ATOM     17  C   UNL A   1      30.200  29.541  22.007  1.00  0.00     0.095 A 
ATOM     18  C   UNL A   1      28.059  28.877  22.938  1.00  0.00     0.255 A 
ATOM     19  N   UNL A   1      28.856  29.768  22.238  1.00  0.00    -0.258 N 
ATOM     20  O   UNL A   1      26.854  28.996  23.136  1.00  0.00    -0.269 OA
BRANCH  19  21
ATOM     21  C   UNL A   1      28.217  30.964  21.751  1.00  0.00     0.451 C 
ATOM     22  F   UNL A   1      29.102  31.983  21.637  1.00  0.00    -0.185 F 
ATOM     23  F   UNL A   1      27.660  30.751  20.533  1.00  0.00    -0.185 F 
ENDBRANCH  19  21
ENDBRANCH  10  14
ENDBRANCH   6   8
ENDBRANCH   3   6
ENDBRANCH   1   2
BRANCH   1  24
ATOM     24  C   UNL A   1      31.028  31.835  26.558  1.00  0.00     0.042 C 
BRANCH  24  25
ATOM     25  C   UNL A   1      32.360  32.522  26.837  1.00  0.00     0.118 C 
BRANCH  25  26
ATOM     26  N   UNL A   1      32.202  33.849  27.416  1.00  0.00    -0.352 N 
ATOM     27  C   UNL A   1      32.937  34.464  28.401  1.00  0.00     0.251 C 
ATOM     28  H   UNL A   1      31.462  34.384  27.046  1.00  0.00     0.163 HD
ATOM     29  O   UNL A   1      32.552  35.524  28.886  1.00  0.00    -0.269 OA
BRANCH  27  30
ATOM     30  C   UNL A   1      34.178  33.832  28.896  1.00  0.00     0.039 A 
ATOM     31  C   UNL A   1      35.410  34.300  28.431  1.00  0.00     0.014 A 
ATOM     32  C   UNL A   1      34.125  32.792  29.825  1.00  0.00     0.014 A 
ATOM     33  C   UNL A   1      36.593  33.778  28.960  1.00  0.00     0.010 A 
ATOM     34  C   UNL A   1      35.299  32.330  30.408  1.00  0.00     0.010 A 
ATOM     35  C   UNL A   1      36.545  32.819  29.983  1.00  0.00    -0.014 A 
BRANCH  35  36
ATOM     36  C   UNL A   1      37.775  32.305  30.635  1.00  0.00     0.031 A 
ATOM     37  C   UNL A   1      38.482  31.109  30.062  1.00  0.00     0.074 A 
ATOM     38  C   UNL A   1      38.191  32.839  31.800  1.00  0.00     0.049 A 
ATOM     39  N   UNL A   1      39.475  30.417  30.560  1.00  0.00    -0.248 NA
ATOM     40  C   UNL A   1      37.983  30.607  28.772  1.00  0.00     0.031 C 
ATOM     41  C   UNL A   1      37.572  33.978  32.480  1.00  0.00     0.029 A 
ATOM     42  N   UNL A   1      39.219  32.472  32.633  1.00  0.00    -0.354 N 
ATOM     43  C   UNL A   1      39.698  29.383  29.661  1.00  0.00     0.074 A 
ATOM     44  C   UNL A   1      38.707  29.511  28.614  1.00  0.00     0.031 C 
ATOM     45  C   UNL A   1      38.232  34.217  33.623  1.00  0.00     0.029 A 
ATOM     46  C   UNL A   1      39.289  33.222  33.782  1.00  0.00     0.049 A 
ATOM     47  H   UNL A   1      39.846  31.742  32.426  1.00  0.00     0.167 HD
ATOM     48  C   UNL A   1      40.650  28.419  29.696  1.00  0.00     0.031 A 
ATOM     49  C   UNL A   1      40.091  33.106  34.857  1.00  0.00     0.031 A 
ATOM     50  C   UNL A   1      41.633  28.296  30.738  1.00  0.00     0.049 A 
ATOM     51  C   UNL A   1      41.128  32.018  34.890  1.00  0.00     0.074 A 
ATOM     52  C   UNL A   1      42.677  27.394  30.834  1.00  0.00     0.029 A 
ATOM     53  N   UNL A   1      41.686  29.096  31.870  1.00  0.00    -0.354 N 
ATOM     54  N   UNL A   1      41.373  31.089  33.999  1.00  0.00    -0.248 NA
ATOM     55  C   UNL A   1      42.003  31.968  36.070  1.00  0.00     0.031 C 
ATOM     56  C   UNL A   1      43.326  27.607  32.056  1.00  0.00     0.029 A 
ATOM     57  C   UNL A   1      42.727  28.686  32.687  1.00  0.00     0.049 A 
ATOM     58  H   UNL A   1      41.075  29.842  32.064  1.00  0.00     0.167 HD
ATOM     59  C   UNL A   1      42.448  30.360  34.495  1.00  0.00     0.074 A 
ATOM     60  C   UNL A   1      42.810  30.962  35.762  1.00  0.00     0.031 C 
ATOM     61  C   UNL A   1      43.079  29.295  33.945  1.00  0.00     0.031 A 
BRANCH  48  62
ATOM     62  C   UNL A   1      40.646  27.409  28.581  1.00  0.00    -0.014 A 
ATOM     63  C   UNL A   1      41.364  27.623  27.394  1.00  0.00     0.009 A 
ATOM     64  C   UNL A   1      39.913  26.219  28.723  1.00  0.00     0.009 A 
ATOM     65  C   UNL A   1      41.303  26.697  26.350  1.00  0.00     0.001 A 
ATOM     66  C   UNL A   1      39.883  25.277  27.692  1.00  0.00     0.001 A 
ATOM     67  C   UNL A   1      40.564  25.524  26.502  1.00  0.00     0.000 A 
ENDBRANCH  48  62
BRANCH  49  68
ATOM     68  C   UNL A   1      39.934  34.051  35.994  1.00  0.00    -0.014 A 
ATOM     69  C   UNL A   1      40.585  35.293  35.986  1.00  0.00     0.009 A 
ATOM     70  C   UNL A   1      39.102  33.728  37.078  1.00  0.00     0.009 A 
ATOM     71  C   UNL A   1      40.419  36.186  37.048  1.00  0.00     0.001 A 
ATOM     72  C   UNL A   1      38.913  34.634  38.123  1.00  0.00     0.001 A 
ATOM     73  C   UNL A   1      39.578  35.860  38.111  1.00  0.00     0.000 A 
ENDBRANCH  49  68
BRANCH  61  74
ATOM     74  C   UNL A   1      44.258  28.724  34.683  1.00  0.00    -0.014 A 
ATOM     75  C   UNL A   1      45.552  29.234  34.501  1.00  0.00     0.009 A 
ATOM     76  C   UNL A   1      44.050  27.717  35.638  1.00  0.00     0.009 A 
ATOM     77  C   UNL A   1      46.618  28.733  35.252  1.00  0.00     0.001 A 
ATOM     78  C   UNL A   1      45.112  27.238  36.406  1.00  0.00     0.001 A 
ATOM     79  C   UNL A   1      46.396  27.742  36.208  1.00  0.00     0.000 A 
ENDBRANCH  61  74
ENDBRANCH  35  36
ENDBRANCH  27  30
ENDBRANCH  25  26
ENDBRANCH  24  25
ENDBRANCH   1  24
TORSDOF 13
ENDMDL
MODEL 2
REMARK VINA RESULT:     -11.9      5.663      9.726
REMARK SMILES C[C@@H](C(=O)NCCCNC(=O)c1ccc(-c2c3nc(c(-c4ccccc4)c4ccc([nH]4)c(-c4ccccc4)c4nc(c(-c5ccccc5)c5ccc2[nH]5)C=C4)C=C3)cc1)c1ccccc1-c1ccn(C(F)F)c(=O)c1
REMARK SMILES IDX 6 1 5 2 3 3 4 4 2 6 1 7 60 8 61 9 65 10 62 11 64 12 63 13
REMARK SMILES IDX 66 14 67 15 75 16 68 17 73 18 69 19 74 20 70 21 71 22 72 23
REMARK SMILES IDX 7 24 8 25 9 26 10 27 11 29 12 30 13 31 59 32 14 33 58 34
REMARK SMILES IDX 15 35 16 36 17 37 52 38 18 39 57 40 51 41 53 42 19 43 56 44
REMARK SMILES IDX 50 45 49 46 20 48 42 49 27 50 41 51 28 52 31 53 40 54 54 55
REMARK SMILES IDX 29 56 30 57 39 59 55 60 32 61 21 62 22 63 26 64 23 65 25 66
REMARK SMILES IDX 24 67 43 68 44 69 48 70 45 71 47 72 46 73 33 74 34 75 38 76
REMARK SMILES IDX 35 77 37 78 36 79
REMARK H PARENT 5 5 9 28 53 47 31 58
REMARK Flexibility Score: inf
ROOT
ATOM      1  C   UNL A   1      36.510  19.920  25.076  1.00  0.00     0.117 C 
ENDROOT
BRANCH   1   2
ATOM      2  N   UNL A   1      36.059  21.075  25.830  1.00  0.00    -0.356 N 
ATOM      3  C   UNL A   1      35.434  22.221  25.429  1.00  0.00     0.227 C 
ATOM      4  O   UNL A   1      35.245  23.058  26.313  1.00  0.00    -0.274 OA
ATOM      5  H   UNL A   1      36.234  21.023  26.797  1.00  0.00     0.163 HD
BRANCH   3   6
ATOM      6  C   UNL A   1      35.002  22.389  23.959  1.00  0.00     0.106 C 
ATOM      7  C   UNL A   1      36.054  23.140  23.144  1.00  0.00     0.023 C 
BRANCH   6   8
ATOM      8  C   UNL A   1      33.627  23.033  23.737  1.00  0.00    -0.028 A 
ATOM      9  C   UNL A   1      33.527  24.389  23.366  1.00  0.00     0.005 A 
ATOM     10  C   UNL A   1      32.430  22.273  23.796  1.00  0.00    -0.014 A 
ATOM     11  C   UNL A   1      32.291  24.996  23.139  1.00  0.00     0.000 A 
ATOM     12  C   UNL A   1      31.191  22.901  23.570  1.00  0.00     0.009 A 
ATOM     13  C   UNL A   1      31.123  24.255  23.251  1.00  0.00     0.001 A 
BRANCH  10  14
ATOM     14  C   UNL A   1      32.431  20.806  24.000  1.00  0.00    -0.011 A 
ATOM     15  C   UNL A   1      32.630  20.173  25.290  1.00  0.00     0.027 A 
ATOM     16  C   UNL A   1      32.309  20.034  22.906  1.00  0.00     0.080 A 
ATOM     17  C   UNL A   1      32.791  18.847  25.374  1.00  0.00     0.095 A 
ATOM     18  C   UNL A   1      32.433  18.555  22.992  1.00  0.00     0.255 A 
ATOM     19  N   UNL A   1      32.720  18.047  24.249  1.00  0.00    -0.258 N 
ATOM     20  O   UNL A   1      32.308  17.896  21.964  1.00  0.00    -0.269 OA
BRANCH  19  21
ATOM     21  C   UNL A   1      32.945  16.628  24.338  1.00  0.00     0.451 C 
ATOM     22  F   UNL A   1      34.099  16.273  23.724  1.00  0.00    -0.185 F 
ATOM     23  F   UNL A   1      33.017  16.232  25.633  1.00  0.00    -0.185 F 
ENDBRANCH  19  21
ENDBRANCH  10  14
ENDBRANCH   6   8
ENDBRANCH   3   6
ENDBRANCH   1   2
BRANCH   1  24
ATOM     24  C   UNL A   1      37.961  20.066  24.631  1.00  0.00     0.042 C 
BRANCH  24  25
ATOM     25  C   UNL A   1      38.937  20.361  25.765  1.00  0.00     0.118 C 
BRANCH  25  26
ATOM     26  N   UNL A   1      40.004  19.377  25.865  1.00  0.00    -0.352 N 
ATOM     27  C   UNL A   1      41.332  19.557  26.170  1.00  0.00     0.251 C 
ATOM     28  H   UNL A   1      39.735  18.445  25.689  1.00  0.00     0.163 HD
ATOM     29  O   UNL A   1      42.126  18.630  26.039  1.00  0.00    -0.269 OA
BRANCH  27  30
ATOM     30  C   UNL A   1      41.807  20.878  26.630  1.00  0.00     0.039 A 
ATOM     31  C   UNL A   1      42.323  21.779  25.695  1.00  0.00     0.014 A 
ATOM     32  C   UNL A   1      41.731  21.231  27.979  1.00  0.00     0.014 A 
ATOM     33  C   UNL A   1      42.688  23.066  26.100  1.00  0.00     0.010 A 
ATOM     34  C   UNL A   1      42.018  22.534  28.367  1.00  0.00     0.010 A 
ATOM     35  C   UNL A   1      42.498  23.466  27.432  1.00  0.00    -0.014 A 
BRANCH  35  36
ATOM     36  C   UNL A   1      42.786  24.849  27.884  1.00  0.00     0.031 A 
ATOM     37  C   UNL A   1      44.172  25.215  28.337  1.00  0.00     0.074 A 
ATOM     38  C   UNL A   1      41.783  25.742  27.996  1.00  0.00     0.049 A 
ATOM     39  N   UNL A   1      44.593  26.314  28.906  1.00  0.00    -0.248 NA
ATOM     40  C   UNL A   1      45.214  24.192  28.153  1.00  0.00     0.031 C 
ATOM     41  C   UNL A   1      40.389  25.501  27.624  1.00  0.00     0.029 A 
ATOM     42  N   UNL A   1      41.782  27.026  28.482  1.00  0.00    -0.354 N 
ATOM     43  C   UNL A   1      45.939  26.105  29.175  1.00  0.00     0.074 A 
ATOM     44  C   UNL A   1      46.251  24.757  28.750  1.00  0.00     0.031 C 
ATOM     45  C   UNL A   1      39.667  26.600  27.896  1.00  0.00     0.029 A 
ATOM     46  C   UNL A   1      40.537  27.604  28.503  1.00  0.00     0.049 A 
ATOM     47  H   UNL A   1      42.597  27.487  28.787  1.00  0.00     0.167 HD
ATOM     48  C   UNL A   1      46.840  26.961  29.716  1.00  0.00     0.031 A 
ATOM     49  C   UNL A   1      40.130  28.796  28.982  1.00  0.00     0.031 A 
ATOM     50  C   UNL A   1      46.526  28.300  30.136  1.00  0.00     0.049 A 
ATOM     51  C   UNL A   1      41.138  29.725  29.598  1.00  0.00     0.074 A 
ATOM     52  C   UNL A   1      47.378  29.267  30.639  1.00  0.00     0.029 A 
ATOM     53  N   UNL A   1      45.256  28.857  30.111  1.00  0.00    -0.354 N 
ATOM     54  N   UNL A   1      42.423  29.540  29.782  1.00  0.00    -0.248 NA
ATOM     55  C   UNL A   1      40.644  31.028  30.064  1.00  0.00     0.031 C 
ATOM     56  C   UNL A   1      46.614  30.389  30.976  1.00  0.00     0.029 A 
ATOM     57  C   UNL A   1      45.297  30.144  30.620  1.00  0.00     0.049 A 
ATOM     58  H   UNL A   1      44.447  28.404  29.782  1.00  0.00     0.167 HD
ATOM     59  C   UNL A   1      42.897  30.713  30.359  1.00  0.00     0.074 A 
ATOM     60  C   UNL A   1      41.762  31.603  30.487  1.00  0.00     0.031 C 
ATOM     61  C   UNL A   1      44.160  31.022  30.740  1.00  0.00     0.031 A 
BRANCH  48  62
ATOM     62  C   UNL A   1      48.243  26.453  29.905  1.00  0.00    -0.014 A 
ATOM     63  C   UNL A   1      48.642  25.826  31.097  1.00  0.00     0.009 A 
ATOM     64  C   UNL A   1      49.182  26.601  28.872  1.00  0.00     0.009 A 
ATOM     65  C   UNL A   1      49.964  25.410  31.272  1.00  0.00     0.001 A 
ATOM     66  C   UNL A   1      50.494  26.152  29.036  1.00  0.00     0.001 A 
ATOM     67  C   UNL A   1      50.887  25.572  30.240  1.00  0.00     0.000 A 
ENDBRANCH  48  62
BRANCH  49  68
ATOM     68  C   UNL A   1      38.693  29.167  28.898  1.00  0.00    -0.014 A 
ATOM     69  C   UNL A   1      38.155  29.676  27.707  1.00  0.00     0.009 A 
ATOM     70  C   UNL A   1      37.845  28.982  30.001  1.00  0.00     0.009 A 
ATOM     71  C   UNL A   1      36.800  30.006  27.628  1.00  0.00     0.001 A 
ATOM     72  C   UNL A   1      36.485  29.284  29.910  1.00  0.00     0.001 A 
ATOM     73  C   UNL A   1      35.965  29.803  28.725  1.00  0.00     0.000 A 
ENDBRANCH  49  68
BRANCH  61  74
ATOM     74  C   UNL A   1      44.403  32.396  31.298  1.00  0.00    -0.014 A 
ATOM     75  C   UNL A   1      44.692  33.485  30.463  1.00  0.00     0.009 A 
ATOM     76  C   UNL A   1      44.257  32.615  32.677  1.00  0.00     0.009 A 
ATOM     77  C   UNL A   1      44.844  34.765  31.000  1.00  0.00     0.001 A 
ATOM     78  C   UNL A   1      44.382  33.899  33.208  1.00  0.00     0.001 A 
ATOM     79  C   UNL A   1      44.681  34.972  32.370  1.00  0.00     0.000 A 
ENDBRANCH  61  74
ENDBRANCH  35  36
ENDBRANCH  27  30
ENDBRANCH  25  26
ENDBRANCH  24  25
ENDBRANCH   1  24
TORSDOF 13
ENDMDL
MODEL 3
REMARK VINA RESULT:     -11.9      6.041     10.333
REMARK SMILES C[C@@H](C(=O)NCCCNC(=O)c1ccc(-c2c3nc(c(-c4ccccc4)c4ccc([nH]4)c(-c4ccccc4)c4nc(c(-c5ccccc5)c5ccc2[nH]5)C=C4)C=C3)cc1)c1ccccc1-c1ccn(C(F)F)c(=O)c1
REMARK SMILES IDX 6 1 5 2 3 3 4 4 2 6 1 7 60 8 61 9 65 10 62 11 64 12 63 13
REMARK SMILES IDX 66 14 67 15 75 16 68 17 73 18 69 19 74 20 70 21 71 22 72 23
REMARK SMILES IDX 7 24 8 25 9 26 10 27 11 29 12 30 13 31 59 32 14 33 58 34
REMARK SMILES IDX 15 35 16 36 17 37 52 38 18 39 57 40 51 41 53 42 19 43 56 44
REMARK SMILES IDX 50 45 49 46 20 48 42 49 27 50 41 51 28 52 31 53 40 54 54 55
REMARK SMILES IDX 29 56 30 57 39 59 55 60 32 61 21 62 22 63 26 64 23 65 25 66
REMARK SMILES IDX 24 67 43 68 44 69 48 70 45 71 47 72 46 73 33 74 34 75 38 76
REMARK SMILES IDX 35 77 37 78 36 79
REMARK H PARENT 5 5 9 28 53 47 31 58
REMARK Flexibility Score: inf
ROOT
ATOM      1  C   UNL A   1      36.431  19.599  24.998  1.00  0.00     0.117 C 
ENDROOT
BRANCH   1   2
ATOM      2  N   UNL A   1      36.073  20.777  25.766  1.00  0.00    -0.356 N 
ATOM      3  C   UNL A   1      35.561  21.981  25.377  1.00  0.00     0.227 C 
ATOM      4  O   UNL A   1      35.432  22.816  26.274  1.00  0.00    -0.274 OA
ATOM      5  H   UNL A   1      36.224  20.692  26.735  1.00  0.00     0.163 HD
BRANCH   3   6
ATOM      6  C   UNL A   1      35.173  22.214  23.904  1.00  0.00     0.106 C 
ATOM      7  C   UNL A   1      36.274  22.946  23.139  1.00  0.00     0.023 C 
BRANCH   6   8
ATOM      8  C   UNL A   1      33.831  22.920  23.670  1.00  0.00    -0.028 A 
ATOM      9  C   UNL A   1      33.798  24.270  23.267  1.00  0.00     0.005 A 
ATOM     10  C   UNL A   1      32.598  22.222  23.751  1.00  0.00    -0.014 A 
ATOM     11  C   UNL A   1      32.593  24.933  23.029  1.00  0.00     0.000 A 
ATOM     12  C   UNL A   1      31.391  22.906  23.513  1.00  0.00     0.009 A 
ATOM     13  C   UNL A   1      31.389  24.255  23.162  1.00  0.00     0.001 A 
BRANCH  10  14
ATOM     14  C   UNL A   1      32.526  20.763  23.989  1.00  0.00    -0.011 A 
ATOM     15  C   UNL A   1      32.640  20.156  25.302  1.00  0.00     0.027 A 
ATOM     16  C   UNL A   1      32.420  19.969  22.910  1.00  0.00     0.080 A 
ATOM     17  C   UNL A   1      32.739  18.827  25.426  1.00  0.00     0.095 A 
ATOM     18  C   UNL A   1      32.477  18.488  23.037  1.00  0.00     0.255 A 
ATOM     19  N   UNL A   1      32.684  18.002  24.318  1.00  0.00    -0.258 N 
ATOM     20  O   UNL A   1      32.370  17.809  22.021  1.00  0.00    -0.269 OA
BRANCH  19  21
ATOM     21  C   UNL A   1      32.843  16.577  24.452  1.00  0.00     0.451 C 
ATOM     22  F   UNL A   1      34.143  16.242  24.636  1.00  0.00    -0.185 F 
ATOM     23  F   UNL A   1      32.133  16.109  25.507  1.00  0.00    -0.185 F 
ENDBRANCH  19  21
ENDBRANCH  10  14
ENDBRANCH   6   8
ENDBRANCH   3   6
ENDBRANCH   1   2
BRANCH   1  24
ATOM     24  C   UNL A   1      37.910  19.593  24.627  1.00  0.00     0.042 C 
BRANCH  24  25
ATOM     25  C   UNL A   1      38.844  19.961  25.775  1.00  0.00     0.118 C 
BRANCH  25  26
ATOM     26  N   UNL A   1      40.062  19.164  25.792  1.00  0.00    -0.352 N 
ATOM     27  C   UNL A   1      41.351  19.545  26.081  1.00  0.00     0.251 C 
ATOM     28  H   UNL A   1      39.945  18.213  25.566  1.00  0.00     0.163 HD
ATOM     29  O   UNL A   1      42.282  18.772  25.877  1.00  0.00    -0.269 OA
BRANCH  27  30
ATOM     30  C   UNL A   1      41.615  20.898  26.612  1.00  0.00     0.039 A 
ATOM     31  C   UNL A   1      41.618  21.097  27.995  1.00  0.00     0.014 A 
ATOM     32  C   UNL A   1      41.874  21.964  25.748  1.00  0.00     0.014 A 
ATOM     33  C   UNL A   1      41.960  22.348  28.515  1.00  0.00     0.010 A 
ATOM     34  C   UNL A   1      42.291  23.185  26.265  1.00  0.00     0.010 A 
ATOM     35  C   UNL A   1      42.341  23.389  27.654  1.00  0.00    -0.014 A 
BRANCH  35  36
ATOM     36  C   UNL A   1      42.798  24.704  28.167  1.00  0.00     0.031 A 
ATOM     37  C   UNL A   1      41.795  25.787  28.449  1.00  0.00     0.074 A 
ATOM     38  C   UNL A   1      44.116  24.963  28.271  1.00  0.00     0.049 A 
ATOM     39  N   UNL A   1      41.997  27.043  28.754  1.00  0.00    -0.248 NA
ATOM     40  C   UNL A   1      40.376  25.413  28.340  1.00  0.00     0.031 C 
ATOM     41  C   UNL A   1      45.192  24.010  27.994  1.00  0.00     0.029 A 
ATOM     42  N   UNL A   1      44.774  26.118  28.613  1.00  0.00    -0.354 N 
ATOM     43  C   UNL A   1      40.735  27.615  28.844  1.00  0.00     0.074 A 
ATOM     44  C   UNL A   1      39.778  26.580  28.514  1.00  0.00     0.031 C 
ATOM     45  C   UNL A   1      46.374  24.619  28.178  1.00  0.00     0.029 A 
ATOM     46  C   UNL A   1      46.142  26.014  28.538  1.00  0.00     0.049 A 
ATOM     47  H   UNL A   1      44.309  26.942  28.887  1.00  0.00     0.167 HD
ATOM     48  C   UNL A   1      40.400  28.883  29.182  1.00  0.00     0.031 A 
ATOM     49  C   UNL A   1      47.103  26.942  28.710  1.00  0.00     0.031 A 
ATOM     50  C   UNL A   1      41.354  29.908  29.510  1.00  0.00     0.049 A 
ATOM     51  C   UNL A   1      46.713  28.350  29.064  1.00  0.00     0.074 A 
ATOM     52  C   UNL A   1      41.116  31.206  29.925  1.00  0.00     0.029 A 
ATOM     53  N   UNL A   1      42.731  29.751  29.450  1.00  0.00    -0.354 N 
ATOM     54  N   UNL A   1      45.515  28.859  29.214  1.00  0.00    -0.248 NA
ATOM     55  C   UNL A   1      47.806  29.308  29.281  1.00  0.00     0.031 C 
ATOM     56  C   UNL A   1      42.348  31.854  30.057  1.00  0.00     0.029 A 
ATOM     57  C   UNL A   1      43.355  30.940  29.789  1.00  0.00     0.049 A 
ATOM     58  H   UNL A   1      43.195  28.920  29.201  1.00  0.00     0.167 HD
ATOM     59  C   UNL A   1      45.708  30.189  29.570  1.00  0.00     0.074 A 
ATOM     60  C   UNL A   1      47.140  30.403  29.620  1.00  0.00     0.031 C 
ATOM     61  C   UNL A   1      44.781  31.140  29.838  1.00  0.00     0.031 A 
BRANCH  48  62
ATOM     62  C   UNL A   1      38.936  29.230  29.184  1.00  0.00    -0.014 A 
ATOM     63  C   UNL A   1      38.148  29.080  30.337  1.00  0.00     0.009 A 
ATOM     64  C   UNL A   1      38.335  29.718  28.012  1.00  0.00     0.009 A 
ATOM     65  C   UNL A   1      36.779  29.357  30.301  1.00  0.00     0.001 A 
ATOM     66  C   UNL A   1      36.973  30.029  27.989  1.00  0.00     0.001 A 
ATOM     67  C   UNL A   1      36.195  29.833  29.128  1.00  0.00     0.000 A 
ENDBRANCH  48  62
BRANCH  49  68
ATOM     68  C   UNL A   1      48.529  26.559  28.540  1.00  0.00    -0.014 A 
ATOM     69  C   UNL A   1      49.269  26.063  29.623  1.00  0.00     0.009 A 
ATOM     70  C   UNL A   1      49.147  26.657  27.283  1.00  0.00     0.009 A 
ATOM     71  C   UNL A   1      50.604  25.686  29.454  1.00  0.00     0.001 A 
ATOM     72  C   UNL A   1      50.472  26.252  27.110  1.00  0.00     0.001 A 
ATOM     73  C   UNL A   1      51.202  25.773  28.197  1.00  0.00     0.000 A 
ENDBRANCH  49  68
BRANCH  61  74
ATOM     74  C   UNL A   1      45.276  32.499  30.250  1.00  0.00    -0.014 A 
ATOM     75  C   UNL A   1      45.571  33.489  29.302  1.00  0.00     0.009 A 
ATOM     76  C   UNL A   1      45.364  32.814  31.616  1.00  0.00     0.009 A 
ATOM     77  C   UNL A   1      45.961  34.765  29.715  1.00  0.00     0.001 A 
ATOM     78  C   UNL A   1      45.727  34.097  32.024  1.00  0.00     0.001 A 
ATOM     79  C   UNL A   1      46.030  35.071  31.074  1.00  0.00     0.000 A 
ENDBRANCH  61  74
ENDBRANCH  35  36
ENDBRANCH  27  30
ENDBRANCH  25  26
ENDBRANCH  24  25
ENDBRANCH   1  24
TORSDOF 13
ENDMDL
