MODEL 1
REMARK VINA RESULT:     -11.4      0.000      0.000
REMARK SMILES C[C@H](C(=O)NCCCNC(=O)c1ccc(-c2c3nc(c(-c4ccccc4)c4ccc([nH]4)c(-c4ccccc4)c4nc(c(-c5ccccc5)c5ccc2[nH]5)C=C4)C=C3)cc1)[C@H](C)[NH+]1CCN(c2ccccc2Cl)CC1
REMARK SMILES IDX 6 1 5 2 3 3 4 4 2 6 1 7 60 8 61 9 62 10 63 11 74 12 64 14
REMARK SMILES IDX 73 15 65 16 66 17 67 18 71 19 68 20 70 21 72 22 69 23 7 24
REMARK SMILES IDX 8 25 9 26 10 27 11 29 12 30 13 31 59 32 14 33 58 34 15 35
REMARK SMILES IDX 16 36 17 37 52 38 18 39 57 40 51 41 53 42 19 43 56 44 50 45
REMARK SMILES IDX 49 46 20 48 42 49 27 50 41 51 28 52 31 53 40 54 54 55 29 56
REMARK SMILES IDX 30 57 39 59 55 60 32 61 21 62 22 63 26 64 23 65 25 66 24 67
REMARK SMILES IDX 43 68 44 69 48 70 45 71 47 72 46 73 33 74 34 75 38 76 35 77
REMARK SMILES IDX 37 78 36 79
REMARK H PARENT 5 5 62 13 9 28 53 47 31 58
REMARK Flexibility Score: inf
ROOT
ATOM      1  C   UNL A   1      35.882  20.779  24.992  1.00  0.00     0.117 C 
ENDROOT
BRANCH   1   2
ATOM      2  N   UNL A   1      34.759  19.937  25.383  1.00  0.00    -0.356 N 
ATOM      3  C   UNL A   1      33.462  19.948  24.931  1.00  0.00     0.228 C 
ATOM      4  O   UNL A   1      32.700  19.080  25.345  1.00  0.00    -0.275 OA
ATOM      5  H   UNL A   1      34.958  19.262  26.070  1.00  0.00     0.163 HD
BRANCH   3   6
ATOM      6  C   UNL A   1      33.066  21.047  23.950  1.00  0.00     0.133 C 
ATOM      7  C   UNL A   1      32.163  20.473  22.862  1.00  0.00     0.024 C 
BRANCH   6   8
ATOM      8  C   UNL A   1      32.590  22.413  24.544  1.00  0.00     0.193 C 
ATOM      9  C   UNL A   1      31.596  22.215  25.710  1.00  0.00     0.076 C 
BRANCH   8  10
ATOM     10  N   UNL A   1      32.101  23.532  23.732  1.00  0.00    -0.329 N 
ATOM     11  C   UNL A   1      30.808  24.132  24.064  1.00  0.00     0.284 C 
ATOM     12  C   UNL A   1      33.035  24.532  23.214  1.00  0.00     0.284 C 
ATOM     13  H   UNL A   1      31.940  22.914  22.937  1.00  0.00     0.348 HD
ATOM     14  C   UNL A   1      30.823  25.419  24.914  1.00  0.00     0.178 C 
ATOM     15  C   UNL A   1      33.208  25.804  24.069  1.00  0.00     0.178 C 
ATOM     16  N   UNL A   1      31.924  26.336  24.573  1.00  0.00    -0.359 N 
BRANCH  16  17
ATOM     17  C   UNL A   1      32.004  27.539  25.286  1.00  0.00     0.056 A 
ATOM     18  C   UNL A   1      32.680  27.604  26.521  1.00  0.00     0.027 A 
ATOM     19  C   UNL A   1      31.423  28.730  24.806  1.00  0.00     0.064 A 
ATOM     20  C   UNL A   1      32.755  28.792  27.256  1.00  0.00     0.002 A 
ATOM     21  C   UNL A   1      31.498  29.920  25.541  1.00  0.00     0.023 A 
ATOM     22  Cl  UNL A   1      30.535  28.771  23.319  1.00  0.00    -0.082 Cl
ATOM     23  C   UNL A   1      32.160  29.950  26.768  1.00  0.00     0.002 A 
ENDBRANCH  16  17
ENDBRANCH   8  10
ENDBRANCH   6   8
ENDBRANCH   3   6
ENDBRANCH   1   2
BRANCH   1  24
ATOM     24  C   UNL A   1      37.153  20.001  24.728  1.00  0.00     0.042 C 
BRANCH  24  25
ATOM     25  C   UNL A   1      38.342  20.512  25.515  1.00  0.00     0.118 C 
BRANCH  25  26
ATOM     26  N   UNL A   1      39.404  19.519  25.626  1.00  0.00    -0.352 N 
ATOM     27  C   UNL A   1      40.728  19.662  25.951  1.00  0.00     0.251 C 
ATOM     28  H   UNL A   1      39.124  18.594  25.437  1.00  0.00     0.163 HD
ATOM     29  O   UNL A   1      41.508  18.737  25.752  1.00  0.00    -0.269 OA
BRANCH  27  30
ATOM     30  C   UNL A   1      41.214  20.932  26.524  1.00  0.00     0.039 A 
ATOM     31  C   UNL A   1      41.755  21.896  25.670  1.00  0.00     0.014 A 
ATOM     32  C   UNL A   1      41.147  21.170  27.897  1.00  0.00     0.014 A 
ATOM     33  C   UNL A   1      42.165  23.120  26.193  1.00  0.00     0.010 A 
ATOM     34  C   UNL A   1      41.441  22.430  28.398  1.00  0.00     0.010 A 
ATOM     35  C   UNL A   1      41.972  23.412  27.554  1.00  0.00    -0.014 A 
BRANCH  35  36
ATOM     36  C   UNL A   1      42.324  24.739  28.105  1.00  0.00     0.031 A 
ATOM     37  C   UNL A   1      43.743  25.045  28.501  1.00  0.00     0.074 A 
ATOM     38  C   UNL A   1      41.354  25.656  28.282  1.00  0.00     0.049 A 
ATOM     39  N   UNL A   1      44.241  26.155  28.984  1.00  0.00    -0.248 NA
ATOM     40  C   UNL A   1      44.727  23.958  28.363  1.00  0.00     0.031 C 
ATOM     41  C   UNL A   1      39.931  25.451  27.998  1.00  0.00     0.029 A 
ATOM     42  N   UNL A   1      41.417  26.947  28.736  1.00  0.00    -0.354 N 
ATOM     43  C   UNL A   1      45.586  25.897  29.209  1.00  0.00     0.074 A 
ATOM     44  C   UNL A   1      45.815  24.509  28.879  1.00  0.00     0.031 C 
ATOM     45  C   UNL A   1      39.265  26.590  28.237  1.00  0.00     0.029 A 
ATOM     46  C   UNL A   1      40.205  27.591  28.730  1.00  0.00     0.049 A 
ATOM     47  H   UNL A   1      42.252  27.373  29.038  1.00  0.00     0.167 HD
ATOM     48  C   UNL A   1      46.555  26.747  29.624  1.00  0.00     0.031 A 
ATOM     49  C   UNL A   1      39.886  28.852  29.077  1.00  0.00     0.031 A 
ATOM     50  C   UNL A   1      46.324  28.129  29.951  1.00  0.00     0.049 A 
ATOM     51  C   UNL A   1      40.978  29.775  29.536  1.00  0.00     0.074 A 
ATOM     52  C   UNL A   1      47.241  29.088  30.338  1.00  0.00     0.029 A 
ATOM     53  N   UNL A   1      45.082  28.745  29.930  1.00  0.00    -0.354 N 
ATOM     54  N   UNL A   1      42.261  29.537  29.669  1.00  0.00    -0.248 NA
ATOM     55  C   UNL A   1      40.579  31.147  29.878  1.00  0.00     0.031 C 
ATOM     56  C   UNL A   1      46.546  30.273  30.604  1.00  0.00     0.029 A 
ATOM     57  C   UNL A   1      45.204  30.067  30.321  1.00  0.00     0.049 A 
ATOM     58  H   UNL A   1      44.238  28.307  29.676  1.00  0.00     0.167 HD
ATOM     59  C   UNL A   1      42.825  30.732  30.091  1.00  0.00     0.074 A 
ATOM     60  C   UNL A   1      41.749  31.701  30.160  1.00  0.00     0.031 C 
ATOM     61  C   UNL A   1      44.117  31.008  30.400  1.00  0.00     0.031 A 
BRANCH  48  62
ATOM     62  C   UNL A   1      47.951  26.201  29.744  1.00  0.00    -0.014 A 
ATOM     63  C   UNL A   1      48.794  26.112  28.623  1.00  0.00     0.009 A 
ATOM     64  C   UNL A   1      48.443  25.797  30.994  1.00  0.00     0.009 A 
ATOM     65  C   UNL A   1      50.087  25.598  28.746  1.00  0.00     0.001 A 
ATOM     66  C   UNL A   1      49.747  25.313  31.120  1.00  0.00     0.001 A 
ATOM     67  C   UNL A   1      50.564  25.205  29.995  1.00  0.00     0.000 A 
ENDBRANCH  48  62
BRANCH  49  68
ATOM     68  C   UNL A   1      38.477  29.317  28.986  1.00  0.00    -0.014 A 
ATOM     69  C   UNL A   1      37.644  29.302  30.115  1.00  0.00     0.009 A 
ATOM     70  C   UNL A   1      37.956  29.776  27.766  1.00  0.00     0.009 A 
ATOM     71  C   UNL A   1      36.310  29.705  30.015  1.00  0.00     0.001 A 
ATOM     72  C   UNL A   1      36.633  30.209  27.676  1.00  0.00     0.001 A 
ATOM     73  C   UNL A   1      35.807  30.164  28.798  1.00  0.00     0.000 A 
ENDBRANCH  49  68
BRANCH  61  74
ATOM     74  C   UNL A   1      44.427  32.415  30.824  1.00  0.00    -0.014 A 
ATOM     75  C   UNL A   1      44.469  32.776  32.180  1.00  0.00     0.009 A 
ATOM     76  C   UNL A   1      44.692  33.392  29.852  1.00  0.00     0.009 A 
ATOM     77  C   UNL A   1      44.722  34.098  32.552  1.00  0.00     0.001 A 
ATOM     78  C   UNL A   1      44.979  34.705  30.227  1.00  0.00     0.001 A 
ATOM     79  C   UNL A   1      44.979  35.060  31.576  1.00  0.00     0.000 A 
ENDBRANCH  61  74
ENDBRANCH  35  36
ENDBRANCH  27  30
ENDBRANCH  25  26
ENDBRANCH  24  25
ENDBRANCH   1  24
TORSDOF 13
ENDMDL
MODEL 2
REMARK VINA RESULT:     -11.3      3.751      8.910
REMARK SMILES C[C@H](C(=O)NCCCNC(=O)c1ccc(-c2c3nc(c(-c4ccccc4)c4ccc([nH]4)c(-c4ccccc4)c4nc(c(-c5ccccc5)c5ccc2[nH]5)C=C4)C=C3)cc1)[C@H](C)[NH+]1CCN(c2ccccc2Cl)CC1
REMARK SMILES IDX 6 1 5 2 3 3 4 4 2 6 1 7 60 8 61 9 62 10 63 11 74 12 64 14
REMARK SMILES IDX 73 15 65 16 66 17 67 18 71 19 68 20 70 21 72 22 69 23 7 24
REMARK SMILES IDX 8 25 9 26 10 27 11 29 12 30 13 31 59 32 14 33 58 34 15 35
REMARK SMILES IDX 16 36 17 37 52 38 18 39 57 40 51 41 53 42 19 43 56 44 50 45
REMARK SMILES IDX 49 46 20 48 42 49 27 50 41 51 28 52 31 53 40 54 54 55 29 56
REMARK SMILES IDX 30 57 39 59 55 60 32 61 21 62 22 63 26 64 23 65 25 66 24 67
REMARK SMILES IDX 43 68 44 69 48 70 45 71 47 72 46 73 33 74 34 75 38 76 35 77
REMARK SMILES IDX 37 78 36 79
REMARK H PARENT 5 5 62 13 9 28 53 47 31 58
REMARK Flexibility Score: inf
ROOT
ATOM      1  C   UNL A   1      31.505  30.370  26.276  1.00  0.00     0.117 C 
ENDROOT
BRANCH   1   2
ATOM      2  N   UNL A   1      32.309  30.014  25.115  1.00  0.00    -0.356 N 
ATOM      3  C   UNL A   1      32.044  29.112  24.114  1.00  0.00     0.228 C 
ATOM      4  O   UNL A   1      32.837  29.039  23.180  1.00  0.00    -0.275 OA
ATOM      5  H   UNL A   1      33.167  30.490  25.035  1.00  0.00     0.163 HD
BRANCH   3   6
ATOM      6  C   UNL A   1      30.785  28.263  24.245  1.00  0.00     0.133 C 
ATOM      7  C   UNL A   1      29.730  28.740  23.251  1.00  0.00     0.024 C 
BRANCH   6   8
ATOM      8  C   UNL A   1      30.961  26.711  24.319  1.00  0.00     0.193 C 
ATOM      9  C   UNL A   1      29.691  25.966  23.854  1.00  0.00     0.076 C 
BRANCH   8  10
ATOM     10  N   UNL A   1      31.484  26.003  25.493  1.00  0.00    -0.329 N 
ATOM     11  C   UNL A   1      31.256  24.561  25.606  1.00  0.00     0.284 C 
ATOM     12  C   UNL A   1      32.770  26.385  26.075  1.00  0.00     0.284 C 
ATOM     13  H   UNL A   1      30.798  26.454  26.098  1.00  0.00     0.348 HD
ATOM     14  C   UNL A   1      32.403  23.628  25.166  1.00  0.00     0.178 C 
ATOM     15  C   UNL A   1      33.996  25.584  25.595  1.00  0.00     0.178 C 
ATOM     16  N   UNL A   1      33.740  24.130  25.525  1.00  0.00    -0.359 N 
BRANCH  16  17
ATOM     17  C   UNL A   1      34.841  23.336  25.177  1.00  0.00     0.056 A 
ATOM     18  C   UNL A   1      35.554  23.571  23.985  1.00  0.00     0.027 A 
ATOM     19  C   UNL A   1      35.285  22.277  25.995  1.00  0.00     0.064 A 
ATOM     20  C   UNL A   1      36.644  22.778  23.612  1.00  0.00     0.002 A 
ATOM     21  C   UNL A   1      36.376  21.483  25.623  1.00  0.00     0.023 A 
ATOM     22  Cl  UNL A   1      34.470  21.866  27.468  1.00  0.00    -0.082 Cl
ATOM     23  C   UNL A   1      37.053  21.730  24.429  1.00  0.00     0.002 A 
ENDBRANCH  16  17
ENDBRANCH   8  10
ENDBRANCH   6   8
ENDBRANCH   3   6
ENDBRANCH   1   2
BRANCH   1  24
ATOM     24  C   UNL A   1      31.435  31.861  26.526  1.00  0.00     0.042 C 
BRANCH  24  25
ATOM     25  C   UNL A   1      32.701  32.425  27.137  1.00  0.00     0.118 C 
BRANCH  25  26
ATOM     26  N   UNL A   1      32.500  33.754  27.705  1.00  0.00    -0.352 N 
ATOM     27  C   UNL A   1      33.195  34.421  28.679  1.00  0.00     0.251 C 
ATOM     28  H   UNL A   1      31.741  34.253  27.325  1.00  0.00     0.163 HD
ATOM     29  O   UNL A   1      32.719  35.432  29.184  1.00  0.00    -0.269 OA
BRANCH  27  30
ATOM     30  C   UNL A   1      34.506  33.914  29.130  1.00  0.00     0.039 A 
ATOM     31  C   UNL A   1      34.561  33.091  30.257  1.00  0.00     0.014 A 
ATOM     32  C   UNL A   1      35.677  34.255  28.451  1.00  0.00     0.014 A 
ATOM     33  C   UNL A   1      35.786  32.561  30.657  1.00  0.00     0.010 A 
ATOM     34  C   UNL A   1      36.873  33.631  28.777  1.00  0.00     0.010 A 
ATOM     35  C   UNL A   1      36.943  32.793  29.895  1.00  0.00    -0.014 A 
BRANCH  35  36
ATOM     36  C   UNL A   1      38.233  32.167  30.262  1.00  0.00     0.031 A 
ATOM     37  C   UNL A   1      39.158  32.846  31.234  1.00  0.00     0.074 A 
ATOM     38  C   UNL A   1      38.584  31.002  29.686  1.00  0.00     0.049 A 
ATOM     39  N   UNL A   1      40.318  32.441  31.686  1.00  0.00    -0.248 NA
ATOM     40  C   UNL A   1      38.743  34.163  31.747  1.00  0.00     0.031 C 
ATOM     41  C   UNL A   1      37.800  30.283  28.678  1.00  0.00     0.029 A 
ATOM     42  N   UNL A   1      39.689  30.211  29.871  1.00  0.00    -0.354 N 
ATOM     43  C   UNL A   1      40.768  33.451  32.527  1.00  0.00     0.074 A 
ATOM     44  C   UNL A   1      39.794  34.517  32.470  1.00  0.00     0.031 C 
ATOM     45  C   UNL A   1      38.424  29.135  28.371  1.00  0.00     0.029 A 
ATOM     46  C   UNL A   1      39.668  29.057  29.128  1.00  0.00     0.049 A 
ATOM     47  H   UNL A   1      40.426  30.448  30.479  1.00  0.00     0.167 HD
ATOM     48  C   UNL A   1      41.876  33.476  33.303  1.00  0.00     0.031 A 
ATOM     49  C   UNL A   1      40.553  28.045  29.067  1.00  0.00     0.031 A 
ATOM     50  C   UNL A   1      42.843  32.412  33.358  1.00  0.00     0.049 A 
ATOM     51  C   UNL A   1      41.776  28.098  29.936  1.00  0.00     0.074 A 
ATOM     52  C   UNL A   1      43.977  32.317  34.143  1.00  0.00     0.029 A 
ATOM     53  N   UNL A   1      42.786  31.258  32.591  1.00  0.00    -0.354 N 
ATOM     54  N   UNL A   1      42.147  29.025  30.786  1.00  0.00    -0.248 NA
ATOM     55  C   UNL A   1      42.695  26.955  29.849  1.00  0.00     0.031 C 
ATOM     56  C   UNL A   1      44.637  31.128  33.812  1.00  0.00     0.029 A 
ATOM     57  C   UNL A   1      43.879  30.455  32.866  1.00  0.00     0.049 A 
ATOM     58  H   UNL A   1      42.074  31.043  31.946  1.00  0.00     0.167 HD
ATOM     59  C   UNL A   1      43.332  28.570  31.348  1.00  0.00     0.074 A 
ATOM     60  C   UNL A   1      43.598  27.269  30.766  1.00  0.00     0.031 C 
ATOM     61  C   UNL A   1      44.133  29.173  32.261  1.00  0.00     0.031 A 
BRANCH  48  62
ATOM     62  C   UNL A   1      42.096  34.695  34.156  1.00  0.00    -0.014 A 
ATOM     63  C   UNL A   1      42.795  35.810  33.662  1.00  0.00     0.009 A 
ATOM     64  C   UNL A   1      41.576  34.746  35.457  1.00  0.00     0.009 A 
ATOM     65  C   UNL A   1      42.997  36.935  34.465  1.00  0.00     0.001 A 
ATOM     66  C   UNL A   1      41.752  35.885  36.248  1.00  0.00     0.001 A 
ATOM     67  C   UNL A   1      42.470  36.973  35.755  1.00  0.00     0.000 A 
ENDBRANCH  48  62
BRANCH  49  68
ATOM     68  C   UNL A   1      40.304  26.890  28.163  1.00  0.00    -0.014 A 
ATOM     69  C   UNL A   1      39.554  25.788  28.600  1.00  0.00     0.009 A 
ATOM     70  C   UNL A   1      40.819  26.885  26.858  1.00  0.00     0.009 A 
ATOM     71  C   UNL A   1      39.354  24.690  27.760  1.00  0.00     0.001 A 
ATOM     72  C   UNL A   1      40.590  25.802  26.008  1.00  0.00     0.001 A 
ATOM     73  C   UNL A   1      39.866  24.700  26.463  1.00  0.00     0.000 A 
ENDBRANCH  49  68
BRANCH  61  74
ATOM     74  C   UNL A   1      45.360  28.418  32.689  1.00  0.00    -0.014 A 
ATOM     75  C   UNL A   1      45.317  27.500  33.752  1.00  0.00     0.009 A 
ATOM     76  C   UNL A   1      46.573  28.619  32.013  1.00  0.00     0.009 A 
ATOM     77  C   UNL A   1      46.476  26.837  34.159  1.00  0.00     0.001 A 
ATOM     78  C   UNL A   1      47.722  27.929  32.400  1.00  0.00     0.001 A 
ATOM     79  C   UNL A   1      47.676  27.050  33.481  1.00  0.00     0.000 A 
ENDBRANCH  61  74
ENDBRANCH  35  36
ENDBRANCH  27  30
ENDBRANCH  25  26
ENDBRANCH  24  25
ENDBRANCH   1  24
TORSDOF 13
ENDMDL
MODEL 3
REMARK VINA RESULT:     -11.3      1.503      2.013
REMARK SMILES C[C@H](C(=O)NCCCNC(=O)c1ccc(-c2c3nc(c(-c4ccccc4)c4ccc([nH]4)c(-c4ccccc4)c4nc(c(-c5ccccc5)c5ccc2[nH]5)C=C4)C=C3)cc1)[C@H](C)[NH+]1CCN(c2ccccc2Cl)CC1
REMARK SMILES IDX 6 1 5 2 3 3 4 4 2 6 1 7 60 8 61 9 62 10 63 11 74 12 64 14
REMARK SMILES IDX 73 15 65 16 66 17 67 18 71 19 68 20 70 21 72 22 69 23 7 24
REMARK SMILES IDX 8 25 9 26 10 27 11 29 12 30 13 31 59 32 14 33 58 34 15 35
REMARK SMILES IDX 16 36 17 37 52 38 18 39 57 40 51 41 53 42 19 43 56 44 50 45
REMARK SMILES IDX 49 46 20 48 42 49 27 50 41 51 28 52 31 53 40 54 54 55 29 56
REMARK SMILES IDX 30 57 39 59 55 60 32 61 21 62 22 63 26 64 23 65 25 66 24 67
REMARK SMILES IDX 43 68 44 69 48 70 45 71 47 72 46 73 33 74 34 75 38 76 35 77
REMARK SMILES IDX 37 78 36 79
REMARK H PARENT 5 5 62 13 9 28 53 47 31 58
REMARK Flexibility Score: inf
ROOT
ATOM      1  C   UNL A   1      36.911  20.681  24.637  1.00  0.00     0.117 C 
ENDROOT
BRANCH   1   2
ATOM      2  N   UNL A   1      36.014  21.019  25.734  1.00  0.00    -0.356 N 
ATOM      3  C   UNL A   1      34.644  21.115  25.743  1.00  0.00     0.228 C 
ATOM      4  O   UNL A   1      34.089  21.331  26.816  1.00  0.00    -0.275 OA
ATOM      5  H   UNL A   1      36.453  21.203  26.595  1.00  0.00     0.163 HD
BRANCH   3   6
ATOM      6  C   UNL A   1      33.917  20.952  24.412  1.00  0.00     0.133 C 
ATOM      7  C   UNL A   1      33.112  19.656  24.414  1.00  0.00     0.024 C 
BRANCH   6   8
ATOM      8  C   UNL A   1      33.158  22.195  23.844  1.00  0.00     0.193 C 
ATOM      9  C   UNL A   1      32.149  21.797  22.744  1.00  0.00     0.076 C 
BRANCH   8  10
ATOM     10  N   UNL A   1      33.821  23.429  23.409  1.00  0.00    -0.329 N 
ATOM     11  C   UNL A   1      33.046  24.417  22.655  1.00  0.00     0.284 C 
ATOM     12  C   UNL A   1      34.816  24.074  24.265  1.00  0.00     0.284 C 
ATOM     13  H   UNL A   1      34.380  22.916  22.728  1.00  0.00     0.348 HD
ATOM     14  C   UNL A   1      32.464  25.609  23.442  1.00  0.00     0.178 C 
ATOM     15  C   UNL A   1      34.295  25.199  25.182  1.00  0.00     0.178 C 
ATOM     16  N   UNL A   1      33.362  26.116  24.493  1.00  0.00    -0.359 N 
BRANCH  16  17
ATOM     17  C   UNL A   1      32.919  27.209  25.247  1.00  0.00     0.056 A 
ATOM     18  C   UNL A   1      32.252  27.019  26.473  1.00  0.00     0.027 A 
ATOM     19  C   UNL A   1      33.119  28.539  24.823  1.00  0.00     0.064 A 
ATOM     20  C   UNL A   1      31.785  28.098  27.232  1.00  0.00     0.002 A 
ATOM     21  C   UNL A   1      32.653  29.619  25.581  1.00  0.00     0.023 A 
ATOM     22  Cl  UNL A   1      33.895  28.902  23.316  1.00  0.00    -0.082 Cl
ATOM     23  C   UNL A   1      31.982  29.399  26.783  1.00  0.00     0.002 A 
ENDBRANCH  16  17
ENDBRANCH   8  10
ENDBRANCH   6   8
ENDBRANCH   3   6
ENDBRANCH   1   2
BRANCH   1  24
ATOM     24  C   UNL A   1      37.889  19.577  24.978  1.00  0.00     0.042 C 
BRANCH  24  25
ATOM     25  C   UNL A   1      39.046  20.047  25.836  1.00  0.00     0.118 C 
BRANCH  25  26
ATOM     26  N   UNL A   1      40.139  19.082  25.872  1.00  0.00    -0.352 N 
ATOM     27  C   UNL A   1      41.492  19.271  25.985  1.00  0.00     0.251 C 
ATOM     28  H   UNL A   1      39.860  18.140  25.803  1.00  0.00     0.163 HD
ATOM     29  O   UNL A   1      42.259  18.344  25.751  1.00  0.00    -0.269 OA
BRANCH  27  30
ATOM     30  C   UNL A   1      42.021  20.593  26.374  1.00  0.00     0.039 A 
ATOM     31  C   UNL A   1      42.293  21.532  25.377  1.00  0.00     0.014 A 
ATOM     32  C   UNL A   1      42.259  20.903  27.714  1.00  0.00     0.014 A 
ATOM     33  C   UNL A   1      42.741  22.801  25.736  1.00  0.00     0.010 A 
ATOM     34  C   UNL A   1      42.587  22.202  28.077  1.00  0.00     0.010 A 
ATOM     35  C   UNL A   1      42.850  23.159  27.091  1.00  0.00    -0.014 A 
BRANCH  35  36
ATOM     36  C   UNL A   1      43.242  24.530  27.486  1.00  0.00     0.031 A 
ATOM     37  C   UNL A   1      44.687  24.947  27.450  1.00  0.00     0.074 A 
ATOM     38  C   UNL A   1      42.295  25.386  27.913  1.00  0.00     0.049 A 
ATOM     39  N   UNL A   1      45.215  26.108  27.744  1.00  0.00    -0.248 NA
ATOM     40  C   UNL A   1      45.671  23.923  27.061  1.00  0.00     0.031 C 
ATOM     41  C   UNL A   1      40.870  25.074  28.055  1.00  0.00     0.029 A 
ATOM     42  N   UNL A   1      42.386  26.698  28.300  1.00  0.00    -0.354 N 
ATOM     43  C   UNL A   1      46.584  25.951  27.579  1.00  0.00     0.074 A 
ATOM     44  C   UNL A   1      46.816  24.568  27.229  1.00  0.00     0.031 C 
ATOM     45  C   UNL A   1      40.214  26.176  28.449  1.00  0.00     0.029 A 
ATOM     46  C   UNL A   1      41.176  27.258  28.628  1.00  0.00     0.049 A 
ATOM     47  H   UNL A   1      43.237  27.191  28.339  1.00  0.00     0.167 HD
ATOM     48  C   UNL A   1      47.563  26.882  27.678  1.00  0.00     0.031 A 
ATOM     49  C   UNL A   1      40.874  28.509  29.022  1.00  0.00     0.031 A 
ATOM     50  C   UNL A   1      47.329  28.258  28.025  1.00  0.00     0.049 A 
ATOM     51  C   UNL A   1      41.977  29.523  29.127  1.00  0.00     0.074 A 
ATOM     52  C   UNL A   1      48.242  29.293  28.110  1.00  0.00     0.029 A 
ATOM     53  N   UNL A   1      46.089  28.788  28.348  1.00  0.00    -0.354 N 
ATOM     54  N   UNL A   1      43.259  29.377  28.891  1.00  0.00    -0.248 NA
ATOM     55  C   UNL A   1      41.587  30.878  29.537  1.00  0.00     0.031 C 
ATOM     56  C   UNL A   1      47.563  30.439  28.537  1.00  0.00     0.029 A 
ATOM     57  C   UNL A   1      46.216  30.131  28.657  1.00  0.00     0.049 A 
ATOM     58  H   UNL A   1      45.244  28.283  28.357  1.00  0.00     0.167 HD
ATOM     59  C   UNL A   1      43.827  30.625  29.105  1.00  0.00     0.074 A 
ATOM     60  C   UNL A   1      42.743  31.521  29.459  1.00  0.00     0.031 C 
ATOM     61  C   UNL A   1      45.127  31.000  29.024  1.00  0.00     0.031 A 
BRANCH  48  62
ATOM     62  C   UNL A   1      48.972  26.436  27.404  1.00  0.00    -0.014 A 
ATOM     63  C   UNL A   1      49.815  26.011  28.445  1.00  0.00     0.009 A 
ATOM     64  C   UNL A   1      49.458  26.410  26.088  1.00  0.00     0.009 A 
ATOM     65  C   UNL A   1      51.124  25.604  28.178  1.00  0.00     0.001 A 
ATOM     66  C   UNL A   1      50.758  25.972  25.820  1.00  0.00     0.001 A 
ATOM     67  C   UNL A   1      51.592  25.580  26.865  1.00  0.00     0.000 A 
ENDBRANCH  48  62
BRANCH  49  68
ATOM     68  C   UNL A   1      39.465  28.874  29.330  1.00  0.00    -0.014 A 
ATOM     69  C   UNL A   1      38.620  29.373  28.328  1.00  0.00     0.009 A 
ATOM     70  C   UNL A   1      38.961  28.728  30.632  1.00  0.00     0.009 A 
ATOM     71  C   UNL A   1      37.309  29.748  28.631  1.00  0.00     0.001 A 
ATOM     72  C   UNL A   1      37.641  29.073  30.925  1.00  0.00     0.001 A 
ATOM     73  C   UNL A   1      36.818  29.593  29.926  1.00  0.00     0.000 A 
ENDBRANCH  49  68
BRANCH  61  74
ATOM     74  C   UNL A   1      45.436  32.442  29.307  1.00  0.00    -0.014 A 
ATOM     75  C   UNL A   1      45.450  33.401  28.281  1.00  0.00     0.009 A 
ATOM     76  C   UNL A   1      45.707  32.850  30.622  1.00  0.00     0.009 A 
ATOM     77  C   UNL A   1      45.776  34.729  28.559  1.00  0.00     0.001 A 
ATOM     78  C   UNL A   1      45.999  34.186  30.904  1.00  0.00     0.001 A 
ATOM     79  C   UNL A   1      46.047  35.120  29.870  1.00  0.00     0.000 A 
ENDBRANCH  61  74
ENDBRANCH  35  36
ENDBRANCH  27  30
ENDBRANCH  25  26
ENDBRANCH  24  25
ENDBRANCH   1  24
TORSDOF 13
ENDMDL
