MODEL 1
REMARK VINA RESULT:      -9.2      0.000      0.000
REMARK SMILES C[C@H]1[C@@H](C(=O)NCCCNC(=O)c2ccc(-c3c4nc(c(-c5ccccc5)c5ccc([nH]5)c(-c5ccccc5)c5nc(c(-c6ccccc6)c6ccc3[nH]6)C=C5)C=C4)cc2)CCN1C(=O)c1n[nH]c(N)n1
REMARK SMILES IDX 7 1 6 2 4 3 5 4 3 6 1 7 2 8 63 9 61 10 62 11 64 12 65 13
REMARK SMILES IDX 66 14 67 15 71 16 68 17 69 18 70 20 8 23 9 24 10 25 11 26
REMARK SMILES IDX 12 28 13 29 14 30 60 31 15 32 59 33 16 34 17 35 18 36 53 37
REMARK SMILES IDX 19 38 58 39 52 40 54 41 20 42 57 43 51 44 50 45 21 47 43 48
REMARK SMILES IDX 28 49 42 50 29 51 32 52 41 53 55 54 30 55 31 56 40 58 56 59
REMARK SMILES IDX 33 60 22 61 23 62 27 63 24 64 26 65 25 66 44 67 45 68 49 69
REMARK SMILES IDX 46 70 48 71 47 72 34 73 35 74 39 75 36 76 38 77 37 78
REMARK H PARENT 6 5 68 19 70 21 70 22 10 27 54 46 32 57
REMARK Flexibility Score: inf
ROOT
ATOM      1  C   UNL A   1      35.692  33.871  29.837  1.00  0.00     0.117 C 
ENDROOT
BRANCH   1   2
ATOM      2  N   UNL A   1      35.707  34.536  31.131  1.00  0.00    -0.356 N 
ATOM      3  C   UNL A   1      36.620  34.459  32.146  1.00  0.00     0.225 C 
ATOM      4  O   UNL A   1      36.429  35.154  33.143  1.00  0.00    -0.275 OA
ATOM      5  H   UNL A   1      34.943  35.132  31.302  1.00  0.00     0.163 HD
BRANCH   3   6
ATOM      6  C   UNL A   1      37.818  33.527  32.012  1.00  0.00     0.102 C 
ATOM      7  C   UNL A   1      36.161  31.635  32.715  1.00  0.00     0.032 C 
ATOM      8  C   UNL A   1      37.611  32.096  32.568  1.00  0.00     0.095 C 
ATOM      9  N   UNL A   1      38.347  32.067  33.836  1.00  0.00    -0.332 N 
ATOM     10  C   UNL A   1      39.024  34.043  32.818  1.00  0.00     0.037 C 
ATOM     11  C   UNL A   1      38.868  33.373  34.174  1.00  0.00     0.121 C 
BRANCH   9  12
ATOM     12  C   UNL A   1      38.674  30.941  34.597  1.00  0.00     0.293 C 
ATOM     13  O   UNL A   1      38.422  30.875  35.801  1.00  0.00    -0.265 OA
BRANCH  12  14
ATOM     14  C   UNL A   1      39.353  29.836  33.884  1.00  0.00     0.241 A 
ATOM     15  N   UNL A   1      38.692  28.782  33.357  1.00  0.00    -0.147 NA
ATOM     16  N   UNL A   1      40.732  29.711  33.825  1.00  0.00    -0.187 NA
ATOM     17  N   UNL A   1      39.707  28.012  32.933  1.00  0.00    -0.245 N 
ATOM     18  C   UNL A   1      40.918  28.546  33.266  1.00  0.00     0.216 A 
ATOM     19  H   UNL A   1      39.593  27.166  32.443  1.00  0.00     0.193 HD
BRANCH  18  20
ATOM     20  N   UNL A   1      42.073  27.907  33.061  1.00  0.00    -0.368 N 
ATOM     21  H   UNL A   1      42.559  27.512  33.821  1.00  0.00     0.159 HD
ATOM     22  H   UNL A   1      42.437  27.831  32.149  1.00  0.00     0.159 HD
ENDBRANCH  18  20
ENDBRANCH  12  14
ENDBRANCH   9  12
ENDBRANCH   3   6
ENDBRANCH   1   2
BRANCH   1  23
ATOM     23  C   UNL A   1      34.368  33.156  29.545  1.00  0.00     0.042 C 
BRANCH  23  24
ATOM     24  C   UNL A   1      34.215  32.752  28.079  1.00  0.00     0.118 C 
BRANCH  24  25
ATOM     25  N   UNL A   1      33.749  31.383  27.948  1.00  0.00    -0.352 N 
ATOM     26  C   UNL A   1      34.386  30.170  27.945  1.00  0.00     0.251 C 
ATOM     27  H   UNL A   1      32.773  31.312  27.841  1.00  0.00     0.163 HD
ATOM     28  O   UNL A   1      33.738  29.192  27.571  1.00  0.00    -0.269 OA
BRANCH  26  29
ATOM     29  C   UNL A   1      35.799  29.969  28.362  1.00  0.00     0.039 A 
ATOM     30  C   UNL A   1      36.785  30.113  27.373  1.00  0.00     0.014 A 
ATOM     31  C   UNL A   1      36.174  29.490  29.619  1.00  0.00     0.014 A 
ATOM     32  C   UNL A   1      38.118  29.778  27.633  1.00  0.00     0.010 A 
ATOM     33  C   UNL A   1      37.520  29.206  29.897  1.00  0.00     0.010 A 
ATOM     34  C   UNL A   1      38.501  29.314  28.898  1.00  0.00    -0.014 A 
BRANCH  34  35
ATOM     35  C   UNL A   1      39.897  28.862  29.150  1.00  0.00     0.031 A 
ATOM     36  C   UNL A   1      40.868  29.754  29.882  1.00  0.00     0.074 A 
ATOM     37  C   UNL A   1      40.315  27.653  28.730  1.00  0.00     0.049 A 
ATOM     38  N   UNL A   1      42.134  29.551  30.156  1.00  0.00    -0.248 NA
ATOM     39  C   UNL A   1      40.353  31.049  30.354  1.00  0.00     0.031 C 
ATOM     40  C   UNL A   1      39.503  26.679  27.999  1.00  0.00     0.029 A 
ATOM     41  N   UNL A   1      41.536  27.038  28.864  1.00  0.00    -0.354 N 
ATOM     42  C   UNL A   1      42.575  30.704  30.792  1.00  0.00     0.074 A 
ATOM     43  C   UNL A   1      41.445  31.607  30.859  1.00  0.00     0.031 C 
ATOM     44  C   UNL A   1      40.243  25.582  27.766  1.00  0.00     0.029 A 
ATOM     45  C   UNL A   1      41.582  25.781  28.314  1.00  0.00     0.049 A 
ATOM     46  H   UNL A   1      42.304  27.459  29.313  1.00  0.00     0.167 HD
ATOM     47  C   UNL A   1      43.805  30.993  31.282  1.00  0.00     0.031 A 
ATOM     48  C   UNL A   1      42.587  24.888  28.255  1.00  0.00     0.031 A 
ATOM     49  C   UNL A   1      44.929  30.097  31.279  1.00  0.00     0.049 A 
ATOM     50  C   UNL A   1      43.923  25.204  28.858  1.00  0.00     0.074 A 
ATOM     51  C   UNL A   1      46.195  30.300  31.801  1.00  0.00     0.029 A 
ATOM     52  N   UNL A   1      44.917  28.822  30.742  1.00  0.00    -0.354 N 
ATOM     53  N   UNL A   1      44.315  26.296  29.465  1.00  0.00    -0.248 NA
ATOM     54  C   UNL A   1      44.955  24.157  28.772  1.00  0.00     0.031 C 
ATOM     55  C   UNL A   1      46.955  29.146  31.574  1.00  0.00     0.029 A 
ATOM     56  C   UNL A   1      46.154  28.225  30.921  1.00  0.00     0.049 A 
ATOM     57  H   UNL A   1      44.145  28.402  30.297  1.00  0.00     0.167 HD
ATOM     58  C   UNL A   1      45.632  26.066  29.840  1.00  0.00     0.074 A 
ATOM     59  C   UNL A   1      45.972  24.728  29.402  1.00  0.00     0.031 C 
ATOM     60  C   UNL A   1      46.483  26.895  30.490  1.00  0.00     0.031 A 
BRANCH  47  61
ATOM     61  C   UNL A   1      44.000  32.359  31.865  1.00  0.00    -0.014 A 
ATOM     62  C   UNL A   1      44.429  33.430  31.068  1.00  0.00     0.009 A 
ATOM     63  C   UNL A   1      43.726  32.579  33.224  1.00  0.00     0.009 A 
ATOM     64  C   UNL A   1      44.607  34.695  31.629  1.00  0.00     0.001 A 
ATOM     65  C   UNL A   1      43.889  33.848  33.778  1.00  0.00     0.001 A 
ATOM     66  C   UNL A   1      44.336  34.903  32.983  1.00  0.00     0.000 A 
ENDBRANCH  47  61
BRANCH  48  67
ATOM     67  C   UNL A   1      42.361  23.576  27.605  1.00  0.00    -0.014 A 
ATOM     68  C   UNL A   1      42.668  23.401  26.247  1.00  0.00     0.009 A 
ATOM     69  C   UNL A   1      41.834  22.502  28.336  1.00  0.00     0.009 A 
ATOM     70  C   UNL A   1      42.439  22.172  25.628  1.00  0.00     0.001 A 
ATOM     71  C   UNL A   1      41.616  21.271  27.715  1.00  0.00     0.001 A 
ATOM     72  C   UNL A   1      41.914  21.109  26.362  1.00  0.00     0.000 A 
ENDBRANCH  48  67
BRANCH  60  73
ATOM     73  C   UNL A   1      47.856  26.374  30.782  1.00  0.00    -0.014 A 
ATOM     74  C   UNL A   1      48.144  25.759  32.009  1.00  0.00     0.009 A 
ATOM     75  C   UNL A   1      48.864  26.473  29.810  1.00  0.00     0.009 A 
ATOM     76  C   UNL A   1      49.425  25.265  32.265  1.00  0.00     0.001 A 
ATOM     77  C   UNL A   1      50.140  25.970  30.065  1.00  0.00     0.001 A 
ATOM     78  C   UNL A   1      50.420  25.371  31.293  1.00  0.00     0.000 A 
ENDBRANCH  60  73
ENDBRANCH  34  35
ENDBRANCH  26  29
ENDBRANCH  24  25
ENDBRANCH  23  24
ENDBRANCH   1  23
TORSDOF 13
ENDMDL
MODEL 2
REMARK VINA RESULT:      -9.1      3.270      6.088
REMARK SMILES C[C@H]1[C@@H](C(=O)NCCCNC(=O)c2ccc(-c3c4nc(c(-c5ccccc5)c5ccc([nH]5)c(-c5ccccc5)c5nc(c(-c6ccccc6)c6ccc3[nH]6)C=C5)C=C4)cc2)CCN1C(=O)c1n[nH]c(N)n1
REMARK SMILES IDX 7 1 6 2 4 3 5 4 3 6 1 7 2 8 63 9 61 10 62 11 64 12 65 13
REMARK SMILES IDX 66 14 67 15 71 16 68 17 69 18 70 20 8 23 9 24 10 25 11 26
REMARK SMILES IDX 12 28 13 29 14 30 60 31 15 32 59 33 16 34 17 35 18 36 53 37
REMARK SMILES IDX 19 38 58 39 52 40 54 41 20 42 57 43 51 44 50 45 21 47 43 48
REMARK SMILES IDX 28 49 42 50 29 51 32 52 41 53 55 54 30 55 31 56 40 58 56 59
REMARK SMILES IDX 33 60 22 61 23 62 27 63 24 64 26 65 25 66 44 67 45 68 49 69
REMARK SMILES IDX 46 70 48 71 47 72 34 73 35 74 39 75 36 76 38 77 37 78
REMARK H PARENT 6 5 68 19 70 21 70 22 10 27 54 46 32 57
REMARK Flexibility Score: inf
ROOT
ATOM      1  C   UNL A   1      31.521  29.862  25.296  1.00  0.00     0.117 C 
ENDROOT
BRANCH   1   2
ATOM      2  N   UNL A   1      32.688  29.698  24.443  1.00  0.00    -0.356 N 
ATOM      3  C   UNL A   1      33.073  28.632  23.679  1.00  0.00     0.225 C 
ATOM      4  O   UNL A   1      34.097  28.748  23.007  1.00  0.00    -0.275 OA
ATOM      5  H   UNL A   1      33.293  30.474  24.412  1.00  0.00     0.163 HD
BRANCH   3   6
ATOM      6  C   UNL A   1      32.238  27.357  23.690  1.00  0.00     0.102 C 
ATOM      7  C   UNL A   1      33.714  26.657  25.727  1.00  0.00     0.032 C 
ATOM      8  C   UNL A   1      32.766  26.227  24.608  1.00  0.00     0.095 C 
ATOM      9  N   UNL A   1      33.369  25.245  23.701  1.00  0.00    -0.332 N 
ATOM     10  C   UNL A   1      32.209  26.692  22.302  1.00  0.00     0.037 C 
ATOM     11  C   UNL A   1      33.381  25.726  22.337  1.00  0.00     0.121 C 
BRANCH   9  12
ATOM     12  C   UNL A   1      33.762  23.939  24.009  1.00  0.00     0.293 C 
ATOM     13  O   UNL A   1      32.940  23.056  24.256  1.00  0.00    -0.265 OA
BRANCH  12  14
ATOM     14  C   UNL A   1      35.218  23.675  24.036  1.00  0.00     0.241 A 
ATOM     15  N   UNL A   1      35.899  23.187  22.976  1.00  0.00    -0.147 NA
ATOM     16  N   UNL A   1      35.979  23.764  25.190  1.00  0.00    -0.187 NA
ATOM     17  N   UNL A   1      37.123  23.010  23.500  1.00  0.00    -0.245 N 
ATOM     18  C   UNL A   1      37.146  23.303  24.833  1.00  0.00     0.216 A 
ATOM     19  H   UNL A   1      37.905  22.706  22.987  1.00  0.00     0.193 HD
BRANCH  18  20
ATOM     20  N   UNL A   1      38.218  23.090  25.601  1.00  0.00    -0.368 N 
ATOM     21  H   UNL A   1      39.075  23.525  25.384  1.00  0.00     0.159 HD
ATOM     22  H   UNL A   1      38.150  22.498  26.385  1.00  0.00     0.159 HD
ENDBRANCH  18  20
ENDBRANCH  12  14
ENDBRANCH   9  12
ENDBRANCH   3   6
ENDBRANCH   1   2
BRANCH   1  23
ATOM     23  C   UNL A   1      31.872  29.943  26.786  1.00  0.00     0.042 C 
BRANCH  23  24
ATOM     24  C   UNL A   1      33.373  30.081  27.042  1.00  0.00     0.118 C 
BRANCH  24  25
ATOM     25  N   UNL A   1      33.658  31.150  27.982  1.00  0.00    -0.352 N 
ATOM     26  C   UNL A   1      34.693  31.390  28.846  1.00  0.00     0.251 C 
ATOM     27  H   UNL A   1      32.964  31.848  28.001  1.00  0.00     0.163 HD
ATOM     28  O   UNL A   1      34.530  32.269  29.693  1.00  0.00    -0.269 OA
BRANCH  26  29
ATOM     29  C   UNL A   1      35.987  30.659  28.820  1.00  0.00     0.039 A 
ATOM     30  C   UNL A   1      36.426  30.092  30.027  1.00  0.00     0.014 A 
ATOM     31  C   UNL A   1      36.850  30.651  27.722  1.00  0.00     0.014 A 
ATOM     32  C   UNL A   1      37.705  29.535  30.137  1.00  0.00     0.010 A 
ATOM     33  C   UNL A   1      38.112  30.043  27.816  1.00  0.00     0.010 A 
ATOM     34  C   UNL A   1      38.566  29.509  29.033  1.00  0.00    -0.014 A 
BRANCH  34  35
ATOM     35  C   UNL A   1      39.962  29.008  29.170  1.00  0.00     0.031 A 
ATOM     36  C   UNL A   1      41.031  29.884  29.773  1.00  0.00     0.074 A 
ATOM     37  C   UNL A   1      40.291  27.768  28.759  1.00  0.00     0.049 A 
ATOM     38  N   UNL A   1      42.308  29.637  29.935  1.00  0.00    -0.248 NA
ATOM     39  C   UNL A   1      40.613  31.214  30.241  1.00  0.00     0.031 C 
ATOM     40  C   UNL A   1      39.377  26.805  28.145  1.00  0.00     0.029 A 
ATOM     41  N   UNL A   1      41.495  27.108  28.801  1.00  0.00    -0.354 N 
ATOM     42  C   UNL A   1      42.852  30.793  30.482  1.00  0.00     0.074 A 
ATOM     43  C   UNL A   1      41.768  31.743  30.620  1.00  0.00     0.031 C 
ATOM     44  C   UNL A   1      40.049  25.671  27.885  1.00  0.00     0.029 A 
ATOM     45  C   UNL A   1      41.441  25.833  28.298  1.00  0.00     0.049 A 
ATOM     46  H   UNL A   1      42.317  27.512  29.160  1.00  0.00     0.167 HD
ATOM     47  C   UNL A   1      44.133  31.046  30.843  1.00  0.00     0.031 A 
ATOM     48  C   UNL A   1      42.401  24.897  28.178  1.00  0.00     0.031 A 
ATOM     49  C   UNL A   1      45.216  30.104  30.770  1.00  0.00     0.049 A 
ATOM     50  C   UNL A   1      43.799  25.178  28.641  1.00  0.00     0.074 A 
ATOM     51  C   UNL A   1      46.534  30.273  31.162  1.00  0.00     0.029 A 
ATOM     52  N   UNL A   1      45.105  28.813  30.284  1.00  0.00    -0.354 N 
ATOM     53  N   UNL A   1      44.289  26.273  29.167  1.00  0.00    -0.248 NA
ATOM     54  C   UNL A   1      44.777  24.087  28.499  1.00  0.00     0.031 C 
ATOM     55  C   UNL A   1      47.223  29.081  30.909  1.00  0.00     0.029 A 
ATOM     56  C   UNL A   1      46.329  28.172  30.370  1.00  0.00     0.049 A 
ATOM     57  H   UNL A   1      44.279  28.411  29.931  1.00  0.00     0.167 HD
ATOM     58  C   UNL A   1      45.626  26.001  29.425  1.00  0.00     0.074 A 
ATOM     59  C   UNL A   1      45.870  24.636  29.009  1.00  0.00     0.031 C 
ATOM     60  C   UNL A   1      46.565  26.816  29.961  1.00  0.00     0.031 A 
BRANCH  47  61
ATOM     61  C   UNL A   1      44.435  32.422  31.353  1.00  0.00    -0.014 A 
ATOM     62  C   UNL A   1      44.668  33.485  30.469  1.00  0.00     0.009 A 
ATOM     63  C   UNL A   1      44.460  32.659  32.737  1.00  0.00     0.009 A 
ATOM     64  C   UNL A   1      44.949  34.760  30.962  1.00  0.00     0.001 A 
ATOM     65  C   UNL A   1      44.726  33.938  33.226  1.00  0.00     0.001 A 
ATOM     66  C   UNL A   1      44.977  34.985  32.340  1.00  0.00     0.000 A 
ENDBRANCH  47  61
BRANCH  48  67
ATOM     67  C   UNL A   1      42.064  23.574  27.603  1.00  0.00    -0.014 A 
ATOM     68  C   UNL A   1      41.510  22.573  28.416  1.00  0.00     0.009 A 
ATOM     69  C   UNL A   1      42.299  23.309  26.247  1.00  0.00     0.009 A 
ATOM     70  C   UNL A   1      41.210  21.321  27.880  1.00  0.00     0.001 A 
ATOM     71  C   UNL A   1      41.987  22.057  25.713  1.00  0.00     0.001 A 
ATOM     72  C   UNL A   1      41.447  21.064  26.530  1.00  0.00     0.000 A 
ENDBRANCH  48  67
BRANCH  60  73
ATOM     73  C   UNL A   1      47.939  26.249  30.142  1.00  0.00    -0.014 A 
ATOM     74  C   UNL A   1      48.342  25.728  31.381  1.00  0.00     0.009 A 
ATOM     75  C   UNL A   1      48.828  26.208  29.057  1.00  0.00     0.009 A 
ATOM     76  C   UNL A   1      49.621  25.189  31.534  1.00  0.00     0.001 A 
ATOM     77  C   UNL A   1      50.103  25.660  29.212  1.00  0.00     0.001 A 
ATOM     78  C   UNL A   1      50.499  25.156  30.451  1.00  0.00     0.000 A 
ENDBRANCH  60  73
ENDBRANCH  34  35
ENDBRANCH  26  29
ENDBRANCH  24  25
ENDBRANCH  23  24
ENDBRANCH   1  23
TORSDOF 13
ENDMDL
MODEL 3
REMARK VINA RESULT:      -9.0      4.375     10.079
REMARK SMILES C[C@H]1[C@@H](C(=O)NCCCNC(=O)c2ccc(-c3c4nc(c(-c5ccccc5)c5ccc([nH]5)c(-c5ccccc5)c5nc(c(-c6ccccc6)c6ccc3[nH]6)C=C5)C=C4)cc2)CCN1C(=O)c1n[nH]c(N)n1
REMARK SMILES IDX 7 1 6 2 4 3 5 4 3 6 1 7 2 8 63 9 61 10 62 11 64 12 65 13
REMARK SMILES IDX 66 14 67 15 71 16 68 17 69 18 70 20 8 23 9 24 10 25 11 26
REMARK SMILES IDX 12 28 13 29 14 30 60 31 15 32 59 33 16 34 17 35 18 36 53 37
REMARK SMILES IDX 19 38 58 39 52 40 54 41 20 42 57 43 51 44 50 45 21 47 43 48
REMARK SMILES IDX 28 49 42 50 29 51 32 52 41 53 55 54 30 55 31 56 40 58 56 59
REMARK SMILES IDX 33 60 22 61 23 62 27 63 24 64 26 65 25 66 44 67 45 68 49 69
REMARK SMILES IDX 46 70 48 71 47 72 34 73 35 74 39 75 36 76 38 77 37 78
REMARK H PARENT 6 5 68 19 70 21 70 22 10 27 54 46 32 57
REMARK Flexibility Score: inf
ROOT
ATOM      1  C   UNL A   1      36.709  20.535  24.825  1.00  0.00     0.117 C 
ENDROOT
BRANCH   1   2
ATOM      2  N   UNL A   1      35.449  19.844  25.057  1.00  0.00    -0.356 N 
ATOM      3  C   UNL A   1      34.171  20.327  25.054  1.00  0.00     0.225 C 
ATOM      4  O   UNL A   1      33.255  19.527  25.244  1.00  0.00    -0.275 OA
ATOM      5  H   UNL A   1      35.530  18.881  25.245  1.00  0.00     0.163 HD
BRANCH   3   6
ATOM      6  C   UNL A   1      33.928  21.814  24.824  1.00  0.00     0.102 C 
ATOM      7  C   UNL A   1      33.682  21.961  27.420  1.00  0.00     0.032 C 
ATOM      8  C   UNL A   1      33.417  22.600  26.057  1.00  0.00     0.095 C 
ATOM      9  N   UNL A   1      31.990  22.825  25.805  1.00  0.00    -0.332 N 
ATOM     10  C   UNL A   1      32.822  22.048  23.779  1.00  0.00     0.037 C 
ATOM     11  C   UNL A   1      31.552  22.140  24.608  1.00  0.00     0.121 C 
BRANCH   9  12
ATOM     12  C   UNL A   1      31.137  23.694  26.492  1.00  0.00     0.293 C 
ATOM     13  O   UNL A   1      30.395  23.297  27.392  1.00  0.00    -0.265 OA
BRANCH  12  14
ATOM     14  C   UNL A   1      31.161  25.113  26.075  1.00  0.00     0.241 A 
ATOM     15  N   UNL A   1      31.515  26.120  26.903  1.00  0.00    -0.147 NA
ATOM     16  N   UNL A   1      30.683  25.547  24.849  1.00  0.00    -0.187 NA
ATOM     17  N   UNL A   1      31.276  27.197  26.137  1.00  0.00    -0.245 N 
ATOM     18  C   UNL A   1      30.728  26.848  24.937  1.00  0.00     0.216 A 
ATOM     19  H   UNL A   1      31.471  28.122  26.407  1.00  0.00     0.193 HD
BRANCH  18  20
ATOM     20  N   UNL A   1      30.290  27.749  24.052  1.00  0.00    -0.368 N 
ATOM     21  H   UNL A   1      30.684  27.784  23.150  1.00  0.00     0.159 HD
ATOM     22  H   UNL A   1      29.575  28.376  24.303  1.00  0.00     0.159 HD
ENDBRANCH  18  20
ENDBRANCH  12  14
ENDBRANCH   9  12
ENDBRANCH   3   6
ENDBRANCH   1   2
BRANCH   1  23
ATOM     23  C   UNL A   1      37.930  19.618  24.960  1.00  0.00     0.042 C 
BRANCH  23  24
ATOM     24  C   UNL A   1      39.006  20.186  25.885  1.00  0.00     0.118 C 
BRANCH  24  25
ATOM     25  N   UNL A   1      40.207  19.370  25.870  1.00  0.00    -0.352 N 
ATOM     26  C   UNL A   1      41.539  19.656  26.009  1.00  0.00     0.251 C 
ATOM     27  H   UNL A   1      40.026  18.412  25.733  1.00  0.00     0.163 HD
ATOM     28  O   UNL A   1      42.342  18.772  25.707  1.00  0.00    -0.269 OA
BRANCH  26  29
ATOM     29  C   UNL A   1      42.066  20.958  26.498  1.00  0.00     0.039 A 
ATOM     30  C   UNL A   1      42.029  21.184  27.882  1.00  0.00     0.014 A 
ATOM     31  C   UNL A   1      42.431  22.010  25.656  1.00  0.00     0.014 A 
ATOM     32  C   UNL A   1      42.343  22.439  28.415  1.00  0.00     0.010 A 
ATOM     33  C   UNL A   1      42.800  23.253  26.193  1.00  0.00     0.010 A 
ATOM     34  C   UNL A   1      42.728  23.492  27.575  1.00  0.00    -0.014 A 
BRANCH  34  35
ATOM     35  C   UNL A   1      42.967  24.854  28.126  1.00  0.00     0.031 A 
ATOM     36  C   UNL A   1      44.359  25.292  28.501  1.00  0.00     0.074 A 
ATOM     37  C   UNL A   1      41.945  25.715  28.297  1.00  0.00     0.049 A 
ATOM     38  N   UNL A   1      44.756  26.423  29.034  1.00  0.00    -0.248 NA
ATOM     39  C   UNL A   1      45.446  24.330  28.259  1.00  0.00     0.031 C 
ATOM     40  C   UNL A   1      40.540  25.439  27.995  1.00  0.00     0.029 A 
ATOM     41  N   UNL A   1      41.939  27.005  28.770  1.00  0.00    -0.354 N 
ATOM     42  C   UNL A   1      46.125  26.290  29.230  1.00  0.00     0.074 A 
ATOM     43  C   UNL A   1      46.492  24.970  28.763  1.00  0.00     0.031 C 
ATOM     44  C   UNL A   1      39.812  26.534  28.272  1.00  0.00     0.029 A 
ATOM     45  C   UNL A   1      40.693  27.579  28.786  1.00  0.00     0.049 A 
ATOM     46  H   UNL A   1      42.753  27.472  29.068  1.00  0.00     0.167 HD
ATOM     47  C   UNL A   1      47.004  27.183  29.745  1.00  0.00     0.031 A 
ATOM     48  C   UNL A   1      40.300  28.808  29.171  1.00  0.00     0.031 A 
ATOM     49  C   UNL A   1      46.679  28.519  30.164  1.00  0.00     0.049 A 
ATOM     50  C   UNL A   1      41.300  29.801  29.682  1.00  0.00     0.074 A 
ATOM     51  C   UNL A   1      47.525  29.501  30.653  1.00  0.00     0.029 A 
ATOM     52  N   UNL A   1      45.409  29.068  30.129  1.00  0.00    -0.354 N 
ATOM     53  N   UNL A   1      42.591  29.660  29.848  1.00  0.00    -0.248 NA
ATOM     54  C   UNL A   1      40.785  31.130  30.054  1.00  0.00     0.031 C 
ATOM     55  C   UNL A   1      46.764  30.645  30.919  1.00  0.00     0.029 A 
ATOM     56  C   UNL A   1      45.449  30.375  30.585  1.00  0.00     0.049 A 
ATOM     57  H   UNL A   1      44.598  28.599  29.826  1.00  0.00     0.167 HD
ATOM     58  C   UNL A   1      43.044  30.880  30.333  1.00  0.00     0.074 A 
ATOM     59  C   UNL A   1      41.894  31.754  30.427  1.00  0.00     0.031 C 
ATOM     60  C   UNL A   1      44.305  31.239  30.670  1.00  0.00     0.031 A 
BRANCH  47  61
ATOM     61  C   UNL A   1      48.425  26.730  29.892  1.00  0.00    -0.014 A 
ATOM     62  C   UNL A   1      49.372  26.987  28.891  1.00  0.00     0.009 A 
ATOM     63  C   UNL A   1      48.822  26.060  31.060  1.00  0.00     0.009 A 
ATOM     64  C   UNL A   1      50.690  26.556  29.045  1.00  0.00     0.001 A 
ATOM     65  C   UNL A   1      50.143  25.644  31.217  1.00  0.00     0.001 A 
ATOM     66  C   UNL A   1      51.075  25.886  30.207  1.00  0.00     0.000 A 
ENDBRANCH  47  61
BRANCH  48  67
ATOM     67  C   UNL A   1      38.870  29.182  29.070  1.00  0.00    -0.014 A 
ATOM     68  C   UNL A   1      38.020  29.019  30.174  1.00  0.00     0.009 A 
ATOM     69  C   UNL A   1      38.354  29.696  27.872  1.00  0.00     0.009 A 
ATOM     70  C   UNL A   1      36.669  29.353  30.075  1.00  0.00     0.001 A 
ATOM     71  C   UNL A   1      37.004  30.040  27.781  1.00  0.00     0.001 A 
ATOM     72  C   UNL A   1      36.163  29.864  28.880  1.00  0.00     0.000 A 
ENDBRANCH  48  67
BRANCH  60  73
ATOM     73  C   UNL A   1      44.510  32.641  31.157  1.00  0.00    -0.014 A 
ATOM     74  C   UNL A   1      44.429  32.945  32.524  1.00  0.00     0.009 A 
ATOM     75  C   UNL A   1      44.816  33.661  30.243  1.00  0.00     0.009 A 
ATOM     76  C   UNL A   1      44.636  34.253  32.966  1.00  0.00     0.001 A 
ATOM     77  C   UNL A   1      45.030  34.965  30.690  1.00  0.00     0.001 A 
ATOM     78  C   UNL A   1      44.936  35.260  32.050  1.00  0.00     0.000 A 
ENDBRANCH  60  73
ENDBRANCH  34  35
ENDBRANCH  26  29
ENDBRANCH  24  25
ENDBRANCH  23  24
ENDBRANCH   1  23
TORSDOF 13
ENDMDL
