MODEL 1
REMARK VINA RESULT:      -9.6      0.000      0.000
REMARK SMILES C[C@H]1CC[C@](C#N)([C@H](O)C(=O)NCCCNC(=O)c2ccc(-c3c4nc(c(-c5ccccc5)c5ccc([nH]5)c(-c5ccccc5)c5nc(c(-c6ccccc6)c6ccc3[nH]6)C=C5)C=C4)cc2)C1
REMARK SMILES IDX 14 1 13 2 12 3 10 4 11 5 8 7 5 8 1 9 2 10 3 11 67 12 4 13
REMARK SMILES IDX 6 14 7 15 9 16 15 18 16 19 17 20 18 22 19 23 20 24 66 25
REMARK SMILES IDX 21 26 65 27 22 28 23 29 24 30 59 31 25 32 64 33 58 34 60 35
REMARK SMILES IDX 26 36 63 37 57 38 56 39 27 41 49 42 34 43 48 44 35 45 38 46
REMARK SMILES IDX 47 47 61 48 36 49 37 50 46 52 62 53 39 54 28 55 29 56 33 57
REMARK SMILES IDX 30 58 32 59 31 60 50 61 51 62 55 63 52 64 54 65 53 66 40 67
REMARK SMILES IDX 41 68 45 69 42 70 44 71 43 72
REMARK H PARENT 12 6 9 17 16 21 60 40 38 51
REMARK Flexibility Score: inf
ROOT
ATOM      1  C   UNL A   1      33.596  33.687  28.111  1.00  0.00     0.042 C 
ENDROOT
BRANCH   1   2
ATOM      2  C   UNL A   1      33.804  34.884  29.001  1.00  0.00     0.117 C 
BRANCH   2   3
ATOM      3  N   UNL A   1      32.956  34.928  30.172  1.00  0.00    -0.354 N 
ATOM      4  C   UNL A   1      33.293  35.222  31.460  1.00  0.00     0.250 C 
ATOM      5  O   UNL A   1      32.392  35.223  32.302  1.00  0.00    -0.272 OA
ATOM      6  H   UNL A   1      32.007  34.717  30.018  1.00  0.00     0.163 HD
BRANCH   4   7
ATOM      7  C   UNL A   1      34.761  35.504  31.869  1.00  0.00     0.223 C 
BRANCH   7   8
ATOM      8  C   UNL A   1      35.592  34.242  32.236  1.00  0.00     0.092 C 
ATOM      9  C   UNL A   1      38.037  32.066  32.433  1.00  0.00     0.008 C 
ATOM     10  C   UNL A   1      36.935  32.338  31.415  1.00  0.00    -0.013 C 
ATOM     11  C   UNL A   1      35.570  31.784  31.813  1.00  0.00     0.005 C 
ATOM     12  C   UNL A   1      36.659  33.823  31.211  1.00  0.00     0.029 C 
ATOM     13  C   UNL A   1      34.707  32.972  32.273  1.00  0.00     0.026 C 
BRANCH   8  14
ATOM     14  C   UNL A   1      36.209  34.468  33.564  1.00  0.00     0.072 C 
ATOM     15  N   UNL A   1      36.694  34.654  34.599  1.00  0.00    -0.198 NA
ENDBRANCH   8  14
ENDBRANCH   7   8
BRANCH   7  16
ATOM     16  O   UNL A   1      34.833  36.514  32.880  1.00  0.00    -0.382 OA
ATOM     17  H   UNL A   1      34.928  37.384  32.460  1.00  0.00     0.211 HD
ENDBRANCH   7  16
ENDBRANCH   4   7
ENDBRANCH   2   3
ENDBRANCH   1   2
BRANCH   1  18
ATOM     18  C   UNL A   1      34.468  32.509  28.485  1.00  0.00     0.118 C 
BRANCH  18  19
ATOM     19  N   UNL A   1      33.900  31.220  28.095  1.00  0.00    -0.352 N 
ATOM     20  C   UNL A   1      34.504  29.998  27.916  1.00  0.00     0.251 C 
ATOM     21  H   UNL A   1      32.928  31.229  27.937  1.00  0.00     0.163 HD
ATOM     22  O   UNL A   1      33.877  29.066  27.426  1.00  0.00    -0.269 OA
BRANCH  20  23
ATOM     23  C   UNL A   1      35.926  29.827  28.278  1.00  0.00     0.039 A 
ATOM     24  C   UNL A   1      36.258  29.318  29.534  1.00  0.00     0.014 A 
ATOM     25  C   UNL A   1      36.928  30.121  27.355  1.00  0.00     0.014 A 
ATOM     26  C   UNL A   1      37.589  29.012  29.819  1.00  0.00     0.010 A 
ATOM     27  C   UNL A   1      38.220  29.674  27.579  1.00  0.00     0.010 A 
ATOM     28  C   UNL A   1      38.571  29.133  28.823  1.00  0.00    -0.014 A 
BRANCH  28  29
ATOM     29  C   UNL A   1      39.976  28.720  29.057  1.00  0.00     0.031 A 
ATOM     30  C   UNL A   1      40.950  29.692  29.668  1.00  0.00     0.074 A 
ATOM     31  C   UNL A   1      40.392  27.502  28.658  1.00  0.00     0.049 A 
ATOM     32  N   UNL A   1      42.230  29.543  29.896  1.00  0.00    -0.248 NA
ATOM     33  C   UNL A   1      40.429  31.020  30.041  1.00  0.00     0.031 C 
ATOM     34  C   UNL A   1      39.558  26.489  28.005  1.00  0.00     0.029 A 
ATOM     35  N   UNL A   1      41.626  26.907  28.742  1.00  0.00    -0.354 N 
ATOM     36  C   UNL A   1      42.663  30.757  30.417  1.00  0.00     0.074 A 
ATOM     37  C   UNL A   1      41.532  31.653  30.410  1.00  0.00     0.031 C 
ATOM     38  C   UNL A   1      40.293  25.387  27.786  1.00  0.00     0.029 A 
ATOM     39  C   UNL A   1      41.660  25.633  28.228  1.00  0.00     0.049 A 
ATOM     40  H   UNL A   1      42.412  27.352  29.132  1.00  0.00     0.167 HD
ATOM     41  C   UNL A   1      43.889  31.088  30.883  1.00  0.00     0.031 A 
ATOM     42  C   UNL A   1      42.683  24.763  28.115  1.00  0.00     0.031 A 
ATOM     43  C   UNL A   1      45.010  30.189  30.900  1.00  0.00     0.049 A 
ATOM     44  C   UNL A   1      44.041  25.167  28.622  1.00  0.00     0.074 A 
ATOM     45  C   UNL A   1      46.277  30.406  31.412  1.00  0.00     0.029 A 
ATOM     46  N   UNL A   1      45.001  28.907  30.376  1.00  0.00    -0.354 N 
ATOM     47  N   UNL A   1      44.412  26.288  29.191  1.00  0.00    -0.248 NA
ATOM     48  C   UNL A   1      45.118  24.178  28.483  1.00  0.00     0.031 C 
ATOM     49  C   UNL A   1      47.058  29.285  31.127  1.00  0.00     0.029 A 
ATOM     50  C   UNL A   1      46.254  28.335  30.517  1.00  0.00     0.049 A 
ATOM     51  H   UNL A   1      44.222  28.468  29.966  1.00  0.00     0.167 HD
ATOM     52  C   UNL A   1      45.756  26.127  29.506  1.00  0.00     0.074 A 
ATOM     53  C   UNL A   1      46.126  24.792  29.084  1.00  0.00     0.031 C 
ATOM     54  C   UNL A   1      46.606  27.004  30.092  1.00  0.00     0.031 A 
BRANCH  41  55
ATOM     55  C   UNL A   1      44.086  32.487  31.400  1.00  0.00    -0.014 A 
ATOM     56  C   UNL A   1      44.344  33.562  30.534  1.00  0.00     0.009 A 
ATOM     57  C   UNL A   1      43.960  32.741  32.775  1.00  0.00     0.009 A 
ATOM     58  C   UNL A   1      44.505  34.854  31.038  1.00  0.00     0.001 A 
ATOM     59  C   UNL A   1      44.087  34.039  33.273  1.00  0.00     0.001 A 
ATOM     60  C   UNL A   1      44.367  35.093  32.404  1.00  0.00     0.000 A 
ENDBRANCH  41  55
BRANCH  42  61
ATOM     61  C   UNL A   1      42.469  23.430  27.489  1.00  0.00    -0.014 A 
ATOM     62  C   UNL A   1      42.004  22.346  28.249  1.00  0.00     0.009 A 
ATOM     63  C   UNL A   1      42.759  23.227  26.131  1.00  0.00     0.009 A 
ATOM     64  C   UNL A   1      41.872  21.079  27.672  1.00  0.00     0.001 A 
ATOM     65  C   UNL A   1      42.588  21.970  25.546  1.00  0.00     0.001 A 
ATOM     66  C   UNL A   1      42.161  20.894  26.321  1.00  0.00     0.000 A 
ENDBRANCH  42  61
BRANCH  54  67
ATOM     67  C   UNL A   1      48.010  26.535  30.355  1.00  0.00    -0.014 A 
ATOM     68  C   UNL A   1      48.360  25.895  31.555  1.00  0.00     0.009 A 
ATOM     69  C   UNL A   1      48.990  26.700  29.364  1.00  0.00     0.009 A 
ATOM     70  C   UNL A   1      49.672  25.467  31.770  1.00  0.00     0.001 A 
ATOM     71  C   UNL A   1      50.290  26.236  29.565  1.00  0.00     0.001 A 
ATOM     72  C   UNL A   1      50.633  25.631  30.773  1.00  0.00     0.000 A 
ENDBRANCH  54  67
ENDBRANCH  28  29
ENDBRANCH  20  23
ENDBRANCH  18  19
ENDBRANCH   1  18
TORSDOF 13
ENDMDL
MODEL 2
REMARK VINA RESULT:      -9.4      3.976      9.573
REMARK SMILES C[C@H]1CC[C@](C#N)([C@H](O)C(=O)NCCCNC(=O)c2ccc(-c3c4nc(c(-c5ccccc5)c5ccc([nH]5)c(-c5ccccc5)c5nc(c(-c6ccccc6)c6ccc3[nH]6)C=C5)C=C4)cc2)C1
REMARK SMILES IDX 14 1 13 2 12 3 10 4 11 5 8 7 5 8 1 9 2 10 3 11 67 12 4 13
REMARK SMILES IDX 6 14 7 15 9 16 15 18 16 19 17 20 18 22 19 23 20 24 66 25
REMARK SMILES IDX 21 26 65 27 22 28 23 29 24 30 59 31 25 32 64 33 58 34 60 35
REMARK SMILES IDX 26 36 63 37 57 38 56 39 27 41 49 42 34 43 48 44 35 45 38 46
REMARK SMILES IDX 47 47 61 48 36 49 37 50 46 52 62 53 39 54 28 55 29 56 33 57
REMARK SMILES IDX 30 58 32 59 31 60 50 61 51 62 55 63 52 64 54 65 53 66 40 67
REMARK SMILES IDX 41 68 45 69 42 70 44 71 43 72
REMARK H PARENT 12 6 9 17 16 21 60 40 38 51
REMARK Flexibility Score: inf
ROOT
ATOM      1  C   UNL A   1      37.249  20.325  24.868  1.00  0.00     0.042 C 
ENDROOT
BRANCH   1   2
ATOM      2  C   UNL A   1      36.127  21.314  25.048  1.00  0.00     0.117 C 
BRANCH   2   3
ATOM      3  N   UNL A   1      35.528  21.324  26.365  1.00  0.00    -0.354 N 
ATOM      4  C   UNL A   1      34.219  21.496  26.706  1.00  0.00     0.250 C 
ATOM      5  O   UNL A   1      33.927  21.443  27.902  1.00  0.00    -0.272 OA
ATOM      6  H   UNL A   1      36.150  21.189  27.116  1.00  0.00     0.163 HD
BRANCH   4   7
ATOM      7  C   UNL A   1      33.135  21.791  25.637  1.00  0.00     0.223 C 
BRANCH   7   8
ATOM      8  C   UNL A   1      32.626  23.260  25.610  1.00  0.00     0.092 C 
ATOM      9  C   UNL A   1      31.069  26.005  24.724  1.00  0.00     0.008 C 
ATOM     10  C   UNL A   1      32.373  25.338  24.299  1.00  0.00    -0.013 C 
ATOM     11  C   UNL A   1      33.528  25.561  25.271  1.00  0.00     0.005 C 
ATOM     12  C   UNL A   1      32.273  23.820  24.223  1.00  0.00     0.029 C 
ATOM     13  C   UNL A   1      33.730  24.251  26.053  1.00  0.00     0.026 C 
BRANCH   8  14
ATOM     14  C   UNL A   1      31.463  23.359  26.522  1.00  0.00     0.072 C 
ATOM     15  N   UNL A   1      30.555  23.446  27.235  1.00  0.00    -0.198 NA
ENDBRANCH   8  14
ENDBRANCH   7   8
BRANCH   7  16
ATOM     16  O   UNL A   1      32.064  20.846  25.711  1.00  0.00    -0.382 OA
ATOM     17  H   UNL A   1      31.257  21.297  26.005  1.00  0.00     0.211 HD
ENDBRANCH   7  16
ENDBRANCH   4   7
ENDBRANCH   2   3
ENDBRANCH   1   2
BRANCH   1  18
ATOM     18  C   UNL A   1      38.518  20.726  25.588  1.00  0.00     0.118 C 
BRANCH  18  19
ATOM     19  N   UNL A   1      39.514  19.658  25.647  1.00  0.00    -0.352 N 
ATOM     20  C   UNL A   1      40.842  19.698  25.999  1.00  0.00     0.251 C 
ATOM     21  H   UNL A   1      39.179  18.767  25.396  1.00  0.00     0.163 HD
ATOM     22  O   UNL A   1      41.555  18.716  25.826  1.00  0.00    -0.269 OA
BRANCH  20  23
ATOM     23  C   UNL A   1      41.415  20.944  26.547  1.00  0.00     0.039 A 
ATOM     24  C   UNL A   1      41.972  21.884  25.678  1.00  0.00     0.014 A 
ATOM     25  C   UNL A   1      41.354  21.205  27.915  1.00  0.00     0.014 A 
ATOM     26  C   UNL A   1      42.373  23.124  26.177  1.00  0.00     0.010 A 
ATOM     27  C   UNL A   1      41.606  22.485  28.381  1.00  0.00     0.010 A 
ATOM     28  C   UNL A   1      42.138  23.455  27.521  1.00  0.00    -0.014 A 
BRANCH  28  29
ATOM     29  C   UNL A   1      42.456  24.799  28.061  1.00  0.00     0.031 A 
ATOM     30  C   UNL A   1      43.859  25.114  28.507  1.00  0.00     0.074 A 
ATOM     31  C   UNL A   1      41.474  25.709  28.215  1.00  0.00     0.049 A 
ATOM     32  N   UNL A   1      44.323  26.206  29.060  1.00  0.00    -0.248 NA
ATOM     33  C   UNL A   1      44.870  24.054  28.342  1.00  0.00     0.031 C 
ATOM     34  C   UNL A   1      40.063  25.506  27.872  1.00  0.00     0.029 A 
ATOM     35  N   UNL A   1      41.512  26.990  28.706  1.00  0.00    -0.354 N 
ATOM     36  C   UNL A   1      45.664  25.953  29.323  1.00  0.00     0.074 A 
ATOM     37  C   UNL A   1      45.926  24.588  28.935  1.00  0.00     0.031 C 
ATOM     38  C   UNL A   1      39.382  26.635  28.124  1.00  0.00     0.029 A 
ATOM     39  C   UNL A   1      40.290  27.620  28.698  1.00  0.00     0.049 A 
ATOM     40  H   UNL A   1      42.335  27.417  29.033  1.00  0.00     0.167 HD
ATOM     41  C   UNL A   1      46.600  26.792  29.823  1.00  0.00     0.031 A 
ATOM     42  C   UNL A   1      39.938  28.851  29.119  1.00  0.00     0.031 A 
ATOM     43  C   UNL A   1      46.339  28.155  30.197  1.00  0.00     0.049 A 
ATOM     44  C   UNL A   1      40.997  29.755  29.690  1.00  0.00     0.074 A 
ATOM     45  C   UNL A   1      47.234  29.107  30.651  1.00  0.00     0.029 A 
ATOM     46  N   UNL A   1      45.090  28.755  30.169  1.00  0.00    -0.354 N 
ATOM     47  N   UNL A   1      42.278  29.528  29.852  1.00  0.00    -0.248 NA
ATOM     48  C   UNL A   1      40.562  31.089  30.124  1.00  0.00     0.031 C 
ATOM     49  C   UNL A   1      46.514  30.260  30.972  1.00  0.00     0.029 A 
ATOM     50  C   UNL A   1      45.185  30.054  30.636  1.00  0.00     0.049 A 
ATOM     51  H   UNL A   1      44.261  28.323  29.863  1.00  0.00     0.167 HD
ATOM     52  C   UNL A   1      42.806  30.702  30.376  1.00  0.00     0.074 A 
ATOM     53  C   UNL A   1      41.710  31.642  30.483  1.00  0.00     0.031 C 
ATOM     54  C   UNL A   1      44.083  30.978  30.735  1.00  0.00     0.031 A 
BRANCH  41  55
ATOM     55  C   UNL A   1      47.994  26.255  30.007  1.00  0.00    -0.014 A 
ATOM     56  C   UNL A   1      48.932  26.271  28.962  1.00  0.00     0.009 A 
ATOM     57  C   UNL A   1      48.388  25.769  31.264  1.00  0.00     0.009 A 
ATOM     58  C   UNL A   1      50.224  25.783  29.164  1.00  0.00     0.001 A 
ATOM     59  C   UNL A   1      49.691  25.314  31.472  1.00  0.00     0.001 A 
ATOM     60  C   UNL A   1      50.605  25.314  30.420  1.00  0.00     0.000 A 
ENDBRANCH  41  55
BRANCH  42  61
ATOM     61  C   UNL A   1      38.523  29.300  29.025  1.00  0.00    -0.014 A 
ATOM     62  C   UNL A   1      38.023  29.860  27.839  1.00  0.00     0.009 A 
ATOM     63  C   UNL A   1      37.669  29.197  30.135  1.00  0.00     0.009 A 
ATOM     64  C   UNL A   1      36.712  30.345  27.780  1.00  0.00     0.001 A 
ATOM     65  C   UNL A   1      36.348  29.645  30.062  1.00  0.00     0.001 A 
ATOM     66  C   UNL A   1      35.877  30.233  28.890  1.00  0.00     0.000 A 
ENDBRANCH  42  61
BRANCH  54  67
ATOM     67  C   UNL A   1      44.377  32.365  31.235  1.00  0.00    -0.014 A 
ATOM     68  C   UNL A   1      44.326  32.682  32.602  1.00  0.00     0.009 A 
ATOM     69  C   UNL A   1      44.755  33.362  30.322  1.00  0.00     0.009 A 
ATOM     70  C   UNL A   1      44.609  33.979  33.037  1.00  0.00     0.001 A 
ATOM     71  C   UNL A   1      45.074  34.646  30.762  1.00  0.00     0.001 A 
ATOM     72  C   UNL A   1      44.989  34.957  32.119  1.00  0.00     0.000 A 
ENDBRANCH  54  67
ENDBRANCH  28  29
ENDBRANCH  20  23
ENDBRANCH  18  19
ENDBRANCH   1  18
TORSDOF 13
ENDMDL
MODEL 3
REMARK VINA RESULT:      -9.4      4.054      9.388
REMARK SMILES C[C@H]1CC[C@](C#N)([C@H](O)C(=O)NCCCNC(=O)c2ccc(-c3c4nc(c(-c5ccccc5)c5ccc([nH]5)c(-c5ccccc5)c5nc(c(-c6ccccc6)c6ccc3[nH]6)C=C5)C=C4)cc2)C1
REMARK SMILES IDX 14 1 13 2 12 3 10 4 11 5 8 7 5 8 1 9 2 10 3 11 67 12 4 13
REMARK SMILES IDX 6 14 7 15 9 16 15 18 16 19 17 20 18 22 19 23 20 24 66 25
REMARK SMILES IDX 21 26 65 27 22 28 23 29 24 30 59 31 25 32 64 33 58 34 60 35
REMARK SMILES IDX 26 36 63 37 57 38 56 39 27 41 49 42 34 43 48 44 35 45 38 46
REMARK SMILES IDX 47 47 61 48 36 49 37 50 46 52 62 53 39 54 28 55 29 56 33 57
REMARK SMILES IDX 30 58 32 59 31 60 50 61 51 62 55 63 52 64 54 65 53 66 40 67
REMARK SMILES IDX 41 68 45 69 42 70 44 71 43 72
REMARK H PARENT 12 6 9 17 16 21 60 40 38 51
REMARK Flexibility Score: inf
ROOT
ATOM      1  C   UNL A   1      37.236  20.610  24.906  1.00  0.00     0.042 C 
ENDROOT
BRANCH   1   2
ATOM      2  C   UNL A   1      36.139  21.609  25.168  1.00  0.00     0.117 C 
BRANCH   2   3
ATOM      3  N   UNL A   1      35.494  21.484  26.456  1.00  0.00    -0.354 N 
ATOM      4  C   UNL A   1      34.165  21.544  26.755  1.00  0.00     0.250 C 
ATOM      5  O   UNL A   1      33.834  21.385  27.932  1.00  0.00    -0.272 OA
ATOM      6  H   UNL A   1      36.096  21.335  27.220  1.00  0.00     0.163 HD
BRANCH   4   7
ATOM      7  C   UNL A   1      33.103  21.846  25.667  1.00  0.00     0.223 C 
BRANCH   7   8
ATOM      8  C   UNL A   1      32.548  23.299  25.679  1.00  0.00     0.092 C 
ATOM      9  C   UNL A   1      30.926  26.024  24.851  1.00  0.00     0.008 C 
ATOM     10  C   UNL A   1      32.259  25.413  24.436  1.00  0.00    -0.013 C 
ATOM     11  C   UNL A   1      33.385  25.637  25.442  1.00  0.00     0.005 C 
ATOM     12  C   UNL A   1      32.210  23.896  24.303  1.00  0.00     0.029 C 
ATOM     13  C   UNL A   1      33.610  24.306  26.183  1.00  0.00     0.026 C 
BRANCH   8  14
ATOM     14  C   UNL A   1      31.361  23.329  26.565  1.00  0.00     0.072 C 
ATOM     15  N   UNL A   1      30.436  23.362  27.261  1.00  0.00    -0.198 NA
ENDBRANCH   8  14
ENDBRANCH   7   8
BRANCH   7  16
ATOM     16  O   UNL A   1      32.060  20.866  25.675  1.00  0.00    -0.382 OA
ATOM     17  H   UNL A   1      32.308  20.127  25.097  1.00  0.00     0.211 HD
ENDBRANCH   7  16
ENDBRANCH   4   7
ENDBRANCH   2   3
ENDBRANCH   1   2
BRANCH   1  18
ATOM     18  C   UNL A   1      38.521  20.932  25.637  1.00  0.00     0.118 C 
BRANCH  18  19
ATOM     19  N   UNL A   1      39.475  19.825  25.648  1.00  0.00    -0.352 N 
ATOM     20  C   UNL A   1      40.810  19.804  25.973  1.00  0.00     0.251 C 
ATOM     21  H   UNL A   1      39.100  18.954  25.381  1.00  0.00     0.163 HD
ATOM     22  O   UNL A   1      41.481  18.800  25.761  1.00  0.00    -0.269 OA
BRANCH  20  23
ATOM     23  C   UNL A   1      41.443  21.012  26.540  1.00  0.00     0.039 A 
ATOM     24  C   UNL A   1      41.984  21.971  25.683  1.00  0.00     0.014 A 
ATOM     25  C   UNL A   1      41.454  21.220  27.919  1.00  0.00     0.014 A 
ATOM     26  C   UNL A   1      42.443  23.179  26.209  1.00  0.00     0.010 A 
ATOM     27  C   UNL A   1      41.762  22.473  28.421  1.00  0.00     0.010 A 
ATOM     28  C   UNL A   1      42.280  23.463  27.575  1.00  0.00    -0.014 A 
BRANCH  28  29
ATOM     29  C   UNL A   1      42.661  24.775  28.150  1.00  0.00     0.031 A 
ATOM     30  C   UNL A   1      41.611  25.832  28.365  1.00  0.00     0.074 A 
ATOM     31  C   UNL A   1      43.957  25.040  28.413  1.00  0.00     0.049 A 
ATOM     32  N   UNL A   1      41.753  27.059  28.798  1.00  0.00    -0.248 NA
ATOM     33  C   UNL A   1      40.223  25.480  28.016  1.00  0.00     0.031 C 
ATOM     34  C   UNL A   1      45.075  24.118  28.198  1.00  0.00     0.029 A 
ATOM     35  N   UNL A   1      44.553  26.169  28.917  1.00  0.00    -0.354 N 
ATOM     36  C   UNL A   1      40.484  27.623  28.753  1.00  0.00     0.074 A 
ATOM     37  C   UNL A   1      39.596  26.633  28.190  1.00  0.00     0.031 C 
ATOM     38  C   UNL A   1      46.213  24.703  28.606  1.00  0.00     0.029 A 
ATOM     39  C   UNL A   1      45.915  26.057  29.056  1.00  0.00     0.049 A 
ATOM     40  H   UNL A   1      44.052  26.981  29.156  1.00  0.00     0.167 HD
ATOM     41  C   UNL A   1      40.087  28.848  29.167  1.00  0.00     0.031 A 
ATOM     42  C   UNL A   1      46.826  26.952  29.487  1.00  0.00     0.031 A 
ATOM     43  C   UNL A   1      40.971  29.826  29.740  1.00  0.00     0.049 A 
ATOM     44  C   UNL A   1      46.359  28.314  29.922  1.00  0.00     0.074 A 
ATOM     45  C   UNL A   1      40.656  31.072  30.252  1.00  0.00     0.029 A 
ATOM     46  N   UNL A   1      42.342  29.671  29.867  1.00  0.00    -0.354 N 
ATOM     47  N   UNL A   1      45.142  28.800  29.953  1.00  0.00    -0.248 NA
ATOM     48  C   UNL A   1      47.392  29.248  30.392  1.00  0.00     0.031 C 
ATOM     49  C   UNL A   1      41.847  31.704  30.617  1.00  0.00     0.029 A 
ATOM     50  C   UNL A   1      42.893  30.818  30.414  1.00  0.00     0.049 A 
ATOM     51  H   UNL A   1      42.848  28.869  29.608  1.00  0.00     0.167 HD
ATOM     52  C   UNL A   1      45.259  30.082  30.476  1.00  0.00     0.074 A 
ATOM     53  C   UNL A   1      46.663  30.288  30.767  1.00  0.00     0.031 C 
ATOM     54  C   UNL A   1      44.293  31.006  30.697  1.00  0.00     0.031 A 
BRANCH  41  55
ATOM     55  C   UNL A   1      38.635  29.205  29.004  1.00  0.00    -0.014 A 
ATOM     56  C   UNL A   1      37.718  29.058  30.057  1.00  0.00     0.009 A 
ATOM     57  C   UNL A   1      38.187  29.746  27.788  1.00  0.00     0.009 A 
ATOM     58  C   UNL A   1      36.379  29.413  29.885  1.00  0.00     0.001 A 
ATOM     59  C   UNL A   1      36.856  30.133  27.629  1.00  0.00     0.001 A 
ATOM     60  C   UNL A   1      35.951  29.959  28.675  1.00  0.00     0.000 A 
ENDBRANCH  41  55
BRANCH  42  61
ATOM     61  C   UNL A   1      48.271  26.595  29.523  1.00  0.00    -0.014 A 
ATOM     62  C   UNL A   1      49.100  26.840  28.417  1.00  0.00     0.009 A 
ATOM     63  C   UNL A   1      48.823  25.979  30.657  1.00  0.00     0.009 A 
ATOM     64  C   UNL A   1      50.439  26.438  28.432  1.00  0.00     0.001 A 
ATOM     65  C   UNL A   1      50.171  25.615  30.685  1.00  0.00     0.001 A 
ATOM     66  C   UNL A   1      50.973  25.830  29.566  1.00  0.00     0.000 A 
ENDBRANCH  42  61
BRANCH  54  67
ATOM     67  C   UNL A   1      44.710  32.308  31.324  1.00  0.00    -0.014 A 
ATOM     68  C   UNL A   1      45.067  33.420  30.546  1.00  0.00     0.009 A 
ATOM     69  C   UNL A   1      44.703  32.433  32.723  1.00  0.00     0.009 A 
ATOM     70  C   UNL A   1      45.446  34.617  31.157  1.00  0.00     0.001 A 
ATOM     71  C   UNL A   1      45.045  33.641  33.330  1.00  0.00     0.001 A 
ATOM     72  C   UNL A   1      45.428  34.728  32.547  1.00  0.00     0.000 A 
ENDBRANCH  54  67
ENDBRANCH  28  29
ENDBRANCH  20  23
ENDBRANCH  18  19
ENDBRANCH   1  18
TORSDOF 13
ENDMDL
