MODEL 1
REMARK VINA RESULT:     -12.2      0.000      0.000
REMARK SMILES O=C(NCCCNC(=O)c1cccc2c1ccn2Cc1ccncc1)c1ccc(-c2c3nc(c(-c4ccccc4)c4ccc([nH]4)c(-c4ccccc4)c4nc(c(-c5ccccc5)c5ccc2[nH]5)C=C4)C=C3)cc1
REMARK SMILES IDX 5 1 4 2 3 3 1 4 2 5 26 7 27 8 73 9 28 10 72 11 29 12 30 13
REMARK SMILES IDX 31 14 66 15 32 16 71 17 65 18 67 19 33 20 70 21 64 22 63 23
REMARK SMILES IDX 34 25 56 26 41 27 55 28 42 29 45 30 54 31 68 32 43 33 44 34
REMARK SMILES IDX 53 36 69 37 46 38 35 39 36 40 40 41 37 42 39 43 38 44 57 45
REMARK SMILES IDX 58 46 62 47 59 48 61 49 60 50 47 51 48 52 52 53 49 54 51 55
REMARK SMILES IDX 50 56 6 57 7 58 8 59 9 61 10 62 11 63 15 64 12 65 14 66
REMARK SMILES IDX 16 67 13 68 18 69 17 70 19 71 20 72 21 73 25 74 22 75 24 76
REMARK SMILES IDX 23 77
REMARK H PARENT 3 6 67 24 45 35 7 60
REMARK Flexibility Score: inf
ROOT
ATOM      1  C   UNL A   1      37.904  19.988  25.041  1.00  0.00     0.042 C 
ENDROOT
BRANCH   1   2
ATOM      2  C   UNL A   1      39.205  20.327  25.732  1.00  0.00     0.118 C 
BRANCH   2   3
ATOM      3  N   UNL A   1      40.203  19.241  25.770  1.00  0.00    -0.352 N 
ATOM      4  O   UNL A   1      42.347  18.430  25.702  1.00  0.00    -0.269 OA
ATOM      5  C   UNL A   1      41.580  19.359  25.945  1.00  0.00     0.251 C 
ATOM      6  H   UNL A   1      39.856  18.326  25.657  1.00  0.00     0.163 HD
BRANCH   5   7
ATOM      7  C   UNL A   1      42.091  20.642  26.457  1.00  0.00     0.039 A 
ATOM      8  C   UNL A   1      42.497  21.718  25.667  1.00  0.00     0.014 A 
ATOM      9  C   UNL A   1      41.977  20.785  27.825  1.00  0.00     0.014 A 
ATOM     10  C   UNL A   1      42.699  22.944  26.302  1.00  0.00     0.010 A 
ATOM     11  C   UNL A   1      41.702  22.026  28.292  1.00  0.00     0.010 A 
ATOM     12  C   UNL A   1      42.275  23.087  27.635  1.00  0.00    -0.014 A 
BRANCH  12  13
ATOM     13  C   UNL A   1      42.376  24.311  28.413  1.00  0.00     0.031 A 
ATOM     14  C   UNL A   1      41.294  25.281  28.162  1.00  0.00     0.074 A 
ATOM     15  C   UNL A   1      43.282  24.490  29.405  1.00  0.00     0.049 A 
ATOM     16  N   UNL A   1      41.397  26.393  27.524  1.00  0.00    -0.248 NA
ATOM     17  C   UNL A   1      39.916  24.907  28.513  1.00  0.00     0.031 C 
ATOM     18  C   UNL A   1      44.239  23.540  30.002  1.00  0.00     0.029 A 
ATOM     19  N   UNL A   1      43.470  25.591  30.175  1.00  0.00    -0.354 N 
ATOM     20  C   UNL A   1      40.134  26.965  27.544  1.00  0.00     0.074 A 
ATOM     21  C   UNL A   1      39.235  25.938  28.011  1.00  0.00     0.031 C 
ATOM     22  C   UNL A   1      44.706  24.025  31.176  1.00  0.00     0.029 A 
ATOM     23  C   UNL A   1      44.253  25.394  31.305  1.00  0.00     0.049 A 
ATOM     24  H   UNL A   1      43.079  26.466  29.949  1.00  0.00     0.167 HD
ATOM     25  C   UNL A   1      39.975  28.306  27.378  1.00  0.00     0.031 A 
ATOM     26  C   UNL A   1      44.519  26.302  32.276  1.00  0.00     0.031 A 
ATOM     27  C   UNL A   1      41.177  28.919  26.867  1.00  0.00     0.049 A 
ATOM     28  C   UNL A   1      44.283  27.638  31.677  1.00  0.00     0.074 A 
ATOM     29  C   UNL A   1      41.910  28.762  25.706  1.00  0.00     0.029 A 
ATOM     30  N   UNL A   1      42.034  29.496  27.779  1.00  0.00    -0.354 N 
ATOM     31  N   UNL A   1      45.006  28.121  30.706  1.00  0.00    -0.248 NA
ATOM     32  C   UNL A   1      42.951  28.207  31.811  1.00  0.00     0.031 C 
ATOM     33  C   UNL A   1      43.271  28.775  26.132  1.00  0.00     0.029 A 
ATOM     34  C   UNL A   1      43.300  29.038  27.504  1.00  0.00     0.049 A 
ATOM     35  H   UNL A   1      41.784  30.121  28.497  1.00  0.00     0.167 HD
ATOM     36  C   UNL A   1      44.092  28.715  29.847  1.00  0.00     0.074 A 
ATOM     37  C   UNL A   1      42.851  28.804  30.620  1.00  0.00     0.031 C 
ATOM     38  C   UNL A   1      44.327  28.811  28.504  1.00  0.00     0.031 A 
BRANCH  25  39
ATOM     39  C   UNL A   1      38.869  29.099  28.013  1.00  0.00    -0.014 A 
ATOM     40  C   UNL A   1      37.823  29.693  27.282  1.00  0.00     0.009 A 
ATOM     41  C   UNL A   1      38.716  29.051  29.409  1.00  0.00     0.009 A 
ATOM     42  C   UNL A   1      36.680  30.202  27.902  1.00  0.00     0.001 A 
ATOM     43  C   UNL A   1      37.555  29.525  30.031  1.00  0.00     0.001 A 
ATOM     44  C   UNL A   1      36.536  30.096  29.277  1.00  0.00     0.000 A 
ENDBRANCH  25  39
BRANCH  26  45
ATOM     45  C   UNL A   1      44.485  26.073  33.741  1.00  0.00    -0.014 A 
ATOM     46  C   UNL A   1      45.676  26.109  34.491  1.00  0.00     0.009 A 
ATOM     47  C   UNL A   1      43.348  25.520  34.352  1.00  0.00     0.009 A 
ATOM     48  C   UNL A   1      45.744  25.560  35.778  1.00  0.00     0.001 A 
ATOM     49  C   UNL A   1      43.416  24.970  35.640  1.00  0.00     0.001 A 
ATOM     50  C   UNL A   1      44.618  24.974  36.344  1.00  0.00     0.000 A 
ENDBRANCH  26  45
BRANCH  38  51
ATOM     51  C   UNL A   1      45.690  28.412  27.973  1.00  0.00    -0.014 A 
ATOM     52  C   UNL A   1      46.545  29.430  27.521  1.00  0.00     0.009 A 
ATOM     53  C   UNL A   1      46.060  27.079  27.707  1.00  0.00     0.009 A 
ATOM     54  C   UNL A   1      47.709  29.136  26.806  1.00  0.00     0.001 A 
ATOM     55  C   UNL A   1      47.240  26.783  27.012  1.00  0.00     0.001 A 
ATOM     56  C   UNL A   1      48.056  27.812  26.550  1.00  0.00     0.000 A 
ENDBRANCH  38  51
ENDBRANCH  12  13
ENDBRANCH   5   7
ENDBRANCH   2   3
ENDBRANCH   1   2
BRANCH   1  57
ATOM     57  C   UNL A   1      36.927  21.159  25.028  1.00  0.00     0.118 C 
BRANCH  57  58
ATOM     58  N   UNL A   1      36.092  21.251  26.221  1.00  0.00    -0.352 N 
ATOM     59  C   UNL A   1      34.762  21.571  26.362  1.00  0.00     0.251 C 
ATOM     60  H   UNL A   1      36.559  21.053  27.065  1.00  0.00     0.163 HD
ATOM     61  O   UNL A   1      34.291  21.693  27.490  1.00  0.00    -0.269 OA
BRANCH  59  62
ATOM     62  C   UNL A   1      33.916  21.781  25.168  1.00  0.00     0.049 A 
ATOM     63  C   UNL A   1      33.159  20.728  24.634  1.00  0.00     0.014 A 
ATOM     64  C   UNL A   1      33.850  23.058  24.567  1.00  0.00     0.012 A 
ATOM     65  C   UNL A   1      32.464  20.888  23.442  1.00  0.00     0.003 A 
ATOM     66  C   UNL A   1      33.079  23.216  23.405  1.00  0.00     0.049 A 
ATOM     67  C   UNL A   1      34.433  24.324  24.853  1.00  0.00     0.029 A 
ATOM     68  C   UNL A   1      32.418  22.130  22.804  1.00  0.00     0.027 A 
ATOM     69  N   UNL A   1      33.130  24.557  23.068  1.00  0.00    -0.343 N 
ATOM     70  C   UNL A   1      34.028  25.206  23.882  1.00  0.00     0.087 A 
BRANCH  69  71
ATOM     71  C   UNL A   1      32.359  25.213  22.013  1.00  0.00     0.157 C 
BRANCH  71  72
ATOM     72  C   UNL A   1      31.209  26.019  22.572  1.00  0.00    -0.025 A 
ATOM     73  C   UNL A   1      31.012  27.354  22.197  1.00  0.00     0.025 A 
ATOM     74  C   UNL A   1      30.310  25.460  23.485  1.00  0.00     0.025 A 
ATOM     75  C   UNL A   1      29.964  28.067  22.757  1.00  0.00     0.111 A 
ATOM     76  C   UNL A   1      29.279  26.249  23.977  1.00  0.00     0.111 A 
ATOM     77  N   UNL A   1      29.087  27.541  23.634  1.00  0.00    -0.265 NA
ENDBRANCH  71  72
ENDBRANCH  69  71
ENDBRANCH  59  62
ENDBRANCH  57  58
ENDBRANCH   1  57
TORSDOF 12
ENDMDL
MODEL 2
REMARK VINA RESULT:     -11.9      4.265      9.160
REMARK SMILES O=C(NCCCNC(=O)c1cccc2c1ccn2Cc1ccncc1)c1ccc(-c2c3nc(c(-c4ccccc4)c4ccc([nH]4)c(-c4ccccc4)c4nc(c(-c5ccccc5)c5ccc2[nH]5)C=C4)C=C3)cc1
REMARK SMILES IDX 5 1 4 2 3 3 1 4 2 5 26 7 27 8 73 9 28 10 72 11 29 12 30 13
REMARK SMILES IDX 31 14 66 15 32 16 71 17 65 18 67 19 33 20 70 21 64 22 63 23
REMARK SMILES IDX 34 25 56 26 41 27 55 28 42 29 45 30 54 31 68 32 43 33 44 34
REMARK SMILES IDX 53 36 69 37 46 38 35 39 36 40 40 41 37 42 39 43 38 44 57 45
REMARK SMILES IDX 58 46 62 47 59 48 61 49 60 50 47 51 48 52 52 53 49 54 51 55
REMARK SMILES IDX 50 56 6 57 7 58 8 59 9 61 10 62 11 63 15 64 12 65 14 66
REMARK SMILES IDX 16 67 13 68 18 69 17 70 19 71 20 72 21 73 25 74 22 75 24 76
REMARK SMILES IDX 23 77
REMARK H PARENT 3 6 67 24 45 35 7 60
REMARK Flexibility Score: inf
ROOT
ATOM      1  C   UNL A   1      31.700  31.645  26.540  1.00  0.00     0.042 C 
ENDROOT
BRANCH   1   2
ATOM      2  C   UNL A   1      32.764  32.414  27.290  1.00  0.00     0.118 C 
BRANCH   2   3
ATOM      3  N   UNL A   1      32.418  33.808  27.627  1.00  0.00    -0.352 N 
ATOM      4  O   UNL A   1      32.461  35.654  28.987  1.00  0.00    -0.269 OA
ATOM      5  C   UNL A   1      32.990  34.609  28.613  1.00  0.00     0.251 C 
ATOM      6  H   UNL A   1      31.700  34.220  27.095  1.00  0.00     0.163 HD
BRANCH   5   7
ATOM      7  C   UNL A   1      34.274  34.170  29.185  1.00  0.00     0.039 A 
ATOM      8  C   UNL A   1      34.416  33.369  30.319  1.00  0.00     0.014 A 
ATOM      9  C   UNL A   1      35.368  34.467  28.400  1.00  0.00     0.014 A 
ATOM     10  C   UNL A   1      35.677  32.827  30.571  1.00  0.00     0.010 A 
ATOM     11  C   UNL A   1      36.381  33.568  28.391  1.00  0.00     0.010 A 
ATOM     12  C   UNL A   1      36.661  32.925  29.572  1.00  0.00    -0.014 A 
BRANCH  12  13
ATOM     13  C   UNL A   1      38.002  32.372  29.668  1.00  0.00     0.031 A 
ATOM     14  C   UNL A   1      38.096  30.944  29.309  1.00  0.00     0.074 A 
ATOM     15  C   UNL A   1      39.104  33.125  29.903  1.00  0.00     0.049 A 
ATOM     16  N   UNL A   1      38.287  29.963  30.119  1.00  0.00    -0.248 NA
ATOM     17  C   UNL A   1      37.789  30.543  27.929  1.00  0.00     0.031 C 
ATOM     18  C   UNL A   1      39.253  34.590  29.989  1.00  0.00     0.029 A 
ATOM     19  N   UNL A   1      40.388  32.710  30.028  1.00  0.00    -0.354 N 
ATOM     20  C   UNL A   1      38.309  28.819  29.336  1.00  0.00     0.074 A 
ATOM     21  C   UNL A   1      37.831  29.213  28.034  1.00  0.00     0.031 C 
ATOM     22  C   UNL A   1      40.559  34.931  29.898  1.00  0.00     0.029 A 
ATOM     23  C   UNL A   1      41.344  33.716  29.962  1.00  0.00     0.049 A 
ATOM     24  H   UNL A   1      40.627  31.762  30.155  1.00  0.00     0.167 HD
ATOM     25  C   UNL A   1      38.927  27.689  29.775  1.00  0.00     0.031 A 
ATOM     26  C   UNL A   1      42.690  33.558  29.972  1.00  0.00     0.031 A 
ATOM     27  C   UNL A   1      39.207  27.756  31.188  1.00  0.00     0.049 A 
ATOM     28  C   UNL A   1      42.953  32.230  30.579  1.00  0.00     0.074 A 
ATOM     29  C   UNL A   1      38.415  27.878  32.314  1.00  0.00     0.029 A 
ATOM     30  N   UNL A   1      40.467  28.162  31.568  1.00  0.00    -0.354 N 
ATOM     31  N   UNL A   1      42.678  31.949  31.822  1.00  0.00    -0.248 NA
ATOM     32  C   UNL A   1      43.043  31.089  29.682  1.00  0.00     0.031 C 
ATOM     33  C   UNL A   1      39.102  28.814  33.142  1.00  0.00     0.029 A 
ATOM     34  C   UNL A   1      40.317  29.133  32.529  1.00  0.00     0.049 A 
ATOM     35  H   UNL A   1      41.320  27.820  31.215  1.00  0.00     0.167 HD
ATOM     36  C   UNL A   1      42.130  30.674  31.782  1.00  0.00     0.074 A 
ATOM     37  C   UNL A   1      42.453  30.167  30.447  1.00  0.00     0.031 C 
ATOM     38  C   UNL A   1      41.218  30.257  32.709  1.00  0.00     0.031 A 
BRANCH  25  39
ATOM     39  C   UNL A   1      39.591  26.696  28.864  1.00  0.00    -0.014 A 
ATOM     40  C   UNL A   1      39.018  25.458  28.517  1.00  0.00     0.009 A 
ATOM     41  C   UNL A   1      40.715  27.102  28.124  1.00  0.00     0.009 A 
ATOM     42  C   UNL A   1      39.525  24.670  27.483  1.00  0.00     0.001 A 
ATOM     43  C   UNL A   1      41.203  26.333  27.061  1.00  0.00     0.001 A 
ATOM     44  C   UNL A   1      40.605  25.120  26.738  1.00  0.00     0.000 A 
ENDBRANCH  25  39
BRANCH  26  45
ATOM     45  C   UNL A   1      43.671  34.233  29.088  1.00  0.00    -0.014 A 
ATOM     46  C   UNL A   1      43.484  34.237  27.693  1.00  0.00     0.009 A 
ATOM     47  C   UNL A   1      44.935  34.604  29.576  1.00  0.00     0.009 A 
ATOM     48  C   UNL A   1      44.533  34.539  26.817  1.00  0.00     0.001 A 
ATOM     49  C   UNL A   1      45.987  34.907  28.698  1.00  0.00     0.001 A 
ATOM     50  C   UNL A   1      45.790  34.856  27.320  1.00  0.00     0.000 A 
ENDBRANCH  26  45
BRANCH  38  51
ATOM     51  C   UNL A   1      40.930  31.150  33.902  1.00  0.00    -0.014 A 
ATOM     52  C   UNL A   1      41.539  30.829  35.126  1.00  0.00     0.009 A 
ATOM     53  C   UNL A   1      39.931  32.141  33.905  1.00  0.00     0.009 A 
ATOM     54  C   UNL A   1      41.148  31.451  36.315  1.00  0.00     0.001 A 
ATOM     55  C   UNL A   1      39.555  32.782  35.094  1.00  0.00     0.001 A 
ATOM     56  C   UNL A   1      40.154  32.426  36.299  1.00  0.00     0.000 A 
ENDBRANCH  38  51
ENDBRANCH  12  13
ENDBRANCH   5   7
ENDBRANCH   2   3
ENDBRANCH   1   2
BRANCH   1  57
ATOM     57  C   UNL A   1      32.111  30.203  26.259  1.00  0.00     0.118 C 
BRANCH  57  58
ATOM     58  N   UNL A   1      32.845  30.027  25.010  1.00  0.00    -0.352 N 
ATOM     59  C   UNL A   1      32.802  29.014  24.080  1.00  0.00     0.251 C 
ATOM     60  H   UNL A   1      33.477  30.752  24.799  1.00  0.00     0.163 HD
ATOM     61  O   UNL A   1      33.600  29.024  23.146  1.00  0.00    -0.269 OA
BRANCH  59  62
ATOM     62  C   UNL A   1      31.817  27.920  24.215  1.00  0.00     0.049 A 
ATOM     63  C   UNL A   1      30.541  28.032  23.644  1.00  0.00     0.014 A 
ATOM     64  C   UNL A   1      32.167  26.739  24.908  1.00  0.00     0.012 A 
ATOM     65  C   UNL A   1      29.573  27.063  23.876  1.00  0.00     0.003 A 
ATOM     66  C   UNL A   1      31.196  25.739  25.065  1.00  0.00     0.049 A 
ATOM     67  C   UNL A   1      33.345  26.280  25.560  1.00  0.00     0.029 A 
ATOM     68  C   UNL A   1      29.881  25.905  24.595  1.00  0.00     0.027 A 
ATOM     69  N   UNL A   1      31.810  24.680  25.709  1.00  0.00    -0.343 N 
ATOM     70  C   UNL A   1      33.077  25.046  26.098  1.00  0.00     0.087 A 
BRANCH  69  71
ATOM     71  C   UNL A   1      31.228  23.361  25.954  1.00  0.00     0.157 C 
BRANCH  71  72
ATOM     72  C   UNL A   1      31.661  22.351  24.917  1.00  0.00    -0.025 A 
ATOM     73  C   UNL A   1      31.708  22.684  23.557  1.00  0.00     0.025 A 
ATOM     74  C   UNL A   1      32.024  21.050  25.281  1.00  0.00     0.025 A 
ATOM     75  C   UNL A   1      32.081  21.719  22.636  1.00  0.00     0.111 A 
ATOM     76  C   UNL A   1      32.402  20.158  24.287  1.00  0.00     0.111 A 
ATOM     77  N   UNL A   1      32.437  20.463  22.972  1.00  0.00    -0.265 NA
ENDBRANCH  71  72
ENDBRANCH  69  71
ENDBRANCH  59  62
ENDBRANCH  57  58
ENDBRANCH   1  57
TORSDOF 12
ENDMDL
MODEL 3
REMARK VINA RESULT:     -11.9      3.282      7.317
REMARK SMILES O=C(NCCCNC(=O)c1cccc2c1ccn2Cc1ccncc1)c1ccc(-c2c3nc(c(-c4ccccc4)c4ccc([nH]4)c(-c4ccccc4)c4nc(c(-c5ccccc5)c5ccc2[nH]5)C=C4)C=C3)cc1
REMARK SMILES IDX 5 1 4 2 3 3 1 4 2 5 26 7 27 8 73 9 28 10 72 11 29 12 30 13
REMARK SMILES IDX 31 14 66 15 32 16 71 17 65 18 67 19 33 20 70 21 64 22 63 23
REMARK SMILES IDX 34 25 56 26 41 27 55 28 42 29 45 30 54 31 68 32 43 33 44 34
REMARK SMILES IDX 53 36 69 37 46 38 35 39 36 40 40 41 37 42 39 43 38 44 57 45
REMARK SMILES IDX 58 46 62 47 59 48 61 49 60 50 47 51 48 52 52 53 49 54 51 55
REMARK SMILES IDX 50 56 6 57 7 58 8 59 9 61 10 62 11 63 15 64 12 65 14 66
REMARK SMILES IDX 16 67 13 68 18 69 17 70 19 71 20 72 21 73 25 74 22 75 24 76
REMARK SMILES IDX 23 77
REMARK H PARENT 3 6 67 24 45 35 7 60
REMARK Flexibility Score: inf
ROOT
ATOM      1  C   UNL A   1      33.222  29.984  26.797  1.00  0.00     0.042 C 
ENDROOT
BRANCH   1   2
ATOM      2  C   UNL A   1      33.458  30.925  27.956  1.00  0.00     0.118 C 
BRANCH   2   3
ATOM      3  N   UNL A   1      34.225  32.144  27.635  1.00  0.00    -0.352 N 
ATOM      4  O   UNL A   1      36.031  33.541  27.854  1.00  0.00    -0.269 OA
ATOM      5  C   UNL A   1      35.561  32.407  27.929  1.00  0.00     0.251 C 
ATOM      6  H   UNL A   1      33.737  32.853  27.157  1.00  0.00     0.163 HD
BRANCH   5   7
ATOM      7  C   UNL A   1      36.408  31.268  28.318  1.00  0.00     0.039 A 
ATOM      8  C   UNL A   1      36.442  30.033  27.669  1.00  0.00     0.014 A 
ATOM      9  C   UNL A   1      37.332  31.565  29.300  1.00  0.00     0.014 A 
ATOM     10  C   UNL A   1      37.483  29.162  27.994  1.00  0.00     0.010 A 
ATOM     11  C   UNL A   1      38.535  30.949  29.218  1.00  0.00     0.010 A 
ATOM     12  C   UNL A   1      38.548  29.651  28.772  1.00  0.00    -0.014 A 
BRANCH  12  13
ATOM     13  C   UNL A   1      39.721  28.880  29.153  1.00  0.00     0.031 A 
ATOM     14  C   UNL A   1      39.855  28.657  30.605  1.00  0.00     0.074 A 
ATOM     15  C   UNL A   1      40.536  28.273  28.257  1.00  0.00     0.049 A 
ATOM     16  N   UNL A   1      40.711  29.211  31.388  1.00  0.00    -0.248 NA
ATOM     17  C   UNL A   1      38.831  27.857  31.293  1.00  0.00     0.031 C 
ATOM     18  C   UNL A   1      40.403  28.129  26.795  1.00  0.00     0.029 A 
ATOM     19  N   UNL A   1      41.657  27.551  28.504  1.00  0.00    -0.354 N 
ATOM     20  C   UNL A   1      40.465  28.696  32.652  1.00  0.00     0.074 A 
ATOM     21  C   UNL A   1      39.201  28.008  32.566  1.00  0.00     0.031 C 
ATOM     22  C   UNL A   1      41.247  27.174  26.343  1.00  0.00     0.029 A 
ATOM     23  C   UNL A   1      42.121  26.796  27.433  1.00  0.00     0.049 A 
ATOM     24  H   UNL A   1      42.109  27.560  29.379  1.00  0.00     0.167 HD
ATOM     25  C   UNL A   1      41.435  28.702  33.606  1.00  0.00     0.031 A 
ATOM     26  C   UNL A   1      43.162  25.928  27.445  1.00  0.00     0.031 A 
ATOM     27  C   UNL A   1      42.528  29.570  33.241  1.00  0.00     0.049 A 
ATOM     28  C   UNL A   1      44.014  26.309  28.597  1.00  0.00     0.074 A 
ATOM     29  C   UNL A   1      42.628  30.925  32.990  1.00  0.00     0.029 A 
ATOM     30  N   UNL A   1      43.624  28.993  32.640  1.00  0.00    -0.354 N 
ATOM     31  N   UNL A   1      44.657  27.440  28.663  1.00  0.00    -0.248 NA
ATOM     32  C   UNL A   1      43.745  25.663  29.872  1.00  0.00     0.031 C 
ATOM     33  C   UNL A   1      43.475  31.021  31.847  1.00  0.00     0.029 A 
ATOM     34  C   UNL A   1      43.924  29.738  31.525  1.00  0.00     0.049 A 
ATOM     35  H   UNL A   1      44.105  28.192  32.951  1.00  0.00     0.167 HD
ATOM     36  C   UNL A   1      44.485  27.868  29.972  1.00  0.00     0.074 A 
ATOM     37  C   UNL A   1      43.980  26.694  30.688  1.00  0.00     0.031 C 
ATOM     38  C   UNL A   1      44.480  29.195  30.299  1.00  0.00     0.031 A 
BRANCH  25  39
ATOM     39  C   UNL A   1      41.554  27.658  34.679  1.00  0.00    -0.014 A 
ATOM     40  C   UNL A   1      41.578  26.275  34.415  1.00  0.00     0.009 A 
ATOM     41  C   UNL A   1      41.904  28.059  35.979  1.00  0.00     0.009 A 
ATOM     42  C   UNL A   1      41.941  25.340  35.386  1.00  0.00     0.001 A 
ATOM     43  C   UNL A   1      42.306  27.128  36.944  1.00  0.00     0.001 A 
ATOM     44  C   UNL A   1      42.329  25.770  36.646  1.00  0.00     0.000 A 
ENDBRANCH  25  39
BRANCH  26  45
ATOM     45  C   UNL A   1      43.192  24.569  26.850  1.00  0.00    -0.014 A 
ATOM     46  C   UNL A   1      43.743  24.367  25.571  1.00  0.00     0.009 A 
ATOM     47  C   UNL A   1      42.414  23.534  27.394  1.00  0.00     0.009 A 
ATOM     48  C   UNL A   1      43.478  23.204  24.838  1.00  0.00     0.001 A 
ATOM     49  C   UNL A   1      42.149  22.368  26.660  1.00  0.00     0.001 A 
ATOM     50  C   UNL A   1      42.665  22.213  25.376  1.00  0.00     0.000 A 
ENDBRANCH  26  45
BRANCH  38  51
ATOM     51  C   UNL A   1      44.841  30.209  29.230  1.00  0.00    -0.014 A 
ATOM     52  C   UNL A   1      43.860  30.546  28.284  1.00  0.00     0.009 A 
ATOM     53  C   UNL A   1      46.154  30.664  29.005  1.00  0.00     0.009 A 
ATOM     54  C   UNL A   1      44.179  31.284  27.140  1.00  0.00     0.001 A 
ATOM     55  C   UNL A   1      46.469  31.424  27.870  1.00  0.00     0.001 A 
ATOM     56  C   UNL A   1      45.484  31.721  26.932  1.00  0.00     0.000 A 
ENDBRANCH  38  51
ENDBRANCH  12  13
ENDBRANCH   5   7
ENDBRANCH   2   3
ENDBRANCH   1   2
BRANCH   1  57
ATOM     57  C   UNL A   1      33.149  28.524  27.236  1.00  0.00     0.118 C 
BRANCH  57  58
ATOM     58  N   UNL A   1      33.857  27.602  26.354  1.00  0.00    -0.352 N 
ATOM     59  C   UNL A   1      33.381  26.703  25.428  1.00  0.00     0.251 C 
ATOM     60  H   UNL A   1      34.838  27.626  26.437  1.00  0.00     0.163 HD
ATOM     61  O   UNL A   1      34.169  25.943  24.870  1.00  0.00    -0.269 OA
BRANCH  59  62
ATOM     62  C   UNL A   1      31.936  26.644  25.122  1.00  0.00     0.049 A 
ATOM     63  C   UNL A   1      31.103  25.724  25.776  1.00  0.00     0.014 A 
ATOM     64  C   UNL A   1      31.379  27.535  24.177  1.00  0.00     0.012 A 
ATOM     65  C   UNL A   1      29.774  25.581  25.401  1.00  0.00     0.003 A 
ATOM     66  C   UNL A   1      30.016  27.422  23.868  1.00  0.00     0.049 A 
ATOM     67  C   UNL A   1      31.900  28.589  23.375  1.00  0.00     0.029 A 
ATOM     68  C   UNL A   1      29.210  26.420  24.438  1.00  0.00     0.027 A 
ATOM     69  N   UNL A   1      29.718  28.441  22.980  1.00  0.00    -0.343 N 
ATOM     70  C   UNL A   1      30.875  29.081  22.606  1.00  0.00     0.087 A 
BRANCH  69  71
ATOM     71  C   UNL A   1      28.388  28.806  22.497  1.00  0.00     0.157 C 
BRANCH  71  72
ATOM     72  C   UNL A   1      28.251  30.297  22.289  1.00  0.00    -0.025 A 
ATOM     73  C   UNL A   1      28.119  30.839  21.005  1.00  0.00     0.025 A 
ATOM     74  C   UNL A   1      28.257  31.182  23.372  1.00  0.00     0.025 A 
ATOM     75  C   UNL A   1      28.028  32.213  20.856  1.00  0.00     0.111 A 
ATOM     76  C   UNL A   1      28.141  32.543  23.124  1.00  0.00     0.111 A 
ATOM     77  N   UNL A   1      28.028  33.078  21.889  1.00  0.00    -0.265 NA
ENDBRANCH  71  72
ENDBRANCH  69  71
ENDBRANCH  59  62
ENDBRANCH  57  58
ENDBRANCH   1  57
TORSDOF 12
ENDMDL
