MODEL 1
REMARK VINA RESULT:     -12.6      0.000      0.000
REMARK SMILES O=C(NCCCNC(=O)c1cc2c(c(S(=O)(=O)Nc3cc(C(F)(F)F)ccc3-n3cccn3)c1)CCC2)c1ccc(-c2c3nc(c(-c4ccccc4)c4ccc([nH]4)c(-c4ccccc4)c4nc(c(-c5ccccc5)c5ccc2[nH]5)C=C4)C=C3)cc1
REMARK SMILES IDX 6 1 5 2 4 3 3 4 1 5 2 6 38 8 39 9 85 10 40 11 84 12 41 13
REMARK SMILES IDX 42 14 43 15 78 16 44 17 83 18 77 19 79 20 45 21 82 22 76 23
REMARK SMILES IDX 75 24 46 26 68 27 53 28 67 29 54 30 57 31 66 32 80 33 55 34
REMARK SMILES IDX 56 35 65 37 81 38 58 39 47 40 48 41 52 42 49 43 51 44 50 45
REMARK SMILES IDX 69 46 70 47 74 48 71 49 73 50 72 51 59 52 60 53 64 54 61 55
REMARK SMILES IDX 63 56 62 57 7 58 8 59 9 61 10 62 11 63 34 64 12 65 14 66
REMARK SMILES IDX 13 67 37 68 35 69 36 70 15 71 16 72 17 73 18 74 19 76 20 77
REMARK SMILES IDX 28 78 21 79 27 80 26 81 29 82 30 83 33 84 31 85 32 86 22 87
REMARK SMILES IDX 23 88 24 89 25 90
REMARK H PARENT 3 7 79 25 57 36 7 60 18 75
REMARK Flexibility Score: inf
ROOT
ATOM      1  C   UNL A   1      34.141  29.745  26.739  1.00  0.00     0.118 C 
ENDROOT
BRANCH   1   2
ATOM      2  C   UNL A   1      35.022  30.437  27.780  1.00  0.00     0.042 C 
BRANCH   2   3
ATOM      3  C   UNL A   1      34.555  31.820  28.228  1.00  0.00     0.118 C 
BRANCH   3   4
ATOM      4  N   UNL A   1      34.582  32.033  29.664  1.00  0.00    -0.352 N 
ATOM      5  O   UNL A   1      35.141  32.257  31.780  1.00  0.00    -0.269 OA
ATOM      6  C   UNL A   1      35.461  31.789  30.683  1.00  0.00     0.251 C 
ATOM      7  H   UNL A   1      33.756  32.464  29.986  1.00  0.00     0.163 HD
BRANCH   6   8
ATOM      8  C   UNL A   1      36.725  30.999  30.597  1.00  0.00     0.039 A 
ATOM      9  C   UNL A   1      37.995  31.504  30.328  1.00  0.00     0.014 A 
ATOM     10  C   UNL A   1      36.598  29.608  30.803  1.00  0.00     0.014 A 
ATOM     11  C   UNL A   1      39.097  30.643  30.242  1.00  0.00     0.010 A 
ATOM     12  C   UNL A   1      37.695  28.746  30.725  1.00  0.00     0.010 A 
ATOM     13  C   UNL A   1      38.952  29.262  30.432  1.00  0.00    -0.014 A 
BRANCH  13  14
ATOM     14  C   UNL A   1      40.160  28.432  30.462  1.00  0.00     0.031 A 
ATOM     15  C   UNL A   1      40.876  28.367  31.769  1.00  0.00     0.074 A 
ATOM     16  C   UNL A   1      40.594  27.609  29.484  1.00  0.00     0.049 A 
ATOM     17  N   UNL A   1      42.079  28.757  32.042  1.00  0.00    -0.248 NA
ATOM     18  C   UNL A   1      40.149  27.810  32.918  1.00  0.00     0.031 C 
ATOM     19  C   UNL A   1      39.903  27.213  28.259  1.00  0.00     0.029 A 
ATOM     20  N   UNL A   1      41.748  26.872  29.448  1.00  0.00    -0.354 N 
ATOM     21  C   UNL A   1      42.328  28.366  33.356  1.00  0.00     0.074 A 
ATOM     22  C   UNL A   1      41.075  27.871  33.876  1.00  0.00     0.031 C 
ATOM     23  C   UNL A   1      40.553  26.163  27.702  1.00  0.00     0.029 A 
ATOM     24  C   UNL A   1      41.773  25.906  28.455  1.00  0.00     0.049 A 
ATOM     25  H   UNL A   1      42.495  27.016  30.073  1.00  0.00     0.167 HD
ATOM     26  C   UNL A   1      43.586  28.310  33.877  1.00  0.00     0.031 A 
ATOM     27  C   UNL A   1      42.704  24.938  28.278  1.00  0.00     0.031 A 
ATOM     28  C   UNL A   1      44.544  29.030  33.083  1.00  0.00     0.049 A 
ATOM     29  C   UNL A   1      43.932  25.322  29.008  1.00  0.00     0.074 A 
ATOM     30  C   UNL A   1      44.678  30.330  32.636  1.00  0.00     0.029 A 
ATOM     31  N   UNL A   1      45.454  28.297  32.360  1.00  0.00    -0.354 N 
ATOM     32  N   UNL A   1      44.746  26.261  28.626  1.00  0.00    -0.248 NA
ATOM     33  C   UNL A   1      44.123  24.843  30.367  1.00  0.00     0.031 C 
ATOM     34  C   UNL A   1      45.296  30.221  31.354  1.00  0.00     0.029 A 
ATOM     35  C   UNL A   1      45.520  28.864  31.115  1.00  0.00     0.049 A 
ATOM     36  H   UNL A   1      45.960  27.515  32.675  1.00  0.00     0.167 HD
ATOM     37  C   UNL A   1      45.252  26.786  29.803  1.00  0.00     0.074 A 
ATOM     38  C   UNL A   1      44.952  25.786  30.820  1.00  0.00     0.031 C 
ATOM     39  C   UNL A   1      45.608  28.102  29.890  1.00  0.00     0.031 A 
BRANCH  26  40
ATOM     40  C   UNL A   1      44.027  27.310  34.920  1.00  0.00    -0.014 A 
ATOM     41  C   UNL A   1      44.030  25.941  34.590  1.00  0.00     0.009 A 
ATOM     42  C   UNL A   1      44.156  27.630  36.284  1.00  0.00     0.009 A 
ATOM     43  C   UNL A   1      44.077  24.949  35.578  1.00  0.00     0.001 A 
ATOM     44  C   UNL A   1      44.253  26.642  37.269  1.00  0.00     0.001 A 
ATOM     45  C   UNL A   1      44.181  25.301  36.919  1.00  0.00     0.000 A 
ENDBRANCH  26  40
BRANCH  27  46
ATOM     46  C   UNL A   1      42.585  23.612  27.638  1.00  0.00    -0.014 A 
ATOM     47  C   UNL A   1      41.770  22.614  28.198  1.00  0.00     0.009 A 
ATOM     48  C   UNL A   1      43.064  23.411  26.331  1.00  0.00     0.009 A 
ATOM     49  C   UNL A   1      41.414  21.476  27.464  1.00  0.00     0.001 A 
ATOM     50  C   UNL A   1      42.715  22.271  25.600  1.00  0.00     0.001 A 
ATOM     51  C   UNL A   1      41.878  21.312  26.161  1.00  0.00     0.000 A 
ENDBRANCH  27  46
BRANCH  39  52
ATOM     52  C   UNL A   1      45.784  28.884  28.614  1.00  0.00    -0.014 A 
ATOM     53  C   UNL A   1      44.742  29.603  28.002  1.00  0.00     0.009 A 
ATOM     54  C   UNL A   1      47.075  29.001  28.074  1.00  0.00     0.009 A 
ATOM     55  C   UNL A   1      44.975  30.370  26.857  1.00  0.00     0.001 A 
ATOM     56  C   UNL A   1      47.314  29.790  26.947  1.00  0.00     0.001 A 
ATOM     57  C   UNL A   1      46.262  30.465  26.333  1.00  0.00     0.000 A 
ENDBRANCH  39  52
ENDBRANCH  13  14
ENDBRANCH   6   8
ENDBRANCH   3   4
ENDBRANCH   2   3
ENDBRANCH   1   2
BRANCH   1  58
ATOM     58  N   UNL A   1      33.066  28.924  27.294  1.00  0.00    -0.352 N 
ATOM     59  C   UNL A   1      32.532  27.720  26.861  1.00  0.00     0.251 C 
ATOM     60  H   UNL A   1      32.651  29.286  28.109  1.00  0.00     0.163 HD
ATOM     61  O   UNL A   1      31.588  27.217  27.461  1.00  0.00    -0.269 OA
BRANCH  59  62
ATOM     62  C   UNL A   1      33.065  27.057  25.646  1.00  0.00     0.041 A 
ATOM     63  C   UNL A   1      32.502  27.350  24.405  1.00  0.00     0.018 A 
ATOM     64  C   UNL A   1      34.049  26.047  25.775  1.00  0.00     0.036 A 
ATOM     65  C   UNL A   1      32.715  26.449  23.384  1.00  0.00    -0.043 A 
ATOM     66  C   UNL A   1      34.316  25.174  24.700  1.00  0.00     0.092 A 
ATOM     67  C   UNL A   1      33.541  25.324  23.557  1.00  0.00    -0.024 A 
ATOM     68  C   UNL A   1      31.983  26.407  22.075  1.00  0.00     0.036 C 
ATOM     69  C   UNL A   1      33.240  24.362  22.449  1.00  0.00     0.037 C 
ATOM     70  C   UNL A   1      32.761  25.311  21.350  1.00  0.00     0.010 C 
BRANCH  66  71
ATOM     71  S   UNL A   1      35.373  23.761  24.963  1.00  0.00     0.262 S 
ATOM     72  O   UNL A   1      35.550  23.108  23.691  1.00  0.00    -0.201 OA
ATOM     73  O   UNL A   1      36.540  24.214  25.708  1.00  0.00    -0.201 OA
BRANCH  71  74
ATOM     74  N   UNL A   1      34.592  22.586  25.930  1.00  0.00    -0.277 N 
ATOM     75  H   UNL A   1      34.589  22.694  26.909  1.00  0.00     0.180 HD
BRANCH  74  76
ATOM     76  C   UNL A   1      33.941  21.450  25.347  1.00  0.00     0.075 A 
ATOM     77  C   UNL A   1      34.709  20.328  24.992  1.00  0.00     0.042 A 
ATOM     78  C   UNL A   1      32.541  21.377  25.267  1.00  0.00     0.089 A 
ATOM     79  C   UNL A   1      34.090  19.114  24.620  1.00  0.00     0.058 A 
ATOM     80  C   UNL A   1      31.921  20.181  24.869  1.00  0.00     0.031 A 
ATOM     81  C   UNL A   1      32.690  19.062  24.544  1.00  0.00     0.015 A 
BRANCH  78  82
ATOM     82  N   UNL A   1      31.721  22.473  25.633  1.00  0.00    -0.239 N 
ATOM     83  C   UNL A   1      30.909  23.236  24.823  1.00  0.00     0.115 A 
ATOM     84  N   UNL A   1      31.728  22.946  26.906  1.00  0.00    -0.177 NA
ATOM     85  C   UNL A   1      30.550  24.346  25.547  1.00  0.00     0.042 A 
ATOM     86  C   UNL A   1      31.109  24.127  26.815  1.00  0.00     0.135 A 
ENDBRANCH  78  82
BRANCH  79  87
ATOM     87  C   UNL A   1      34.919  17.871  24.389  1.00  0.00     0.416 C 
ATOM     88  F   UNL A   1      36.253  18.098  24.516  1.00  0.00    -0.166 F 
ATOM     89  F   UNL A   1      34.617  16.876  25.269  1.00  0.00    -0.166 F 
ATOM     90  F   UNL A   1      34.744  17.328  23.150  1.00  0.00    -0.166 F 
ENDBRANCH  79  87
ENDBRANCH  74  76
ENDBRANCH  71  74
ENDBRANCH  66  71
ENDBRANCH  59  62
ENDBRANCH   1  58
TORSDOF 15
ENDMDL
MODEL 2
REMARK VINA RESULT:     -12.5      3.842      8.505
REMARK SMILES O=C(NCCCNC(=O)c1cc2c(c(S(=O)(=O)Nc3cc(C(F)(F)F)ccc3-n3cccn3)c1)CCC2)c1ccc(-c2c3nc(c(-c4ccccc4)c4ccc([nH]4)c(-c4ccccc4)c4nc(c(-c5ccccc5)c5ccc2[nH]5)C=C4)C=C3)cc1
REMARK SMILES IDX 6 1 5 2 4 3 3 4 1 5 2 6 38 8 39 9 85 10 40 11 84 12 41 13
REMARK SMILES IDX 42 14 43 15 78 16 44 17 83 18 77 19 79 20 45 21 82 22 76 23
REMARK SMILES IDX 75 24 46 26 68 27 53 28 67 29 54 30 57 31 66 32 80 33 55 34
REMARK SMILES IDX 56 35 65 37 81 38 58 39 47 40 48 41 52 42 49 43 51 44 50 45
REMARK SMILES IDX 69 46 70 47 74 48 71 49 73 50 72 51 59 52 60 53 64 54 61 55
REMARK SMILES IDX 63 56 62 57 7 58 8 59 9 61 10 62 11 63 34 64 12 65 14 66
REMARK SMILES IDX 13 67 37 68 35 69 36 70 15 71 16 72 17 73 18 74 19 76 20 77
REMARK SMILES IDX 28 78 21 79 27 80 26 81 29 82 30 83 33 84 31 85 32 86 22 87
REMARK SMILES IDX 23 88 24 89 25 90
REMARK H PARENT 3 7 79 25 57 36 7 60 18 75
REMARK Flexibility Score: inf
ROOT
ATOM      1  C   UNL A   1      37.674  24.115  26.016  1.00  0.00     0.118 C 
ENDROOT
BRANCH   1   2
ATOM      2  C   UNL A   1      38.766  23.391  26.804  1.00  0.00     0.042 C 
BRANCH   2   3
ATOM      3  C   UNL A   1      39.366  22.161  26.127  1.00  0.00     0.118 C 
BRANCH   3   4
ATOM      4  N   UNL A   1      40.806  22.211  25.946  1.00  0.00    -0.352 N 
ATOM      5  O   UNL A   1      42.949  22.706  25.995  1.00  0.00    -0.269 OA
ATOM      6  C   UNL A   1      41.801  23.120  26.181  1.00  0.00     0.251 C 
ATOM      7  H   UNL A   1      41.155  21.377  25.555  1.00  0.00     0.163 HD
BRANCH   6   8
ATOM      8  C   UNL A   1      41.624  24.543  26.599  1.00  0.00     0.039 A 
ATOM      9  C   UNL A   1      41.235  25.600  25.780  1.00  0.00     0.014 A 
ATOM     10  C   UNL A   1      41.889  24.823  27.958  1.00  0.00     0.014 A 
ATOM     11  C   UNL A   1      41.141  26.900  26.296  1.00  0.00     0.010 A 
ATOM     12  C   UNL A   1      41.789  26.116  28.478  1.00  0.00     0.010 A 
ATOM     13  C   UNL A   1      41.423  27.165  27.643  1.00  0.00    -0.014 A 
BRANCH  13  14
ATOM     14  C   UNL A   1      41.177  28.517  28.153  1.00  0.00     0.031 A 
ATOM     15  C   UNL A   1      42.275  29.505  27.943  1.00  0.00     0.074 A 
ATOM     16  C   UNL A   1      40.013  28.990  28.645  1.00  0.00     0.049 A 
ATOM     17  N   UNL A   1      42.966  30.134  28.838  1.00  0.00    -0.248 NA
ATOM     18  C   UNL A   1      42.659  29.814  26.558  1.00  0.00     0.031 C 
ATOM     19  C   UNL A   1      38.697  28.354  28.633  1.00  0.00     0.029 A 
ATOM     20  N   UNL A   1      39.763  30.221  29.191  1.00  0.00    -0.354 N 
ATOM     21  C   UNL A   1      43.774  31.035  28.145  1.00  0.00     0.074 A 
ATOM     22  C   UNL A   1      43.612  30.729  26.743  1.00  0.00     0.031 C 
ATOM     23  C   UNL A   1      37.757  29.273  28.960  1.00  0.00     0.029 A 
ATOM     24  C   UNL A   1      38.416  30.516  29.333  1.00  0.00     0.049 A 
ATOM     25  H   UNL A   1      40.477  30.843  29.459  1.00  0.00     0.167 HD
ATOM     26  C   UNL A   1      44.389  32.085  28.756  1.00  0.00     0.031 A 
ATOM     27  C   UNL A   1      37.872  31.704  29.694  1.00  0.00     0.031 A 
ATOM     28  C   UNL A   1      44.423  31.948  30.187  1.00  0.00     0.049 A 
ATOM     29  C   UNL A   1      38.911  32.519  30.358  1.00  0.00     0.074 A 
ATOM     30  C   UNL A   1      44.912  31.013  31.077  1.00  0.00     0.029 A 
ATOM     31  N   UNL A   1      43.604  32.767  30.926  1.00  0.00    -0.354 N 
ATOM     32  N   UNL A   1      39.365  32.293  31.555  1.00  0.00    -0.248 NA
ATOM     33  C   UNL A   1      39.688  33.456  29.562  1.00  0.00     0.031 C 
ATOM     34  C   UNL A   1      43.995  31.024  32.171  1.00  0.00     0.029 A 
ATOM     35  C   UNL A   1      43.021  31.982  31.885  1.00  0.00     0.049 A 
ATOM     36  H   UNL A   1      43.463  33.731  30.792  1.00  0.00     0.167 HD
ATOM     37  C   UNL A   1      40.686  32.705  31.514  1.00  0.00     0.074 A 
ATOM     38  C   UNL A   1      40.782  33.540  30.322  1.00  0.00     0.031 C 
ATOM     39  C   UNL A   1      41.637  32.099  32.285  1.00  0.00     0.031 A 
BRANCH  26  40
ATOM     40  C   UNL A   1      44.654  33.415  28.090  1.00  0.00    -0.014 A 
ATOM     41  C   UNL A   1      43.559  34.233  27.747  1.00  0.00     0.009 A 
ATOM     42  C   UNL A   1      45.898  33.760  27.530  1.00  0.00     0.009 A 
ATOM     43  C   UNL A   1      43.689  35.285  26.831  1.00  0.00     0.001 A 
ATOM     44  C   UNL A   1      46.040  34.840  26.653  1.00  0.00     0.001 A 
ATOM     45  C   UNL A   1      44.929  35.583  26.279  1.00  0.00     0.000 A 
ENDBRANCH  26  40
BRANCH  27  46
ATOM     46  C   UNL A   1      36.543  32.270  29.388  1.00  0.00    -0.014 A 
ATOM     47  C   UNL A   1      35.552  32.354  30.380  1.00  0.00     0.009 A 
ATOM     48  C   UNL A   1      36.332  32.973  28.189  1.00  0.00     0.009 A 
ATOM     49  C   UNL A   1      34.410  33.143  30.195  1.00  0.00     0.001 A 
ATOM     50  C   UNL A   1      35.187  33.755  28.001  1.00  0.00     0.001 A 
ATOM     51  C   UNL A   1      34.236  33.853  29.010  1.00  0.00     0.000 A 
ENDBRANCH  27  46
BRANCH  39  52
ATOM     52  C   UNL A   1      41.185  31.233  33.433  1.00  0.00    -0.014 A 
ATOM     53  C   UNL A   1      41.154  29.829  33.371  1.00  0.00     0.009 A 
ATOM     54  C   UNL A   1      40.896  31.849  34.661  1.00  0.00     0.009 A 
ATOM     55  C   UNL A   1      40.794  29.069  34.487  1.00  0.00     0.001 A 
ATOM     56  C   UNL A   1      40.564  31.089  35.784  1.00  0.00     0.001 A 
ATOM     57  C   UNL A   1      40.502  29.700  35.694  1.00  0.00     0.000 A 
ENDBRANCH  39  52
ENDBRANCH  13  14
ENDBRANCH   6   8
ENDBRANCH   3   4
ENDBRANCH   2   3
ENDBRANCH   1   2
BRANCH   1  58
ATOM     58  N   UNL A   1      37.448  23.599  24.666  1.00  0.00    -0.352 N 
ATOM     59  C   UNL A   1      36.282  23.475  23.928  1.00  0.00     0.251 C 
ATOM     60  H   UNL A   1      38.259  23.288  24.204  1.00  0.00     0.163 HD
ATOM     61  O   UNL A   1      36.312  22.968  22.813  1.00  0.00    -0.269 OA
BRANCH  59  62
ATOM     62  C   UNL A   1      34.983  23.911  24.500  1.00  0.00     0.041 A 
ATOM     63  C   UNL A   1      34.518  23.316  25.671  1.00  0.00     0.018 A 
ATOM     64  C   UNL A   1      34.178  24.830  23.785  1.00  0.00     0.036 A 
ATOM     65  C   UNL A   1      33.173  23.425  25.946  1.00  0.00    -0.043 A 
ATOM     66  C   UNL A   1      32.818  24.993  24.119  1.00  0.00     0.092 A 
ATOM     67  C   UNL A   1      32.314  24.181  25.128  1.00  0.00    -0.024 A 
ATOM     68  C   UNL A   1      32.413  22.637  26.972  1.00  0.00     0.036 C 
ATOM     69  C   UNL A   1      30.907  23.770  25.438  1.00  0.00     0.037 C 
ATOM     70  C   UNL A   1      31.044  23.308  26.890  1.00  0.00     0.010 C 
BRANCH  66  71
ATOM     71  S   UNL A   1      31.765  25.964  23.055  1.00  0.00     0.262 S 
ATOM     72  O   UNL A   1      31.967  25.504  21.706  1.00  0.00    -0.201 OA
ATOM     73  O   UNL A   1      30.426  25.951  23.628  1.00  0.00    -0.201 OA
BRANCH  71  74
ATOM     74  N   UNL A   1      32.273  27.597  23.020  1.00  0.00    -0.277 N 
ATOM     75  H   UNL A   1      32.702  27.950  22.207  1.00  0.00     0.180 HD
BRANCH  74  76
ATOM     76  C   UNL A   1      32.087  28.463  24.148  1.00  0.00     0.075 A 
ATOM     77  C   UNL A   1      33.066  28.495  25.156  1.00  0.00     0.042 A 
ATOM     78  C   UNL A   1      31.029  29.385  24.189  1.00  0.00     0.089 A 
ATOM     79  C   UNL A   1      33.034  29.480  26.166  1.00  0.00     0.058 A 
ATOM     80  C   UNL A   1      30.976  30.349  25.210  1.00  0.00     0.031 A 
ATOM     81  C   UNL A   1      31.968  30.391  26.192  1.00  0.00     0.015 A 
BRANCH  78  82
ATOM     82  N   UNL A   1      30.029  29.408  23.186  1.00  0.00    -0.239 N 
ATOM     83  C   UNL A   1      29.937  30.242  22.093  1.00  0.00     0.115 A 
ATOM     84  N   UNL A   1      28.948  28.591  23.270  1.00  0.00    -0.177 NA
ATOM     85  C   UNL A   1      28.671  30.097  21.583  1.00  0.00     0.042 A 
ATOM     86  C   UNL A   1      28.096  29.087  22.368  1.00  0.00     0.135 A 
ENDBRANCH  78  82
BRANCH  79  87
ATOM     87  C   UNL A   1      34.172  29.602  27.155  1.00  0.00     0.416 C 
ATOM     88  F   UNL A   1      35.380  29.745  26.548  1.00  0.00    -0.166 F 
ATOM     89  F   UNL A   1      34.031  30.679  27.976  1.00  0.00    -0.166 F 
ATOM     90  F   UNL A   1      34.288  28.524  27.981  1.00  0.00    -0.166 F 
ENDBRANCH  79  87
ENDBRANCH  74  76
ENDBRANCH  71  74
ENDBRANCH  66  71
ENDBRANCH  59  62
ENDBRANCH   1  58
TORSDOF 15
ENDMDL
MODEL 3
REMARK VINA RESULT:     -12.3      5.315      8.553
REMARK SMILES O=C(NCCCNC(=O)c1cc2c(c(S(=O)(=O)Nc3cc(C(F)(F)F)ccc3-n3cccn3)c1)CCC2)c1ccc(-c2c3nc(c(-c4ccccc4)c4ccc([nH]4)c(-c4ccccc4)c4nc(c(-c5ccccc5)c5ccc2[nH]5)C=C4)C=C3)cc1
REMARK SMILES IDX 6 1 5 2 4 3 3 4 1 5 2 6 38 8 39 9 85 10 40 11 84 12 41 13
REMARK SMILES IDX 42 14 43 15 78 16 44 17 83 18 77 19 79 20 45 21 82 22 76 23
REMARK SMILES IDX 75 24 46 26 68 27 53 28 67 29 54 30 57 31 66 32 80 33 55 34
REMARK SMILES IDX 56 35 65 37 81 38 58 39 47 40 48 41 52 42 49 43 51 44 50 45
REMARK SMILES IDX 69 46 70 47 74 48 71 49 73 50 72 51 59 52 60 53 64 54 61 55
REMARK SMILES IDX 63 56 62 57 7 58 8 59 9 61 10 62 11 63 34 64 12 65 14 66
REMARK SMILES IDX 13 67 37 68 35 69 36 70 15 71 16 72 17 73 18 74 19 76 20 77
REMARK SMILES IDX 28 78 21 79 27 80 26 81 29 82 30 83 33 84 31 85 32 86 22 87
REMARK SMILES IDX 23 88 24 89 25 90
REMARK H PARENT 3 7 79 25 57 36 7 60 18 75
REMARK Flexibility Score: inf
ROOT
ATOM      1  C   UNL A   1      41.465  32.429  34.400  1.00  0.00     0.118 C 
ENDROOT
BRANCH   1   2
ATOM      2  C   UNL A   1      41.473  33.831  33.789  1.00  0.00     0.042 C 
BRANCH   2   3
ATOM      3  C   UNL A   1      40.149  34.301  33.193  1.00  0.00     0.118 C 
BRANCH   3   4
ATOM      4  N   UNL A   1      40.224  34.725  31.807  1.00  0.00    -0.352 N 
ATOM      5  O   UNL A   1      40.307  34.845  29.612  1.00  0.00    -0.269 OA
ATOM      6  C   UNL A   1      40.467  34.124  30.602  1.00  0.00     0.251 C 
ATOM      7  H   UNL A   1      40.057  35.691  31.709  1.00  0.00     0.163 HD
BRANCH   6   8
ATOM      8  C   UNL A   1      40.928  32.721  30.384  1.00  0.00     0.039 A 
ATOM      9  C   UNL A   1      42.243  32.308  30.180  1.00  0.00     0.014 A 
ATOM     10  C   UNL A   1      39.918  31.734  30.382  1.00  0.00     0.014 A 
ATOM     11  C   UNL A   1      42.534  30.956  29.954  1.00  0.00     0.010 A 
ATOM     12  C   UNL A   1      40.205  30.384  30.165  1.00  0.00     0.010 A 
ATOM     13  C   UNL A   1      41.519  29.990  29.938  1.00  0.00    -0.014 A 
BRANCH  13  14
ATOM     14  C   UNL A   1      41.901  28.579  29.831  1.00  0.00     0.031 A 
ATOM     15  C   UNL A   1      42.650  28.015  30.991  1.00  0.00     0.074 A 
ATOM     16  C   UNL A   1      41.513  27.713  28.872  1.00  0.00     0.049 A 
ATOM     17  N   UNL A   1      43.851  27.533  31.009  1.00  0.00    -0.248 NA
ATOM     18  C   UNL A   1      41.977  28.004  32.297  1.00  0.00     0.031 C 
ATOM     19  C   UNL A   1      40.505  27.904  27.830  1.00  0.00     0.029 A 
ATOM     20  N   UNL A   1      41.901  26.410  28.701  1.00  0.00    -0.354 N 
ATOM     21  C   UNL A   1      44.044  27.017  32.289  1.00  0.00     0.074 A 
ATOM     22  C   UNL A   1      42.895  27.417  33.066  1.00  0.00     0.031 C 
ATOM     23  C   UNL A   1      40.217  26.706  27.267  1.00  0.00     0.029 A 
ATOM     24  C   UNL A   1      41.112  25.695  27.812  1.00  0.00     0.049 A 
ATOM     25  H   UNL A   1      42.672  26.015  29.167  1.00  0.00     0.167 HD
ATOM     26  C   UNL A   1      45.052  26.146  32.582  1.00  0.00     0.031 A 
ATOM     27  C   UNL A   1      41.160  24.364  27.564  1.00  0.00     0.031 A 
ATOM     28  C   UNL A   1      46.070  26.120  31.568  1.00  0.00     0.049 A 
ATOM     29  C   UNL A   1      42.464  23.842  28.027  1.00  0.00     0.074 A 
ATOM     30  C   UNL A   1      46.908  27.050  30.986  1.00  0.00     0.029 A 
ATOM     31  N   UNL A   1      46.144  25.007  30.766  1.00  0.00    -0.354 N 
ATOM     32  N   UNL A   1      43.594  24.057  27.421  1.00  0.00    -0.248 NA
ATOM     33  C   UNL A   1      42.568  23.294  29.369  1.00  0.00     0.031 C 
ATOM     34  C   UNL A   1      47.051  26.626  29.630  1.00  0.00     0.029 A 
ATOM     35  C   UNL A   1      46.310  25.453  29.483  1.00  0.00     0.049 A 
ATOM     36  H   UNL A   1      46.088  24.069  31.059  1.00  0.00     0.167 HD
ATOM     37  C   UNL A   1      44.536  24.086  28.436  1.00  0.00     0.074 A 
ATOM     38  C   UNL A   1      43.875  23.467  29.579  1.00  0.00     0.031 C 
ATOM     39  C   UNL A   1      45.654  24.864  28.337  1.00  0.00     0.031 A 
BRANCH  26  40
ATOM     40  C   UNL A   1      44.950  25.052  33.619  1.00  0.00    -0.014 A 
ATOM     41  C   UNL A   1      44.169  23.915  33.332  1.00  0.00     0.009 A 
ATOM     42  C   UNL A   1      45.344  25.225  34.959  1.00  0.00     0.009 A 
ATOM     43  C   UNL A   1      43.741  23.046  34.344  1.00  0.00     0.001 A 
ATOM     44  C   UNL A   1      44.959  24.332  35.964  1.00  0.00     0.001 A 
ATOM     45  C   UNL A   1      44.130  23.260  35.661  1.00  0.00     0.000 A 
ENDBRANCH  26  40
BRANCH  27  46
ATOM     46  C   UNL A   1      40.104  23.451  27.081  1.00  0.00    -0.014 A 
ATOM     47  C   UNL A   1      38.877  23.953  26.618  1.00  0.00     0.009 A 
ATOM     48  C   UNL A   1      40.399  22.100  26.826  1.00  0.00     0.009 A 
ATOM     49  C   UNL A   1      37.995  23.144  25.891  1.00  0.00     0.001 A 
ATOM     50  C   UNL A   1      39.514  21.290  26.107  1.00  0.00     0.001 A 
ATOM     51  C   UNL A   1      38.321  21.816  25.626  1.00  0.00     0.000 A 
ENDBRANCH  27  46
BRANCH  39  52
ATOM     52  C   UNL A   1      46.033  25.406  26.983  1.00  0.00    -0.014 A 
ATOM     53  C   UNL A   1      45.454  26.560  26.427  1.00  0.00     0.009 A 
ATOM     54  C   UNL A   1      47.099  24.803  26.296  1.00  0.00     0.009 A 
ATOM     55  C   UNL A   1      45.891  27.062  25.198  1.00  0.00     0.001 A 
ATOM     56  C   UNL A   1      47.556  25.320  25.082  1.00  0.00     0.001 A 
ATOM     57  C   UNL A   1      46.944  26.442  24.528  1.00  0.00     0.000 A 
ENDBRANCH  39  52
ENDBRANCH  13  14
ENDBRANCH   6   8
ENDBRANCH   3   4
ENDBRANCH   2   3
ENDBRANCH   1   2
BRANCH   1  58
ATOM     58  N   UNL A   1      40.900  32.349  35.746  1.00  0.00    -0.352 N 
ATOM     59  C   UNL A   1      39.623  32.025  36.174  1.00  0.00     0.251 C 
ATOM     60  H   UNL A   1      41.532  32.563  36.470  1.00  0.00     0.163 HD
ATOM     61  O   UNL A   1      39.347  32.062  37.368  1.00  0.00    -0.269 OA
BRANCH  59  62
ATOM     62  C   UNL A   1      38.569  31.676  35.190  1.00  0.00     0.041 A 
ATOM     63  C   UNL A   1      38.516  30.383  34.674  1.00  0.00     0.018 A 
ATOM     64  C   UNL A   1      37.712  32.689  34.695  1.00  0.00     0.036 A 
ATOM     65  C   UNL A   1      37.826  30.198  33.496  1.00  0.00    -0.043 A 
ATOM     66  C   UNL A   1      36.950  32.468  33.529  1.00  0.00     0.092 A 
ATOM     67  C   UNL A   1      37.124  31.251  32.881  1.00  0.00    -0.024 A 
ATOM     68  C   UNL A   1      37.878  28.980  32.622  1.00  0.00     0.036 C 
ATOM     69  C   UNL A   1      36.849  30.852  31.464  1.00  0.00     0.037 C 
ATOM     70  C   UNL A   1      36.812  29.327  31.585  1.00  0.00     0.010 C 
BRANCH  66  71
ATOM     71  S   UNL A   1      36.073  33.832  32.785  1.00  0.00     0.262 S 
ATOM     72  O   UNL A   1      35.645  34.705  33.847  1.00  0.00    -0.201 OA
ATOM     73  O   UNL A   1      36.904  34.358  31.711  1.00  0.00    -0.201 OA
BRANCH  71  74
ATOM     74  N   UNL A   1      34.614  33.301  32.068  1.00  0.00    -0.277 N 
ATOM     75  H   UNL A   1      33.902  32.932  32.640  1.00  0.00     0.180 HD
BRANCH  74  76
ATOM     76  C   UNL A   1      34.404  33.381  30.651  1.00  0.00     0.075 A 
ATOM     77  C   UNL A   1      34.805  32.307  29.838  1.00  0.00     0.042 A 
ATOM     78  C   UNL A   1      33.671  34.436  30.084  1.00  0.00     0.089 A 
ATOM     79  C   UNL A   1      34.426  32.247  28.479  1.00  0.00     0.058 A 
ATOM     80  C   UNL A   1      33.317  34.395  28.725  1.00  0.00     0.031 A 
ATOM     81  C   UNL A   1      33.696  33.312  27.930  1.00  0.00     0.015 A 
BRANCH  78  82
ATOM     82  N   UNL A   1      33.225  35.530  30.865  1.00  0.00    -0.239 N 
ATOM     83  C   UNL A   1      33.531  36.865  30.714  1.00  0.00     0.115 A 
ATOM     84  N   UNL A   1      32.455  35.326  31.965  1.00  0.00    -0.177 NA
ATOM     85  C   UNL A   1      33.120  37.503  31.857  1.00  0.00     0.042 A 
ATOM     86  C   UNL A   1      32.490  36.498  32.606  1.00  0.00     0.135 A 
ENDBRANCH  78  82
BRANCH  79  87
ATOM     87  C   UNL A   1      34.731  31.018  27.652  1.00  0.00     0.416 C 
ATOM     88  F   UNL A   1      33.974  30.944  26.525  1.00  0.00    -0.166 F 
ATOM     89  F   UNL A   1      36.028  30.978  27.241  1.00  0.00    -0.166 F 
ATOM     90  F   UNL A   1      34.523  29.850  28.324  1.00  0.00    -0.166 F 
ENDBRANCH  79  87
ENDBRANCH  74  76
ENDBRANCH  71  74
ENDBRANCH  66  71
ENDBRANCH  59  62
ENDBRANCH   1  58
TORSDOF 15
ENDMDL
