MODEL 1
REMARK VINA RESULT:     -11.8      0.000      0.000
REMARK SMILES O=C(NCCCNC(=O)c1ccc(-c2c3nc(c(-c4ccccc4)c4ccc([nH]4)c(-c4ccccc4)c4nc(c(-c5ccccc5)c5ccc2[nH]5)C=C4)C=C3)cc1)c1ccc(NC(=O)c2cc(F)cc(Br)c2)cc1
REMARK SMILES IDX 5 1 4 2 3 3 1 4 2 5 58 7 59 8 74 9 60 10 73 11 61 12 62 13
REMARK SMILES IDX 63 14 64 16 65 17 66 18 72 19 67 20 70 21 68 22 69 23 71 24
REMARK SMILES IDX 6 25 7 26 8 27 9 29 10 30 11 31 57 32 12 33 56 34 13 35
REMARK SMILES IDX 14 36 15 37 50 38 16 39 55 40 49 41 51 42 17 43 54 44 48 45
REMARK SMILES IDX 47 46 18 48 40 49 25 50 39 51 26 52 29 53 38 54 52 55 27 56
REMARK SMILES IDX 28 57 37 59 53 60 30 61 19 62 20 63 24 64 21 65 23 66 22 67
REMARK SMILES IDX 41 68 42 69 46 70 43 71 45 72 44 73 31 74 32 75 36 76 33 77
REMARK SMILES IDX 35 78 34 79
REMARK H PARENT 3 6 62 15 7 28 51 47 29 58
REMARK Flexibility Score: inf
ROOT
ATOM      1  C   UNL A   1      37.690  19.674  25.066  1.00  0.00     0.042 C 
ENDROOT
BRANCH   1   2
ATOM      2  C   UNL A   1      36.598  20.688  24.785  1.00  0.00     0.118 C 
BRANCH   2   3
ATOM      3  N   UNL A   1      37.025  21.763  23.893  1.00  0.00    -0.352 N 
ATOM      4  O   UNL A   1      36.838  23.604  22.597  1.00  0.00    -0.269 OA
ATOM      5  C   UNL A   1      36.356  22.893  23.475  1.00  0.00     0.251 C 
ATOM      6  H   UNL A   1      37.937  21.666  23.534  1.00  0.00     0.163 HD
BRANCH   5   7
ATOM      7  C   UNL A   1      35.047  23.242  24.070  1.00  0.00     0.039 A 
ATOM      8  C   UNL A   1      34.997  24.011  25.223  1.00  0.00     0.016 A 
ATOM      9  C   UNL A   1      33.859  22.773  23.511  1.00  0.00     0.016 A 
ATOM     10  C   UNL A   1      33.807  24.125  25.925  1.00  0.00     0.027 A 
ATOM     11  C   UNL A   1      32.637  23.020  24.159  1.00  0.00     0.027 A 
ATOM     12  C   UNL A   1      32.600  23.693  25.389  1.00  0.00     0.041 A 
BRANCH  12  13
ATOM     13  N   UNL A   1      31.346  23.885  26.004  1.00  0.00    -0.322 N 
ATOM     14  C   UNL A   1      30.518  24.983  26.141  1.00  0.00     0.255 C 
ATOM     15  H   UNL A   1      30.986  23.070  26.423  1.00  0.00     0.170 HD
ATOM     16  O   UNL A   1      29.502  24.910  26.830  1.00  0.00    -0.269 OA
BRANCH  14  17
ATOM     17  C   UNL A   1      30.820  26.274  25.501  1.00  0.00     0.044 A 
ATOM     18  C   UNL A   1      30.243  26.545  24.258  1.00  0.00     0.053 A 
ATOM     19  C   UNL A   1      31.572  27.250  26.171  1.00  0.00     0.029 A 
ATOM     20  C   UNL A   1      30.343  27.829  23.736  1.00  0.00     0.125 A 
ATOM     21  C   UNL A   1      31.626  28.541  25.640  1.00  0.00     0.021 A 
ATOM     22  F   UNL A   1      29.741  28.115  22.576  1.00  0.00    -0.207 F 
ATOM     23  C   UNL A   1      31.007  28.839  24.426  1.00  0.00     0.055 A 
ATOM     24  Br  UNL A   1      32.428  29.929  26.642  1.00  0.00    -0.051 Br
ENDBRANCH  14  17
ENDBRANCH  12  13
ENDBRANCH   5   7
ENDBRANCH   2   3
ENDBRANCH   1   2
BRANCH   1  25
ATOM     25  C   UNL A   1      38.915  20.269  25.733  1.00  0.00     0.118 C 
BRANCH  25  26
ATOM     26  N   UNL A   1      40.042  19.344  25.772  1.00  0.00    -0.352 N 
ATOM     27  C   UNL A   1      41.369  19.560  26.062  1.00  0.00     0.251 C 
ATOM     28  H   UNL A   1      39.816  18.411  25.554  1.00  0.00     0.163 HD
ATOM     29  O   UNL A   1      42.185  18.665  25.863  1.00  0.00    -0.269 OA
BRANCH  27  30
ATOM     30  C   UNL A   1      41.822  20.869  26.580  1.00  0.00     0.039 A 
ATOM     31  C   UNL A   1      42.297  21.827  25.680  1.00  0.00     0.014 A 
ATOM     32  C   UNL A   1      41.789  21.156  27.945  1.00  0.00     0.014 A 
ATOM     33  C   UNL A   1      42.651  23.098  26.142  1.00  0.00     0.010 A 
ATOM     34  C   UNL A   1      42.034  22.450  28.388  1.00  0.00     0.010 A 
ATOM     35  C   UNL A   1      42.474  23.434  27.493  1.00  0.00    -0.014 A 
BRANCH  35  36
ATOM     36  C   UNL A   1      42.747  24.801  28.001  1.00  0.00     0.031 A 
ATOM     37  C   UNL A   1      44.136  25.176  28.444  1.00  0.00     0.074 A 
ATOM     38  C   UNL A   1      41.732  25.674  28.152  1.00  0.00     0.049 A 
ATOM     39  N   UNL A   1      44.550  26.277  29.018  1.00  0.00    -0.248 NA
ATOM     40  C   UNL A   1      45.191  24.168  28.247  1.00  0.00     0.031 C 
ATOM     41  C   UNL A   1      40.330  25.418  27.809  1.00  0.00     0.029 A 
ATOM     42  N   UNL A   1      41.724  26.954  28.645  1.00  0.00    -0.354 N 
ATOM     43  C   UNL A   1      45.899  26.080  29.279  1.00  0.00     0.074 A 
ATOM     44  C   UNL A   1      46.226  24.741  28.842  1.00  0.00     0.031 C 
ATOM     45  C   UNL A   1      39.605  26.517  28.076  1.00  0.00     0.029 A 
ATOM     46  C   UNL A   1      40.480  27.536  28.645  1.00  0.00     0.049 A 
ATOM     47  H   UNL A   1      42.533  27.412  28.968  1.00  0.00     0.167 HD
ATOM     48  C   UNL A   1      46.795  26.943  29.816  1.00  0.00     0.031 A 
ATOM     49  C   UNL A   1      40.085  28.754  29.062  1.00  0.00     0.031 A 
ATOM     50  C   UNL A   1      46.482  28.286  30.219  1.00  0.00     0.049 A 
ATOM     51  C   UNL A   1      41.101  29.699  29.635  1.00  0.00     0.074 A 
ATOM     52  C   UNL A   1      47.334  29.260  30.708  1.00  0.00     0.029 A 
ATOM     53  N   UNL A   1      45.215  28.846  30.172  1.00  0.00    -0.354 N 
ATOM     54  N   UNL A   1      42.385  29.518  29.820  1.00  0.00    -0.248 NA
ATOM     55  C   UNL A   1      40.611  31.023  30.048  1.00  0.00     0.031 C 
ATOM     56  C   UNL A   1      46.576  30.401  30.991  1.00  0.00     0.029 A 
ATOM     57  C   UNL A   1      45.260  30.148  30.638  1.00  0.00     0.049 A 
ATOM     58  H   UNL A   1      44.404  28.386  29.855  1.00  0.00     0.167 HD
ATOM     59  C   UNL A   1      42.863  30.710  30.348  1.00  0.00     0.074 A 
ATOM     60  C   UNL A   1      41.732  31.611  30.441  1.00  0.00     0.031 C 
ATOM     61  C   UNL A   1      44.125  31.030  30.722  1.00  0.00     0.031 A 
BRANCH  48  62
ATOM     62  C   UNL A   1      48.203  26.451  29.994  1.00  0.00    -0.014 A 
ATOM     63  C   UNL A   1      49.164  26.619  28.985  1.00  0.00     0.009 A 
ATOM     64  C   UNL A   1      48.581  25.837  31.198  1.00  0.00     0.009 A 
ATOM     65  C   UNL A   1      50.466  26.148  29.163  1.00  0.00     0.001 A 
ATOM     66  C   UNL A   1      49.891  25.391  31.384  1.00  0.00     0.001 A 
ATOM     67  C   UNL A   1      50.830  25.539  30.364  1.00  0.00     0.000 A 
ENDBRANCH  48  62
BRANCH  49  68
ATOM     68  C   UNL A   1      38.662  29.157  28.934  1.00  0.00    -0.014 A 
ATOM     69  C   UNL A   1      37.790  29.025  30.027  1.00  0.00     0.009 A 
ATOM     70  C   UNL A   1      38.168  29.672  27.727  1.00  0.00     0.009 A 
ATOM     71  C   UNL A   1      36.445  29.381  29.903  1.00  0.00     0.001 A 
ATOM     72  C   UNL A   1      36.828  30.049  27.615  1.00  0.00     0.001 A 
ATOM     73  C   UNL A   1      35.966  29.896  28.700  1.00  0.00     0.000 A 
ENDBRANCH  49  68
BRANCH  61  74
ATOM     74  C   UNL A   1      44.355  32.421  31.233  1.00  0.00    -0.014 A 
ATOM     75  C   UNL A   1      44.272  32.714  32.602  1.00  0.00     0.009 A 
ATOM     76  C   UNL A   1      44.697  33.444  30.334  1.00  0.00     0.009 A 
ATOM     77  C   UNL A   1      44.501  34.014  33.058  1.00  0.00     0.001 A 
ATOM     78  C   UNL A   1      44.948  34.736  30.796  1.00  0.00     0.001 A 
ATOM     79  C   UNL A   1      44.842  35.022  32.157  1.00  0.00     0.000 A 
ENDBRANCH  61  74
ENDBRANCH  35  36
ENDBRANCH  27  30
ENDBRANCH  25  26
ENDBRANCH   1  25
TORSDOF 12
ENDMDL
MODEL 2
REMARK VINA RESULT:     -11.8      2.591      7.689
REMARK SMILES O=C(NCCCNC(=O)c1ccc(-c2c3nc(c(-c4ccccc4)c4ccc([nH]4)c(-c4ccccc4)c4nc(c(-c5ccccc5)c5ccc2[nH]5)C=C4)C=C3)cc1)c1ccc(NC(=O)c2cc(F)cc(Br)c2)cc1
REMARK SMILES IDX 5 1 4 2 3 3 1 4 2 5 58 7 59 8 74 9 60 10 73 11 61 12 62 13
REMARK SMILES IDX 63 14 64 16 65 17 66 18 72 19 67 20 70 21 68 22 69 23 71 24
REMARK SMILES IDX 6 25 7 26 8 27 9 29 10 30 11 31 57 32 12 33 56 34 13 35
REMARK SMILES IDX 14 36 15 37 50 38 16 39 55 40 49 41 51 42 17 43 54 44 48 45
REMARK SMILES IDX 47 46 18 48 40 49 25 50 39 51 26 52 29 53 38 54 52 55 27 56
REMARK SMILES IDX 28 57 37 59 53 60 30 61 19 62 20 63 24 64 21 65 23 66 22 67
REMARK SMILES IDX 41 68 42 69 46 70 43 71 45 72 44 73 31 74 32 75 36 76 33 77
REMARK SMILES IDX 35 78 34 79
REMARK H PARENT 3 6 62 15 7 28 51 47 29 58
REMARK Flexibility Score: inf
ROOT
ATOM      1  C   UNL A   1      32.306  28.867  26.359  1.00  0.00     0.042 C 
ENDROOT
BRANCH   1   2
ATOM      2  C   UNL A   1      32.466  29.443  24.966  1.00  0.00     0.118 C 
BRANCH   2   3
ATOM      3  N   UNL A   1      31.193  29.704  24.300  1.00  0.00    -0.352 N 
ATOM      4  O   UNL A   1      29.428  29.328  22.941  1.00  0.00    -0.269 OA
ATOM      5  C   UNL A   1      30.395  28.872  23.545  1.00  0.00     0.251 C 
ATOM      6  H   UNL A   1      30.850  30.621  24.407  1.00  0.00     0.163 HD
BRANCH   5   7
ATOM      7  C   UNL A   1      30.712  27.430  23.447  1.00  0.00     0.039 A 
ATOM      8  C   UNL A   1      31.614  26.986  22.492  1.00  0.00     0.016 A 
ATOM      9  C   UNL A   1      30.085  26.501  24.278  1.00  0.00     0.016 A 
ATOM     10  C   UNL A   1      31.723  25.631  22.224  1.00  0.00     0.027 A 
ATOM     11  C   UNL A   1      30.316  25.129  24.089  1.00  0.00     0.027 A 
ATOM     12  C   UNL A   1      31.134  24.675  23.043  1.00  0.00     0.041 A 
BRANCH  12  13
ATOM     13  N   UNL A   1      31.304  23.284  22.887  1.00  0.00    -0.322 N 
ATOM     14  C   UNL A   1      32.092  22.350  23.532  1.00  0.00     0.255 C 
ATOM     15  H   UNL A   1      30.747  22.899  22.172  1.00  0.00     0.170 HD
ATOM     16  O   UNL A   1      32.134  21.190  23.124  1.00  0.00    -0.269 OA
BRANCH  14  17
ATOM     17  C   UNL A   1      32.922  22.697  24.697  1.00  0.00     0.044 A 
ATOM     18  C   UNL A   1      32.412  22.435  25.971  1.00  0.00     0.053 A 
ATOM     19  C   UNL A   1      34.232  23.171  24.531  1.00  0.00     0.029 A 
ATOM     20  C   UNL A   1      33.254  22.559  27.069  1.00  0.00     0.125 A 
ATOM     21  C   UNL A   1      35.065  23.252  25.649  1.00  0.00     0.021 A 
ATOM     22  F   UNL A   1      32.793  22.250  28.287  1.00  0.00    -0.207 F 
ATOM     23  C   UNL A   1      34.584  22.939  26.920  1.00  0.00     0.055 A 
ATOM     24  Br  UNL A   1      36.898  23.655  25.420  1.00  0.00    -0.051 Br
ENDBRANCH  14  17
ENDBRANCH  12  13
ENDBRANCH   5   7
ENDBRANCH   2   3
ENDBRANCH   1   2
BRANCH   1  25
ATOM     25  C   UNL A   1      33.528  29.051  27.238  1.00  0.00     0.118 C 
BRANCH  25  26
ATOM     26  N   UNL A   1      33.625  30.393  27.799  1.00  0.00    -0.352 N 
ATOM     27  C   UNL A   1      34.639  31.001  28.499  1.00  0.00     0.251 C 
ATOM     28  H   UNL A   1      32.831  30.957  27.653  1.00  0.00     0.163 HD
ATOM     29  O   UNL A   1      34.440  32.088  29.035  1.00  0.00    -0.269 OA
BRANCH  27  30
ATOM     30  C   UNL A   1      35.956  30.343  28.638  1.00  0.00     0.039 A 
ATOM     31  C   UNL A   1      36.838  30.353  27.553  1.00  0.00     0.014 A 
ATOM     32  C   UNL A   1      36.327  29.712  29.826  1.00  0.00     0.014 A 
ATOM     33  C   UNL A   1      38.118  29.810  27.694  1.00  0.00     0.010 A 
ATOM     34  C   UNL A   1      37.633  29.273  30.000  1.00  0.00     0.010 A 
ATOM     35  C   UNL A   1      38.542  29.312  28.935  1.00  0.00    -0.014 A 
BRANCH  35  36
ATOM     36  C   UNL A   1      39.925  28.817  29.148  1.00  0.00     0.031 A 
ATOM     37  C   UNL A   1      40.973  29.734  29.719  1.00  0.00     0.074 A 
ATOM     38  C   UNL A   1      40.262  27.576  28.744  1.00  0.00     0.049 A 
ATOM     39  N   UNL A   1      42.255  29.525  29.876  1.00  0.00    -0.248 NA
ATOM     40  C   UNL A   1      40.527  31.073  30.137  1.00  0.00     0.031 C 
ATOM     41  C   UNL A   1      39.353  26.605  28.129  1.00  0.00     0.029 A 
ATOM     42  N   UNL A   1      41.468  26.924  28.782  1.00  0.00    -0.354 N 
ATOM     43  C   UNL A   1      42.771  30.714  30.376  1.00  0.00     0.074 A 
ATOM     44  C   UNL A   1      41.674  31.652  30.457  1.00  0.00     0.031 C 
ATOM     45  C   UNL A   1      40.029  25.472  27.874  1.00  0.00     0.029 A 
ATOM     46  C   UNL A   1      41.422  25.651  28.269  1.00  0.00     0.049 A 
ATOM     47  H   UNL A   1      42.289  27.330  29.143  1.00  0.00     0.167 HD
ATOM     48  C   UNL A   1      44.040  30.995  30.756  1.00  0.00     0.031 A 
ATOM     49  C   UNL A   1      42.394  24.731  28.125  1.00  0.00     0.031 A 
ATOM     50  C   UNL A   1      45.125  30.054  30.710  1.00  0.00     0.049 A 
ATOM     51  C   UNL A   1      43.789  25.061  28.572  1.00  0.00     0.074 A 
ATOM     52  C   UNL A   1      46.430  30.221  31.138  1.00  0.00     0.029 A 
ATOM     53  N   UNL A   1      45.027  28.765  30.212  1.00  0.00    -0.354 N 
ATOM     54  N   UNL A   1      44.247  26.170  29.098  1.00  0.00    -0.248 NA
ATOM     55  C   UNL A   1      44.799  24.004  28.412  1.00  0.00     0.031 C 
ATOM     56  C   UNL A   1      47.133  29.043  30.866  1.00  0.00     0.029 A 
ATOM     57  C   UNL A   1      46.253  28.130  30.308  1.00  0.00     0.049 A 
ATOM     58  H   UNL A   1      44.207  28.360  29.845  1.00  0.00     0.167 HD
ATOM     59  C   UNL A   1      45.592  25.938  29.356  1.00  0.00     0.074 A 
ATOM     60  C   UNL A   1      45.871  24.579  28.939  1.00  0.00     0.031 C 
ATOM     61  C   UNL A   1      46.512  26.777  29.890  1.00  0.00     0.031 A 
BRANCH  48  62
ATOM     62  C   UNL A   1      44.318  32.384  31.257  1.00  0.00    -0.014 A 
ATOM     63  C   UNL A   1      44.697  33.410  30.378  1.00  0.00     0.009 A 
ATOM     64  C   UNL A   1      44.171  32.676  32.621  1.00  0.00     0.009 A 
ATOM     65  C   UNL A   1      44.960  34.693  30.861  1.00  0.00     0.001 A 
ATOM     66  C   UNL A   1      44.409  33.967  33.098  1.00  0.00     0.001 A 
ATOM     67  C   UNL A   1      44.812  34.971  32.220  1.00  0.00     0.000 A 
ENDBRANCH  48  62
BRANCH  49  68
ATOM     68  C   UNL A   1      42.077  23.400  27.548  1.00  0.00    -0.014 A 
ATOM     69  C   UNL A   1      41.509  22.399  28.353  1.00  0.00     0.009 A 
ATOM     70  C   UNL A   1      42.337  23.122  26.198  1.00  0.00     0.009 A 
ATOM     71  C   UNL A   1      41.231  21.139  27.822  1.00  0.00     0.001 A 
ATOM     72  C   UNL A   1      42.035  21.867  25.665  1.00  0.00     0.001 A 
ATOM     73  C   UNL A   1      41.490  20.875  26.478  1.00  0.00     0.000 A 
ENDBRANCH  49  68
BRANCH  61  74
ATOM     74  C   UNL A   1      47.897  26.236  30.084  1.00  0.00    -0.014 A 
ATOM     75  C   UNL A   1      48.827  26.226  29.033  1.00  0.00     0.009 A 
ATOM     76  C   UNL A   1      48.289  25.766  31.348  1.00  0.00     0.009 A 
ATOM     77  C   UNL A   1      50.115  25.729  29.239  1.00  0.00     0.001 A 
ATOM     78  C   UNL A   1      49.584  25.292  31.555  1.00  0.00     0.001 A 
ATOM     79  C   UNL A   1      50.494  25.267  30.498  1.00  0.00     0.000 A 
ENDBRANCH  61  74
ENDBRANCH  35  36
ENDBRANCH  27  30
ENDBRANCH  25  26
ENDBRANCH   1  25
TORSDOF 12
ENDMDL
MODEL 3
REMARK VINA RESULT:     -11.7      3.651      8.968
REMARK SMILES O=C(NCCCNC(=O)c1ccc(-c2c3nc(c(-c4ccccc4)c4ccc([nH]4)c(-c4ccccc4)c4nc(c(-c5ccccc5)c5ccc2[nH]5)C=C4)C=C3)cc1)c1ccc(NC(=O)c2cc(F)cc(Br)c2)cc1
REMARK SMILES IDX 5 1 4 2 3 3 1 4 2 5 58 7 59 8 74 9 60 10 73 11 61 12 62 13
REMARK SMILES IDX 63 14 64 16 65 17 66 18 72 19 67 20 70 21 68 22 69 23 71 24
REMARK SMILES IDX 6 25 7 26 8 27 9 29 10 30 11 31 57 32 12 33 56 34 13 35
REMARK SMILES IDX 14 36 15 37 50 38 16 39 55 40 49 41 51 42 17 43 54 44 48 45
REMARK SMILES IDX 47 46 18 48 40 49 25 50 39 51 26 52 29 53 38 54 52 55 27 56
REMARK SMILES IDX 28 57 37 59 53 60 30 61 19 62 20 63 24 64 21 65 23 66 22 67
REMARK SMILES IDX 41 68 42 69 46 70 43 71 45 72 44 73 31 74 32 75 36 76 33 77
REMARK SMILES IDX 35 78 34 79
REMARK H PARENT 3 6 62 15 7 28 51 47 29 58
REMARK Flexibility Score: inf
ROOT
ATOM      1  C   UNL A   1      31.434  32.018  26.505  1.00  0.00     0.042 C 
ENDROOT
BRANCH   1   2
ATOM      2  C   UNL A   1      31.579  30.601  25.987  1.00  0.00     0.118 C 
BRANCH   2   3
ATOM      3  N   UNL A   1      31.706  29.607  27.050  1.00  0.00    -0.352 N 
ATOM      4  O   UNL A   1      31.779  27.560  28.001  1.00  0.00    -0.269 OA
ATOM      5  C   UNL A   1      31.837  28.237  26.979  1.00  0.00     0.251 C 
ATOM      6  H   UNL A   1      31.697  29.975  27.963  1.00  0.00     0.163 HD
BRANCH   5   7
ATOM      7  C   UNL A   1      32.031  27.579  25.668  1.00  0.00     0.039 A 
ATOM      8  C   UNL A   1      30.943  27.032  25.004  1.00  0.00     0.016 A 
ATOM      9  C   UNL A   1      33.302  27.463  25.106  1.00  0.00     0.016 A 
ATOM     10  C   UNL A   1      31.147  26.199  23.915  1.00  0.00     0.027 A 
ATOM     11  C   UNL A   1      33.475  26.733  23.918  1.00  0.00     0.027 A 
ATOM     12  C   UNL A   1      32.393  26.078  23.313  1.00  0.00     0.041 A 
BRANCH  12  13
ATOM     13  N   UNL A   1      32.637  25.337  22.138  1.00  0.00    -0.322 N 
ATOM     14  C   UNL A   1      33.201  24.098  21.901  1.00  0.00     0.255 C 
ATOM     15  H   UNL A   1      32.346  25.798  21.317  1.00  0.00     0.170 HD
ATOM     16  O   UNL A   1      33.397  23.719  20.748  1.00  0.00    -0.269 OA
BRANCH  14  17
ATOM     17  C   UNL A   1      33.609  23.203  22.996  1.00  0.00     0.044 A 
ATOM     18  C   UNL A   1      32.704  22.227  23.420  1.00  0.00     0.053 A 
ATOM     19  C   UNL A   1      34.908  23.253  23.520  1.00  0.00     0.029 A 
ATOM     20  C   UNL A   1      33.140  21.244  24.300  1.00  0.00     0.125 A 
ATOM     21  C   UNL A   1      35.330  22.232  24.375  1.00  0.00     0.021 A 
ATOM     22  F   UNL A   1      32.299  20.268  24.664  1.00  0.00    -0.207 F 
ATOM     23  C   UNL A   1      34.453  21.220  24.763  1.00  0.00     0.055 A 
ATOM     24  Br  UNL A   1      37.143  22.146  24.901  1.00  0.00    -0.051 Br
ENDBRANCH  14  17
ENDBRANCH  12  13
ENDBRANCH   5   7
ENDBRANCH   2   3
ENDBRANCH   1   2
BRANCH   1  25
ATOM     25  C   UNL A   1      32.669  32.534  27.217  1.00  0.00     0.118 C 
BRANCH  25  26
ATOM     26  N   UNL A   1      32.517  33.905  27.690  1.00  0.00    -0.352 N 
ATOM     27  C   UNL A   1      33.255  34.626  28.599  1.00  0.00     0.251 C 
ATOM     28  H   UNL A   1      31.761  34.395  27.294  1.00  0.00     0.163 HD
ATOM     29  O   UNL A   1      32.843  35.717  28.984  1.00  0.00    -0.269 OA
BRANCH  27  30
ATOM     30  C   UNL A   1      34.521  34.085  29.139  1.00  0.00     0.039 A 
ATOM     31  C   UNL A   1      34.489  33.333  30.318  1.00  0.00     0.014 A 
ATOM     32  C   UNL A   1      35.737  34.317  28.498  1.00  0.00     0.014 A 
ATOM     33  C   UNL A   1      35.662  32.744  30.797  1.00  0.00     0.010 A 
ATOM     34  C   UNL A   1      36.879  33.642  28.911  1.00  0.00     0.010 A 
ATOM     35  C   UNL A   1      36.857  32.853  30.068  1.00  0.00    -0.014 A 
BRANCH  35  36
ATOM     36  C   UNL A   1      38.099  32.161  30.494  1.00  0.00     0.031 A 
ATOM     37  C   UNL A   1      39.017  32.811  31.494  1.00  0.00     0.074 A 
ATOM     38  C   UNL A   1      38.448  30.996  29.915  1.00  0.00     0.049 A 
ATOM     39  N   UNL A   1      40.196  32.421  31.907  1.00  0.00    -0.248 NA
ATOM     40  C   UNL A   1      38.565  34.083  32.082  1.00  0.00     0.031 C 
ATOM     41  C   UNL A   1      37.673  30.286  28.895  1.00  0.00     0.029 A 
ATOM     42  N   UNL A   1      39.556  30.209  30.097  1.00  0.00    -0.354 N 
ATOM     43  C   UNL A   1      40.638  33.414  32.772  1.00  0.00     0.074 A 
ATOM     44  C   UNL A   1      39.623  34.443  32.793  1.00  0.00     0.031 C 
ATOM     45  C   UNL A   1      38.315  29.153  28.563  1.00  0.00     0.029 A 
ATOM     46  C   UNL A   1      39.564  29.080  29.315  1.00  0.00     0.049 A 
ATOM     47  H   UNL A   1      40.278  30.431  30.729  1.00  0.00     0.167 HD
ATOM     48  C   UNL A   1      41.778  33.457  33.502  1.00  0.00     0.031 A 
ATOM     49  C   UNL A   1      40.477  28.097  29.208  1.00  0.00     0.031 A 
ATOM     50  C   UNL A   1      42.773  32.420  33.511  1.00  0.00     0.049 A 
ATOM     51  C   UNL A   1      41.723  28.157  30.043  1.00  0.00     0.074 A 
ATOM     52  C   UNL A   1      43.927  32.338  34.269  1.00  0.00     0.029 A 
ATOM     53  N   UNL A   1      42.725  31.278  32.727  1.00  0.00    -0.354 N 
ATOM     54  N   UNL A   1      42.098  29.074  30.901  1.00  0.00    -0.248 NA
ATOM     55  C   UNL A   1      42.669  27.040  29.900  1.00  0.00     0.031 C 
ATOM     56  C   UNL A   1      44.598  31.162  33.918  1.00  0.00     0.029 A 
ATOM     57  C   UNL A   1      43.838  30.493  32.972  1.00  0.00     0.049 A 
ATOM     58  H   UNL A   1      42.007  31.059  32.090  1.00  0.00     0.167 HD
ATOM     59  C   UNL A   1      43.309  28.634  31.419  1.00  0.00     0.074 A 
ATOM     60  C   UNL A   1      43.599  27.363  30.788  1.00  0.00     0.031 C 
ATOM     61  C   UNL A   1      44.109  29.231  32.335  1.00  0.00     0.031 A 
BRANCH  48  62
ATOM     62  C   UNL A   1      42.004  34.672  34.355  1.00  0.00    -0.014 A 
ATOM     63  C   UNL A   1      41.579  34.710  35.692  1.00  0.00     0.009 A 
ATOM     64  C   UNL A   1      42.675  35.784  33.823  1.00  0.00     0.009 A 
ATOM     65  C   UNL A   1      41.789  35.851  36.469  1.00  0.00     0.001 A 
ATOM     66  C   UNL A   1      42.907  36.914  34.610  1.00  0.00     0.001 A 
ATOM     67  C   UNL A   1      42.456  36.950  35.928  1.00  0.00     0.000 A 
ENDBRANCH  48  62
BRANCH  49  68
ATOM     68  C   UNL A   1      40.236  26.957  28.287  1.00  0.00    -0.014 A 
ATOM     69  C   UNL A   1      40.785  26.965  26.995  1.00  0.00     0.009 A 
ATOM     70  C   UNL A   1      39.461  25.859  28.691  1.00  0.00     0.009 A 
ATOM     71  C   UNL A   1      40.542  25.906  26.118  1.00  0.00     0.001 A 
ATOM     72  C   UNL A   1      39.241  24.792  27.819  1.00  0.00     0.001 A 
ATOM     73  C   UNL A   1      39.774  24.819  26.531  1.00  0.00     0.000 A 
ENDBRANCH  49  68
BRANCH  61  74
ATOM     74  C   UNL A   1      45.356  28.498  32.734  1.00  0.00    -0.014 A 
ATOM     75  C   UNL A   1      45.346  27.565  33.781  1.00  0.00     0.009 A 
ATOM     76  C   UNL A   1      46.547  28.717  32.024  1.00  0.00     0.009 A 
ATOM     77  C   UNL A   1      46.515  26.885  34.128  1.00  0.00     0.001 A 
ATOM     78  C   UNL A   1      47.707  28.018  32.358  1.00  0.00     0.001 A 
ATOM     79  C   UNL A   1      47.692  27.108  33.414  1.00  0.00     0.000 A 
ENDBRANCH  61  74
ENDBRANCH  35  36
ENDBRANCH  27  30
ENDBRANCH  25  26
ENDBRANCH   1  25
TORSDOF 12
ENDMDL
