MODEL 1
REMARK VINA RESULT:     -13.6      0.000      0.000
REMARK SMILES Cc1cc([N+](=O)[O-])ccc1-c1ccc(/C=C/C(=O)Nc2ccc(O)c(C(=O)NCCCNC(=O)c3ccc(-c4c5nc(c(-c6ccccc6)c6ccc([nH]6)c(-c6ccccc6)c6nc(c(-c7ccccc7)c7ccc4[nH]7)C=C6)C=C5)cc3)c2)o1
REMARK SMILES IDX 26 1 27 2 28 3 25 5 20 6 21 7 83 8 22 9 23 10 19 11 17 12
REMARK SMILES IDX 18 13 16 15 15 16 14 17 11 18 12 19 84 20 13 21 10 22 1 23
REMARK SMILES IDX 2 24 3 25 4 26 9 27 8 28 5 29 6 30 7 31 24 32 29 34 30 35
REMARK SMILES IDX 31 36 32 37 33 38 34 40 35 41 36 42 82 43 37 44 81 45 38 46
REMARK SMILES IDX 39 47 40 48 75 49 41 50 80 51 74 52 76 53 42 54 79 55 73 56
REMARK SMILES IDX 72 57 43 59 65 60 50 61 64 62 51 63 54 64 63 65 77 66 52 67
REMARK SMILES IDX 53 68 62 70 78 71 55 72 44 73 45 74 49 75 46 76 48 77 47 78
REMARK SMILES IDX 66 79 67 80 71 81 68 82 70 83 69 84 56 85 57 86 61 87 58 88
REMARK SMILES IDX 60 89 59 90
REMARK H PARENT 28 4 19 14 24 33 32 39 76 58 54 69
REMARK Flexibility Score: inf
ROOT
ATOM      1  C   UNL A   1      33.069  28.557  24.251  1.00  0.00     0.255 C 
ATOM      2  O   UNL A   1      34.091  28.207  23.668  1.00  0.00    -0.269 OA
ATOM      3  N   UNL A   1      33.054  29.754  24.944  1.00  0.00    -0.352 N 
ATOM      4  H   UNL A   1      33.890  30.272  24.904  1.00  0.00     0.163 HD
ENDROOT
BRANCH   1   5
ATOM      5  C   UNL A   1      31.872  27.676  24.228  1.00  0.00     0.083 A 
ATOM      6  C   UNL A   1      30.256  26.305  25.356  1.00  0.00     0.042 A 
ATOM      7  C   UNL A   1      29.398  26.417  24.261  1.00  0.00     0.030 A 
ATOM      8  C   UNL A   1      31.413  27.087  25.413  1.00  0.00     0.043 A 
ATOM      9  C   UNL A   1      29.889  26.928  23.076  1.00  0.00     0.049 A 
ATOM     10  C   UNL A   1      31.200  27.369  23.046  1.00  0.00     0.128 A 
BRANCH   6  11
ATOM     11  N   UNL A   1      30.075  25.278  26.295  1.00  0.00    -0.322 N 
ATOM     12  C   UNL A   1      30.896  24.183  26.501  1.00  0.00     0.248 C 
ATOM     13  O   UNL A   1      30.551  23.282  27.262  1.00  0.00    -0.270 OA
ATOM     14  H   UNL A   1      29.278  25.342  26.869  1.00  0.00     0.170 HD
BRANCH  12  15
ATOM     15  C   UNL A   1      32.235  24.099  25.831  1.00  0.00     0.075 C 
ATOM     16  C   UNL A   1      32.500  23.168  24.897  1.00  0.00     0.053 C 
BRANCH  16  17
ATOM     17  C   UNL A   1      33.821  22.918  24.426  1.00  0.00     0.127 A 
ATOM     18  C   UNL A   1      35.912  22.195  24.309  1.00  0.00     0.135 A 
ATOM     19  C   UNL A   1      35.728  22.957  23.184  1.00  0.00     0.051 A 
ATOM     20  O   UNL A   1      34.752  22.092  25.021  1.00  0.00    -0.457 OA
ATOM     21  C   UNL A   1      34.432  23.479  23.309  1.00  0.00     0.051 A 
BRANCH  18  22
ATOM     22  C   UNL A   1      37.102  21.608  24.886  1.00  0.00     0.021 A 
ATOM     23  C   UNL A   1      37.760  23.853  25.957  1.00  0.00     0.045 C 
ATOM     24  C   UNL A   1      37.996  22.394  25.650  1.00  0.00    -0.033 A 
ATOM     25  C   UNL A   1      39.184  21.813  26.123  1.00  0.00     0.089 A 
ATOM     26  C   UNL A   1      39.463  20.467  25.855  1.00  0.00     0.269 A 
ATOM     27  C   UNL A   1      37.391  20.259  24.634  1.00  0.00     0.019 A 
ATOM     28  C   UNL A   1      38.569  19.685  25.115  1.00  0.00     0.086 A 
BRANCH  26  29
ATOM     29  N   UNL A   1      40.712  19.877  26.352  1.00  0.00     0.062 N 
ATOM     30  O   UNL A   1      41.456  19.324  25.530  1.00  0.00    -0.258 OA
ATOM     31  O   UNL A   1      40.945  19.963  27.566  1.00  0.00    -0.258 OA
ENDBRANCH  26  29
ENDBRANCH  18  22
ENDBRANCH  16  17
ENDBRANCH  12  15
ENDBRANCH   6  11
BRANCH  10  32
ATOM     32  O   UNL A   1      31.799  27.407  21.814  1.00  0.00    -0.507 OA
ATOM     33  H   UNL A   1      32.305  26.677  21.516  1.00  0.00     0.293 HD
ENDBRANCH  10  32
ENDBRANCH   1   5
BRANCH   3  34
ATOM     34  C   UNL A   1      31.980  30.366  25.725  1.00  0.00     0.118 C 
BRANCH  34  35
ATOM     35  C   UNL A   1      32.412  31.061  26.987  1.00  0.00     0.042 C 
BRANCH  35  36
ATOM     36  C   UNL A   1      33.705  30.516  27.541  1.00  0.00     0.118 C 
BRANCH  36  37
ATOM     37  N   UNL A   1      34.576  31.543  28.126  1.00  0.00    -0.352 N 
ATOM     38  C   UNL A   1      35.900  31.451  28.542  1.00  0.00     0.251 C 
ATOM     39  H   UNL A   1      34.161  32.429  28.240  1.00  0.00     0.163 HD
ATOM     40  O   UNL A   1      36.518  32.446  28.875  1.00  0.00    -0.269 OA
BRANCH  38  41
ATOM     41  C   UNL A   1      36.588  30.142  28.426  1.00  0.00     0.039 A 
ATOM     42  C   UNL A   1      36.664  29.349  29.573  1.00  0.00     0.014 A 
ATOM     43  C   UNL A   1      37.436  29.918  27.354  1.00  0.00     0.014 A 
ATOM     44  C   UNL A   1      37.802  28.579  29.772  1.00  0.00     0.010 A 
ATOM     45  C   UNL A   1      38.646  29.322  27.631  1.00  0.00     0.010 A 
ATOM     46  C   UNL A   1      38.852  28.708  28.871  1.00  0.00    -0.014 A 
BRANCH  46  47
ATOM     47  C   UNL A   1      40.227  28.328  29.172  1.00  0.00     0.031 A 
ATOM     48  C   UNL A   1      40.713  27.002  28.748  1.00  0.00     0.074 A 
ATOM     49  C   UNL A   1      41.070  29.236  29.714  1.00  0.00     0.049 A 
ATOM     50  N   UNL A   1      41.807  26.466  29.161  1.00  0.00    -0.248 NA
ATOM     51  C   UNL A   1      39.951  26.128  27.856  1.00  0.00     0.031 C 
ATOM     52  C   UNL A   1      42.528  29.174  29.800  1.00  0.00     0.029 A 
ATOM     53  N   UNL A   1      40.728  30.323  30.527  1.00  0.00    -0.354 N 
ATOM     54  C   UNL A   1      42.054  25.378  28.361  1.00  0.00     0.074 A 
ATOM     55  C   UNL A   1      40.822  25.136  27.658  1.00  0.00     0.031 C 
ATOM     56  C   UNL A   1      42.937  29.958  30.811  1.00  0.00     0.029 A 
ATOM     57  C   UNL A   1      41.745  30.420  31.501  1.00  0.00     0.049 A 
ATOM     58  H   UNL A   1      39.937  30.903  30.439  1.00  0.00     0.167 HD
ATOM     59  C   UNL A   1      43.329  24.913  28.276  1.00  0.00     0.031 A 
ATOM     60  C   UNL A   1      41.470  30.178  32.817  1.00  0.00     0.031 A 
ATOM     61  C   UNL A   1      44.151  25.436  29.370  1.00  0.00     0.049 A 
ATOM     62  C   UNL A   1      42.212  28.984  33.386  1.00  0.00     0.074 A 
ATOM     63  C   UNL A   1      45.166  26.373  29.457  1.00  0.00     0.029 A 
ATOM     64  N   UNL A   1      43.733  25.193  30.677  1.00  0.00    -0.354 N 
ATOM     65  N   UNL A   1      42.824  28.084  32.664  1.00  0.00    -0.248 NA
ATOM     66  C   UNL A   1      42.295  28.694  34.816  1.00  0.00     0.031 C 
ATOM     67  C   UNL A   1      45.263  26.783  30.819  1.00  0.00     0.029 A 
ATOM     68  C   UNL A   1      44.343  26.060  31.561  1.00  0.00     0.049 A 
ATOM     69  H   UNL A   1      43.088  24.496  30.936  1.00  0.00     0.167 HD
ATOM     70  C   UNL A   1      43.347  27.111  33.476  1.00  0.00     0.074 A 
ATOM     71  C   UNL A   1      43.008  27.553  34.819  1.00  0.00     0.031 C 
ATOM     72  C   UNL A   1      43.992  26.014  32.978  1.00  0.00     0.031 A 
BRANCH  59  73
ATOM     73  C   UNL A   1      43.869  24.186  27.063  1.00  0.00    -0.014 A 
ATOM     74  C   UNL A   1      44.986  23.344  27.201  1.00  0.00     0.009 A 
ATOM     75  C   UNL A   1      43.416  24.377  25.742  1.00  0.00     0.009 A 
ATOM     76  C   UNL A   1      45.621  22.759  26.092  1.00  0.00     0.001 A 
ATOM     77  C   UNL A   1      44.034  23.787  24.631  1.00  0.00     0.001 A 
ATOM     78  C   UNL A   1      45.146  22.983  24.806  1.00  0.00     0.000 A 
ENDBRANCH  59  73
BRANCH  60  79
ATOM     79  C   UNL A   1      40.107  30.630  33.223  1.00  0.00    -0.014 A 
ATOM     80  C   UNL A   1      39.886  32.018  33.362  1.00  0.00     0.009 A 
ATOM     81  C   UNL A   1      38.993  29.791  33.094  1.00  0.00     0.009 A 
ATOM     82  C   UNL A   1      38.604  32.560  33.234  1.00  0.00     0.001 A 
ATOM     83  C   UNL A   1      37.706  30.339  32.987  1.00  0.00     0.001 A 
ATOM     84  C   UNL A   1      37.517  31.722  33.013  1.00  0.00     0.000 A 
ENDBRANCH  60  79
BRANCH  72  85
ATOM     85  C   UNL A   1      44.389  24.784  33.767  1.00  0.00    -0.014 A 
ATOM     86  C   UNL A   1      43.497  23.965  34.471  1.00  0.00     0.009 A 
ATOM     87  C   UNL A   1      45.728  24.334  33.696  1.00  0.00     0.009 A 
ATOM     88  C   UNL A   1      43.925  22.791  35.108  1.00  0.00     0.001 A 
ATOM     89  C   UNL A   1      46.150  23.139  34.284  1.00  0.00     0.001 A 
ATOM     90  C   UNL A   1      45.248  22.373  35.005  1.00  0.00     0.000 A 
ENDBRANCH  72  85
ENDBRANCH  46  47
ENDBRANCH  38  41
ENDBRANCH  36  37
ENDBRANCH  35  36
ENDBRANCH  34  35
ENDBRANCH   3  34
TORSDOF 16
ENDMDL
MODEL 2
REMARK VINA RESULT:     -13.3      1.692      2.675
REMARK SMILES Cc1cc([N+](=O)[O-])ccc1-c1ccc(/C=C/C(=O)Nc2ccc(O)c(C(=O)NCCCNC(=O)c3ccc(-c4c5nc(c(-c6ccccc6)c6ccc([nH]6)c(-c6ccccc6)c6nc(c(-c7ccccc7)c7ccc4[nH]7)C=C6)C=C5)cc3)c2)o1
REMARK SMILES IDX 26 1 27 2 28 3 25 5 20 6 21 7 83 8 22 9 23 10 19 11 17 12
REMARK SMILES IDX 18 13 16 15 15 16 14 17 11 18 12 19 84 20 13 21 10 22 1 23
REMARK SMILES IDX 2 24 3 25 4 26 9 27 8 28 5 29 6 30 7 31 24 32 29 34 30 35
REMARK SMILES IDX 31 36 32 37 33 38 34 40 35 41 36 42 82 43 37 44 81 45 38 46
REMARK SMILES IDX 39 47 40 48 75 49 41 50 80 51 74 52 76 53 42 54 79 55 73 56
REMARK SMILES IDX 72 57 43 59 65 60 50 61 64 62 51 63 54 64 63 65 77 66 52 67
REMARK SMILES IDX 53 68 62 70 78 71 55 72 44 73 45 74 49 75 46 76 48 77 47 78
REMARK SMILES IDX 66 79 67 80 71 81 68 82 70 83 69 84 56 85 57 86 61 87 58 88
REMARK SMILES IDX 60 89 59 90
REMARK H PARENT 28 4 19 14 24 33 32 39 76 58 54 69
REMARK Flexibility Score: inf
ROOT
ATOM      1  C   UNL A   1      33.098  28.667  23.514  1.00  0.00     0.255 C 
ATOM      2  O   UNL A   1      33.270  29.233  22.438  1.00  0.00    -0.269 OA
ATOM      3  N   UNL A   1      33.563  29.254  24.677  1.00  0.00    -0.352 N 
ATOM      4  H   UNL A   1      33.999  30.129  24.558  1.00  0.00     0.163 HD
ENDROOT
BRANCH   1   5
ATOM      5  C   UNL A   1      32.419  27.344  23.548  1.00  0.00     0.083 A 
ATOM      6  C   UNL A   1      30.868  25.809  24.547  1.00  0.00     0.042 A 
ATOM      7  C   UNL A   1      30.826  25.079  23.359  1.00  0.00     0.030 A 
ATOM      8  C   UNL A   1      31.521  27.044  24.579  1.00  0.00     0.043 A 
ATOM      9  C   UNL A   1      31.769  25.334  22.383  1.00  0.00     0.049 A 
ATOM     10  C   UNL A   1      32.679  26.353  22.603  1.00  0.00     0.128 A 
BRANCH   6  11
ATOM     11  N   UNL A   1      30.440  25.229  25.751  1.00  0.00    -0.322 N 
ATOM     12  C   UNL A   1      30.952  24.097  26.359  1.00  0.00     0.248 C 
ATOM     13  O   UNL A   1      30.396  23.612  27.342  1.00  0.00    -0.270 OA
ATOM     14  H   UNL A   1      29.694  25.675  26.213  1.00  0.00     0.170 HD
BRANCH  12  15
ATOM     15  C   UNL A   1      32.216  23.467  25.853  1.00  0.00     0.075 C 
ATOM     16  C   UNL A   1      33.421  24.018  26.082  1.00  0.00     0.053 C 
BRANCH  16  17
ATOM     17  C   UNL A   1      34.599  23.575  25.416  1.00  0.00     0.127 A 
ATOM     18  C   UNL A   1      36.529  22.570  24.999  1.00  0.00     0.135 A 
ATOM     19  C   UNL A   1      36.256  23.310  23.878  1.00  0.00     0.051 A 
ATOM     20  O   UNL A   1      35.504  22.650  25.897  1.00  0.00    -0.457 OA
ATOM     21  C   UNL A   1      35.078  24.008  24.184  1.00  0.00     0.051 A 
BRANCH  18  22
ATOM     22  C   UNL A   1      37.715  21.846  25.407  1.00  0.00     0.021 A 
ATOM     23  C   UNL A   1      38.686  23.952  26.522  1.00  0.00     0.045 C 
ATOM     24  C   UNL A   1      38.753  22.501  26.110  1.00  0.00    -0.033 A 
ATOM     25  C   UNL A   1      39.925  21.791  26.414  1.00  0.00     0.089 A 
ATOM     26  C   UNL A   1      40.050  20.447  26.041  1.00  0.00     0.269 A 
ATOM     27  C   UNL A   1      37.850  20.497  25.049  1.00  0.00     0.019 A 
ATOM     28  C   UNL A   1      39.014  19.794  25.363  1.00  0.00     0.086 A 
BRANCH  26  29
ATOM     29  N   UNL A   1      41.285  19.721  26.362  1.00  0.00     0.062 N 
ATOM     30  O   UNL A   1      41.643  19.689  27.549  1.00  0.00    -0.258 OA
ATOM     31  O   UNL A   1      41.899  19.189  25.428  1.00  0.00    -0.258 OA
ENDBRANCH  26  29
ENDBRANCH  18  22
ENDBRANCH  16  17
ENDBRANCH  12  15
ENDBRANCH   6  11
BRANCH  10  32
ATOM     32  O   UNL A   1      33.854  26.279  21.901  1.00  0.00    -0.507 OA
ATOM     33  H   UNL A   1      33.944  26.733  21.088  1.00  0.00     0.293 HD
ENDBRANCH  10  32
ENDBRANCH   1   5
BRANCH   3  34
ATOM     34  C   UNL A   1      33.501  28.771  26.055  1.00  0.00     0.118 C 
BRANCH  34  35
ATOM     35  C   UNL A   1      34.821  28.679  26.769  1.00  0.00     0.042 C 
BRANCH  35  36
ATOM     36  C   UNL A   1      35.021  29.787  27.773  1.00  0.00     0.118 C 
BRANCH  36  37
ATOM     37  N   UNL A   1      33.999  30.839  27.703  1.00  0.00    -0.352 N 
ATOM     38  C   UNL A   1      34.010  32.122  28.240  1.00  0.00     0.251 C 
ATOM     39  H   UNL A   1      33.186  30.601  27.202  1.00  0.00     0.163 HD
ATOM     40  O   UNL A   1      33.131  32.919  27.964  1.00  0.00    -0.269 OA
BRANCH  38  41
ATOM     41  C   UNL A   1      35.190  32.548  29.031  1.00  0.00     0.039 A 
ATOM     42  C   UNL A   1      36.242  33.157  28.343  1.00  0.00     0.014 A 
ATOM     43  C   UNL A   1      35.386  32.011  30.292  1.00  0.00     0.014 A 
ATOM     44  C   UNL A   1      37.540  32.915  28.771  1.00  0.00     0.010 A 
ATOM     45  C   UNL A   1      36.663  31.604  30.604  1.00  0.00     0.010 A 
ATOM     46  C   UNL A   1      37.737  32.003  29.801  1.00  0.00    -0.014 A 
BRANCH  46  47
ATOM     47  C   UNL A   1      39.005  31.329  30.053  1.00  0.00     0.031 A 
ATOM     48  C   UNL A   1      39.209  29.968  29.525  1.00  0.00     0.074 A 
ATOM     49  C   UNL A   1      40.016  32.003  30.647  1.00  0.00     0.049 A 
ATOM     50  N   UNL A   1      40.171  29.190  29.881  1.00  0.00    -0.248 NA
ATOM     51  C   UNL A   1      38.284  29.337  28.583  1.00  0.00     0.031 C 
ATOM     52  C   UNL A   1      41.431  31.638  30.706  1.00  0.00     0.029 A 
ATOM     53  N   UNL A   1      39.904  33.073  31.543  1.00  0.00    -0.354 N 
ATOM     54  C   UNL A   1      40.189  28.137  29.000  1.00  0.00     0.074 A 
ATOM     55  C   UNL A   1      38.934  28.206  28.300  1.00  0.00     0.031 C 
ATOM     56  C   UNL A   1      41.992  32.244  31.765  1.00  0.00     0.029 A 
ATOM     57  C   UNL A   1      40.919  32.887  32.505  1.00  0.00     0.049 A 
ATOM     58  H   UNL A   1      39.248  33.807  31.509  1.00  0.00     0.167 HD
ATOM     59  C   UNL A   1      41.342  27.430  28.861  1.00  0.00     0.031 A 
ATOM     60  C   UNL A   1      40.601  32.608  33.805  1.00  0.00     0.031 A 
ATOM     61  C   UNL A   1      42.254  27.690  29.978  1.00  0.00     0.049 A 
ATOM     62  C   UNL A   1      41.083  31.249  34.273  1.00  0.00     0.074 A 
ATOM     63  C   UNL A   1      43.439  28.391  30.118  1.00  0.00     0.029 A 
ATOM     64  N   UNL A   1      41.795  27.441  31.270  1.00  0.00    -0.354 N 
ATOM     65  N   UNL A   1      41.497  30.299  33.478  1.00  0.00    -0.248 NA
ATOM     66  C   UNL A   1      41.104  30.841  35.676  1.00  0.00     0.031 C 
ATOM     67  C   UNL A   1      43.618  28.670  31.505  1.00  0.00     0.029 A 
ATOM     68  C   UNL A   1      42.570  28.096  32.206  1.00  0.00     0.049 A 
ATOM     69  H   UNL A   1      41.021  26.873  31.486  1.00  0.00     0.167 HD
ATOM     70  C   UNL A   1      41.810  29.182  34.208  1.00  0.00     0.074 A 
ATOM     71  C   UNL A   1      41.569  29.582  35.584  1.00  0.00     0.031 C 
ATOM     72  C   UNL A   1      42.217  28.016  33.621  1.00  0.00     0.031 A 
BRANCH  59  73
ATOM     73  C   UNL A   1      41.722  26.700  27.590  1.00  0.00    -0.014 A 
ATOM     74  C   UNL A   1      41.986  25.321  27.636  1.00  0.00     0.009 A 
ATOM     75  C   UNL A   1      41.963  27.321  26.347  1.00  0.00     0.009 A 
ATOM     76  C   UNL A   1      42.484  24.619  26.524  1.00  0.00     0.001 A 
ATOM     77  C   UNL A   1      42.445  26.627  25.229  1.00  0.00     0.001 A 
ATOM     78  C   UNL A   1      42.716  25.274  25.321  1.00  0.00     0.000 A 
ENDBRANCH  59  73
BRANCH  60  79
ATOM     79  C   UNL A   1      39.359  33.297  34.263  1.00  0.00    -0.014 A 
ATOM     80  C   UNL A   1      38.120  32.794  33.808  1.00  0.00     0.009 A 
ATOM     81  C   UNL A   1      39.363  34.137  35.383  1.00  0.00     0.009 A 
ATOM     82  C   UNL A   1      36.944  33.009  34.534  1.00  0.00     0.001 A 
ATOM     83  C   UNL A   1      38.175  34.367  36.096  1.00  0.00     0.001 A 
ATOM     84  C   UNL A   1      36.979  33.770  35.697  1.00  0.00     0.000 A 
ENDBRANCH  60  79
BRANCH  72  85
ATOM     85  C   UNL A   1      42.353  26.676  34.311  1.00  0.00    -0.014 A 
ATOM     86  C   UNL A   1      41.363  26.081  35.103  1.00  0.00     0.009 A 
ATOM     87  C   UNL A   1      43.498  25.889  34.047  1.00  0.00     0.009 A 
ATOM     88  C   UNL A   1      41.526  24.796  35.641  1.00  0.00     0.001 A 
ATOM     89  C   UNL A   1      43.644  24.588  34.536  1.00  0.00     0.001 A 
ATOM     90  C   UNL A   1      42.661  24.046  35.348  1.00  0.00     0.000 A 
ENDBRANCH  72  85
ENDBRANCH  46  47
ENDBRANCH  38  41
ENDBRANCH  36  37
ENDBRANCH  35  36
ENDBRANCH  34  35
ENDBRANCH   3  34
TORSDOF 16
ENDMDL
MODEL 3
REMARK VINA RESULT:     -13.0      2.794      9.308
REMARK SMILES Cc1cc([N+](=O)[O-])ccc1-c1ccc(/C=C/C(=O)Nc2ccc(O)c(C(=O)NCCCNC(=O)c3ccc(-c4c5nc(c(-c6ccccc6)c6ccc([nH]6)c(-c6ccccc6)c6nc(c(-c7ccccc7)c7ccc4[nH]7)C=C6)C=C5)cc3)c2)o1
REMARK SMILES IDX 26 1 27 2 28 3 25 5 20 6 21 7 83 8 22 9 23 10 19 11 17 12
REMARK SMILES IDX 18 13 16 15 15 16 14 17 11 18 12 19 84 20 13 21 10 22 1 23
REMARK SMILES IDX 2 24 3 25 4 26 9 27 8 28 5 29 6 30 7 31 24 32 29 34 30 35
REMARK SMILES IDX 31 36 32 37 33 38 34 40 35 41 36 42 82 43 37 44 81 45 38 46
REMARK SMILES IDX 39 47 40 48 75 49 41 50 80 51 74 52 76 53 42 54 79 55 73 56
REMARK SMILES IDX 72 57 43 59 65 60 50 61 64 62 51 63 54 64 63 65 77 66 52 67
REMARK SMILES IDX 53 68 62 70 78 71 55 72 44 73 45 74 49 75 46 76 48 77 47 78
REMARK SMILES IDX 66 79 67 80 71 81 68 82 70 83 69 84 56 85 57 86 61 87 58 88
REMARK SMILES IDX 60 89 59 90
REMARK H PARENT 28 4 19 14 24 33 32 39 76 58 54 69
REMARK Flexibility Score: inf
ROOT
ATOM      1  C   UNL A   1      33.506  20.223  24.893  1.00  0.00     0.255 C 
ATOM      2  O   UNL A   1      32.871  19.173  24.895  1.00  0.00    -0.269 OA
ATOM      3  N   UNL A   1      34.837  20.217  25.272  1.00  0.00    -0.352 N 
ATOM      4  H   UNL A   1      35.201  19.333  25.508  1.00  0.00     0.163 HD
ENDROOT
BRANCH   1   5
ATOM      5  C   UNL A   1      32.830  21.491  24.511  1.00  0.00     0.083 A 
ATOM      6  C   UNL A   1      32.380  23.231  22.920  1.00  0.00     0.042 A 
ATOM      7  C   UNL A   1      31.235  23.587  23.632  1.00  0.00     0.030 A 
ATOM      8  C   UNL A   1      33.074  22.065  23.258  1.00  0.00     0.043 A 
ATOM      9  C   UNL A   1      31.049  23.071  24.901  1.00  0.00     0.049 A 
ATOM     10  C   UNL A   1      31.981  22.170  25.384  1.00  0.00     0.128 A 
BRANCH   6  11
ATOM     11  N   UNL A   1      32.954  24.129  22.007  1.00  0.00    -0.322 N 
ATOM     12  C   UNL A   1      33.158  25.486  22.188  1.00  0.00     0.248 C 
ATOM     13  O   UNL A   1      33.544  26.187  21.255  1.00  0.00    -0.270 OA
ATOM     14  H   UNL A   1      33.242  23.755  21.143  1.00  0.00     0.170 HD
BRANCH  12  15
ATOM     15  C   UNL A   1      32.951  26.113  23.534  1.00  0.00     0.075 C 
ATOM     16  C   UNL A   1      33.051  27.441  23.718  1.00  0.00     0.053 C 
BRANCH  16  17
ATOM     17  C   UNL A   1      33.096  28.029  25.015  1.00  0.00     0.127 A 
ATOM     18  C   UNL A   1      33.115  29.527  26.647  1.00  0.00     0.135 A 
ATOM     19  C   UNL A   1      33.300  28.317  27.263  1.00  0.00     0.051 A 
ATOM     20  O   UNL A   1      32.906  29.364  25.308  1.00  0.00    -0.457 OA
ATOM     21  C   UNL A   1      33.371  27.385  26.217  1.00  0.00     0.051 A 
BRANCH  18  22
ATOM     22  C   UNL A   1      33.211  30.883  27.144  1.00  0.00     0.021 A 
ATOM     23  C   UNL A   1      30.924  31.480  26.126  1.00  0.00     0.045 C 
ATOM     24  C   UNL A   1      32.186  31.822  26.882  1.00  0.00    -0.033 A 
ATOM     25  C   UNL A   1      32.352  33.150  27.305  1.00  0.00     0.089 A 
ATOM     26  C   UNL A   1      33.510  33.529  27.996  1.00  0.00     0.269 A 
ATOM     27  C   UNL A   1      34.360  31.274  27.846  1.00  0.00     0.019 A 
ATOM     28  C   UNL A   1      34.515  32.594  28.273  1.00  0.00     0.086 A 
BRANCH  26  29
ATOM     29  N   UNL A   1      33.669  34.922  28.427  1.00  0.00     0.062 N 
ATOM     30  O   UNL A   1      34.817  35.387  28.464  1.00  0.00    -0.258 OA
ATOM     31  O   UNL A   1      32.646  35.551  28.734  1.00  0.00    -0.258 OA
ENDBRANCH  26  29
ENDBRANCH  18  22
ENDBRANCH  16  17
ENDBRANCH  12  15
ENDBRANCH   6  11
BRANCH  10  32
ATOM     32  O   UNL A   1      32.061  22.053  26.747  1.00  0.00    -0.507 OA
ATOM     33  H   UNL A   1      32.890  21.906  27.157  1.00  0.00     0.293 HD
ENDBRANCH  10  32
ENDBRANCH   1   5
BRANCH   3  34
ATOM     34  C   UNL A   1      35.783  21.327  25.373  1.00  0.00     0.118 C 
BRANCH  34  35
ATOM     35  C   UNL A   1      37.234  20.955  25.243  1.00  0.00     0.042 C 
BRANCH  35  36
ATOM     36  C   UNL A   1      38.147  22.156  25.230  1.00  0.00     0.118 C 
BRANCH  36  37
ATOM     37  N   UNL A   1      39.387  21.964  25.995  1.00  0.00    -0.352 N 
ATOM     38  C   UNL A   1      40.134  22.887  26.718  1.00  0.00     0.251 C 
ATOM     39  H   UNL A   1      39.741  21.045  25.994  1.00  0.00     0.163 HD
ATOM     40  O   UNL A   1      41.065  22.524  27.413  1.00  0.00    -0.269 OA
BRANCH  38  41
ATOM     41  C   UNL A   1      39.680  24.298  26.745  1.00  0.00     0.039 A 
ATOM     42  C   UNL A   1      40.473  25.244  26.090  1.00  0.00     0.014 A 
ATOM     43  C   UNL A   1      38.751  24.690  27.695  1.00  0.00     0.014 A 
ATOM     44  C   UNL A   1      40.571  26.517  26.636  1.00  0.00     0.010 A 
ATOM     45  C   UNL A   1      38.994  25.874  28.352  1.00  0.00     0.010 A 
ATOM     46  C   UNL A   1      39.955  26.762  27.857  1.00  0.00    -0.014 A 
BRANCH  46  47
ATOM     47  C   UNL A   1      40.323  27.860  28.742  1.00  0.00     0.031 A 
ATOM     48  C   UNL A   1      39.460  29.054  28.799  1.00  0.00     0.074 A 
ATOM     49  C   UNL A   1      41.369  27.718  29.588  1.00  0.00     0.049 A 
ATOM     50  N   UNL A   1      39.801  30.168  29.345  1.00  0.00    -0.248 NA
ATOM     51  C   UNL A   1      38.141  29.107  28.169  1.00  0.00     0.031 C 
ATOM     52  C   UNL A   1      41.707  28.540  30.749  1.00  0.00     0.029 A 
ATOM     53  N   UNL A   1      42.495  26.905  29.407  1.00  0.00    -0.354 N 
ATOM     54  C   UNL A   1      38.667  30.937  29.440  1.00  0.00     0.074 A 
ATOM     55  C   UNL A   1      37.700  30.294  28.590  1.00  0.00     0.031 C 
ATOM     56  C   UNL A   1      43.020  28.414  31.002  1.00  0.00     0.029 A 
ATOM     57  C   UNL A   1      43.591  27.635  29.917  1.00  0.00     0.049 A 
ATOM     58  H   UNL A   1      42.518  26.007  29.005  1.00  0.00     0.167 HD
ATOM     59  C   UNL A   1      38.640  31.939  30.359  1.00  0.00     0.031 A 
ATOM     60  C   UNL A   1      44.578  28.077  29.082  1.00  0.00     0.031 A 
ATOM     61  C   UNL A   1      39.991  32.260  30.823  1.00  0.00     0.049 A 
ATOM     62  C   UNL A   1      44.691  29.588  29.018  1.00  0.00     0.074 A 
ATOM     63  C   UNL A   1      40.687  32.048  32.001  1.00  0.00     0.029 A 
ATOM     64  N   UNL A   1      40.941  32.628  29.872  1.00  0.00    -0.354 N 
ATOM     65  N   UNL A   1      43.781  30.415  29.461  1.00  0.00    -0.248 NA
ATOM     66  C   UNL A   1      45.826  30.286  28.418  1.00  0.00     0.031 C 
ATOM     67  C   UNL A   1      42.078  32.168  31.712  1.00  0.00     0.029 A 
ATOM     68  C   UNL A   1      42.220  32.500  30.374  1.00  0.00     0.049 A 
ATOM     69  H   UNL A   1      40.728  32.936  28.962  1.00  0.00     0.167 HD
ATOM     70  C   UNL A   1      44.162  31.707  29.205  1.00  0.00     0.074 A 
ATOM     71  C   UNL A   1      45.463  31.573  28.571  1.00  0.00     0.031 C 
ATOM     72  C   UNL A   1      43.367  32.776  29.512  1.00  0.00     0.031 A 
BRANCH  59  73
ATOM     73  C   UNL A   1      37.364  32.445  31.000  1.00  0.00    -0.014 A 
ATOM     74  C   UNL A   1      36.384  31.525  31.410  1.00  0.00     0.009 A 
ATOM     75  C   UNL A   1      37.006  33.803  31.116  1.00  0.00     0.009 A 
ATOM     76  C   UNL A   1      35.123  31.937  31.874  1.00  0.00     0.001 A 
ATOM     77  C   UNL A   1      35.757  34.224  31.592  1.00  0.00     0.001 A 
ATOM     78  C   UNL A   1      34.808  33.287  31.963  1.00  0.00     0.000 A 
ENDBRANCH  59  73
BRANCH  60  79
ATOM     79  C   UNL A   1      44.861  27.135  27.959  1.00  0.00    -0.014 A 
ATOM     80  C   UNL A   1      45.329  25.843  28.286  1.00  0.00     0.009 A 
ATOM     81  C   UNL A   1      44.332  27.345  26.680  1.00  0.00     0.009 A 
ATOM     82  C   UNL A   1      45.142  24.767  27.412  1.00  0.00     0.001 A 
ATOM     83  C   UNL A   1      44.167  26.265  25.799  1.00  0.00     0.001 A 
ATOM     84  C   UNL A   1      44.530  24.973  26.181  1.00  0.00     0.000 A 
ENDBRANCH  60  79
BRANCH  72  85
ATOM     85  C   UNL A   1      43.587  34.204  29.061  1.00  0.00    -0.014 A 
ATOM     86  C   UNL A   1      43.721  34.607  27.726  1.00  0.00     0.009 A 
ATOM     87  C   UNL A   1      43.525  35.239  30.023  1.00  0.00     0.009 A 
ATOM     88  C   UNL A   1      43.836  35.961  27.376  1.00  0.00     0.001 A 
ATOM     89  C   UNL A   1      43.587  36.590  29.677  1.00  0.00     0.001 A 
ATOM     90  C   UNL A   1      43.758  36.952  28.350  1.00  0.00     0.000 A 
ENDBRANCH  72  85
ENDBRANCH  46  47
ENDBRANCH  38  41
ENDBRANCH  36  37
ENDBRANCH  35  36
ENDBRANCH  34  35
ENDBRANCH   3  34
TORSDOF 16
ENDMDL
