MODEL 1
REMARK VINA RESULT:     -11.3      0.000      0.000
REMARK SMILES CC(=O)c1ccc(NC(=O)C[C@H](C(=O)NCCCNC(=O)c2ccc(-c3c4nc(c(-c5ccccc5)c5ccc([nH]5)c(-c5ccccc5)c5nc(c(-c6ccccc6)c6ccc3[nH]6)C=C5)C=C4)cc2)[NH+](C)C)cc1
REMARK SMILES IDX 16 1 15 2 13 3 14 4 12 6 11 7 9 8 8 9 10 11 7 12 4 13 5 14
REMARK SMILES IDX 74 15 6 16 73 17 2 18 1 19 3 20 70 21 71 22 72 23 17 25
REMARK SMILES IDX 18 26 19 27 20 28 21 30 22 31 23 32 69 33 24 34 68 35 25 36
REMARK SMILES IDX 26 37 27 38 62 39 28 40 67 41 61 42 63 43 29 44 66 45 60 46
REMARK SMILES IDX 59 47 30 49 52 50 37 51 51 52 38 53 41 54 50 55 64 56 39 57
REMARK SMILES IDX 40 58 49 60 65 61 42 62 31 63 32 64 36 65 33 66 35 67 34 68
REMARK SMILES IDX 53 69 54 70 58 71 55 72 57 73 56 74 43 75 44 76 48 77 45 78
REMARK SMILES IDX 47 79 46 80
REMARK H PARENT 15 5 8 10 70 24 19 29 63 48 41 59
REMARK Flexibility Score: inf
ROOT
ATOM      1  C   UNL A   1      36.281  20.746  25.117  1.00  0.00     0.118 C 
ENDROOT
BRANCH   1   2
ATOM      2  N   UNL A   1      35.062  19.984  25.291  1.00  0.00    -0.351 N 
ATOM      3  C   UNL A   1      33.759  20.385  25.263  1.00  0.00     0.278 C 
ATOM      4  O   UNL A   1      32.906  19.502  25.395  1.00  0.00    -0.268 OA
ATOM      5  H   UNL A   1      35.195  19.022  25.456  1.00  0.00     0.163 HD
BRANCH   3   6
ATOM      6  C   UNL A   1      33.347  21.860  25.040  1.00  0.00     0.283 C 
BRANCH   6   7
ATOM      7  C   UNL A   1      33.787  22.766  26.207  1.00  0.00     0.175 C 
BRANCH   7   8
ATOM      8  C   UNL A   1      32.721  23.033  27.250  1.00  0.00     0.230 C 
ATOM      9  N   UNL A   1      31.748  23.987  27.110  1.00  0.00    -0.326 N 
ATOM     10  H   UNL A   1      31.160  24.085  27.894  1.00  0.00     0.169 HD
ATOM     11  O   UNL A   1      32.686  22.337  28.272  1.00  0.00    -0.274 OA
BRANCH   9  12
ATOM     12  C   UNL A   1      31.441  24.850  26.043  1.00  0.00     0.041 A 
ATOM     13  C   UNL A   1      31.206  26.132  23.577  1.00  0.00     0.017 A 
ATOM     14  C   UNL A   1      31.953  26.719  24.597  1.00  0.00     0.014 A 
ATOM     15  C   UNL A   1      30.446  24.990  23.827  1.00  0.00     0.014 A 
ATOM     16  C   UNL A   1      32.041  26.091  25.841  1.00  0.00     0.027 A 
ATOM     17  C   UNL A   1      30.551  24.362  25.074  1.00  0.00     0.027 A 
BRANCH  13  18
ATOM     18  C   UNL A   1      31.376  26.649  22.205  1.00  0.00     0.159 C 
ATOM     19  C   UNL A   1      32.347  25.955  21.298  1.00  0.00     0.093 C 
ATOM     20  O   UNL A   1      30.691  27.602  21.844  1.00  0.00    -0.295 OA
ENDBRANCH  13  18
ENDBRANCH   9  12
ENDBRANCH   7   8
ENDBRANCH   6   7
BRANCH   6  21
ATOM     21  N   UNL A   1      33.670  22.380  23.680  1.00  0.00    -0.329 N 
ATOM     22  C   UNL A   1      34.200  23.743  23.750  1.00  0.00     0.333 C 
ATOM     23  C   UNL A   1      32.642  22.305  22.644  1.00  0.00     0.333 C 
ATOM     24  H   UNL A   1      34.373  21.711  23.364  1.00  0.00     0.348 HD
ENDBRANCH   6  21
ENDBRANCH   3   6
ENDBRANCH   1   2
BRANCH   1  25
ATOM     25  C   UNL A   1      37.482  19.834  24.930  1.00  0.00     0.042 C 
BRANCH  25  26
ATOM     26  C   UNL A   1      38.740  20.417  25.556  1.00  0.00     0.118 C 
BRANCH  26  27
ATOM     27  N   UNL A   1      39.796  19.417  25.684  1.00  0.00    -0.352 N 
ATOM     28  C   UNL A   1      41.112  19.576  26.033  1.00  0.00     0.251 C 
ATOM     29  H   UNL A   1      39.522  18.491  25.491  1.00  0.00     0.163 HD
ATOM     30  O   UNL A   1      41.908  18.655  25.868  1.00  0.00    -0.269 OA
BRANCH  28  31
ATOM     31  C   UNL A   1      41.571  20.863  26.588  1.00  0.00     0.039 A 
ATOM     32  C   UNL A   1      42.101  21.823  25.724  1.00  0.00     0.014 A 
ATOM     33  C   UNL A   1      41.471  21.123  27.957  1.00  0.00     0.014 A 
ATOM     34  C   UNL A   1      42.471  23.069  26.228  1.00  0.00     0.010 A 
ATOM     35  C   UNL A   1      41.743  22.395  28.439  1.00  0.00     0.010 A 
ATOM     36  C   UNL A   1      42.256  23.378  27.582  1.00  0.00    -0.014 A 
BRANCH  36  37
ATOM     37  C   UNL A   1      42.559  24.728  28.113  1.00  0.00     0.031 A 
ATOM     38  C   UNL A   1      43.960  25.082  28.528  1.00  0.00     0.074 A 
ATOM     39  C   UNL A   1      41.558  25.617  28.267  1.00  0.00     0.049 A 
ATOM     40  N   UNL A   1      44.413  26.203  29.031  1.00  0.00    -0.248 NA
ATOM     41  C   UNL A   1      44.985  24.033  28.388  1.00  0.00     0.031 C 
ATOM     42  C   UNL A   1      40.149  25.373  27.950  1.00  0.00     0.029 A 
ATOM     43  N   UNL A   1      41.573  26.909  28.728  1.00  0.00    -0.354 N 
ATOM     44  C   UNL A   1      45.763  25.988  29.275  1.00  0.00     0.074 A 
ATOM     45  C   UNL A   1      46.045  24.614  28.927  1.00  0.00     0.031 C 
ATOM     46  C   UNL A   1      39.444  26.491  28.184  1.00  0.00     0.029 A 
ATOM     47  C   UNL A   1      40.341  27.514  28.710  1.00  0.00     0.049 A 
ATOM     48  H   UNL A   1      42.391  27.359  29.041  1.00  0.00     0.167 HD
ATOM     49  C   UNL A   1      46.692  26.864  29.725  1.00  0.00     0.031 A 
ATOM     50  C   UNL A   1      39.973  28.756  29.076  1.00  0.00     0.031 A 
ATOM     51  C   UNL A   1      46.409  28.232  30.067  1.00  0.00     0.049 A 
ATOM     52  C   UNL A   1      41.023  29.702  29.588  1.00  0.00     0.074 A 
ATOM     53  C   UNL A   1      47.287  29.217  30.483  1.00  0.00     0.029 A 
ATOM     54  N   UNL A   1      45.147  28.807  30.036  1.00  0.00    -0.354 N 
ATOM     55  N   UNL A   1      42.310  29.507  29.739  1.00  0.00    -0.248 NA
ATOM     56  C   UNL A   1      40.567  31.047  29.968  1.00  0.00     0.031 C 
ATOM     57  C   UNL A   1      46.549  30.371  30.761  1.00  0.00     0.029 A 
ATOM     58  C   UNL A   1      45.220  30.125  30.451  1.00  0.00     0.049 A 
ATOM     59  H   UNL A   1      44.322  28.345  29.760  1.00  0.00     0.167 HD
ATOM     60  C   UNL A   1      42.824  30.713  30.201  1.00  0.00     0.074 A 
ATOM     61  C   UNL A   1      41.710  31.637  30.283  1.00  0.00     0.031 C 
ATOM     62  C   UNL A   1      44.101  31.028  30.530  1.00  0.00     0.031 A 
BRANCH  49  63
ATOM     63  C   UNL A   1      48.104  26.363  29.877  1.00  0.00    -0.014 A 
ATOM     64  C   UNL A   1      49.029  26.463  28.826  1.00  0.00     0.009 A 
ATOM     65  C   UNL A   1      48.524  25.820  31.101  1.00  0.00     0.009 A 
ATOM     66  C   UNL A   1      50.336  25.997  28.986  1.00  0.00     0.001 A 
ATOM     67  C   UNL A   1      49.840  25.384  31.268  1.00  0.00     0.001 A 
ATOM     68  C   UNL A   1      50.742  25.465  30.208  1.00  0.00     0.000 A 
ENDBRANCH  49  63
BRANCH  50  69
ATOM     69  C   UNL A   1      38.554  29.183  28.962  1.00  0.00    -0.014 A 
ATOM     70  C   UNL A   1      38.061  29.708  27.757  1.00  0.00     0.009 A 
ATOM     71  C   UNL A   1      37.686  29.083  30.061  1.00  0.00     0.009 A 
ATOM     72  C   UNL A   1      36.742  30.159  27.667  1.00  0.00     0.001 A 
ATOM     73  C   UNL A   1      36.357  29.502  29.958  1.00  0.00     0.001 A 
ATOM     74  C   UNL A   1      35.891  30.052  28.766  1.00  0.00     0.000 A 
ENDBRANCH  50  69
BRANCH  62  75
ATOM     75  C   UNL A   1      44.364  32.441  30.972  1.00  0.00    -0.014 A 
ATOM     76  C   UNL A   1      44.266  32.819  32.320  1.00  0.00     0.009 A 
ATOM     77  C   UNL A   1      44.739  33.404  30.021  1.00  0.00     0.009 A 
ATOM     78  C   UNL A   1      44.496  34.142  32.699  1.00  0.00     0.001 A 
ATOM     79  C   UNL A   1      45.002  34.717  30.409  1.00  0.00     0.001 A 
ATOM     80  C   UNL A   1      44.869  35.088  31.745  1.00  0.00     0.000 A 
ENDBRANCH  62  75
ENDBRANCH  36  37
ENDBRANCH  28  31
ENDBRANCH  26  27
ENDBRANCH  25  26
ENDBRANCH   1  25
TORSDOF 15
ENDMDL
MODEL 2
REMARK VINA RESULT:     -11.3      1.573      3.751
REMARK SMILES CC(=O)c1ccc(NC(=O)C[C@H](C(=O)NCCCNC(=O)c2ccc(-c3c4nc(c(-c5ccccc5)c5ccc([nH]5)c(-c5ccccc5)c5nc(c(-c6ccccc6)c6ccc3[nH]6)C=C5)C=C4)cc2)[NH+](C)C)cc1
REMARK SMILES IDX 16 1 15 2 13 3 14 4 12 6 11 7 9 8 8 9 10 11 7 12 4 13 5 14
REMARK SMILES IDX 74 15 6 16 73 17 2 18 1 19 3 20 70 21 71 22 72 23 17 25
REMARK SMILES IDX 18 26 19 27 20 28 21 30 22 31 23 32 69 33 24 34 68 35 25 36
REMARK SMILES IDX 26 37 27 38 62 39 28 40 67 41 61 42 63 43 29 44 66 45 60 46
REMARK SMILES IDX 59 47 30 49 52 50 37 51 51 52 38 53 41 54 50 55 64 56 39 57
REMARK SMILES IDX 40 58 49 60 65 61 42 62 31 63 32 64 36 65 33 66 35 67 34 68
REMARK SMILES IDX 53 69 54 70 58 71 55 72 57 73 56 74 43 75 44 76 48 77 45 78
REMARK SMILES IDX 47 79 46 80
REMARK H PARENT 15 5 8 10 70 24 19 29 63 48 41 59
REMARK Flexibility Score: inf
ROOT
ATOM      1  C   UNL A   1      36.500  20.883  24.881  1.00  0.00     0.118 C 
ENDROOT
BRANCH   1   2
ATOM      2  N   UNL A   1      35.826  21.073  26.148  1.00  0.00    -0.351 N 
ATOM      3  C   UNL A   1      34.705  21.788  26.453  1.00  0.00     0.278 C 
ATOM      4  O   UNL A   1      34.319  21.736  27.625  1.00  0.00    -0.268 OA
ATOM      5  H   UNL A   1      36.244  20.614  26.912  1.00  0.00     0.163 HD
BRANCH   3   6
ATOM      6  C   UNL A   1      33.920  22.596  25.393  1.00  0.00     0.283 C 
BRANCH   6   7
ATOM      7  C   UNL A   1      32.581  21.924  25.029  1.00  0.00     0.175 C 
BRANCH   7   8
ATOM      8  C   UNL A   1      32.333  21.750  23.544  1.00  0.00     0.230 C 
ATOM      9  N   UNL A   1      32.348  20.535  22.912  1.00  0.00    -0.326 N 
ATOM     10  H   UNL A   1      32.227  20.584  21.936  1.00  0.00     0.169 HD
ATOM     11  O   UNL A   1      32.059  22.740  22.856  1.00  0.00    -0.274 OA
BRANCH   9  12
ATOM     12  C   UNL A   1      32.508  19.230  23.412  1.00  0.00     0.041 A 
ATOM     13  C   UNL A   1      33.428  16.868  24.575  1.00  0.00     0.017 A 
ATOM     14  C   UNL A   1      33.248  16.939  23.195  1.00  0.00     0.014 A 
ATOM     15  C   UNL A   1      33.001  17.912  25.396  1.00  0.00     0.014 A 
ATOM     16  C   UNL A   1      32.756  18.112  22.619  1.00  0.00     0.027 A 
ATOM     17  C   UNL A   1      32.520  19.088  24.808  1.00  0.00     0.027 A 
BRANCH  13  18
ATOM     18  C   UNL A   1      34.221  15.748  25.117  1.00  0.00     0.159 C 
ATOM     19  C   UNL A   1      35.683  15.970  25.371  1.00  0.00     0.093 C 
ATOM     20  O   UNL A   1      33.653  14.691  25.376  1.00  0.00    -0.295 OA
ENDBRANCH  13  18
ENDBRANCH   9  12
ENDBRANCH   7   8
ENDBRANCH   6   7
BRANCH   6  21
ATOM     21  N   UNL A   1      33.835  24.057  25.684  1.00  0.00    -0.329 N 
ATOM     22  C   UNL A   1      32.491  24.426  26.131  1.00  0.00     0.333 C 
ATOM     23  C   UNL A   1      34.291  24.998  24.664  1.00  0.00     0.333 C 
ATOM     24  H   UNL A   1      34.527  24.160  26.427  1.00  0.00     0.348 HD
ENDBRANCH   6  21
ENDBRANCH   3   6
ENDBRANCH   1   2
BRANCH   1  25
ATOM     25  C   UNL A   1      37.611  19.853  24.993  1.00  0.00     0.042 C 
BRANCH  25  26
ATOM     26  C   UNL A   1      38.847  20.421  25.675  1.00  0.00     0.118 C 
BRANCH  26  27
ATOM     27  N   UNL A   1      39.898  19.419  25.818  1.00  0.00    -0.352 N 
ATOM     28  C   UNL A   1      41.225  19.582  26.120  1.00  0.00     0.251 C 
ATOM     29  H   UNL A   1      39.612  18.488  25.676  1.00  0.00     0.163 HD
ATOM     30  O   UNL A   1      42.009  18.646  25.974  1.00  0.00    -0.269 OA
BRANCH  28  31
ATOM     31  C   UNL A   1      41.710  20.888  26.601  1.00  0.00     0.039 A 
ATOM     32  C   UNL A   1      42.172  21.823  25.673  1.00  0.00     0.014 A 
ATOM     33  C   UNL A   1      41.702  21.191  27.965  1.00  0.00     0.014 A 
ATOM     34  C   UNL A   1      42.566  23.087  26.111  1.00  0.00     0.010 A 
ATOM     35  C   UNL A   1      41.996  22.480  28.388  1.00  0.00     0.010 A 
ATOM     36  C   UNL A   1      42.441  23.438  27.467  1.00  0.00    -0.014 A 
BRANCH  36  37
ATOM     37  C   UNL A   1      42.768  24.806  27.933  1.00  0.00     0.031 A 
ATOM     38  C   UNL A   1      44.199  25.200  28.180  1.00  0.00     0.074 A 
ATOM     39  C   UNL A   1      41.770  25.675  28.183  1.00  0.00     0.049 A 
ATOM     40  N   UNL A   1      44.677  26.342  28.605  1.00  0.00    -0.248 NA
ATOM     41  C   UNL A   1      45.226  24.171  27.945  1.00  0.00     0.031 C 
ATOM     42  C   UNL A   1      40.340  25.393  28.033  1.00  0.00     0.029 A 
ATOM     43  N   UNL A   1      41.805  26.977  28.613  1.00  0.00    -0.354 N 
ATOM     44  C   UNL A   1      46.052  26.163  28.699  1.00  0.00     0.074 A 
ATOM     45  C   UNL A   1      46.326  24.788  28.347  1.00  0.00     0.031 C 
ATOM     46  C   UNL A   1      39.639  26.500  28.322  1.00  0.00     0.029 A 
ATOM     47  C   UNL A   1      40.564  27.554  28.723  1.00  0.00     0.049 A 
ATOM     48  H   UNL A   1      42.642  27.453  28.823  1.00  0.00     0.167 HD
ATOM     49  C   UNL A   1      47.004  27.070  29.023  1.00  0.00     0.031 A 
ATOM     50  C   UNL A   1      40.210  28.795  29.104  1.00  0.00     0.031 A 
ATOM     51  C   UNL A   1      46.727  28.438  29.367  1.00  0.00     0.049 A 
ATOM     52  C   UNL A   1      41.287  29.776  29.475  1.00  0.00     0.074 A 
ATOM     53  C   UNL A   1      47.622  29.451  29.661  1.00  0.00     0.029 A 
ATOM     54  N   UNL A   1      45.456  28.984  29.468  1.00  0.00    -0.354 N 
ATOM     55  N   UNL A   1      42.587  29.613  29.482  1.00  0.00    -0.248 NA
ATOM     56  C   UNL A   1      40.843  31.118  29.878  1.00  0.00     0.031 C 
ATOM     57  C   UNL A   1      46.891  30.594  29.998  1.00  0.00     0.029 A 
ATOM     58  C   UNL A   1      45.543  30.312  29.846  1.00  0.00     0.049 A 
ATOM     59  H   UNL A   1      44.617  28.498  29.297  1.00  0.00     0.167 HD
ATOM     60  C   UNL A   1      43.120  30.840  29.859  1.00  0.00     0.074 A 
ATOM     61  C   UNL A   1      42.000  31.740  30.048  1.00  0.00     0.031 C 
ATOM     62  C   UNL A   1      44.417  31.192  30.035  1.00  0.00     0.031 A 
BRANCH  49  63
ATOM     63  C   UNL A   1      48.435  26.604  29.023  1.00  0.00    -0.014 A 
ATOM     64  C   UNL A   1      48.974  25.908  30.116  1.00  0.00     0.009 A 
ATOM     65  C   UNL A   1      49.243  26.830  27.898  1.00  0.00     0.009 A 
ATOM     66  C   UNL A   1      50.304  25.480  30.098  1.00  0.00     0.001 A 
ATOM     67  C   UNL A   1      50.563  26.373  27.869  1.00  0.00     0.001 A 
ATOM     68  C   UNL A   1      51.094  25.706  28.973  1.00  0.00     0.000 A 
ENDBRANCH  49  63
BRANCH  50  69
ATOM     69  C   UNL A   1      38.776  29.188  29.144  1.00  0.00    -0.014 A 
ATOM     70  C   UNL A   1      38.025  29.032  30.320  1.00  0.00     0.009 A 
ATOM     71  C   UNL A   1      38.144  29.704  28.002  1.00  0.00     0.009 A 
ATOM     72  C   UNL A   1      36.665  29.350  30.340  1.00  0.00     0.001 A 
ATOM     73  C   UNL A   1      36.792  30.055  28.035  1.00  0.00     0.001 A 
ATOM     74  C   UNL A   1      36.051  29.865  29.199  1.00  0.00     0.000 A 
ENDBRANCH  50  69
BRANCH  62  75
ATOM     75  C   UNL A   1      44.693  32.619  30.415  1.00  0.00    -0.014 A 
ATOM     76  C   UNL A   1      44.797  33.014  31.758  1.00  0.00     0.009 A 
ATOM     77  C   UNL A   1      44.877  33.580  29.408  1.00  0.00     0.009 A 
ATOM     78  C   UNL A   1      45.034  34.350  32.084  1.00  0.00     0.001 A 
ATOM     79  C   UNL A   1      45.148  34.908  29.737  1.00  0.00     0.001 A 
ATOM     80  C   UNL A   1      45.214  35.295  31.074  1.00  0.00     0.000 A 
ENDBRANCH  62  75
ENDBRANCH  36  37
ENDBRANCH  28  31
ENDBRANCH  26  27
ENDBRANCH  25  26
ENDBRANCH   1  25
TORSDOF 15
ENDMDL
MODEL 3
REMARK VINA RESULT:     -11.3      1.317      6.149
REMARK SMILES CC(=O)c1ccc(NC(=O)C[C@H](C(=O)NCCCNC(=O)c2ccc(-c3c4nc(c(-c5ccccc5)c5ccc([nH]5)c(-c5ccccc5)c5nc(c(-c6ccccc6)c6ccc3[nH]6)C=C5)C=C4)cc2)[NH+](C)C)cc1
REMARK SMILES IDX 16 1 15 2 13 3 14 4 12 6 11 7 9 8 8 9 10 11 7 12 4 13 5 14
REMARK SMILES IDX 74 15 6 16 73 17 2 18 1 19 3 20 70 21 71 22 72 23 17 25
REMARK SMILES IDX 18 26 19 27 20 28 21 30 22 31 23 32 69 33 24 34 68 35 25 36
REMARK SMILES IDX 26 37 27 38 62 39 28 40 67 41 61 42 63 43 29 44 66 45 60 46
REMARK SMILES IDX 59 47 30 49 52 50 37 51 51 52 38 53 41 54 50 55 64 56 39 57
REMARK SMILES IDX 40 58 49 60 65 61 42 62 31 63 32 64 36 65 33 66 35 67 34 68
REMARK SMILES IDX 53 69 54 70 58 71 55 72 57 73 56 74 43 75 44 76 48 77 45 78
REMARK SMILES IDX 47 79 46 80
REMARK H PARENT 15 5 8 10 70 24 19 29 63 48 41 59
REMARK Flexibility Score: inf
ROOT
ATOM      1  C   UNL A   1      35.972  21.239  25.286  1.00  0.00     0.118 C 
ENDROOT
BRANCH   1   2
ATOM      2  N   UNL A   1      35.692  22.243  24.282  1.00  0.00    -0.351 N 
ATOM      3  C   UNL A   1      34.632  23.091  24.152  1.00  0.00     0.278 C 
ATOM      4  O   UNL A   1      34.676  23.891  23.212  1.00  0.00    -0.268 OA
ATOM      5  H   UNL A   1      36.377  22.327  23.579  1.00  0.00     0.163 HD
BRANCH   3   6
ATOM      6  C   UNL A   1      33.444  23.095  25.144  1.00  0.00     0.283 C 
BRANCH   6   7
ATOM      7  C   UNL A   1      33.189  24.496  25.734  1.00  0.00     0.175 C 
BRANCH   7   8
ATOM      8  C   UNL A   1      31.888  24.644  26.496  1.00  0.00     0.230 C 
ATOM      9  N   UNL A   1      30.940  25.587  26.197  1.00  0.00    -0.326 N 
ATOM     10  H   UNL A   1      30.173  25.601  26.815  1.00  0.00     0.169 HD
ATOM     11  O   UNL A   1      31.631  23.857  27.414  1.00  0.00    -0.274 OA
BRANCH   9  12
ATOM     12  C   UNL A   1      30.869  26.538  25.164  1.00  0.00     0.041 A 
ATOM     13  C   UNL A   1      30.259  28.693  23.502  1.00  0.00     0.017 A 
ATOM     14  C   UNL A   1      29.904  27.400  23.122  1.00  0.00     0.014 A 
ATOM     15  C   UNL A   1      31.057  28.903  24.627  1.00  0.00     0.014 A 
ATOM     16  C   UNL A   1      30.239  26.320  23.940  1.00  0.00     0.027 A 
ATOM     17  C   UNL A   1      31.378  27.814  25.447  1.00  0.00     0.027 A 
BRANCH  13  18
ATOM     18  C   UNL A   1      29.637  29.824  22.787  1.00  0.00     0.159 C 
ATOM     19  C   UNL A   1      29.130  30.983  23.593  1.00  0.00     0.093 C 
ATOM     20  O   UNL A   1      29.592  29.795  21.561  1.00  0.00    -0.295 OA
ENDBRANCH  13  18
ENDBRANCH   9  12
ENDBRANCH   7   8
ENDBRANCH   6   7
BRANCH   6  21
ATOM     21  N   UNL A   1      32.230  22.391  24.638  1.00  0.00    -0.329 N 
ATOM     22  C   UNL A   1      32.311  20.952  24.895  1.00  0.00     0.333 C 
ATOM     23  C   UNL A   1      31.817  22.622  23.255  1.00  0.00     0.333 C 
ATOM     24  H   UNL A   1      31.491  22.836  25.183  1.00  0.00     0.348 HD
ENDBRANCH   6  21
ENDBRANCH   3   6
ENDBRANCH   1   2
BRANCH   1  25
ATOM     25  C   UNL A   1      37.153  20.369  24.887  1.00  0.00     0.042 C 
BRANCH  25  26
ATOM     26  C   UNL A   1      38.451  20.847  25.521  1.00  0.00     0.118 C 
BRANCH  26  27
ATOM     27  N   UNL A   1      39.430  19.771  25.630  1.00  0.00    -0.352 N 
ATOM     28  C   UNL A   1      40.752  19.827  25.986  1.00  0.00     0.251 C 
ATOM     29  H   UNL A   1      39.091  18.872  25.416  1.00  0.00     0.163 HD
ATOM     30  O   UNL A   1      41.481  18.854  25.803  1.00  0.00    -0.269 OA
BRANCH  28  31
ATOM     31  C   UNL A   1      41.301  21.064  26.571  1.00  0.00     0.039 A 
ATOM     32  C   UNL A   1      41.892  22.008  25.729  1.00  0.00     0.014 A 
ATOM     33  C   UNL A   1      41.226  21.294  27.947  1.00  0.00     0.014 A 
ATOM     34  C   UNL A   1      42.348  23.212  26.262  1.00  0.00     0.010 A 
ATOM     35  C   UNL A   1      41.586  22.532  28.460  1.00  0.00     0.010 A 
ATOM     36  C   UNL A   1      42.161  23.500  27.626  1.00  0.00    -0.014 A 
BRANCH  36  37
ATOM     37  C   UNL A   1      42.558  24.812  28.189  1.00  0.00     0.031 A 
ATOM     38  C   UNL A   1      41.532  25.896  28.380  1.00  0.00     0.074 A 
ATOM     39  C   UNL A   1      43.853  25.040  28.481  1.00  0.00     0.049 A 
ATOM     40  N   UNL A   1      41.694  27.110  28.841  1.00  0.00    -0.248 NA
ATOM     41  C   UNL A   1      40.150  25.588  27.977  1.00  0.00     0.031 C 
ATOM     42  C   UNL A   1      44.948  24.086  28.290  1.00  0.00     0.029 A 
ATOM     43  N   UNL A   1      44.469  26.149  29.005  1.00  0.00    -0.354 N 
ATOM     44  C   UNL A   1      40.442  27.710  28.771  1.00  0.00     0.074 A 
ATOM     45  C   UNL A   1      39.546  26.750  28.166  1.00  0.00     0.031 C 
ATOM     46  C   UNL A   1      46.091  24.633  28.731  1.00  0.00     0.029 A 
ATOM     47  C   UNL A   1      45.820  25.990  29.191  1.00  0.00     0.049 A 
ATOM     48  H   UNL A   1      43.987  26.978  29.226  1.00  0.00     0.167 HD
ATOM     49  C   UNL A   1      40.067  28.939  29.196  1.00  0.00     0.031 A 
ATOM     50  C   UNL A   1      46.739  26.844  29.680  1.00  0.00     0.031 A 
ATOM     51  C   UNL A   1      40.961  29.888  29.800  1.00  0.00     0.049 A 
ATOM     52  C   UNL A   1      46.297  28.208  30.128  1.00  0.00     0.074 A 
ATOM     53  C   UNL A   1      40.672  31.141  30.312  1.00  0.00     0.029 A 
ATOM     54  N   UNL A   1      42.323  29.691  29.971  1.00  0.00    -0.354 N 
ATOM     55  N   UNL A   1      45.094  28.730  30.127  1.00  0.00    -0.248 NA
ATOM     56  C   UNL A   1      47.341  29.097  30.658  1.00  0.00     0.031 C 
ATOM     57  C   UNL A   1      41.868  31.725  30.739  1.00  0.00     0.029 A 
ATOM     58  C   UNL A   1      42.892  30.809  30.556  1.00  0.00     0.049 A 
ATOM     59  H   UNL A   1      42.813  28.876  29.713  1.00  0.00     0.167 HD
ATOM     60  C   UNL A   1      45.231  29.996  30.684  1.00  0.00     0.074 A 
ATOM     61  C   UNL A   1      46.630  30.150  31.031  1.00  0.00     0.031 C 
ATOM     62  C   UNL A   1      44.286  30.946  30.890  1.00  0.00     0.031 A 
BRANCH  49  63
ATOM     63  C   UNL A   1      38.624  29.326  29.014  1.00  0.00    -0.014 A 
ATOM     64  C   UNL A   1      38.140  29.776  27.775  1.00  0.00     0.009 A 
ATOM     65  C   UNL A   1      37.727  29.202  30.086  1.00  0.00     0.009 A 
ATOM     66  C   UNL A   1      36.797  30.127  27.623  1.00  0.00     0.001 A 
ATOM     67  C   UNL A   1      36.377  29.523  29.923  1.00  0.00     0.001 A 
ATOM     68  C   UNL A   1      35.916  29.993  28.695  1.00  0.00     0.000 A 
ENDBRANCH  49  63
BRANCH  50  69
ATOM     69  C   UNL A   1      48.165  26.433  29.783  1.00  0.00    -0.014 A 
ATOM     70  C   UNL A   1      49.058  26.682  28.730  1.00  0.00     0.009 A 
ATOM     71  C   UNL A   1      48.637  25.774  30.929  1.00  0.00     0.009 A 
ATOM     72  C   UNL A   1      50.383  26.247  28.806  1.00  0.00     0.001 A 
ATOM     73  C   UNL A   1      49.972  25.372  31.017  1.00  0.00     0.001 A 
ATOM     74  C   UNL A   1      50.840  25.596  29.951  1.00  0.00     0.000 A 
ENDBRANCH  50  69
BRANCH  62  75
ATOM     75  C   UNL A   1      44.731  32.220  31.553  1.00  0.00    -0.014 A 
ATOM     76  C   UNL A   1      44.732  32.358  32.950  1.00  0.00     0.009 A 
ATOM     77  C   UNL A   1      45.179  33.291  30.764  1.00  0.00     0.009 A 
ATOM     78  C   UNL A   1      45.131  33.559  33.539  1.00  0.00     0.001 A 
ATOM     79  C   UNL A   1      45.610  34.477  31.357  1.00  0.00     0.001 A 
ATOM     80  C   UNL A   1      45.574  34.615  32.743  1.00  0.00     0.000 A 
ENDBRANCH  62  75
ENDBRANCH  36  37
ENDBRANCH  28  31
ENDBRANCH  26  27
ENDBRANCH  25  26
ENDBRANCH   1  25
TORSDOF 15
ENDMDL
