MODEL 1
REMARK VINA RESULT:     -11.6      0.000      0.000
REMARK SMILES Cc1ccc(F)c(-c2ncccc2C(=O)NCCCNC(=O)c2ccc(-c3c4nc(c(-c5ccccc5)c5ccc([nH]5)c(-c5ccccc5)c5nc(c(-c6ccccc6)c6ccc3[nH]6)C=C5)C=C4)cc2)c1
REMARK SMILES IDX 18 1 17 2 16 3 14 4 15 5 13 7 8 8 9 9 10 10 12 11 11 12 7 13
REMARK SMILES IDX 1 14 2 15 3 16 71 17 4 18 5 19 6 20 19 21 20 22 21 23 22 25
REMARK SMILES IDX 23 26 24 27 70 28 25 29 69 30 26 31 27 32 28 33 63 34 29 35
REMARK SMILES IDX 68 36 62 37 64 38 30 39 67 40 61 41 60 42 31 44 53 45 38 46
REMARK SMILES IDX 52 47 39 48 42 49 51 50 65 51 40 52 41 53 50 55 66 56 43 57
REMARK SMILES IDX 32 58 33 59 37 60 34 61 36 62 35 63 54 64 55 65 59 66 56 67
REMARK SMILES IDX 58 68 57 69 44 70 45 71 49 72 46 73 48 74 47 75
REMARK H PARENT 16 6 20 24 64 43 42 54
REMARK Flexibility Score: inf
ROOT
ATOM      1  C   UNL A   1      37.215  19.842  24.949  1.00  0.00     0.042 C 
ENDROOT
BRANCH   1   2
ATOM      2  C   UNL A   1      35.986  20.654  25.365  1.00  0.00     0.118 C 
BRANCH   2   3
ATOM      3  N   UNL A   1      35.627  21.609  24.337  1.00  0.00    -0.352 N 
ATOM      4  C   UNL A   1      34.546  22.404  24.059  1.00  0.00     0.253 C 
ATOM      5  O   UNL A   1      34.676  23.049  23.020  1.00  0.00    -0.269 OA
ATOM      6  H   UNL A   1      36.341  21.715  23.668  1.00  0.00     0.163 HD
BRANCH   4   7
ATOM      7  C   UNL A   1      33.318  22.538  24.911  1.00  0.00     0.066 A 
ATOM      8  C   UNL A   1      32.321  21.539  24.912  1.00  0.00     0.086 A 
ATOM      9  N   UNL A   1      31.142  21.674  25.597  1.00  0.00    -0.255 NA
ATOM     10  C   UNL A   1      30.938  22.794  26.311  1.00  0.00     0.112 A 
ATOM     11  C   UNL A   1      33.091  23.640  25.746  1.00  0.00     0.018 A 
ATOM     12  C   UNL A   1      31.885  23.785  26.436  1.00  0.00     0.021 A 
BRANCH   8  13
ATOM     13  C   UNL A   1      32.437  20.213  24.287  1.00  0.00     0.037 A 
ATOM     14  C   UNL A   1      33.370  16.648  25.311  1.00  0.00     0.044 C 
ATOM     15  C   UNL A   1      32.917  17.814  24.483  1.00  0.00    -0.050 A 
ATOM     16  C   UNL A   1      32.691  17.661  23.112  1.00  0.00     0.006 A 
ATOM     17  C   UNL A   1      32.752  19.079  25.064  1.00  0.00     0.016 A 
ATOM     18  C   UNL A   1      32.333  18.763  22.334  1.00  0.00     0.040 A 
ATOM     19  C   UNL A   1      32.218  20.023  22.921  1.00  0.00     0.132 A 
ATOM     20  F   UNL A   1      31.908  21.063  22.130  1.00  0.00    -0.206 F 
ENDBRANCH   8  13
ENDBRANCH   4   7
ENDBRANCH   2   3
ENDBRANCH   1   2
BRANCH   1  21
ATOM     21  C   UNL A   1      38.544  20.513  25.314  1.00  0.00     0.118 C 
BRANCH  21  22
ATOM     22  N   UNL A   1      39.599  19.541  25.564  1.00  0.00    -0.352 N 
ATOM     23  C   UNL A   1      40.883  19.715  26.011  1.00  0.00     0.251 C 
ATOM     24  H   UNL A   1      39.347  18.606  25.383  1.00  0.00     0.163 HD
ATOM     25  O   UNL A   1      41.684  18.789  25.924  1.00  0.00    -0.269 OA
BRANCH  23  26
ATOM     26  C   UNL A   1      41.316  21.002  26.595  1.00  0.00     0.039 A 
ATOM     27  C   UNL A   1      41.836  21.984  25.745  1.00  0.00     0.014 A 
ATOM     28  C   UNL A   1      41.281  21.221  27.975  1.00  0.00     0.014 A 
ATOM     29  C   UNL A   1      42.271  23.203  26.271  1.00  0.00     0.010 A 
ATOM     30  C   UNL A   1      41.659  22.459  28.493  1.00  0.00     0.010 A 
ATOM     31  C   UNL A   1      42.162  23.460  27.647  1.00  0.00    -0.014 A 
BRANCH  31  32
ATOM     32  C   UNL A   1      42.559  24.770  28.217  1.00  0.00     0.031 A 
ATOM     33  C   UNL A   1      41.536  25.848  28.439  1.00  0.00     0.074 A 
ATOM     34  C   UNL A   1      43.860  25.017  28.464  1.00  0.00     0.049 A 
ATOM     35  N   UNL A   1      41.708  27.075  28.861  1.00  0.00    -0.248 NA
ATOM     36  C   UNL A   1      40.140  25.511  28.121  1.00  0.00     0.031 C 
ATOM     37  C   UNL A   1      44.957  24.071  28.248  1.00  0.00     0.029 A 
ATOM     38  N   UNL A   1      44.480  26.145  28.938  1.00  0.00    -0.354 N 
ATOM     39  C   UNL A   1      40.450  27.664  28.835  1.00  0.00     0.074 A 
ATOM     40  C   UNL A   1      39.531  26.672  28.319  1.00  0.00     0.031 C 
ATOM     41  C   UNL A   1      46.114  24.652  28.603  1.00  0.00     0.029 A 
ATOM     42  C   UNL A   1      45.844  26.020  29.037  1.00  0.00     0.049 A 
ATOM     43  H   UNL A   1      43.994  26.966  29.183  1.00  0.00     0.167 HD
ATOM     44  C   UNL A   1      40.089  28.913  29.214  1.00  0.00     0.031 A 
ATOM     45  C   UNL A   1      46.778  26.908  29.427  1.00  0.00     0.031 A 
ATOM     46  C   UNL A   1      41.000  29.895  29.741  1.00  0.00     0.049 A 
ATOM     47  C   UNL A   1      46.353  28.283  29.856  1.00  0.00     0.074 A 
ATOM     48  C   UNL A   1      40.719  31.162  30.223  1.00  0.00     0.029 A 
ATOM     49  N   UNL A   1      42.371  29.721  29.848  1.00  0.00    -0.354 N 
ATOM     50  N   UNL A   1      45.150  28.799  29.894  1.00  0.00    -0.248 NA
ATOM     51  C   UNL A   1      47.417  29.193  30.304  1.00  0.00     0.031 C 
ATOM     52  C   UNL A   1      41.927  31.772  30.580  1.00  0.00     0.029 A 
ATOM     53  C   UNL A   1      42.954  30.867  30.365  1.00  0.00     0.049 A 
ATOM     54  H   UNL A   1      42.858  28.904  29.594  1.00  0.00     0.167 HD
ATOM     55  C   UNL A   1      45.306  30.087  30.389  1.00  0.00     0.074 A 
ATOM     56  C   UNL A   1      46.721  30.266  30.652  1.00  0.00     0.031 C 
ATOM     57  C   UNL A   1      44.362  31.034  30.610  1.00  0.00     0.031 A 
BRANCH  44  58
ATOM     58  C   UNL A   1      38.643  29.292  29.054  1.00  0.00    -0.014 A 
ATOM     59  C   UNL A   1      37.738  29.184  30.123  1.00  0.00     0.009 A 
ATOM     60  C   UNL A   1      38.182  29.783  27.823  1.00  0.00     0.009 A 
ATOM     61  C   UNL A   1      36.393  29.518  29.947  1.00  0.00     0.001 A 
ATOM     62  C   UNL A   1      36.843  30.142  27.658  1.00  0.00     0.001 A 
ATOM     63  C   UNL A   1      35.948  29.999  28.717  1.00  0.00     0.000 A 
ENDBRANCH  44  58
BRANCH  45  64
ATOM     64  C   UNL A   1      48.208  26.509  29.444  1.00  0.00    -0.014 A 
ATOM     65  C   UNL A   1      49.027  26.759  28.333  1.00  0.00     0.009 A 
ATOM     66  C   UNL A   1      48.765  25.901  30.579  1.00  0.00     0.009 A 
ATOM     67  C   UNL A   1      50.375  26.392  28.354  1.00  0.00     0.001 A 
ATOM     68  C   UNL A   1      50.118  25.558  30.606  1.00  0.00     0.001 A 
ATOM     69  C   UNL A   1      50.920  25.798  29.491  1.00  0.00     0.000 A 
ENDBRANCH  45  64
BRANCH  57  70
ATOM     70  C   UNL A   1      44.827  32.343  31.180  1.00  0.00    -0.014 A 
ATOM     71  C   UNL A   1      45.185  33.413  30.344  1.00  0.00     0.009 A 
ATOM     72  C   UNL A   1      44.872  32.521  32.572  1.00  0.00     0.009 A 
ATOM     73  C   UNL A   1      45.606  34.625  30.893  1.00  0.00     0.001 A 
ATOM     74  C   UNL A   1      45.269  33.741  33.117  1.00  0.00     0.001 A 
ATOM     75  C   UNL A   1      45.644  34.790  32.278  1.00  0.00     0.000 A 
ENDBRANCH  57  70
ENDBRANCH  31  32
ENDBRANCH  23  26
ENDBRANCH  21  22
ENDBRANCH   1  21
TORSDOF 11
ENDMDL
MODEL 2
REMARK VINA RESULT:     -11.6      4.634      9.326
REMARK SMILES Cc1ccc(F)c(-c2ncccc2C(=O)NCCCNC(=O)c2ccc(-c3c4nc(c(-c5ccccc5)c5ccc([nH]5)c(-c5ccccc5)c5nc(c(-c6ccccc6)c6ccc3[nH]6)C=C5)C=C4)cc2)c1
REMARK SMILES IDX 18 1 17 2 16 3 14 4 15 5 13 7 8 8 9 9 10 10 12 11 11 12 7 13
REMARK SMILES IDX 1 14 2 15 3 16 71 17 4 18 5 19 6 20 19 21 20 22 21 23 22 25
REMARK SMILES IDX 23 26 24 27 70 28 25 29 69 30 26 31 27 32 28 33 63 34 29 35
REMARK SMILES IDX 68 36 62 37 64 38 30 39 67 40 61 41 60 42 31 44 53 45 38 46
REMARK SMILES IDX 52 47 39 48 42 49 51 50 65 51 40 52 41 53 50 55 66 56 43 57
REMARK SMILES IDX 32 58 33 59 37 60 34 61 36 62 35 63 54 64 55 65 59 66 56 67
REMARK SMILES IDX 58 68 57 69 44 70 45 71 49 72 46 73 48 74 47 75
REMARK H PARENT 16 6 20 24 64 43 42 54
REMARK Flexibility Score: inf
ROOT
ATOM      1  C   UNL A   1      31.313  31.231  26.122  1.00  0.00     0.042 C 
ENDROOT
BRANCH   1   2
ATOM      2  C   UNL A   1      31.809  30.079  25.247  1.00  0.00     0.118 C 
BRANCH   2   3
ATOM      3  N   UNL A   1      31.425  28.800  25.810  1.00  0.00    -0.352 N 
ATOM      4  C   UNL A   1      31.335  27.509  25.363  1.00  0.00     0.253 C 
ATOM      5  O   UNL A   1      30.910  26.731  26.216  1.00  0.00    -0.269 OA
ATOM      6  H   UNL A   1      31.162  28.879  26.755  1.00  0.00     0.163 HD
BRANCH   4   7
ATOM      7  C   UNL A   1      31.725  27.028  23.995  1.00  0.00     0.066 A 
ATOM      8  C   UNL A   1      30.894  27.260  22.878  1.00  0.00     0.086 A 
ATOM      9  N   UNL A   1      31.167  26.749  21.637  1.00  0.00    -0.255 NA
ATOM     10  C   UNL A   1      32.282  26.016  21.475  1.00  0.00     0.112 A 
ATOM     11  C   UNL A   1      32.918  26.338  23.746  1.00  0.00     0.018 A 
ATOM     12  C   UNL A   1      33.193  25.806  22.485  1.00  0.00     0.021 A 
BRANCH   8  13
ATOM     13  C   UNL A   1      29.712  28.135  22.857  1.00  0.00     0.037 A 
ATOM     14  C   UNL A   1      28.846  31.739  21.914  1.00  0.00     0.044 C 
ATOM     15  C   UNL A   1      28.698  30.313  22.356  1.00  0.00    -0.050 A 
ATOM     16  C   UNL A   1      27.468  29.843  22.827  1.00  0.00     0.006 A 
ATOM     17  C   UNL A   1      29.798  29.444  22.341  1.00  0.00     0.016 A 
ATOM     18  C   UNL A   1      27.351  28.535  23.298  1.00  0.00     0.040 A 
ATOM     19  C   UNL A   1      28.467  27.699  23.318  1.00  0.00     0.132 A 
ATOM     20  F   UNL A   1      28.321  26.460  23.814  1.00  0.00    -0.206 F 
ENDBRANCH   8  13
ENDBRANCH   4   7
ENDBRANCH   2   3
ENDBRANCH   1   2
BRANCH   1  21
ATOM     21  C   UNL A   1      32.329  31.678  27.179  1.00  0.00     0.118 C 
BRANCH  21  22
ATOM     22  N   UNL A   1      32.247  33.107  27.449  1.00  0.00    -0.352 N 
ATOM     23  C   UNL A   1      33.054  33.919  28.203  1.00  0.00     0.251 C 
ATOM     24  H   UNL A   1      31.488  33.564  27.018  1.00  0.00     0.163 HD
ATOM     25  O   UNL A   1      32.673  35.048  28.494  1.00  0.00    -0.269 OA
BRANCH  23  26
ATOM     26  C   UNL A   1      34.378  33.453  28.669  1.00  0.00     0.039 A 
ATOM     27  C   UNL A   1      34.448  32.706  29.850  1.00  0.00     0.014 A 
ATOM     28  C   UNL A   1      35.550  33.805  27.995  1.00  0.00     0.014 A 
ATOM     29  C   UNL A   1      35.686  32.268  30.325  1.00  0.00     0.010 A 
ATOM     30  C   UNL A   1      36.779  33.318  28.436  1.00  0.00     0.010 A 
ATOM     31  C   UNL A   1      36.860  32.549  29.607  1.00  0.00    -0.014 A 
BRANCH  31  32
ATOM     32  C   UNL A   1      38.178  32.040  30.062  1.00  0.00     0.031 A 
ATOM     33  C   UNL A   1      38.721  30.745  29.526  1.00  0.00     0.074 A 
ATOM     34  C   UNL A   1      38.851  32.709  31.016  1.00  0.00     0.049 A 
ATOM     35  N   UNL A   1      39.818  30.111  29.857  1.00  0.00    -0.248 NA
ATOM     36  C   UNL A   1      37.914  30.060  28.505  1.00  0.00     0.031 C 
ATOM     37  C   UNL A   1      38.411  33.953  31.650  1.00  0.00     0.029 A 
ATOM     38  N   UNL A   1      40.046  32.427  31.630  1.00  0.00    -0.354 N 
ATOM     39  C   UNL A   1      39.820  28.943  29.106  1.00  0.00     0.074 A 
ATOM     40  C   UNL A   1      38.597  28.938  28.331  1.00  0.00     0.031 C 
ATOM     41  C   UNL A   1      39.329  34.336  32.552  1.00  0.00     0.029 A 
ATOM     42  C   UNL A   1      40.403  33.347  32.584  1.00  0.00     0.049 A 
ATOM     43  H   UNL A   1      40.594  31.639  31.408  1.00  0.00     0.167 HD
ATOM     44  C   UNL A   1      40.758  27.967  29.057  1.00  0.00     0.031 A 
ATOM     45  C   UNL A   1      41.472  33.390  33.402  1.00  0.00     0.031 A 
ATOM     46  C   UNL A   1      41.981  27.978  29.815  1.00  0.00     0.049 A 
ATOM     47  C   UNL A   1      42.506  32.305  33.320  1.00  0.00     0.074 A 
ATOM     48  C   UNL A   1      43.029  27.075  29.778  1.00  0.00     0.029 A 
ATOM     49  N   UNL A   1      42.316  28.942  30.753  1.00  0.00    -0.354 N 
ATOM     50  N   UNL A   1      42.528  31.244  32.551  1.00  0.00    -0.248 NA
ATOM     51  C   UNL A   1      43.666  32.429  34.214  1.00  0.00     0.031 C 
ATOM     52  C   UNL A   1      43.978  27.467  30.728  1.00  0.00     0.029 A 
ATOM     53  C   UNL A   1      43.544  28.641  31.322  1.00  0.00     0.049 A 
ATOM     54  H   UNL A   1      41.765  29.724  30.982  1.00  0.00     0.167 HD
ATOM     55  C   UNL A   1      43.712  30.584  32.851  1.00  0.00     0.074 A 
ATOM     56  C   UNL A   1      44.388  31.374  33.862  1.00  0.00     0.031 C 
ATOM     57  C   UNL A   1      44.198  29.429  32.333  1.00  0.00     0.031 A 
BRANCH  44  58
ATOM     58  C   UNL A   1      40.485  26.792  28.159  1.00  0.00    -0.014 A 
ATOM     59  C   UNL A   1      40.990  26.741  26.850  1.00  0.00     0.009 A 
ATOM     60  C   UNL A   1      39.727  25.711  28.635  1.00  0.00     0.009 A 
ATOM     61  C   UNL A   1      40.705  25.651  26.023  1.00  0.00     0.001 A 
ATOM     62  C   UNL A   1      39.466  24.611  27.816  1.00  0.00     0.001 A 
ATOM     63  C   UNL A   1      39.946  24.587  26.508  1.00  0.00     0.000 A 
ENDBRANCH  44  58
BRANCH  45  64
ATOM     64  C   UNL A   1      41.620  34.517  34.357  1.00  0.00    -0.014 A 
ATOM     65  C   UNL A   1      42.233  35.713  33.953  1.00  0.00     0.009 A 
ATOM     66  C   UNL A   1      41.128  34.412  35.667  1.00  0.00     0.009 A 
ATOM     67  C   UNL A   1      42.364  36.776  34.849  1.00  0.00     0.001 A 
ATOM     68  C   UNL A   1      41.238  35.485  36.552  1.00  0.00     0.001 A 
ATOM     69  C   UNL A   1      41.861  36.664  36.145  1.00  0.00     0.000 A 
ENDBRANCH  45  64
BRANCH  57  70
ATOM     70  C   UNL A   1      45.532  28.961  32.838  1.00  0.00    -0.014 A 
ATOM     71  C   UNL A   1      45.628  28.100  33.943  1.00  0.00     0.009 A 
ATOM     72  C   UNL A   1      46.705  29.357  32.178  1.00  0.00     0.009 A 
ATOM     73  C   UNL A   1      46.878  27.667  34.392  1.00  0.00     0.001 A 
ATOM     74  C   UNL A   1      47.949  28.903  32.613  1.00  0.00     0.001 A 
ATOM     75  C   UNL A   1      48.036  28.066  33.725  1.00  0.00     0.000 A 
ENDBRANCH  57  70
ENDBRANCH  31  32
ENDBRANCH  23  26
ENDBRANCH  21  22
ENDBRANCH   1  21
TORSDOF 11
ENDMDL
MODEL 3
REMARK VINA RESULT:     -11.4      4.536      9.130
REMARK SMILES Cc1ccc(F)c(-c2ncccc2C(=O)NCCCNC(=O)c2ccc(-c3c4nc(c(-c5ccccc5)c5ccc([nH]5)c(-c5ccccc5)c5nc(c(-c6ccccc6)c6ccc3[nH]6)C=C5)C=C4)cc2)c1
REMARK SMILES IDX 18 1 17 2 16 3 14 4 15 5 13 7 8 8 9 9 10 10 12 11 11 12 7 13
REMARK SMILES IDX 1 14 2 15 3 16 71 17 4 18 5 19 6 20 19 21 20 22 21 23 22 25
REMARK SMILES IDX 23 26 24 27 70 28 25 29 69 30 26 31 27 32 28 33 63 34 29 35
REMARK SMILES IDX 68 36 62 37 64 38 30 39 67 40 61 41 60 42 31 44 53 45 38 46
REMARK SMILES IDX 52 47 39 48 42 49 51 50 65 51 40 52 41 53 50 55 66 56 43 57
REMARK SMILES IDX 32 58 33 59 37 60 34 61 36 62 35 63 54 64 55 65 59 66 56 67
REMARK SMILES IDX 58 68 57 69 44 70 45 71 49 72 46 73 48 74 47 75
REMARK H PARENT 16 6 20 24 64 43 42 54
REMARK Flexibility Score: inf
ROOT
ATOM      1  C   UNL A   1      31.303  31.385  26.121  1.00  0.00     0.042 C 
ENDROOT
BRANCH   1   2
ATOM      2  C   UNL A   1      31.776  30.220  25.250  1.00  0.00     0.118 C 
BRANCH   2   3
ATOM      3  N   UNL A   1      31.406  28.950  25.841  1.00  0.00    -0.352 N 
ATOM      4  C   UNL A   1      31.342  27.646  25.426  1.00  0.00     0.253 C 
ATOM      5  O   UNL A   1      30.920  26.883  26.294  1.00  0.00    -0.269 OA
ATOM      6  H   UNL A   1      31.131  29.048  26.781  1.00  0.00     0.163 HD
BRANCH   4   7
ATOM      7  C   UNL A   1      31.756  27.138  24.076  1.00  0.00     0.066 A 
ATOM      8  C   UNL A   1      30.934  27.325  22.944  1.00  0.00     0.086 A 
ATOM      9  N   UNL A   1      31.231  26.788  21.720  1.00  0.00    -0.255 NA
ATOM     10  C   UNL A   1      32.360  26.071  21.589  1.00  0.00     0.112 A 
ATOM     11  C   UNL A   1      32.964  26.463  23.858  1.00  0.00     0.018 A 
ATOM     12  C   UNL A   1      33.263  25.904  22.613  1.00  0.00     0.021 A 
BRANCH   8  13
ATOM     13  C   UNL A   1      29.737  28.178  22.887  1.00  0.00     0.037 A 
ATOM     14  C   UNL A   1      28.825  31.755  21.887  1.00  0.00     0.044 C 
ATOM     15  C   UNL A   1      28.694  30.331  22.341  1.00  0.00    -0.050 A 
ATOM     16  C   UNL A   1      27.462  29.843  22.789  1.00  0.00     0.006 A 
ATOM     17  C   UNL A   1      29.810  29.482  22.360  1.00  0.00     0.016 A 
ATOM     18  C   UNL A   1      27.359  28.538  23.272  1.00  0.00     0.040 A 
ATOM     19  C   UNL A   1      28.490  27.723  23.326  1.00  0.00     0.132 A 
ATOM     20  F   UNL A   1      28.356  26.486  23.832  1.00  0.00    -0.206 F 
ENDBRANCH   8  13
ENDBRANCH   4   7
ENDBRANCH   2   3
ENDBRANCH   1   2
BRANCH   1  21
ATOM     21  C   UNL A   1      32.294  31.762  27.229  1.00  0.00     0.118 C 
BRANCH  21  22
ATOM     22  N   UNL A   1      32.285  33.192  27.508  1.00  0.00    -0.352 N 
ATOM     23  C   UNL A   1      33.140  33.958  28.257  1.00  0.00     0.251 C 
ATOM     24  H   UNL A   1      31.544  33.688  27.090  1.00  0.00     0.163 HD
ATOM     25  O   UNL A   1      32.817  35.102  28.560  1.00  0.00    -0.269 OA
BRANCH  23  26
ATOM     26  C   UNL A   1      34.444  33.424  28.706  1.00  0.00     0.039 A 
ATOM     27  C   UNL A   1      34.504  32.730  29.918  1.00  0.00     0.014 A 
ATOM     28  C   UNL A   1      35.614  33.664  27.979  1.00  0.00     0.014 A 
ATOM     29  C   UNL A   1      35.726  32.231  30.376  1.00  0.00     0.010 A 
ATOM     30  C   UNL A   1      36.822  33.115  28.406  1.00  0.00     0.010 A 
ATOM     31  C   UNL A   1      36.891  32.397  29.610  1.00  0.00    -0.014 A 
BRANCH  31  32
ATOM     32  C   UNL A   1      38.186  31.821  30.048  1.00  0.00     0.031 A 
ATOM     33  C   UNL A   1      39.087  32.587  30.975  1.00  0.00     0.074 A 
ATOM     34  C   UNL A   1      38.585  30.637  29.548  1.00  0.00     0.049 A 
ATOM     35  N   UNL A   1      40.282  32.274  31.409  1.00  0.00    -0.248 NA
ATOM     36  C   UNL A   1      38.592  33.886  31.457  1.00  0.00     0.031 C 
ATOM     37  C   UNL A   1      37.824  29.815  28.605  1.00  0.00     0.029 A 
ATOM     38  N   UNL A   1      39.740  29.924  29.754  1.00  0.00    -0.354 N 
ATOM     39  C   UNL A   1      40.692  33.346  32.192  1.00  0.00     0.074 A 
ATOM     40  C   UNL A   1      39.634  34.333  32.143  1.00  0.00     0.031 C 
ATOM     41  C   UNL A   1      38.524  28.704  28.326  1.00  0.00     0.029 A 
ATOM     42  C   UNL A   1      39.795  28.752  29.041  1.00  0.00     0.049 A 
ATOM     43  H   UNL A   1      40.460  30.225  30.355  1.00  0.00     0.167 HD
ATOM     44  C   UNL A   1      41.839  33.493  32.897  1.00  0.00     0.031 A 
ATOM     45  C   UNL A   1      40.764  27.820  28.964  1.00  0.00     0.031 A 
ATOM     46  C   UNL A   1      42.885  32.506  32.958  1.00  0.00     0.049 A 
ATOM     47  C   UNL A   1      42.021  27.997  29.765  1.00  0.00     0.074 A 
ATOM     48  C   UNL A   1      44.050  32.528  33.704  1.00  0.00     0.029 A 
ATOM     49  N   UNL A   1      42.892  31.320  32.241  1.00  0.00    -0.354 N 
ATOM     50  N   UNL A   1      42.361  28.982  30.559  1.00  0.00    -0.248 NA
ATOM     51  C   UNL A   1      43.024  26.926  29.665  1.00  0.00     0.031 C 
ATOM     52  C   UNL A   1      44.786  31.377  33.402  1.00  0.00     0.029 A 
ATOM     53  C   UNL A   1      44.055  30.614  32.505  1.00  0.00     0.049 A 
ATOM     54  H   UNL A   1      42.177  31.023  31.633  1.00  0.00     0.167 HD
ATOM     55  C   UNL A   1      43.607  28.644  31.070  1.00  0.00     0.074 A 
ATOM     56  C   UNL A   1      43.955  27.353  30.508  1.00  0.00     0.031 C 
ATOM     57  C   UNL A   1      44.391  29.338  31.931  1.00  0.00     0.031 A 
BRANCH  44  58
ATOM     58  C   UNL A   1      42.028  34.782  33.647  1.00  0.00    -0.014 A 
ATOM     59  C   UNL A   1      41.469  34.975  34.920  1.00  0.00     0.009 A 
ATOM     60  C   UNL A   1      42.794  35.813  33.080  1.00  0.00     0.009 A 
ATOM     61  C   UNL A   1      41.635  36.189  35.590  1.00  0.00     0.001 A 
ATOM     62  C   UNL A   1      42.982  37.015  33.764  1.00  0.00     0.001 A 
ATOM     63  C   UNL A   1      42.394  37.206  35.013  1.00  0.00     0.000 A 
ENDBRANCH  44  58
BRANCH  45  64
ATOM     64  C   UNL A   1      40.566  26.625  28.105  1.00  0.00    -0.014 A 
ATOM     65  C   UNL A   1      39.828  25.529  28.574  1.00  0.00     0.009 A 
ATOM     66  C   UNL A   1      41.092  26.587  26.804  1.00  0.00     0.009 A 
ATOM     67  C   UNL A   1      39.634  24.409  27.761  1.00  0.00     0.001 A 
ATOM     68  C   UNL A   1      40.876  25.478  25.986  1.00  0.00     0.001 A 
ATOM     69  C   UNL A   1      40.153  24.387  26.467  1.00  0.00     0.000 A 
ENDBRANCH  45  64
BRANCH  57  70
ATOM     70  C   UNL A   1      45.693  28.707  32.330  1.00  0.00    -0.014 A 
ATOM     71  C   UNL A   1      46.875  28.968  31.619  1.00  0.00     0.009 A 
ATOM     72  C   UNL A   1      45.746  27.870  33.456  1.00  0.00     0.009 A 
ATOM     73  C   UNL A   1      48.079  28.379  32.012  1.00  0.00     0.001 A 
ATOM     74  C   UNL A   1      46.953  27.303  33.860  1.00  0.00     0.001 A 
ATOM     75  C   UNL A   1      48.118  27.551  33.134  1.00  0.00     0.000 A 
ENDBRANCH  57  70
ENDBRANCH  31  32
ENDBRANCH  23  26
ENDBRANCH  21  22
ENDBRANCH   1  21
TORSDOF 11
ENDMDL
