MODEL 1
REMARK VINA RESULT:     -11.0      0.000      0.000
REMARK SMILES CSCc1ccc(C(=O)N[C@H]2C=C[C@@H](C(=O)NCCCNC(=O)c3ccc(-c4c5nc(c(-c6ccccc6)c6ccc([nH]6)c(-c6ccccc6)c6nc(c(-c7ccccc7)c7ccc4[nH]7)C=C6)C=C5)cc3)C2)o1
REMARK SMILES IDX 18 1 17 2 15 3 16 4 14 6 11 7 12 8 72 9 13 10 10 11 8 12
REMARK SMILES IDX 9 13 7 15 4 16 5 17 73 18 6 19 3 20 2 21 1 22 19 23 20 24
REMARK SMILES IDX 21 25 22 26 23 28 24 29 25 30 71 31 26 32 70 33 27 34 28 35
REMARK SMILES IDX 29 36 64 37 30 38 69 39 63 40 65 41 31 42 68 43 62 44 61 45
REMARK SMILES IDX 32 47 54 48 39 49 53 50 40 51 43 52 52 53 66 54 41 55 42 56
REMARK SMILES IDX 51 58 67 59 44 60 33 61 34 62 38 63 35 64 37 65 36 66 55 67
REMARK SMILES IDX 56 68 60 69 57 70 59 71 58 72 45 73 46 74 50 75 47 76 49 77
REMARK SMILES IDX 48 78
REMARK H PARENT 17 5 10 14 21 27 65 46 43 57
REMARK Flexibility Score: inf
ROOT
ATOM      1  C   UNL A   1      37.424  21.247  24.607  1.00  0.00     0.117 C 
ENDROOT
BRANCH   1   2
ATOM      2  N   UNL A   1      36.645  21.651  25.755  1.00  0.00    -0.356 N 
ATOM      3  C   UNL A   1      35.328  21.524  26.047  1.00  0.00     0.227 C 
ATOM      4  O   UNL A   1      35.009  21.819  27.207  1.00  0.00    -0.274 OA
ATOM      5  H   UNL A   1      37.169  22.103  26.455  1.00  0.00     0.163 HD
BRANCH   3   6
ATOM      6  C   UNL A   1      34.245  21.021  25.081  1.00  0.00     0.103 C 
ATOM      7  C   UNL A   1      31.776  21.213  25.002  1.00  0.00     0.106 C 
ATOM      8  C   UNL A   1      32.442  22.028  23.972  1.00  0.00    -0.006 C 
ATOM      9  C   UNL A   1      32.946  20.408  25.610  1.00  0.00     0.047 C 
ATOM     10  C   UNL A   1      33.777  22.002  24.057  1.00  0.00    -0.016 C 
BRANCH   7  11
ATOM     11  N   UNL A   1      31.027  21.937  26.022  1.00  0.00    -0.343 N 
ATOM     12  C   UNL A   1      30.938  23.147  26.663  1.00  0.00     0.287 C 
ATOM     13  O   UNL A   1      30.026  23.153  27.503  1.00  0.00    -0.266 OA
ATOM     14  H   UNL A   1      30.332  21.341  26.383  1.00  0.00     0.164 HD
BRANCH  12  15
ATOM     15  C   UNL A   1      31.782  24.318  26.472  1.00  0.00     0.191 A 
ATOM     16  C   UNL A   1      32.045  26.543  26.471  1.00  0.00     0.114 A 
ATOM     17  C   UNL A   1      33.243  26.008  26.067  1.00  0.00     0.047 A 
ATOM     18  O   UNL A   1      31.150  25.537  26.681  1.00  0.00    -0.455 OA
ATOM     19  C   UNL A   1      33.095  24.606  26.152  1.00  0.00     0.056 A 
BRANCH  16  20
ATOM     20  C   UNL A   1      31.574  27.928  26.733  1.00  0.00     0.144 C 
BRANCH  20  21
ATOM     21  S   UNL A   1      31.806  29.045  25.300  1.00  0.00    -0.157 SA
ATOM     22  C   UNL A   1      31.834  30.648  26.151  1.00  0.00     0.085 C 
ENDBRANCH  20  21
ENDBRANCH  16  20
ENDBRANCH  12  15
ENDBRANCH   7  11
ENDBRANCH   3   6
ENDBRANCH   1   2
BRANCH   1  23
ATOM     23  C   UNL A   1      38.212  19.960  24.831  1.00  0.00     0.042 C 
BRANCH  23  24
ATOM     24  C   UNL A   1      39.108  19.974  26.063  1.00  0.00     0.118 C 
BRANCH  24  25
ATOM     25  N   UNL A   1      40.326  19.200  25.889  1.00  0.00    -0.352 N 
ATOM     26  C   UNL A   1      41.637  19.587  26.003  1.00  0.00     0.251 C 
ATOM     27  H   UNL A   1      40.189  18.254  25.652  1.00  0.00     0.163 HD
ATOM     28  O   UNL A   1      42.531  18.816  25.650  1.00  0.00    -0.269 OA
BRANCH  26  29
ATOM     29  C   UNL A   1      41.992  20.924  26.529  1.00  0.00     0.039 A 
ATOM     30  C   UNL A   1      42.383  21.920  25.629  1.00  0.00     0.014 A 
ATOM     31  C   UNL A   1      41.975  21.194  27.900  1.00  0.00     0.014 A 
ATOM     32  C   UNL A   1      42.696  23.199  26.097  1.00  0.00     0.010 A 
ATOM     33  C   UNL A   1      42.210  22.489  28.357  1.00  0.00     0.010 A 
ATOM     34  C   UNL A   1      42.580  23.505  27.463  1.00  0.00    -0.014 A 
BRANCH  34  35
ATOM     35  C   UNL A   1      42.851  24.873  27.977  1.00  0.00     0.031 A 
ATOM     36  C   UNL A   1      44.246  25.265  28.386  1.00  0.00     0.074 A 
ATOM     37  C   UNL A   1      41.835  25.743  28.139  1.00  0.00     0.049 A 
ATOM     38  N   UNL A   1      44.665  26.380  28.930  1.00  0.00    -0.248 NA
ATOM     39  C   UNL A   1      45.304  24.262  28.181  1.00  0.00     0.031 C 
ATOM     40  C   UNL A   1      40.432  25.482  27.810  1.00  0.00     0.029 A 
ATOM     41  N   UNL A   1      41.827  27.025  28.630  1.00  0.00    -0.354 N 
ATOM     42  C   UNL A   1      46.026  26.205  29.150  1.00  0.00     0.074 A 
ATOM     43  C   UNL A   1      46.352  24.861  28.727  1.00  0.00     0.031 C 
ATOM     44  C   UNL A   1      39.705  26.576  28.085  1.00  0.00     0.029 A 
ATOM     45  C   UNL A   1      40.578  27.599  28.650  1.00  0.00     0.049 A 
ATOM     46  H   UNL A   1      42.639  27.489  28.938  1.00  0.00     0.167 HD
ATOM     47  C   UNL A   1      46.928  27.088  29.642  1.00  0.00     0.031 A 
ATOM     48  C   UNL A   1      40.179  28.810  29.084  1.00  0.00     0.031 A 
ATOM     49  C   UNL A   1      46.609  28.429  30.051  1.00  0.00     0.049 A 
ATOM     50  C   UNL A   1      41.197  29.764  29.646  1.00  0.00     0.074 A 
ATOM     51  C   UNL A   1      47.464  29.416  30.512  1.00  0.00     0.029 A 
ATOM     52  N   UNL A   1      45.334  28.971  30.051  1.00  0.00    -0.354 N 
ATOM     53  N   UNL A   1      42.490  29.604  29.791  1.00  0.00    -0.248 NA
ATOM     54  C   UNL A   1      40.698  31.072  30.095  1.00  0.00     0.031 C 
ATOM     55  C   UNL A   1      46.697  30.539  30.841  1.00  0.00     0.029 A 
ATOM     56  C   UNL A   1      45.374  30.272  30.528  1.00  0.00     0.049 A 
ATOM     57  H   UNL A   1      44.520  28.503  29.756  1.00  0.00     0.167 HD
ATOM     58  C   UNL A   1      42.962  30.799  30.317  1.00  0.00     0.074 A 
ATOM     59  C   UNL A   1      41.821  31.680  30.452  1.00  0.00     0.031 C 
ATOM     60  C   UNL A   1      44.231  31.137  30.656  1.00  0.00     0.031 A 
BRANCH  47  61
ATOM     61  C   UNL A   1      48.353  26.621  29.773  1.00  0.00    -0.014 A 
ATOM     62  C   UNL A   1      48.796  25.940  30.918  1.00  0.00     0.009 A 
ATOM     63  C   UNL A   1      49.256  26.835  28.720  1.00  0.00     0.009 A 
ATOM     64  C   UNL A   1      50.124  25.521  31.023  1.00  0.00     0.001 A 
ATOM     65  C   UNL A   1      50.575  26.387  28.815  1.00  0.00     0.001 A 
ATOM     66  C   UNL A   1      51.011  25.740  29.970  1.00  0.00     0.000 A 
ENDBRANCH  47  61
BRANCH  48  67
ATOM     67  C   UNL A   1      38.746  29.198  28.996  1.00  0.00    -0.014 A 
ATOM     68  C   UNL A   1      37.894  29.021  30.097  1.00  0.00     0.009 A 
ATOM     69  C   UNL A   1      38.220  29.734  27.811  1.00  0.00     0.009 A 
ATOM     70  C   UNL A   1      36.539  29.349  30.004  1.00  0.00     0.001 A 
ATOM     71  C   UNL A   1      36.872  30.088  27.730  1.00  0.00     0.001 A 
ATOM     72  C   UNL A   1      36.030  29.886  28.822  1.00  0.00     0.000 A 
ENDBRANCH  48  67
BRANCH  60  73
ATOM     73  C   UNL A   1      44.459  32.533  31.166  1.00  0.00    -0.014 A 
ATOM     74  C   UNL A   1      44.438  32.823  32.539  1.00  0.00     0.009 A 
ATOM     75  C   UNL A   1      44.742  33.565  30.258  1.00  0.00     0.009 A 
ATOM     76  C   UNL A   1      44.663  34.126  32.989  1.00  0.00     0.001 A 
ATOM     77  C   UNL A   1      44.996  34.859  30.711  1.00  0.00     0.001 A 
ATOM     78  C   UNL A   1      44.947  35.141  32.075  1.00  0.00     0.000 A 
ENDBRANCH  60  73
ENDBRANCH  34  35
ENDBRANCH  26  29
ENDBRANCH  24  25
ENDBRANCH  23  24
ENDBRANCH   1  23
TORSDOF 14
ENDMDL
MODEL 2
REMARK VINA RESULT:     -10.9      3.833      9.135
REMARK SMILES CSCc1ccc(C(=O)N[C@H]2C=C[C@@H](C(=O)NCCCNC(=O)c3ccc(-c4c5nc(c(-c6ccccc6)c6ccc([nH]6)c(-c6ccccc6)c6nc(c(-c7ccccc7)c7ccc4[nH]7)C=C6)C=C5)cc3)C2)o1
REMARK SMILES IDX 18 1 17 2 15 3 16 4 14 6 11 7 12 8 72 9 13 10 10 11 8 12
REMARK SMILES IDX 9 13 7 15 4 16 5 17 73 18 6 19 3 20 2 21 1 22 19 23 20 24
REMARK SMILES IDX 21 25 22 26 23 28 24 29 25 30 71 31 26 32 70 33 27 34 28 35
REMARK SMILES IDX 29 36 64 37 30 38 69 39 63 40 65 41 31 42 68 43 62 44 61 45
REMARK SMILES IDX 32 47 54 48 39 49 53 50 40 51 43 52 52 53 66 54 41 55 42 56
REMARK SMILES IDX 51 58 67 59 44 60 33 61 34 62 38 63 35 64 37 65 36 66 55 67
REMARK SMILES IDX 56 68 60 69 57 70 59 71 58 72 45 73 46 74 50 75 47 76 49 77
REMARK SMILES IDX 48 78
REMARK H PARENT 17 5 10 14 21 27 65 46 43 57
REMARK Flexibility Score: inf
ROOT
ATOM      1  C   UNL A   1      31.794  30.446  26.947  1.00  0.00     0.117 C 
ENDROOT
BRANCH   1   2
ATOM      2  N   UNL A   1      32.738  29.985  25.955  1.00  0.00    -0.356 N 
ATOM      3  C   UNL A   1      32.569  29.389  24.750  1.00  0.00     0.227 C 
ATOM      4  O   UNL A   1      33.592  29.284  24.059  1.00  0.00    -0.274 OA
ATOM      5  H   UNL A   1      33.680  30.131  26.202  1.00  0.00     0.163 HD
BRANCH   3   6
ATOM      6  C   UNL A   1      31.233  28.886  24.185  1.00  0.00     0.103 C 
ATOM      7  C   UNL A   1      30.605  27.335  22.357  1.00  0.00     0.106 C 
ATOM      8  C   UNL A   1      30.355  26.768  23.692  1.00  0.00    -0.006 C 
ATOM      9  C   UNL A   1      31.005  28.793  22.674  1.00  0.00     0.047 C 
ATOM     10  C   UNL A   1      30.769  27.558  24.690  1.00  0.00    -0.016 C 
BRANCH   7  11
ATOM     11  N   UNL A   1      31.607  26.661  21.540  1.00  0.00    -0.343 N 
ATOM     12  C   UNL A   1      32.742  25.892  21.612  1.00  0.00     0.287 C 
ATOM     13  O   UNL A   1      33.174  25.610  20.484  1.00  0.00    -0.266 OA
ATOM     14  H   UNL A   1      31.393  26.813  20.591  1.00  0.00     0.164 HD
BRANCH  12  15
ATOM     15  C   UNL A   1      33.439  25.447  22.810  1.00  0.00     0.191 A 
ATOM     16  C   UNL A   1      34.439  23.821  23.983  1.00  0.00     0.114 A 
ATOM     17  C   UNL A   1      34.453  24.940  24.777  1.00  0.00     0.047 A 
ATOM     18  O   UNL A   1      33.800  24.106  22.813  1.00  0.00    -0.455 OA
ATOM     19  C   UNL A   1      33.898  25.980  23.999  1.00  0.00     0.056 A 
BRANCH  16  20
ATOM     20  C   UNL A   1      34.982  22.447  24.135  1.00  0.00     0.144 C 
BRANCH  20  21
ATOM     21  S   UNL A   1      36.352  22.349  25.346  1.00  0.00    -0.157 SA
ATOM     22  C   UNL A   1      37.145  20.810  24.802  1.00  0.00     0.085 C 
ENDBRANCH  20  21
ENDBRANCH  16  20
ENDBRANCH  12  15
ENDBRANCH   7  11
ENDBRANCH   3   6
ENDBRANCH   1   2
BRANCH   1  23
ATOM     23  C   UNL A   1      31.491  31.938  26.849  1.00  0.00     0.042 C 
BRANCH  23  24
ATOM     24  C   UNL A   1      32.721  32.836  26.897  1.00  0.00     0.118 C 
BRANCH  24  25
ATOM     25  N   UNL A   1      32.490  34.078  27.616  1.00  0.00    -0.352 N 
ATOM     26  C   UNL A   1      33.170  34.618  28.678  1.00  0.00     0.251 C 
ATOM     27  H   UNL A   1      31.729  34.613  27.293  1.00  0.00     0.163 HD
ATOM     28  O   UNL A   1      32.711  35.606  29.254  1.00  0.00    -0.269 OA
BRANCH  26  29
ATOM     29  C   UNL A   1      34.439  34.023  29.150  1.00  0.00     0.039 A 
ATOM     30  C   UNL A   1      34.417  33.192  30.276  1.00  0.00     0.014 A 
ATOM     31  C   UNL A   1      35.653  34.299  28.516  1.00  0.00     0.014 A 
ATOM     32  C   UNL A   1      35.597  32.594  30.726  1.00  0.00     0.010 A 
ATOM     33  C   UNL A   1      36.814  33.640  28.916  1.00  0.00     0.010 A 
ATOM     34  C   UNL A   1      36.801  32.786  30.030  1.00  0.00    -0.014 A 
BRANCH  34  35
ATOM     35  C   UNL A   1      38.058  32.115  30.454  1.00  0.00     0.031 A 
ATOM     36  C   UNL A   1      38.959  32.767  31.468  1.00  0.00     0.074 A 
ATOM     37  C   UNL A   1      38.423  30.950  29.883  1.00  0.00     0.049 A 
ATOM     38  N   UNL A   1      40.131  32.378  31.904  1.00  0.00    -0.248 NA
ATOM     39  C   UNL A   1      38.496  34.038  32.047  1.00  0.00     0.031 C 
ATOM     40  C   UNL A   1      37.656  30.225  28.867  1.00  0.00     0.029 A 
ATOM     41  N   UNL A   1      39.540  30.175  30.071  1.00  0.00    -0.354 N 
ATOM     42  C   UNL A   1      40.551  33.362  32.790  1.00  0.00     0.074 A 
ATOM     43  C   UNL A   1      39.533  34.390  32.792  1.00  0.00     0.031 C 
ATOM     44  C   UNL A   1      38.312  29.100  28.541  1.00  0.00     0.029 A 
ATOM     45  C   UNL A   1      39.565  29.045  29.288  1.00  0.00     0.049 A 
ATOM     46  H   UNL A   1      40.255  30.405  30.707  1.00  0.00     0.167 HD
ATOM     47  C   UNL A   1      41.673  33.401  33.548  1.00  0.00     0.031 A 
ATOM     48  C   UNL A   1      40.495  28.078  29.176  1.00  0.00     0.031 A 
ATOM     49  C   UNL A   1      42.680  32.375  33.557  1.00  0.00     0.049 A 
ATOM     50  C   UNL A   1      41.743  28.156  30.013  1.00  0.00     0.074 A 
ATOM     51  C   UNL A   1      43.826  32.298  34.331  1.00  0.00     0.029 A 
ATOM     52  N   UNL A   1      42.665  31.247  32.752  1.00  0.00    -0.354 N 
ATOM     53  N   UNL A   1      42.095  29.064  30.890  1.00  0.00    -0.248 NA
ATOM     54  C   UNL A   1      42.716  27.066  29.850  1.00  0.00     0.031 C 
ATOM     55  C   UNL A   1      44.531  31.150  33.955  1.00  0.00     0.029 A 
ATOM     56  C   UNL A   1      43.794  30.480  32.992  1.00  0.00     0.049 A 
ATOM     57  H   UNL A   1      41.957  31.023  32.106  1.00  0.00     0.167 HD
ATOM     58  C   UNL A   1      43.314  28.639  31.405  1.00  0.00     0.074 A 
ATOM     59  C   UNL A   1      43.631  27.385  30.753  1.00  0.00     0.031 C 
ATOM     60  C   UNL A   1      44.097  29.234  32.338  1.00  0.00     0.031 A 
BRANCH  47  61
ATOM     61  C   UNL A   1      41.873  34.605  34.428  1.00  0.00    -0.014 A 
ATOM     62  C   UNL A   1      42.540  35.749  33.960  1.00  0.00     0.009 A 
ATOM     63  C   UNL A   1      41.355  34.609  35.732  1.00  0.00     0.009 A 
ATOM     64  C   UNL A   1      42.721  36.855  34.794  1.00  0.00     0.001 A 
ATOM     65  C   UNL A   1      41.510  35.727  36.554  1.00  0.00     0.001 A 
ATOM     66  C   UNL A   1      42.201  36.845  36.089  1.00  0.00     0.000 A 
ENDBRANCH  47  61
BRANCH  48  67
ATOM     67  C   UNL A   1      40.282  26.944  28.240  1.00  0.00    -0.014 A 
ATOM     68  C   UNL A   1      39.597  25.793  28.661  1.00  0.00     0.009 A 
ATOM     69  C   UNL A   1      40.771  26.998  26.925  1.00  0.00     0.009 A 
ATOM     70  C   UNL A   1      39.430  24.711  27.793  1.00  0.00     0.001 A 
ATOM     71  C   UNL A   1      40.576  25.927  26.052  1.00  0.00     0.001 A 
ATOM     72  C   UNL A   1      39.916  24.780  26.489  1.00  0.00     0.000 A 
ENDBRANCH  48  67
BRANCH  60  73
ATOM     73  C   UNL A   1      45.355  28.517  32.741  1.00  0.00    -0.014 A 
ATOM     74  C   UNL A   1      45.354  27.555  33.763  1.00  0.00     0.009 A 
ATOM     75  C   UNL A   1      46.551  28.778  32.056  1.00  0.00     0.009 A 
ATOM     76  C   UNL A   1      46.534  26.894  34.112  1.00  0.00     0.001 A 
ATOM     77  C   UNL A   1      47.722  28.096  32.385  1.00  0.00     0.001 A 
ATOM     78  C   UNL A   1      47.715  27.161  33.420  1.00  0.00     0.000 A 
ENDBRANCH  60  73
ENDBRANCH  34  35
ENDBRANCH  26  29
ENDBRANCH  24  25
ENDBRANCH  23  24
ENDBRANCH   1  23
TORSDOF 14
ENDMDL
MODEL 3
REMARK VINA RESULT:     -10.8      4.360      9.354
REMARK SMILES CSCc1ccc(C(=O)N[C@H]2C=C[C@@H](C(=O)NCCCNC(=O)c3ccc(-c4c5nc(c(-c6ccccc6)c6ccc([nH]6)c(-c6ccccc6)c6nc(c(-c7ccccc7)c7ccc4[nH]7)C=C6)C=C5)cc3)C2)o1
REMARK SMILES IDX 18 1 17 2 15 3 16 4 14 6 11 7 12 8 72 9 13 10 10 11 8 12
REMARK SMILES IDX 9 13 7 15 4 16 5 17 73 18 6 19 3 20 2 21 1 22 19 23 20 24
REMARK SMILES IDX 21 25 22 26 23 28 24 29 25 30 71 31 26 32 70 33 27 34 28 35
REMARK SMILES IDX 29 36 64 37 30 38 69 39 63 40 65 41 31 42 68 43 62 44 61 45
REMARK SMILES IDX 32 47 54 48 39 49 53 50 40 51 43 52 52 53 66 54 41 55 42 56
REMARK SMILES IDX 51 58 67 59 44 60 33 61 34 62 38 63 35 64 37 65 36 66 55 67
REMARK SMILES IDX 56 68 60 69 57 70 59 71 58 72 45 73 46 74 50 75 47 76 49 77
REMARK SMILES IDX 48 78
REMARK H PARENT 17 5 10 14 21 27 65 46 43 57
REMARK Flexibility Score: inf
ROOT
ATOM      1  C   UNL A   1      31.604  30.611  26.775  1.00  0.00     0.117 C 
ENDROOT
BRANCH   1   2
ATOM      2  N   UNL A   1      32.583  30.097  25.845  1.00  0.00    -0.356 N 
ATOM      3  C   UNL A   1      32.457  29.409  24.684  1.00  0.00     0.227 C 
ATOM      4  O   UNL A   1      33.499  29.274  24.028  1.00  0.00    -0.274 OA
ATOM      5  H   UNL A   1      33.515  30.280  26.103  1.00  0.00     0.163 HD
BRANCH   3   6
ATOM      6  C   UNL A   1      31.146  28.838  24.124  1.00  0.00     0.103 C 
ATOM      7  C   UNL A   1      30.594  27.198  22.350  1.00  0.00     0.106 C 
ATOM      8  C   UNL A   1      30.348  26.674  23.704  1.00  0.00    -0.006 C 
ATOM      9  C   UNL A   1      30.939  28.680  22.615  1.00  0.00     0.047 C 
ATOM     10  C   UNL A   1      30.722  27.515  24.675  1.00  0.00    -0.016 C 
BRANCH   7  11
ATOM     11  N   UNL A   1      31.629  26.529  21.571  1.00  0.00    -0.343 N 
ATOM     12  C   UNL A   1      32.746  25.741  21.682  1.00  0.00     0.287 C 
ATOM     13  O   UNL A   1      33.234  25.481  20.572  1.00  0.00    -0.266 OA
ATOM     14  H   UNL A   1      31.468  26.709  20.616  1.00  0.00     0.164 HD
BRANCH  12  15
ATOM     15  C   UNL A   1      33.372  25.253  22.904  1.00  0.00     0.191 A 
ATOM     16  C   UNL A   1      34.070  23.550  24.181  1.00  0.00     0.114 A 
ATOM     17  C   UNL A   1      34.312  24.698  24.894  1.00  0.00     0.047 A 
ATOM     18  O   UNL A   1      33.472  23.872  22.999  1.00  0.00    -0.455 OA
ATOM     19  C   UNL A   1      33.948  25.769  24.048  1.00  0.00     0.056 A 
BRANCH  16  20
ATOM     20  C   UNL A   1      34.345  22.111  24.426  1.00  0.00     0.144 C 
BRANCH  20  21
ATOM     21  S   UNL A   1      35.428  21.827  25.875  1.00  0.00    -0.157 SA
ATOM     22  C   UNL A   1      34.175  21.651  27.176  1.00  0.00     0.085 C 
ENDBRANCH  20  21
ENDBRANCH  16  20
ENDBRANCH  12  15
ENDBRANCH   7  11
ENDBRANCH   3   6
ENDBRANCH   1   2
BRANCH   1  23
ATOM     23  C   UNL A   1      31.459  32.129  26.725  1.00  0.00     0.042 C 
BRANCH  23  24
ATOM     24  C   UNL A   1      32.726  32.896  27.085  1.00  0.00     0.118 C 
BRANCH  24  25
ATOM     25  N   UNL A   1      32.454  34.209  27.648  1.00  0.00    -0.352 N 
ATOM     26  C   UNL A   1      33.080  34.871  28.674  1.00  0.00     0.251 C 
ATOM     27  H   UNL A   1      31.707  34.696  27.231  1.00  0.00     0.163 HD
ATOM     28  O   UNL A   1      32.589  35.912  29.113  1.00  0.00    -0.269 OA
BRANCH  26  29
ATOM     29  C   UNL A   1      34.327  34.344  29.271  1.00  0.00     0.039 A 
ATOM     30  C   UNL A   1      34.258  33.678  30.498  1.00  0.00     0.014 A 
ATOM     31  C   UNL A   1      35.565  34.528  28.649  1.00  0.00     0.014 A 
ATOM     32  C   UNL A   1      35.417  33.146  31.070  1.00  0.00     0.010 A 
ATOM     33  C   UNL A   1      36.706  33.929  29.179  1.00  0.00     0.010 A 
ATOM     34  C   UNL A   1      36.647  33.237  30.399  1.00  0.00    -0.014 A 
BRANCH  34  35
ATOM     35  C   UNL A   1      37.883  32.629  30.958  1.00  0.00     0.031 A 
ATOM     36  C   UNL A   1      38.458  31.381  30.342  1.00  0.00     0.074 A 
ATOM     37  C   UNL A   1      38.454  33.159  32.057  1.00  0.00     0.049 A 
ATOM     38  N   UNL A   1      39.478  30.660  30.734  1.00  0.00    -0.248 NA
ATOM     39  C   UNL A   1      37.780  30.860  29.144  1.00  0.00     0.031 C 
ATOM     40  C   UNL A   1      37.983  34.348  32.770  1.00  0.00     0.029 A 
ATOM     41  N   UNL A   1      39.554  32.757  32.773  1.00  0.00    -0.354 N 
ATOM     42  C   UNL A   1      39.552  29.594  29.845  1.00  0.00     0.074 A 
ATOM     43  C   UNL A   1      38.444  29.735  28.926  1.00  0.00     0.031 C 
ATOM     44  C   UNL A   1      38.802  34.593  33.805  1.00  0.00     0.029 A 
ATOM     45  C   UNL A   1      39.828  33.557  33.858  1.00  0.00     0.049 A 
ATOM     46  H   UNL A   1      40.096  31.971  32.533  1.00  0.00     0.167 HD
ATOM     47  C   UNL A   1      40.467  28.598  29.788  1.00  0.00     0.031 A 
ATOM     48  C   UNL A   1      40.790  33.461  34.794  1.00  0.00     0.031 A 
ATOM     49  C   UNL A   1      41.576  28.463  30.693  1.00  0.00     0.049 A 
ATOM     50  C   UNL A   1      41.781  32.333  34.721  1.00  0.00     0.074 A 
ATOM     51  C   UNL A   1      42.588  27.518  30.682  1.00  0.00     0.029 A 
ATOM     52  N   UNL A   1      41.819  29.296  31.773  1.00  0.00    -0.354 N 
ATOM     53  N   UNL A   1      41.872  31.367  33.838  1.00  0.00    -0.248 NA
ATOM     54  C   UNL A   1      42.811  32.289  35.768  1.00  0.00     0.031 C 
ATOM     55  C   UNL A   1      43.413  27.748  31.789  1.00  0.00     0.029 A 
ATOM     56  C   UNL A   1      42.950  28.873  32.452  1.00  0.00     0.049 A 
ATOM     57  H   UNL A   1      41.269  30.074  32.022  1.00  0.00     0.167 HD
ATOM     58  C   UNL A   1      42.985  30.622  34.206  1.00  0.00     0.074 A 
ATOM     59  C   UNL A   1      43.544  31.255  35.382  1.00  0.00     0.031 C 
ATOM     60  C   UNL A   1      43.497  29.512  33.620  1.00  0.00     0.031 A 
BRANCH  47  61
ATOM     61  C   UNL A   1      40.298  27.565  28.706  1.00  0.00    -0.014 A 
ATOM     62  C   UNL A   1      40.898  27.722  27.447  1.00  0.00     0.009 A 
ATOM     63  C   UNL A   1      39.556  26.401  28.963  1.00  0.00     0.009 A 
ATOM     64  C   UNL A   1      40.725  26.755  26.454  1.00  0.00     0.001 A 
ATOM     65  C   UNL A   1      39.410  25.422  27.979  1.00  0.00     0.001 A 
ATOM     66  C   UNL A   1      39.985  25.604  26.722  1.00  0.00     0.000 A 
ENDBRANCH  47  61
BRANCH  48  67
ATOM     67  C   UNL A   1      40.872  34.470  35.884  1.00  0.00    -0.014 A 
ATOM     68  C   UNL A   1      40.157  34.286  37.078  1.00  0.00     0.009 A 
ATOM     69  C   UNL A   1      41.654  35.626  35.733  1.00  0.00     0.009 A 
ATOM     70  C   UNL A   1      40.203  35.252  38.086  1.00  0.00     0.001 A 
ATOM     71  C   UNL A   1      41.721  36.575  36.754  1.00  0.00     0.001 A 
ATOM     72  C   UNL A   1      40.988  36.393  37.926  1.00  0.00     0.000 A 
ENDBRANCH  48  67
BRANCH  60  73
ATOM     73  C   UNL A   1      44.751  28.935  34.215  1.00  0.00    -0.014 A 
ATOM     74  C   UNL A   1      46.022  29.369  33.807  1.00  0.00     0.009 A 
ATOM     75  C   UNL A   1      44.655  27.971  35.230  1.00  0.00     0.009 A 
ATOM     76  C   UNL A   1      47.172  28.825  34.383  1.00  0.00     0.001 A 
ATOM     77  C   UNL A   1      45.805  27.450  35.825  1.00  0.00     0.001 A 
ATOM     78  C   UNL A   1      47.063  27.870  35.394  1.00  0.00     0.000 A 
ENDBRANCH  60  73
ENDBRANCH  34  35
ENDBRANCH  26  29
ENDBRANCH  24  25
ENDBRANCH  23  24
ENDBRANCH   1  23
TORSDOF 14
ENDMDL
