MODEL 1
REMARK VINA RESULT:     -11.4      0.000      0.000
REMARK SMILES O=C(NCCCNC(=O)c1cccc2c(C(F)(F)F)cc(Br)nc12)c1ccc(-c2c3nc(c(-c4ccccc4)c4ccc([nH]4)c(-c4ccccc4)c4nc(c(-c5ccccc5)c5ccc2[nH]5)C=C4)C=C3)cc1
REMARK SMILES IDX 4 1 3 2 1 3 2 4 25 6 26 7 72 8 27 9 71 10 28 11 29 12 30 13
REMARK SMILES IDX 65 14 31 15 70 16 64 17 66 18 32 19 69 20 63 21 62 22 33 24
REMARK SMILES IDX 55 25 40 26 54 27 41 28 44 29 53 30 67 31 42 32 43 33 52 35
REMARK SMILES IDX 68 36 45 37 34 38 35 39 39 40 36 41 38 42 37 43 56 44 57 45
REMARK SMILES IDX 61 46 58 47 60 48 59 49 46 50 47 51 51 52 48 53 50 54 49 55
REMARK SMILES IDX 5 56 6 57 7 58 8 59 9 61 10 62 11 63 24 64 12 65 14 66 23 67
REMARK SMILES IDX 13 68 15 69 21 70 20 71 22 72 16 73 17 74 18 75 19 76
REMARK H PARENT 3 5 66 23 44 34 7 60
REMARK Flexibility Score: inf
ROOT
ATOM      1  C   UNL A   1      33.481  28.676  27.352  1.00  0.00     0.118 C 
ENDROOT
BRANCH   1   2
ATOM      2  N   UNL A   1      33.555  30.070  27.770  1.00  0.00    -0.352 N 
ATOM      3  O   UNL A   1      34.336  31.919  28.767  1.00  0.00    -0.269 OA
ATOM      4  C   UNL A   1      34.572  30.787  28.348  1.00  0.00     0.251 C 
ATOM      5  H   UNL A   1      32.733  30.586  27.611  1.00  0.00     0.163 HD
BRANCH   4   6
ATOM      6  C   UNL A   1      35.937  30.233  28.485  1.00  0.00     0.039 A 
ATOM      7  C   UNL A   1      36.316  29.690  29.718  1.00  0.00     0.014 A 
ATOM      8  C   UNL A   1      36.875  30.310  27.453  1.00  0.00     0.014 A 
ATOM      9  C   UNL A   1      37.610  29.196  29.903  1.00  0.00     0.010 A 
ATOM     10  C   UNL A   1      38.138  29.741  27.607  1.00  0.00     0.010 A 
ATOM     11  C   UNL A   1      38.528  29.202  28.842  1.00  0.00    -0.014 A 
BRANCH  11  12
ATOM     12  C   UNL A   1      39.919  28.716  29.021  1.00  0.00     0.031 A 
ATOM     13  C   UNL A   1      40.958  29.628  29.618  1.00  0.00     0.074 A 
ATOM     14  C   UNL A   1      40.263  27.477  28.623  1.00  0.00     0.049 A 
ATOM     15  N   UNL A   1      42.240  29.422  29.784  1.00  0.00    -0.248 NA
ATOM     16  C   UNL A   1      40.500  30.953  30.068  1.00  0.00     0.031 C 
ATOM     17  C   UNL A   1      39.356  26.498  28.022  1.00  0.00     0.029 A 
ATOM     18  N   UNL A   1      41.472  26.828  28.671  1.00  0.00    -0.354 N 
ATOM     19  C   UNL A   1      42.742  30.596  30.334  1.00  0.00     0.074 A 
ATOM     20  C   UNL A   1      41.638  31.526  30.429  1.00  0.00     0.031 C 
ATOM     21  C   UNL A   1      40.032  25.361  27.793  1.00  0.00     0.029 A 
ATOM     22  C   UNL A   1      41.425  25.543  28.190  1.00  0.00     0.049 A 
ATOM     23  H   UNL A   1      42.293  27.245  29.018  1.00  0.00     0.167 HD
ATOM     24  C   UNL A   1      44.001  30.869  30.746  1.00  0.00     0.031 A 
ATOM     25  C   UNL A   1      42.394  24.614  28.081  1.00  0.00     0.031 A 
ATOM     26  C   UNL A   1      45.095  29.940  30.676  1.00  0.00     0.049 A 
ATOM     27  C   UNL A   1      43.788  24.940  28.538  1.00  0.00     0.074 A 
ATOM     28  C   UNL A   1      46.403  30.119  31.090  1.00  0.00     0.029 A 
ATOM     29  N   UNL A   1      45.004  28.652  30.175  1.00  0.00    -0.354 N 
ATOM     30  N   UNL A   1      44.244  26.053  29.058  1.00  0.00    -0.248 NA
ATOM     31  C   UNL A   1      44.800  23.882  28.396  1.00  0.00     0.031 C 
ATOM     32  C   UNL A   1      47.113  28.950  30.806  1.00  0.00     0.029 A 
ATOM     33  C   UNL A   1      46.235  28.026  30.262  1.00  0.00     0.049 A 
ATOM     34  H   UNL A   1      44.185  28.243  29.810  1.00  0.00     0.167 HD
ATOM     35  C   UNL A   1      45.589  25.825  29.322  1.00  0.00     0.074 A 
ATOM     36  C   UNL A   1      45.872  24.464  28.918  1.00  0.00     0.031 C 
ATOM     37  C   UNL A   1      46.504  26.672  29.853  1.00  0.00     0.031 A 
BRANCH  24  38
ATOM     38  C   UNL A   1      44.262  32.233  31.319  1.00  0.00    -0.014 A 
ATOM     39  C   UNL A   1      44.744  33.262  30.496  1.00  0.00     0.009 A 
ATOM     40  C   UNL A   1      44.074  32.489  32.687  1.00  0.00     0.009 A 
ATOM     41  C   UNL A   1      45.031  34.519  31.029  1.00  0.00     0.001 A 
ATOM     42  C   UNL A   1      44.335  33.756  33.213  1.00  0.00     0.001 A 
ATOM     43  C   UNL A   1      44.819  34.768  32.384  1.00  0.00     0.000 A 
ENDBRANCH  24  38
BRANCH  25  44
ATOM     44  C   UNL A   1      42.056  23.269  27.550  1.00  0.00    -0.014 A 
ATOM     45  C   UNL A   1      42.195  22.979  26.184  1.00  0.00     0.009 A 
ATOM     46  C   UNL A   1      41.540  22.283  28.405  1.00  0.00     0.009 A 
ATOM     47  C   UNL A   1      41.806  21.736  25.681  1.00  0.00     0.001 A 
ATOM     48  C   UNL A   1      41.175  21.032  27.903  1.00  0.00     0.001 A 
ATOM     49  C   UNL A   1      41.300  20.762  26.541  1.00  0.00     0.000 A 
ENDBRANCH  25  44
BRANCH  37  50
ATOM     50  C   UNL A   1      47.901  26.160  30.049  1.00  0.00    -0.014 A 
ATOM     51  C   UNL A   1      48.309  25.718  31.318  1.00  0.00     0.009 A 
ATOM     52  C   UNL A   1      48.842  26.214  29.011  1.00  0.00     0.009 A 
ATOM     53  C   UNL A   1      49.635  25.352  31.548  1.00  0.00     0.001 A 
ATOM     54  C   UNL A   1      50.164  25.825  29.237  1.00  0.00     0.001 A 
ATOM     55  C   UNL A   1      50.560  25.403  30.506  1.00  0.00     0.000 A 
ENDBRANCH  37  50
ENDBRANCH  11  12
ENDBRANCH   4   6
ENDBRANCH   1   2
BRANCH   1  56
ATOM     56  C   UNL A   1      34.011  28.451  25.940  1.00  0.00     0.042 C 
BRANCH  56  57
ATOM     57  C   UNL A   1      33.155  27.533  25.079  1.00  0.00     0.118 C 
BRANCH  57  58
ATOM     58  N   UNL A   1      33.582  27.503  23.691  1.00  0.00    -0.352 N 
ATOM     59  C   UNL A   1      33.475  26.506  22.753  1.00  0.00     0.253 C 
ATOM     60  H   UNL A   1      34.017  28.327  23.373  1.00  0.00     0.163 HD
ATOM     61  O   UNL A   1      33.931  26.686  21.625  1.00  0.00    -0.269 OA
BRANCH  59  62
ATOM     62  C   UNL A   1      32.736  25.267  23.068  1.00  0.00     0.066 A 
ATOM     63  C   UNL A   1      31.368  25.236  22.758  1.00  0.00     0.016 A 
ATOM     64  C   UNL A   1      33.420  24.150  23.571  1.00  0.00     0.085 A 
ATOM     65  C   UNL A   1      30.634  24.091  23.008  1.00  0.00     0.002 A 
ATOM     66  C   UNL A   1      32.673  22.965  23.782  1.00  0.00     0.013 A 
ATOM     67  N   UNL A   1      34.739  24.202  23.853  1.00  0.00    -0.240 NA
ATOM     68  C   UNL A   1      31.280  22.968  23.516  1.00  0.00     0.011 A 
ATOM     69  C   UNL A   1      33.364  21.815  24.245  1.00  0.00     0.068 A 
ATOM     70  C   UNL A   1      35.377  23.097  24.277  1.00  0.00     0.107 A 
ATOM     71  C   UNL A   1      34.742  21.893  24.484  1.00  0.00     0.049 A 
ATOM     72  Br  UNL A   1      37.240  23.221  24.600  1.00  0.00    -0.029 Br
BRANCH  69  73
ATOM     73  C   UNL A   1      32.661  20.501  24.478  1.00  0.00     0.417 C 
ATOM     74  F   UNL A   1      31.634  20.610  25.365  1.00  0.00    -0.166 F 
ATOM     75  F   UNL A   1      32.124  19.980  23.340  1.00  0.00    -0.166 F 
ATOM     76  F   UNL A   1      33.475  19.530  24.977  1.00  0.00    -0.166 F 
ENDBRANCH  69  73
ENDBRANCH  59  62
ENDBRANCH  57  58
ENDBRANCH  56  57
ENDBRANCH   1  56
TORSDOF 11
ENDMDL
MODEL 2
REMARK VINA RESULT:     -11.3      3.331      7.855
REMARK SMILES O=C(NCCCNC(=O)c1cccc2c(C(F)(F)F)cc(Br)nc12)c1ccc(-c2c3nc(c(-c4ccccc4)c4ccc([nH]4)c(-c4ccccc4)c4nc(c(-c5ccccc5)c5ccc2[nH]5)C=C4)C=C3)cc1
REMARK SMILES IDX 4 1 3 2 1 3 2 4 25 6 26 7 72 8 27 9 71 10 28 11 29 12 30 13
REMARK SMILES IDX 65 14 31 15 70 16 64 17 66 18 32 19 69 20 63 21 62 22 33 24
REMARK SMILES IDX 55 25 40 26 54 27 41 28 44 29 53 30 67 31 42 32 43 33 52 35
REMARK SMILES IDX 68 36 45 37 34 38 35 39 39 40 36 41 38 42 37 43 56 44 57 45
REMARK SMILES IDX 61 46 58 47 60 48 59 49 46 50 47 51 51 52 48 53 50 54 49 55
REMARK SMILES IDX 5 56 6 57 7 58 8 59 9 61 10 62 11 63 24 64 12 65 14 66 23 67
REMARK SMILES IDX 13 68 15 69 21 70 20 71 22 72 16 73 17 74 18 75 19 76
REMARK H PARENT 3 5 66 23 44 34 7 60
REMARK Flexibility Score: inf
ROOT
ATOM      1  C   UNL A   1      36.415  23.364  26.134  1.00  0.00     0.118 C 
ENDROOT
BRANCH   1   2
ATOM      2  N   UNL A   1      37.586  22.503  26.054  1.00  0.00    -0.352 N 
ATOM      3  O   UNL A   1      39.745  21.905  25.970  1.00  0.00    -0.269 OA
ATOM      4  C   UNL A   1      38.916  22.765  26.264  1.00  0.00     0.251 C 
ATOM      5  H   UNL A   1      37.390  21.571  25.805  1.00  0.00     0.163 HD
BRANCH   4   6
ATOM      6  C   UNL A   1      39.378  24.053  26.828  1.00  0.00     0.039 A 
ATOM      7  C   UNL A   1      39.150  24.307  28.185  1.00  0.00     0.014 A 
ATOM      8  C   UNL A   1      39.956  25.045  26.032  1.00  0.00     0.014 A 
ATOM      9  C   UNL A   1      39.531  25.529  28.746  1.00  0.00     0.010 A 
ATOM     10  C   UNL A   1      40.413  26.230  26.606  1.00  0.00     0.010 A 
ATOM     11  C   UNL A   1      40.183  26.495  27.964  1.00  0.00    -0.014 A 
BRANCH  11  12
ATOM     12  C   UNL A   1      40.566  27.814  28.526  1.00  0.00     0.031 A 
ATOM     13  C   UNL A   1      41.992  28.066  28.937  1.00  0.00     0.074 A 
ATOM     14  C   UNL A   1      39.638  28.774  28.700  1.00  0.00     0.049 A 
ATOM     15  N   UNL A   1      42.510  29.119  29.519  1.00  0.00    -0.248 NA
ATOM     16  C   UNL A   1      42.959  26.986  28.678  1.00  0.00     0.031 C 
ATOM     17  C   UNL A   1      38.221  28.656  28.353  1.00  0.00     0.029 A 
ATOM     18  N   UNL A   1      39.753  30.045  29.209  1.00  0.00    -0.354 N 
ATOM     19  C   UNL A   1      43.853  28.816  29.715  1.00  0.00     0.074 A 
ATOM     20  C   UNL A   1      44.059  27.467  29.236  1.00  0.00     0.031 C 
ATOM     21  C   UNL A   1      37.607  29.819  28.625  1.00  0.00     0.029 A 
ATOM     22  C   UNL A   1      38.574  30.749  29.201  1.00  0.00     0.049 A 
ATOM     23  H   UNL A   1      40.600  30.414  29.547  1.00  0.00     0.167 HD
ATOM     24  C   UNL A   1      44.832  29.598  30.226  1.00  0.00     0.031 A 
ATOM     25  C   UNL A   1      38.301  32.002  29.611  1.00  0.00     0.031 A 
ATOM     26  C   UNL A   1      44.637  30.947  30.680  1.00  0.00     0.049 A 
ATOM     27  C   UNL A   1      39.402  32.851  30.182  1.00  0.00     0.074 A 
ATOM     28  C   UNL A   1      45.574  31.826  31.193  1.00  0.00     0.029 A 
ATOM     29  N   UNL A   1      43.425  31.617  30.661  1.00  0.00    -0.354 N 
ATOM     30  N   UNL A   1      40.665  32.551  30.358  1.00  0.00    -0.248 NA
ATOM     31  C   UNL A   1      39.040  34.212  30.608  1.00  0.00     0.031 C 
ATOM     32  C   UNL A   1      44.922  33.018  31.517  1.00  0.00     0.029 A 
ATOM     33  C   UNL A   1      43.588  32.897  31.159  1.00  0.00     0.049 A 
ATOM     34  H   UNL A   1      42.573  31.239  30.340  1.00  0.00     0.167 HD
ATOM     35  C   UNL A   1      41.254  33.688  30.896  1.00  0.00     0.074 A 
ATOM     36  C   UNL A   1      40.212  34.689  31.006  1.00  0.00     0.031 C 
ATOM     37  C   UNL A   1      42.543  33.882  31.266  1.00  0.00     0.031 A 
BRANCH  24  38
ATOM     38  C   UNL A   1      46.213  29.011  30.312  1.00  0.00    -0.014 A 
ATOM     39  C   UNL A   1      46.624  28.349  31.479  1.00  0.00     0.009 A 
ATOM     40  C   UNL A   1      47.125  29.153  29.254  1.00  0.00     0.009 A 
ATOM     41  C   UNL A   1      47.919  27.840  31.585  1.00  0.00     0.001 A 
ATOM     42  C   UNL A   1      48.410  28.618  29.351  1.00  0.00     0.001 A 
ATOM     43  C   UNL A   1      48.808  27.967  30.519  1.00  0.00     0.000 A 
ENDBRANCH  24  38
BRANCH  25  44
ATOM     44  C   UNL A   1      36.925  32.536  29.452  1.00  0.00    -0.014 A 
ATOM     45  C   UNL A   1      35.973  32.388  30.473  1.00  0.00     0.009 A 
ATOM     46  C   UNL A   1      36.543  33.151  28.250  1.00  0.00     0.009 A 
ATOM     47  C   UNL A   1      34.661  32.828  30.286  1.00  0.00     0.001 A 
ATOM     48  C   UNL A   1      35.235  33.613  28.076  1.00  0.00     0.001 A 
ATOM     49  C   UNL A   1      34.294  33.443  29.090  1.00  0.00     0.000 A 
ENDBRANCH  25  44
BRANCH  37  50
ATOM     50  C   UNL A   1      42.920  35.228  31.812  1.00  0.00    -0.014 A 
ATOM     51  C   UNL A   1      43.522  36.177  30.969  1.00  0.00     0.009 A 
ATOM     52  C   UNL A   1      42.781  35.519  33.176  1.00  0.00     0.009 A 
ATOM     53  C   UNL A   1      43.988  37.387  31.484  1.00  0.00     0.001 A 
ATOM     54  C   UNL A   1      43.227  36.741  33.685  1.00  0.00     0.001 A 
ATOM     55  C   UNL A   1      43.837  37.668  32.841  1.00  0.00     0.000 A 
ENDBRANCH  37  50
ENDBRANCH  11  12
ENDBRANCH   4   6
ENDBRANCH   1   2
BRANCH   1  56
ATOM     56  C   UNL A   1      35.827  23.697  24.766  1.00  0.00     0.042 C 
BRANCH  56  57
ATOM     57  C   UNL A   1      34.516  24.469  24.809  1.00  0.00     0.118 C 
BRANCH  57  58
ATOM     58  N   UNL A   1      33.703  24.134  25.965  1.00  0.00    -0.352 N 
ATOM     59  C   UNL A   1      32.420  24.506  26.283  1.00  0.00     0.253 C 
ATOM     60  H   UNL A   1      34.141  23.549  26.625  1.00  0.00     0.163 HD
ATOM     61  O   UNL A   1      31.923  24.119  27.339  1.00  0.00    -0.269 OA
BRANCH  59  62
ATOM     62  C   UNL A   1      31.613  25.282  25.320  1.00  0.00     0.066 A 
ATOM     63  C   UNL A   1      30.705  24.572  24.520  1.00  0.00     0.016 A 
ATOM     64  C   UNL A   1      31.705  26.681  25.295  1.00  0.00     0.085 A 
ATOM     65  C   UNL A   1      29.906  25.253  23.620  1.00  0.00     0.002 A 
ATOM     66  C   UNL A   1      30.850  27.378  24.405  1.00  0.00     0.013 A 
ATOM     67  N   UNL A   1      32.579  27.342  26.082  1.00  0.00    -0.240 NA
ATOM     68  C   UNL A   1      29.979  26.642  23.563  1.00  0.00     0.011 A 
ATOM     69  C   UNL A   1      30.901  28.797  24.406  1.00  0.00     0.068 A 
ATOM     70  C   UNL A   1      32.600  28.687  26.078  1.00  0.00     0.107 A 
ATOM     71  C   UNL A   1      31.788  29.451  25.269  1.00  0.00     0.049 A 
ATOM     72  Br  UNL A   1      33.811  29.557  27.248  1.00  0.00    -0.029 Br
BRANCH  69  73
ATOM     73  C   UNL A   1      30.015  29.627  23.512  1.00  0.00     0.417 C 
ATOM     74  F   UNL A   1      30.491  29.710  22.239  1.00  0.00    -0.166 F 
ATOM     75  F   UNL A   1      28.751  29.131  23.411  1.00  0.00    -0.166 F 
ATOM     76  F   UNL A   1      29.870  30.914  23.933  1.00  0.00    -0.166 F 
ENDBRANCH  69  73
ENDBRANCH  59  62
ENDBRANCH  57  58
ENDBRANCH  56  57
ENDBRANCH   1  56
TORSDOF 11
ENDMDL
MODEL 3
REMARK VINA RESULT:     -11.3      1.840      2.428
REMARK SMILES O=C(NCCCNC(=O)c1cccc2c(C(F)(F)F)cc(Br)nc12)c1ccc(-c2c3nc(c(-c4ccccc4)c4ccc([nH]4)c(-c4ccccc4)c4nc(c(-c5ccccc5)c5ccc2[nH]5)C=C4)C=C3)cc1
REMARK SMILES IDX 4 1 3 2 1 3 2 4 25 6 26 7 72 8 27 9 71 10 28 11 29 12 30 13
REMARK SMILES IDX 65 14 31 15 70 16 64 17 66 18 32 19 69 20 63 21 62 22 33 24
REMARK SMILES IDX 55 25 40 26 54 27 41 28 44 29 53 30 67 31 42 32 43 33 52 35
REMARK SMILES IDX 68 36 45 37 34 38 35 39 39 40 36 41 38 42 37 43 56 44 57 45
REMARK SMILES IDX 61 46 58 47 60 48 59 49 46 50 47 51 51 52 48 53 50 54 49 55
REMARK SMILES IDX 5 56 6 57 7 58 8 59 9 61 10 62 11 63 24 64 12 65 14 66 23 67
REMARK SMILES IDX 13 68 15 69 21 70 20 71 22 72 16 73 17 74 18 75 19 76
REMARK H PARENT 3 5 66 23 44 34 7 60
REMARK Flexibility Score: inf
ROOT
ATOM      1  C   UNL A   1      33.458  28.531  27.304  1.00  0.00     0.118 C 
ENDROOT
BRANCH   1   2
ATOM      2  N   UNL A   1      33.509  29.935  27.690  1.00  0.00    -0.352 N 
ATOM      3  O   UNL A   1      34.255  31.817  28.652  1.00  0.00    -0.269 OA
ATOM      4  C   UNL A   1      34.510  30.678  28.262  1.00  0.00     0.251 C 
ATOM      5  H   UNL A   1      32.683  30.436  27.509  1.00  0.00     0.163 HD
BRANCH   4   6
ATOM      6  C   UNL A   1      35.880  30.144  28.430  1.00  0.00     0.039 A 
ATOM      7  C   UNL A   1      36.233  29.588  29.664  1.00  0.00     0.014 A 
ATOM      8  C   UNL A   1      36.845  30.254  27.425  1.00  0.00     0.014 A 
ATOM      9  C   UNL A   1      37.530  29.113  29.877  1.00  0.00     0.010 A 
ATOM     10  C   UNL A   1      38.113  29.704  27.606  1.00  0.00     0.010 A 
ATOM     11  C   UNL A   1      38.477  29.151  28.843  1.00  0.00    -0.014 A 
BRANCH  11  12
ATOM     12  C   UNL A   1      39.871  28.686  29.053  1.00  0.00     0.031 A 
ATOM     13  C   UNL A   1      40.874  29.601  29.703  1.00  0.00     0.074 A 
ATOM     14  C   UNL A   1      40.249  27.463  28.636  1.00  0.00     0.049 A 
ATOM     15  N   UNL A   1      42.155  29.413  29.903  1.00  0.00    -0.248 NA
ATOM     16  C   UNL A   1      40.379  30.906  30.170  1.00  0.00     0.031 C 
ATOM     17  C   UNL A   1      39.379  26.483  27.985  1.00  0.00     0.029 A 
ATOM     18  N   UNL A   1      41.468  26.834  28.706  1.00  0.00    -0.354 N 
ATOM     19  C   UNL A   1      42.618  30.582  30.496  1.00  0.00     0.074 A 
ATOM     20  C   UNL A   1      41.495  31.490  30.578  1.00  0.00     0.031 C 
ATOM     21  C   UNL A   1      40.083  25.363  27.750  1.00  0.00     0.029 A 
ATOM     22  C   UNL A   1      41.459  25.560  28.194  1.00  0.00     0.049 A 
ATOM     23  H   UNL A   1      42.271  27.257  29.088  1.00  0.00     0.167 HD
ATOM     24  C   UNL A   1      43.859  30.868  30.952  1.00  0.00     0.031 A 
ATOM     25  C   UNL A   1      42.448  24.652  28.093  1.00  0.00     0.031 A 
ATOM     26  C   UNL A   1      44.971  29.960  30.895  1.00  0.00     0.049 A 
ATOM     27  C   UNL A   1      43.822  24.991  28.600  1.00  0.00     0.074 A 
ATOM     28  C   UNL A   1      46.262  30.152  31.353  1.00  0.00     0.029 A 
ATOM     29  N   UNL A   1      44.919  28.683  30.360  1.00  0.00    -0.354 N 
ATOM     30  N   UNL A   1      44.241  26.098  29.160  1.00  0.00    -0.248 NA
ATOM     31  C   UNL A   1      44.856  23.954  28.465  1.00  0.00     0.031 C 
ATOM     32  C   UNL A   1      47.002  29.003  31.063  1.00  0.00     0.029 A 
ATOM     33  C   UNL A   1      46.158  28.077  30.471  1.00  0.00     0.049 A 
ATOM     34  H   UNL A   1      44.119  28.268  29.961  1.00  0.00     0.167 HD
ATOM     35  C   UNL A   1      45.581  25.888  29.460  1.00  0.00     0.074 A 
ATOM     36  C   UNL A   1      45.901  24.542  29.032  1.00  0.00     0.031 C 
ATOM     37  C   UNL A   1      46.464  26.738  30.039  1.00  0.00     0.031 A 
BRANCH  24  38
ATOM     38  C   UNL A   1      44.077  32.222  31.566  1.00  0.00    -0.014 A 
ATOM     39  C   UNL A   1      43.858  32.416  32.938  1.00  0.00     0.009 A 
ATOM     40  C   UNL A   1      44.458  33.319  30.777  1.00  0.00     0.009 A 
ATOM     41  C   UNL A   1      44.016  33.680  33.508  1.00  0.00     0.001 A 
ATOM     42  C   UNL A   1      44.643  34.576  31.354  1.00  0.00     0.001 A 
ATOM     43  C   UNL A   1      44.416  34.757  32.718  1.00  0.00     0.000 A 
ENDBRANCH  24  38
BRANCH  25  44
ATOM     44  C   UNL A   1      42.151  23.314  27.520  1.00  0.00    -0.014 A 
ATOM     45  C   UNL A   1      41.559  22.311  28.304  1.00  0.00     0.009 A 
ATOM     46  C   UNL A   1      42.509  23.019  26.196  1.00  0.00     0.009 A 
ATOM     47  C   UNL A   1      41.349  21.034  27.780  1.00  0.00     0.001 A 
ATOM     48  C   UNL A   1      42.275  21.747  25.667  1.00  0.00     0.001 A 
ATOM     49  C   UNL A   1      41.704  20.754  26.461  1.00  0.00     0.000 A 
ENDBRANCH  25  44
BRANCH  37  50
ATOM     50  C   UNL A   1      47.864  26.246  30.265  1.00  0.00    -0.014 A 
ATOM     51  C   UNL A   1      48.237  25.770  31.533  1.00  0.00     0.009 A 
ATOM     52  C   UNL A   1      48.837  26.352  29.262  1.00  0.00     0.009 A 
ATOM     53  C   UNL A   1      49.562  25.421  31.795  1.00  0.00     0.001 A 
ATOM     54  C   UNL A   1      50.159  25.981  29.521  1.00  0.00     0.001 A 
ATOM     55  C   UNL A   1      50.521  25.524  30.788  1.00  0.00     0.000 A 
ENDBRANCH  37  50
ENDBRANCH  11  12
ENDBRANCH   4   6
ENDBRANCH   1   2
BRANCH   1  56
ATOM     56  C   UNL A   1      32.034  28.002  27.175  1.00  0.00     0.042 C 
BRANCH  56  57
ATOM     57  C   UNL A   1      31.833  26.980  26.065  1.00  0.00     0.118 C 
BRANCH  57  58
ATOM     58  N   UNL A   1      30.866  25.953  26.413  1.00  0.00    -0.352 N 
ATOM     59  C   UNL A   1      31.025  24.596  26.547  1.00  0.00     0.253 C 
ATOM     60  H   UNL A   1      29.953  26.282  26.577  1.00  0.00     0.163 HD
ATOM     61  O   UNL A   1      30.053  23.899  26.831  1.00  0.00    -0.269 OA
BRANCH  59  62
ATOM     62  C   UNL A   1      32.369  23.993  26.445  1.00  0.00     0.066 A 
ATOM     63  C   UNL A   1      32.857  23.310  27.569  1.00  0.00     0.016 A 
ATOM     64  C   UNL A   1      33.068  24.038  25.229  1.00  0.00     0.085 A 
ATOM     65  C   UNL A   1      34.099  22.705  27.519  1.00  0.00     0.002 A 
ATOM     66  C   UNL A   1      34.319  23.375  25.169  1.00  0.00     0.013 A 
ATOM     67  N   UNL A   1      32.573  24.693  24.158  1.00  0.00    -0.240 NA
ATOM     68  C   UNL A   1      34.822  22.738  26.330  1.00  0.00     0.011 A 
ATOM     69  C   UNL A   1      35.012  23.373  23.929  1.00  0.00     0.068 A 
ATOM     70  C   UNL A   1      33.239  24.665  22.990  1.00  0.00     0.107 A 
ATOM     71  C   UNL A   1      34.447  24.025  22.826  1.00  0.00     0.049 A 
ATOM     72  Br  UNL A   1      32.464  25.557  21.508  1.00  0.00    -0.029 Br
BRANCH  69  73
ATOM     73  C   UNL A   1      36.339  22.676  23.759  1.00  0.00     0.417 C 
ATOM     74  F   UNL A   1      37.332  23.265  24.480  1.00  0.00    -0.166 F 
ATOM     75  F   UNL A   1      36.306  21.374  24.152  1.00  0.00    -0.166 F 
ATOM     76  F   UNL A   1      36.782  22.659  22.471  1.00  0.00    -0.166 F 
ENDBRANCH  69  73
ENDBRANCH  59  62
ENDBRANCH  57  58
ENDBRANCH  56  57
ENDBRANCH   1  56
TORSDOF 11
ENDMDL
