MODEL 1
REMARK VINA RESULT:     -10.8      0.000      0.000
REMARK SMILES CC(C)Oc1ccc([C@H](O)[C@H](F)C(=O)NCCCNC(=O)c2ccc(-c3c4nc(c(-c5ccccc5)c5ccc([nH]5)c(-c5ccccc5)c5nc(c(-c6ccccc6)c6ccc3[nH]6)C=C5)C=C4)cc2)cc1
REMARK SMILES IDX 16 1 15 2 13 3 14 4 11 6 12 7 9 8 8 9 5 10 6 11 71 12 7 13
REMARK SMILES IDX 70 14 4 15 2 16 1 17 3 18 10 19 17 21 18 22 19 23 20 24
REMARK SMILES IDX 21 26 22 27 23 28 69 29 24 30 68 31 25 32 26 33 27 34 62 35
REMARK SMILES IDX 28 36 67 37 61 38 63 39 29 40 66 41 60 42 59 43 30 45 52 46
REMARK SMILES IDX 37 47 51 48 38 49 41 50 50 51 64 52 39 53 40 54 49 56 65 57
REMARK SMILES IDX 42 58 31 59 32 60 36 61 33 62 35 63 34 64 53 65 54 66 58 67
REMARK SMILES IDX 55 68 57 69 56 70 43 71 44 72 48 73 45 74 47 75 46 76
REMARK H PARENT 15 5 10 20 19 25 63 44 41 55
REMARK Flexibility Score: inf
ROOT
ATOM      1  C   UNL A   1      31.799  30.601  26.079  1.00  0.00     0.117 C 
ENDROOT
BRANCH   1   2
ATOM      2  N   UNL A   1      31.537  29.564  27.057  1.00  0.00    -0.353 N 
ATOM      3  C   UNL A   1      31.917  28.251  27.038  1.00  0.00     0.257 C 
ATOM      4  O   UNL A   1      31.547  27.533  27.971  1.00  0.00    -0.272 OA
ATOM      5  H   UNL A   1      31.014  29.844  27.843  1.00  0.00     0.163 HD
BRANCH   3   6
ATOM      6  C   UNL A   1      32.735  27.703  25.875  1.00  0.00     0.288 C 
ATOM      7  F   UNL A   1      33.797  26.975  26.353  1.00  0.00    -0.234 F 
BRANCH   6   8
ATOM      8  C   UNL A   1      31.911  26.815  24.916  1.00  0.00     0.188 C 
BRANCH   8   9
ATOM      9  C   UNL A   1      31.023  27.605  23.965  1.00  0.00    -0.016 A 
ATOM     10  C   UNL A   1      29.324  29.144  22.322  1.00  0.00     0.119 A 
ATOM     11  C   UNL A   1      30.699  29.365  22.312  1.00  0.00     0.047 A 
ATOM     12  C   UNL A   1      28.801  28.132  23.114  1.00  0.00     0.047 A 
ATOM     13  C   UNL A   1      31.542  28.607  23.130  1.00  0.00     0.010 A 
ATOM     14  C   UNL A   1      29.636  27.393  23.951  1.00  0.00     0.010 A 
BRANCH  10  15
ATOM     15  O   UNL A   1      28.573  29.881  21.456  1.00  0.00    -0.491 OA
BRANCH  15  16
ATOM     16  C   UNL A   1      28.499  31.303  21.659  1.00  0.00     0.167 C 
ATOM     17  C   UNL A   1      27.981  32.069  20.445  1.00  0.00     0.052 C 
ATOM     18  C   UNL A   1      27.800  31.709  22.955  1.00  0.00     0.052 C 
ENDBRANCH  15  16
ENDBRANCH  10  15
ENDBRANCH   8   9
BRANCH   8  19
ATOM     19  O   UNL A   1      31.141  25.851  25.638  1.00  0.00    -0.385 OA
ATOM     20  H   UNL A   1      31.696  25.083  25.844  1.00  0.00     0.211 HD
ENDBRANCH   8  19
ENDBRANCH   6   8
ENDBRANCH   3   6
ENDBRANCH   1   2
BRANCH   1  21
ATOM     21  C   UNL A   1      31.483  31.991  26.597  1.00  0.00     0.042 C 
BRANCH  21  22
ATOM     22  C   UNL A   1      32.648  32.675  27.289  1.00  0.00     0.118 C 
BRANCH  22  23
ATOM     23  N   UNL A   1      32.379  34.069  27.615  1.00  0.00    -0.352 N 
ATOM     24  C   UNL A   1      32.982  34.890  28.535  1.00  0.00     0.251 C 
ATOM     25  H   UNL A   1      31.654  34.486  27.096  1.00  0.00     0.163 HD
ATOM     26  O   UNL A   1      32.498  35.992  28.783  1.00  0.00    -0.269 OA
BRANCH  24  27
ATOM     27  C   UNL A   1      34.194  34.437  29.251  1.00  0.00     0.039 A 
ATOM     28  C   UNL A   1      34.060  33.900  30.533  1.00  0.00     0.014 A 
ATOM     29  C   UNL A   1      35.454  34.529  28.659  1.00  0.00     0.014 A 
ATOM     30  C   UNL A   1      35.182  33.384  31.186  1.00  0.00     0.010 A 
ATOM     31  C   UNL A   1      36.548  33.920  29.262  1.00  0.00     0.010 A 
ATOM     32  C   UNL A   1      36.426  33.348  30.536  1.00  0.00    -0.014 A 
BRANCH  32  33
ATOM     33  C   UNL A   1      37.614  32.724  31.173  1.00  0.00     0.031 A 
ATOM     34  C   UNL A   1      38.252  31.509  30.554  1.00  0.00     0.074 A 
ATOM     35  C   UNL A   1      38.079  33.210  32.339  1.00  0.00     0.049 A 
ATOM     36  N   UNL A   1      39.260  30.796  30.988  1.00  0.00    -0.248 NA
ATOM     37  C   UNL A   1      37.665  31.015  29.297  1.00  0.00     0.031 C 
ATOM     38  C   UNL A   1      37.522  34.354  33.066  1.00  0.00     0.029 A 
ATOM     39  N   UNL A   1      39.127  32.799  33.124  1.00  0.00    -0.354 N 
ATOM     40  C   UNL A   1      39.414  29.763  30.071  1.00  0.00     0.074 A 
ATOM     41  C   UNL A   1      38.362  29.908  29.089  1.00  0.00     0.031 C 
ATOM     42  C   UNL A   1      38.255  34.573  34.169  1.00  0.00     0.029 A 
ATOM     43  C   UNL A   1      39.302  33.561  34.255  1.00  0.00     0.049 A 
ATOM     44  H   UNL A   1      39.700  32.031  32.898  1.00  0.00     0.167 HD
ATOM     45  C   UNL A   1      40.358  28.794  30.035  1.00  0.00     0.031 A 
ATOM     46  C   UNL A   1      40.199  33.452  35.252  1.00  0.00     0.031 A 
ATOM     47  C   UNL A   1      41.409  28.655  31.006  1.00  0.00     0.049 A 
ATOM     48  C   UNL A   1      41.224  32.355  35.199  1.00  0.00     0.074 A 
ATOM     49  C   UNL A   1      42.448  27.741  31.026  1.00  0.00     0.029 A 
ATOM     50  N   UNL A   1      41.551  29.448  32.135  1.00  0.00    -0.354 N 
ATOM     51  N   UNL A   1      41.402  31.432  34.284  1.00  0.00    -0.248 NA
ATOM     52  C   UNL A   1      42.181  32.291  36.312  1.00  0.00     0.031 C 
ATOM     53  C   UNL A   1      43.183  27.942  32.198  1.00  0.00     0.029 A 
ATOM     54  C   UNL A   1      42.643  29.026  32.873  1.00  0.00     0.049 A 
ATOM     55  H   UNL A   1      40.962  30.199  32.374  1.00  0.00     0.167 HD
ATOM     56  C   UNL A   1      42.508  30.699  34.696  1.00  0.00     0.074 A 
ATOM     57  C   UNL A   1      42.970  31.296  35.932  1.00  0.00     0.031 C 
ATOM     58  C   UNL A   1      43.090  29.629  34.102  1.00  0.00     0.031 A 
BRANCH  45  59
ATOM     59  C   UNL A   1      40.289  27.802  28.906  1.00  0.00    -0.014 A 
ATOM     60  C   UNL A   1      39.571  26.601  29.031  1.00  0.00     0.009 A 
ATOM     61  C   UNL A   1      40.924  28.087  27.687  1.00  0.00     0.009 A 
ATOM     62  C   UNL A   1      39.524  25.690  27.974  1.00  0.00     0.001 A 
ATOM     63  C   UNL A   1      40.847  27.189  26.620  1.00  0.00     0.001 A 
ATOM     64  C   UNL A   1      40.157  25.987  26.768  1.00  0.00     0.000 A 
ENDBRANCH  45  59
BRANCH  46  65
ATOM     65  C   UNL A   1      40.177  34.417  36.385  1.00  0.00    -0.014 A 
ATOM     66  C   UNL A   1      39.435  34.140  37.544  1.00  0.00     0.009 A 
ATOM     67  C   UNL A   1      40.890  35.624  36.309  1.00  0.00     0.009 A 
ATOM     68  C   UNL A   1      39.380  35.066  38.587  1.00  0.00     0.001 A 
ATOM     69  C   UNL A   1      40.860  36.533  37.368  1.00  0.00     0.001 A 
ATOM     70  C   UNL A   1      40.097  36.259  38.501  1.00  0.00     0.000 A 
ENDBRANCH  46  65
BRANCH  58  71
ATOM     71  C   UNL A   1      44.315  29.058  34.760  1.00  0.00    -0.014 A 
ATOM     72  C   UNL A   1      44.222  28.061  35.744  1.00  0.00     0.009 A 
ATOM     73  C   UNL A   1      45.586  29.499  34.359  1.00  0.00     0.009 A 
ATOM     74  C   UNL A   1      45.377  27.546  36.339  1.00  0.00     0.001 A 
ATOM     75  C   UNL A   1      46.738  28.959  34.930  1.00  0.00     0.001 A 
ATOM     76  C   UNL A   1      46.633  27.991  35.927  1.00  0.00     0.000 A 
ENDBRANCH  58  71
ENDBRANCH  32  33
ENDBRANCH  24  27
ENDBRANCH  22  23
ENDBRANCH  21  22
ENDBRANCH   1  21
TORSDOF 15
ENDMDL
MODEL 2
REMARK VINA RESULT:     -10.8      0.412      6.121
REMARK SMILES CC(C)Oc1ccc([C@H](O)[C@H](F)C(=O)NCCCNC(=O)c2ccc(-c3c4nc(c(-c5ccccc5)c5ccc([nH]5)c(-c5ccccc5)c5nc(c(-c6ccccc6)c6ccc3[nH]6)C=C5)C=C4)cc2)cc1
REMARK SMILES IDX 16 1 15 2 13 3 14 4 11 6 12 7 9 8 8 9 5 10 6 11 71 12 7 13
REMARK SMILES IDX 70 14 4 15 2 16 1 17 3 18 10 19 17 21 18 22 19 23 20 24
REMARK SMILES IDX 21 26 22 27 23 28 69 29 24 30 68 31 25 32 26 33 27 34 62 35
REMARK SMILES IDX 28 36 67 37 61 38 63 39 29 40 66 41 60 42 59 43 30 45 52 46
REMARK SMILES IDX 37 47 51 48 38 49 41 50 50 51 64 52 39 53 40 54 49 56 65 57
REMARK SMILES IDX 42 58 31 59 32 60 36 61 33 62 35 63 34 64 53 65 54 66 58 67
REMARK SMILES IDX 55 68 57 69 56 70 43 71 44 72 48 73 45 74 47 75 46 76
REMARK H PARENT 15 5 10 20 19 25 63 44 41 55
REMARK Flexibility Score: inf
ROOT
ATOM      1  C   UNL A   1      31.616  30.790  26.026  1.00  0.00     0.117 C 
ENDROOT
BRANCH   1   2
ATOM      2  N   UNL A   1      31.402  29.764  27.027  1.00  0.00    -0.353 N 
ATOM      3  C   UNL A   1      31.880  28.484  27.059  1.00  0.00     0.257 C 
ATOM      4  O   UNL A   1      31.534  27.766  28.002  1.00  0.00    -0.272 OA
ATOM      5  H   UNL A   1      30.834  30.025  27.787  1.00  0.00     0.163 HD
BRANCH   3   6
ATOM      6  C   UNL A   1      32.773  27.967  25.939  1.00  0.00     0.288 C 
ATOM      7  F   UNL A   1      33.867  27.328  26.471  1.00  0.00    -0.234 F 
BRANCH   6   8
ATOM      8  C   UNL A   1      32.047  26.998  24.978  1.00  0.00     0.188 C 
BRANCH   8   9
ATOM      9  C   UNL A   1      31.085  27.694  24.025  1.00  0.00    -0.016 A 
ATOM     10  C   UNL A   1      29.238  29.047  22.378  1.00  0.00     0.119 A 
ATOM     11  C   UNL A   1      30.578  29.427  22.390  1.00  0.00     0.047 A 
ATOM     12  C   UNL A   1      28.827  27.970  23.151  1.00  0.00     0.047 A 
ATOM     13  C   UNL A   1      31.494  28.761  23.209  1.00  0.00     0.010 A 
ATOM     14  C   UNL A   1      29.732  27.321  23.990  1.00  0.00     0.010 A 
BRANCH  10  15
ATOM     15  O   UNL A   1      28.417  29.704  21.512  1.00  0.00    -0.491 OA
BRANCH  15  16
ATOM     16  C   UNL A   1      27.797  30.924  21.954  1.00  0.00     0.167 C 
ATOM     17  C   UNL A   1      27.655  31.024  23.470  1.00  0.00     0.052 C 
ATOM     18  C   UNL A   1      28.397  32.185  21.334  1.00  0.00     0.052 C 
ENDBRANCH  15  16
ENDBRANCH  10  15
ENDBRANCH   8   9
BRANCH   8  19
ATOM     19  O   UNL A   1      31.380  25.960  25.698  1.00  0.00    -0.385 OA
ATOM     20  H   UNL A   1      32.027  25.460  26.219  1.00  0.00     0.211 HD
ENDBRANCH   8  19
ENDBRANCH   6   8
ENDBRANCH   3   6
ENDBRANCH   1   2
BRANCH   1  21
ATOM     21  C   UNL A   1      31.387  32.190  26.560  1.00  0.00     0.042 C 
BRANCH  21  22
ATOM     22  C   UNL A   1      32.612  32.820  27.199  1.00  0.00     0.118 C 
BRANCH  22  23
ATOM     23  N   UNL A   1      32.390  34.194  27.626  1.00  0.00    -0.352 N 
ATOM     24  C   UNL A   1      33.015  34.922  28.608  1.00  0.00     0.251 C 
ATOM     25  H   UNL A   1      31.685  34.674  27.135  1.00  0.00     0.163 HD
ATOM     26  O   UNL A   1      32.569  36.019  28.935  1.00  0.00    -0.269 OA
BRANCH  24  27
ATOM     27  C   UNL A   1      34.203  34.374  29.296  1.00  0.00     0.039 A 
ATOM     28  C   UNL A   1      34.028  33.655  30.479  1.00  0.00     0.014 A 
ATOM     29  C   UNL A   1      35.484  34.556  28.770  1.00  0.00     0.014 A 
ATOM     30  C   UNL A   1      35.130  33.054  31.092  1.00  0.00     0.010 A 
ATOM     31  C   UNL A   1      36.560  33.869  29.318  1.00  0.00     0.010 A 
ATOM     32  C   UNL A   1      36.397  33.117  30.491  1.00  0.00    -0.014 A 
BRANCH  32  33
ATOM     33  C   UNL A   1      37.566  32.411  31.073  1.00  0.00     0.031 A 
ATOM     34  C   UNL A   1      38.200  32.917  32.341  1.00  0.00     0.074 A 
ATOM     35  C   UNL A   1      38.096  31.353  30.430  1.00  0.00     0.049 A 
ATOM     36  N   UNL A   1      39.254  32.467  32.972  1.00  0.00    -0.248 NA
ATOM     37  C   UNL A   1      37.586  34.099  32.968  1.00  0.00     0.031 C 
ATOM     38  C   UNL A   1      37.604  30.791  29.169  1.00  0.00     0.029 A 
ATOM     39  N   UNL A   1      39.173  30.563  30.746  1.00  0.00    -0.354 N 
ATOM     40  C   UNL A   1      39.438  33.319  34.054  1.00  0.00     0.074 A 
ATOM     41  C   UNL A   1      38.424  34.346  33.963  1.00  0.00     0.031 C 
ATOM     42  C   UNL A   1      38.354  29.728  28.840  1.00  0.00     0.029 A 
ATOM     43  C   UNL A   1      39.407  29.560  29.836  1.00  0.00     0.049 A 
ATOM     44  H   UNL A   1      39.725  30.701  31.549  1.00  0.00     0.167 HD
ATOM     45  C   UNL A   1      40.354  33.244  35.048  1.00  0.00     0.031 A 
ATOM     46  C   UNL A   1      40.366  28.615  29.802  1.00  0.00     0.031 A 
ATOM     47  C   UNL A   1      41.358  32.219  35.144  1.00  0.00     0.049 A 
ATOM     48  C   UNL A   1      41.383  28.565  30.907  1.00  0.00     0.074 A 
ATOM     49  C   UNL A   1      42.295  32.022  36.144  1.00  0.00     0.029 A 
ATOM     50  N   UNL A   1      41.559  31.221  34.203  1.00  0.00    -0.354 N 
ATOM     51  N   UNL A   1      41.496  29.334  31.964  1.00  0.00    -0.248 NA
ATOM     52  C   UNL A   1      42.400  27.509  30.821  1.00  0.00     0.031 C 
ATOM     53  C   UNL A   1      43.103  30.942  35.776  1.00  0.00     0.029 A 
ATOM     54  C   UNL A   1      42.625  30.423  34.583  1.00  0.00     0.049 A 
ATOM     55  H   UNL A   1      41.024  31.099  33.387  1.00  0.00     0.167 HD
ATOM     56  C   UNL A   1      42.575  28.835  32.681  1.00  0.00     0.074 A 
ATOM     57  C   UNL A   1      43.071  27.687  31.950  1.00  0.00     0.031 C 
ATOM     58  C   UNL A   1      43.108  29.286  33.844  1.00  0.00     0.031 A 
BRANCH  45  59
ATOM     59  C   UNL A   1      40.314  34.309  36.111  1.00  0.00    -0.014 A 
ATOM     60  C   UNL A   1      39.529  34.161  37.266  1.00  0.00     0.009 A 
ATOM     61  C   UNL A   1      41.099  35.464  35.970  1.00  0.00     0.009 A 
ATOM     62  C   UNL A   1      39.500  35.163  38.237  1.00  0.00     0.001 A 
ATOM     63  C   UNL A   1      41.094  36.450  36.959  1.00  0.00     0.001 A 
ATOM     64  C   UNL A   1      40.287  36.304  38.085  1.00  0.00     0.000 A 
ENDBRANCH  45  59
BRANCH  46  65
ATOM     65  C   UNL A   1      40.405  27.629  28.690  1.00  0.00    -0.014 A 
ATOM     66  C   UNL A   1      41.144  27.895  27.526  1.00  0.00     0.009 A 
ATOM     67  C   UNL A   1      39.695  26.421  28.779  1.00  0.00     0.009 A 
ATOM     68  C   UNL A   1      41.144  26.989  26.464  1.00  0.00     0.001 A 
ATOM     69  C   UNL A   1      39.724  25.502  27.729  1.00  0.00     0.001 A 
ATOM     70  C   UNL A   1      40.439  25.790  26.568  1.00  0.00     0.000 A 
ENDBRANCH  46  65
BRANCH  58  71
ATOM     71  C   UNL A   1      44.262  28.513  34.418  1.00  0.00    -0.014 A 
ATOM     72  C   UNL A   1      45.592  28.853  34.123  1.00  0.00     0.009 A 
ATOM     73  C   UNL A   1      44.014  27.449  35.300  1.00  0.00     0.009 A 
ATOM     74  C   UNL A   1      46.647  28.120  34.671  1.00  0.00     0.001 A 
ATOM     75  C   UNL A   1      45.069  26.740  35.873  1.00  0.00     0.001 A 
ATOM     76  C   UNL A   1      46.385  27.069  35.550  1.00  0.00     0.000 A 
ENDBRANCH  58  71
ENDBRANCH  32  33
ENDBRANCH  24  27
ENDBRANCH  22  23
ENDBRANCH  21  22
ENDBRANCH   1  21
TORSDOF 15
ENDMDL
MODEL 3
REMARK VINA RESULT:     -10.5      2.411      7.164
REMARK SMILES CC(C)Oc1ccc([C@H](O)[C@H](F)C(=O)NCCCNC(=O)c2ccc(-c3c4nc(c(-c5ccccc5)c5ccc([nH]5)c(-c5ccccc5)c5nc(c(-c6ccccc6)c6ccc3[nH]6)C=C5)C=C4)cc2)cc1
REMARK SMILES IDX 16 1 15 2 13 3 14 4 11 6 12 7 9 8 8 9 5 10 6 11 71 12 7 13
REMARK SMILES IDX 70 14 4 15 2 16 1 17 3 18 10 19 17 21 18 22 19 23 20 24
REMARK SMILES IDX 21 26 22 27 23 28 69 29 24 30 68 31 25 32 26 33 27 34 62 35
REMARK SMILES IDX 28 36 67 37 61 38 63 39 29 40 66 41 60 42 59 43 30 45 52 46
REMARK SMILES IDX 37 47 51 48 38 49 41 50 50 51 64 52 39 53 40 54 49 56 65 57
REMARK SMILES IDX 42 58 31 59 32 60 36 61 33 62 35 63 34 64 53 65 54 66 58 67
REMARK SMILES IDX 55 68 57 69 56 70 43 71 44 72 48 73 45 74 47 75 46 76
REMARK H PARENT 15 5 10 20 19 25 63 44 41 55
REMARK Flexibility Score: inf
ROOT
ATOM      1  C   UNL A   1      31.817  28.280  26.583  1.00  0.00     0.117 C 
ENDROOT
BRANCH   1   2
ATOM      2  N   UNL A   1      31.041  27.083  26.838  1.00  0.00    -0.353 N 
ATOM      3  C   UNL A   1      30.924  25.956  26.074  1.00  0.00     0.257 C 
ATOM      4  O   UNL A   1      30.170  25.066  26.475  1.00  0.00    -0.272 OA
ATOM      5  H   UNL A   1      30.527  27.082  27.678  1.00  0.00     0.163 HD
BRANCH   3   6
ATOM      6  C   UNL A   1      31.676  25.841  24.754  1.00  0.00     0.288 C 
ATOM      7  F   UNL A   1      32.455  24.709  24.758  1.00  0.00    -0.234 F 
BRANCH   6   8
ATOM      8  C   UNL A   1      30.744  25.801  23.522  1.00  0.00     0.188 C 
BRANCH   8   9
ATOM      9  C   UNL A   1      30.004  27.109  23.277  1.00  0.00    -0.016 A 
ATOM     10  C   UNL A   1      28.645  29.506  22.674  1.00  0.00     0.119 A 
ATOM     11  C   UNL A   1      27.955  28.426  23.223  1.00  0.00     0.047 A 
ATOM     12  C   UNL A   1      30.013  29.407  22.467  1.00  0.00     0.047 A 
ATOM     13  C   UNL A   1      28.627  27.236  23.516  1.00  0.00     0.010 A 
ATOM     14  C   UNL A   1      30.681  28.212  22.733  1.00  0.00     0.010 A 
BRANCH  10  15
ATOM     15  O   UNL A   1      27.936  30.651  22.470  1.00  0.00    -0.491 OA
BRANCH  15  16
ATOM     16  C   UNL A   1      28.609  31.768  21.863  1.00  0.00     0.167 C 
ATOM     17  C   UNL A   1      28.020  32.180  20.516  1.00  0.00     0.052 C 
ATOM     18  C   UNL A   1      28.815  32.955  22.803  1.00  0.00     0.052 C 
ENDBRANCH  15  16
ENDBRANCH  10  15
ENDBRANCH   8   9
BRANCH   8  19
ATOM     19  O   UNL A   1      29.824  24.710  23.605  1.00  0.00    -0.385 OA
ATOM     20  H   UNL A   1      29.674  24.485  24.536  1.00  0.00     0.211 HD
ENDBRANCH   8  19
ENDBRANCH   6   8
ENDBRANCH   3   6
ENDBRANCH   1   2
BRANCH   1  21
ATOM     21  C   UNL A   1      33.233  28.189  27.117  1.00  0.00     0.042 C 
BRANCH  21  22
ATOM     22  C   UNL A   1      34.195  29.189  26.501  1.00  0.00     0.118 C 
BRANCH  22  23
ATOM     23  N   UNL A   1      33.932  30.561  26.913  1.00  0.00    -0.352 N 
ATOM     24  C   UNL A   1      34.570  31.335  27.850  1.00  0.00     0.251 C 
ATOM     25  H   UNL A   1      33.184  30.999  26.448  1.00  0.00     0.163 HD
ATOM     26  O   UNL A   1      34.091  32.418  28.178  1.00  0.00    -0.269 OA
BRANCH  24  27
ATOM     27  C   UNL A   1      35.813  30.854  28.489  1.00  0.00     0.039 A 
ATOM     28  C   UNL A   1      35.731  29.846  29.452  1.00  0.00     0.014 A 
ATOM     29  C   UNL A   1      37.054  31.383  28.133  1.00  0.00     0.014 A 
ATOM     30  C   UNL A   1      36.903  29.317  29.998  1.00  0.00     0.010 A 
ATOM     31  C   UNL A   1      38.220  30.785  28.595  1.00  0.00     0.010 A 
ATOM     32  C   UNL A   1      38.158  29.750  29.540  1.00  0.00    -0.014 A 
BRANCH  32  33
ATOM     33  C   UNL A   1      39.417  29.140  30.039  1.00  0.00     0.031 A 
ATOM     34  C   UNL A   1      40.097  29.703  31.258  1.00  0.00     0.074 A 
ATOM     35  C   UNL A   1      39.981  28.123  29.360  1.00  0.00     0.049 A 
ATOM     36  N   UNL A   1      41.226  29.340  31.813  1.00  0.00    -0.248 NA
ATOM     37  C   UNL A   1      39.438  30.838  31.925  1.00  0.00     0.031 C 
ATOM     38  C   UNL A   1      39.446  27.516  28.138  1.00  0.00     0.029 A 
ATOM     39  N   UNL A   1      41.135  27.420  29.600  1.00  0.00    -0.354 N 
ATOM     40  C   UNL A   1      41.419  30.211  32.878  1.00  0.00     0.074 A 
ATOM     41  C   UNL A   1      40.323  31.156  32.858  1.00  0.00     0.031 C 
ATOM     42  C   UNL A   1      40.250  26.512  27.758  1.00  0.00     0.029 A 
ATOM     43  C   UNL A   1      41.381  26.432  28.676  1.00  0.00     0.049 A 
ATOM     44  H   UNL A   1      41.730  27.606  30.361  1.00  0.00     0.167 HD
ATOM     45  C   UNL A   1      42.406  30.213  33.804  1.00  0.00     0.031 A 
ATOM     46  C   UNL A   1      42.406  25.565  28.576  1.00  0.00     0.031 A 
ATOM     47  C   UNL A   1      43.490  29.270  33.830  1.00  0.00     0.049 A 
ATOM     48  C   UNL A   1      43.500  25.602  29.606  1.00  0.00     0.074 A 
ATOM     49  C   UNL A   1      44.509  29.153  34.760  1.00  0.00     0.029 A 
ATOM     50  N   UNL A   1      43.702  28.285  32.878  1.00  0.00    -0.354 N 
ATOM     51  N   UNL A   1      43.627  26.384  30.650  1.00  0.00    -0.248 NA
ATOM     52  C   UNL A   1      44.588  24.626  29.448  1.00  0.00     0.031 C 
ATOM     53  C   UNL A   1      45.370  28.136  34.338  1.00  0.00     0.029 A 
ATOM     54  C   UNL A   1      44.851  27.575  33.182  1.00  0.00     0.049 A 
ATOM     55  H   UNL A   1      43.121  28.116  32.101  1.00  0.00     0.167 HD
ATOM     56  C   UNL A   1      44.790  25.975  31.290  1.00  0.00     0.074 A 
ATOM     57  C   UNL A   1      45.320  24.864  30.526  1.00  0.00     0.031 C 
ATOM     58  C   UNL A   1      45.367  26.473  32.411  1.00  0.00     0.031 A 
BRANCH  45  59
ATOM     59  C   UNL A   1      42.358  31.279  34.866  1.00  0.00    -0.014 A 
ATOM     60  C   UNL A   1      43.026  32.504  34.702  1.00  0.00     0.009 A 
ATOM     61  C   UNL A   1      41.605  31.070  36.031  1.00  0.00     0.009 A 
ATOM     62  C   UNL A   1      42.975  33.478  35.701  1.00  0.00     0.001 A 
ATOM     63  C   UNL A   1      41.528  32.060  37.013  1.00  0.00     0.001 A 
ATOM     64  C   UNL A   1      42.221  33.258  36.852  1.00  0.00     0.000 A 
ENDBRANCH  45  59
BRANCH  46  65
ATOM     65  C   UNL A   1      42.443  24.578  27.464  1.00  0.00    -0.014 A 
ATOM     66  C   UNL A   1      41.868  23.307  27.619  1.00  0.00     0.009 A 
ATOM     67  C   UNL A   1      43.061  24.896  26.245  1.00  0.00     0.009 A 
ATOM     68  C   UNL A   1      41.941  22.365  26.591  1.00  0.00     0.001 A 
ATOM     69  C   UNL A   1      43.104  23.964  25.206  1.00  0.00     0.001 A 
ATOM     70  C   UNL A   1      42.554  22.697  25.383  1.00  0.00     0.000 A 
ENDBRANCH  46  65
BRANCH  58  71
ATOM     71  C   UNL A   1      46.616  25.795  32.903  1.00  0.00    -0.014 A 
ATOM     72  C   UNL A   1      47.888  26.203  32.473  1.00  0.00     0.009 A 
ATOM     73  C   UNL A   1      46.517  24.756  33.842  1.00  0.00     0.009 A 
ATOM     74  C   UNL A   1      49.033  25.558  32.947  1.00  0.00     0.001 A 
ATOM     75  C   UNL A   1      47.663  24.137  34.339  1.00  0.00     0.001 A 
ATOM     76  C   UNL A   1      48.920  24.531  33.883  1.00  0.00     0.000 A 
ENDBRANCH  58  71
ENDBRANCH  32  33
ENDBRANCH  24  27
ENDBRANCH  22  23
ENDBRANCH  21  22
ENDBRANCH   1  21
TORSDOF 15
ENDMDL
