MODEL 1
REMARK VINA RESULT:     -12.3      0.000      0.000
REMARK SMILES C/C(=N\NC(N)=S)c1nnn(-c2ccc(C(=O)NCCCNC(=O)c3ccc(-c4c5nc(c(-c6ccccc6)c6ccc([nH]6)c(-c6ccccc6)c6nc(c(-c7ccccc7)c7ccc4[nH]7)C=C6)C=C5)cc3)cc2)c1C
REMARK SMILES IDX 16 1 17 2 18 3 15 5 12 6 13 7 74 8 14 9 73 10 11 11 8 12
REMARK SMILES IDX 9 13 75 14 10 15 76 16 2 17 1 18 3 19 4 20 5 22 7 23 6 24
REMARK SMILES IDX 19 27 20 28 21 29 22 30 23 31 24 33 25 34 26 35 72 36 27 37
REMARK SMILES IDX 71 38 28 39 29 40 30 41 65 42 31 43 70 44 64 45 66 46 32 47
REMARK SMILES IDX 69 48 63 49 62 50 33 52 55 53 40 54 54 55 41 56 44 57 53 58
REMARK SMILES IDX 67 59 42 60 43 61 52 63 68 64 45 65 34 66 35 67 39 68 36 69
REMARK SMILES IDX 38 70 37 71 56 72 57 73 61 74 58 75 60 76 59 77 46 78 47 79
REMARK SMILES IDX 51 80 48 81 50 82 49 83
REMARK H PARENT 18 4 4 21 6 25 6 26 22 32 66 51 44 62
REMARK Flexibility Score: inf
ROOT
ATOM      1  C   UNL A   1      30.591  29.355  23.845  1.00  0.00     0.251 C 
ATOM      2  O   UNL A   1      29.732  29.416  22.965  1.00  0.00    -0.269 OA
ATOM      3  N   UNL A   1      30.774  30.461  24.646  1.00  0.00    -0.352 N 
ATOM      4  H   UNL A   1      30.252  31.248  24.367  1.00  0.00     0.163 HD
ENDROOT
BRANCH   1   5
ATOM      5  C   UNL A   1      31.344  28.083  24.043  1.00  0.00     0.039 A 
ATOM      6  C   UNL A   1      32.876  25.756  24.118  1.00  0.00     0.067 A 
ATOM      7  C   UNL A   1      33.499  26.983  24.352  1.00  0.00     0.029 A 
ATOM      8  C   UNL A   1      31.496  25.666  23.979  1.00  0.00     0.029 A 
ATOM      9  C   UNL A   1      32.728  28.151  24.284  1.00  0.00     0.016 A 
ATOM     10  C   UNL A   1      30.739  26.827  23.993  1.00  0.00     0.016 A 
BRANCH   6  11
ATOM     11  N   UNL A   1      33.638  24.600  23.903  1.00  0.00    -0.217 N 
ATOM     12  C   UNL A   1      34.692  22.718  24.122  1.00  0.00     0.132 A 
ATOM     13  N   UNL A   1      34.709  23.084  22.800  1.00  0.00    -0.128 NA
ATOM     14  C   UNL A   1      34.001  23.663  24.853  1.00  0.00     0.071 A 
ATOM     15  N   UNL A   1      34.000  24.197  22.669  1.00  0.00    -0.061 NA
ATOM     16  C   UNL A   1      33.523  23.653  26.257  1.00  0.00     0.069 C 
BRANCH  12  17
ATOM     17  C   UNL A   1      35.087  21.391  24.555  1.00  0.00     0.087 C 
ATOM     18  C   UNL A   1      36.538  21.257  24.928  1.00  0.00     0.071 C 
ATOM     19  N   UNL A   1      34.140  20.502  24.606  1.00  0.00    -0.176 NA
BRANCH  19  20
ATOM     20  N   UNL A   1      34.336  19.242  25.093  1.00  0.00    -0.254 N 
ATOM     21  H   UNL A   1      35.211  19.094  25.520  1.00  0.00     0.193 HD
BRANCH  20  22
ATOM     22  C   UNL A   1      33.499  18.144  25.081  1.00  0.00     0.184 C 
ATOM     23  S   UNL A   1      33.214  17.029  23.882  1.00  0.00    -0.040 S 
BRANCH  22  24
ATOM     24  N   UNL A   1      32.821  18.008  26.263  1.00  0.00    -0.375 N 
ATOM     25  H   UNL A   1      32.615  18.803  26.807  1.00  0.00     0.159 HD
ATOM     26  H   UNL A   1      32.541  17.116  26.570  1.00  0.00     0.159 HD
ENDBRANCH  22  24
ENDBRANCH  20  22
ENDBRANCH  19  20
ENDBRANCH  12  17
ENDBRANCH   6  11
ENDBRANCH   1   5
BRANCH   3  27
ATOM     27  C   UNL A   1      31.597  30.682  25.830  1.00  0.00     0.118 C 
BRANCH  27  28
ATOM     28  C   UNL A   1      31.332  32.051  26.477  1.00  0.00     0.042 C 
BRANCH  28  29
ATOM     29  C   UNL A   1      32.519  32.560  27.268  1.00  0.00     0.118 C 
BRANCH  29  30
ATOM     30  N   UNL A   1      32.355  33.949  27.697  1.00  0.00    -0.352 N 
ATOM     31  C   UNL A   1      33.036  34.628  28.694  1.00  0.00     0.251 C 
ATOM     32  H   UNL A   1      31.672  34.469  27.214  1.00  0.00     0.163 HD
ATOM     33  O   UNL A   1      32.577  35.643  29.186  1.00  0.00    -0.269 OA
BRANCH  31  34
ATOM     34  C   UNL A   1      34.335  34.095  29.143  1.00  0.00     0.039 A 
ATOM     35  C   UNL A   1      34.454  33.291  30.281  1.00  0.00     0.014 A 
ATOM     36  C   UNL A   1      35.451  34.400  28.373  1.00  0.00     0.014 A 
ATOM     37  C   UNL A   1      35.698  32.742  30.584  1.00  0.00     0.010 A 
ATOM     38  C   UNL A   1      36.604  33.690  28.540  1.00  0.00     0.010 A 
ATOM     39  C   UNL A   1      36.764  32.937  29.694  1.00  0.00    -0.014 A 
BRANCH  39  40
ATOM     40  C   UNL A   1      38.052  32.281  29.860  1.00  0.00     0.031 A 
ATOM     41  C   UNL A   1      38.050  30.857  29.445  1.00  0.00     0.074 A 
ATOM     42  C   UNL A   1      39.186  32.979  30.099  1.00  0.00     0.049 A 
ATOM     43  N   UNL A   1      38.141  29.820  30.207  1.00  0.00    -0.248 NA
ATOM     44  C   UNL A   1      37.738  30.539  28.040  1.00  0.00     0.031 C 
ATOM     45  C   UNL A   1      39.346  34.439  30.200  1.00  0.00     0.029 A 
ATOM     46  N   UNL A   1      40.471  32.542  30.171  1.00  0.00    -0.354 N 
ATOM     47  C   UNL A   1      38.143  28.724  29.350  1.00  0.00     0.074 A 
ATOM     48  C   UNL A   1      37.665  29.207  28.081  1.00  0.00     0.031 C 
ATOM     49  C   UNL A   1      40.651  34.767  30.075  1.00  0.00     0.029 A 
ATOM     50  C   UNL A   1      41.432  33.546  30.067  1.00  0.00     0.049 A 
ATOM     51  H   UNL A   1      40.705  31.592  30.287  1.00  0.00     0.167 HD
ATOM     52  C   UNL A   1      38.838  27.597  29.668  1.00  0.00     0.031 A 
ATOM     53  C   UNL A   1      42.775  33.382  29.967  1.00  0.00     0.031 A 
ATOM     54  C   UNL A   1      39.255  27.620  31.051  1.00  0.00     0.049 A 
ATOM     55  C   UNL A   1      43.077  32.018  30.447  1.00  0.00     0.074 A 
ATOM     56  C   UNL A   1      38.624  27.649  32.276  1.00  0.00     0.029 A 
ATOM     57  N   UNL A   1      40.545  28.042  31.265  1.00  0.00    -0.354 N 
ATOM     58  N   UNL A   1      42.930  31.649  31.685  1.00  0.00    -0.248 NA
ATOM     59  C   UNL A   1      43.136  30.939  29.474  1.00  0.00     0.031 C 
ATOM     60  C   UNL A   1      39.448  28.472  33.101  1.00  0.00     0.029 A 
ATOM     61  C   UNL A   1      40.579  28.845  32.370  1.00  0.00     0.049 A 
ATOM     62  H   UNL A   1      41.322  27.803  30.710  1.00  0.00     0.167 HD
ATOM     63  C   UNL A   1      42.411  30.366  31.602  1.00  0.00     0.074 A 
ATOM     64  C   UNL A   1      42.700  29.932  30.238  1.00  0.00     0.031 C 
ATOM     65  C   UNL A   1      41.540  29.912  32.553  1.00  0.00     0.031 A 
BRANCH  52  66
ATOM     66  C   UNL A   1      39.580  26.751  28.652  1.00  0.00    -0.014 A 
ATOM     67  C   UNL A   1      40.453  27.404  27.758  1.00  0.00     0.009 A 
ATOM     68  C   UNL A   1      39.240  25.423  28.332  1.00  0.00     0.009 A 
ATOM     69  C   UNL A   1      40.866  26.800  26.564  1.00  0.00     0.001 A 
ATOM     70  C   UNL A   1      39.684  24.803  27.160  1.00  0.00     0.001 A 
ATOM     71  C   UNL A   1      40.469  25.505  26.259  1.00  0.00     0.000 A 
ENDBRANCH  52  66
BRANCH  53  72
ATOM     72  C   UNL A   1      43.805  34.209  29.304  1.00  0.00    -0.014 A 
ATOM     73  C   UNL A   1      43.958  34.179  27.908  1.00  0.00     0.009 A 
ATOM     74  C   UNL A   1      44.430  35.252  30.009  1.00  0.00     0.009 A 
ATOM     75  C   UNL A   1      44.663  35.188  27.236  1.00  0.00     0.001 A 
ATOM     76  C   UNL A   1      45.134  36.260  29.339  1.00  0.00     0.001 A 
ATOM     77  C   UNL A   1      45.236  36.237  27.950  1.00  0.00     0.000 A 
ENDBRANCH  53  72
BRANCH  65  78
ATOM     78  C   UNL A   1      41.417  30.720  33.822  1.00  0.00    -0.014 A 
ATOM     79  C   UNL A   1      40.570  31.835  33.958  1.00  0.00     0.009 A 
ATOM     80  C   UNL A   1      42.096  30.259  34.958  1.00  0.00     0.009 A 
ATOM     81  C   UNL A   1      40.434  32.485  35.191  1.00  0.00     0.001 A 
ATOM     82  C   UNL A   1      41.943  30.893  36.192  1.00  0.00     0.001 A 
ATOM     83  C   UNL A   1      41.118  32.009  36.307  1.00  0.00     0.000 A 
ENDBRANCH  65  78
ENDBRANCH  39  40
ENDBRANCH  31  34
ENDBRANCH  29  30
ENDBRANCH  28  29
ENDBRANCH  27  28
ENDBRANCH   3  27
TORSDOF 15
ENDMDL
MODEL 2
REMARK VINA RESULT:     -12.0      4.504      9.504
REMARK SMILES C/C(=N\NC(N)=S)c1nnn(-c2ccc(C(=O)NCCCNC(=O)c3ccc(-c4c5nc(c(-c6ccccc6)c6ccc([nH]6)c(-c6ccccc6)c6nc(c(-c7ccccc7)c7ccc4[nH]7)C=C6)C=C5)cc3)cc2)c1C
REMARK SMILES IDX 16 1 17 2 18 3 15 5 12 6 13 7 74 8 14 9 73 10 11 11 8 12
REMARK SMILES IDX 9 13 75 14 10 15 76 16 2 17 1 18 3 19 4 20 5 22 7 23 6 24
REMARK SMILES IDX 19 27 20 28 21 29 22 30 23 31 24 33 25 34 26 35 72 36 27 37
REMARK SMILES IDX 71 38 28 39 29 40 30 41 65 42 31 43 70 44 64 45 66 46 32 47
REMARK SMILES IDX 69 48 63 49 62 50 33 52 55 53 40 54 54 55 41 56 44 57 53 58
REMARK SMILES IDX 67 59 42 60 43 61 52 63 68 64 45 65 34 66 35 67 39 68 36 69
REMARK SMILES IDX 38 70 37 71 56 72 57 73 61 74 58 75 60 76 59 77 46 78 47 79
REMARK SMILES IDX 51 80 48 81 50 82 49 83
REMARK H PARENT 18 4 4 21 6 25 6 26 22 32 66 51 44 62
REMARK Flexibility Score: inf
ROOT
ATOM      1  C   UNL A   1      33.810  20.047  24.729  1.00  0.00     0.251 C 
ATOM      2  O   UNL A   1      33.011  19.127  24.556  1.00  0.00    -0.269 OA
ATOM      3  N   UNL A   1      35.117  19.720  25.019  1.00  0.00    -0.352 N 
ATOM      4  H   UNL A   1      35.267  18.758  25.159  1.00  0.00     0.163 HD
ENDROOT
BRANCH   1   5
ATOM      5  C   UNL A   1      33.350  21.455  24.559  1.00  0.00     0.039 A 
ATOM      6  C   UNL A   1      32.802  24.167  24.221  1.00  0.00     0.067 A 
ATOM      7  C   UNL A   1      33.154  23.404  23.105  1.00  0.00     0.029 A 
ATOM      8  C   UNL A   1      32.596  23.573  25.460  1.00  0.00     0.029 A 
ATOM      9  C   UNL A   1      33.456  22.048  23.289  1.00  0.00     0.016 A 
ATOM     10  C   UNL A   1      32.824  22.214  25.605  1.00  0.00     0.016 A 
BRANCH   6  11
ATOM     11  N   UNL A   1      32.759  25.565  24.143  1.00  0.00    -0.217 N 
ATOM     12  C   UNL A   1      32.129  27.639  24.076  1.00  0.00     0.132 A 
ATOM     13  N   UNL A   1      33.499  27.593  24.125  1.00  0.00    -0.128 NA
ATOM     14  C   UNL A   1      31.624  26.355  24.099  1.00  0.00     0.071 A 
ATOM     15  N   UNL A   1      33.868  26.324  24.239  1.00  0.00    -0.061 NA
ATOM     16  C   UNL A   1      30.238  25.854  24.267  1.00  0.00     0.069 C 
BRANCH  12  17
ATOM     17  C   UNL A   1      31.396  28.874  24.280  1.00  0.00     0.087 C 
ATOM     18  C   UNL A   1      31.656  29.548  25.599  1.00  0.00     0.071 C 
ATOM     19  N   UNL A   1      30.646  29.262  23.292  1.00  0.00    -0.176 NA
BRANCH  19  20
ATOM     20  N   UNL A   1      29.980  30.453  23.294  1.00  0.00    -0.254 N 
ATOM     21  H   UNL A   1      30.266  31.087  23.992  1.00  0.00     0.193 HD
BRANCH  20  22
ATOM     22  C   UNL A   1      28.969  30.908  22.472  1.00  0.00     0.184 C 
ATOM     23  S   UNL A   1      28.419  32.454  22.208  1.00  0.00    -0.040 S 
BRANCH  22  24
ATOM     24  N   UNL A   1      28.358  29.882  21.802  1.00  0.00    -0.375 N 
ATOM     25  H   UNL A   1      27.546  30.055  21.272  1.00  0.00     0.159 HD
ATOM     26  H   UNL A   1      28.731  28.972  21.849  1.00  0.00     0.159 HD
ENDBRANCH  22  24
ENDBRANCH  20  22
ENDBRANCH  19  20
ENDBRANCH  12  17
ENDBRANCH   6  11
ENDBRANCH   1   5
BRANCH   3  27
ATOM     27  C   UNL A   1      36.318  20.536  25.159  1.00  0.00     0.118 C 
BRANCH  27  28
ATOM     28  C   UNL A   1      37.592  19.769  24.773  1.00  0.00     0.042 C 
BRANCH  28  29
ATOM     29  C   UNL A   1      38.818  20.270  25.507  1.00  0.00     0.118 C 
BRANCH  29  30
ATOM     30  N   UNL A   1      39.836  19.233  25.677  1.00  0.00    -0.352 N 
ATOM     31  C   UNL A   1      41.185  19.386  25.950  1.00  0.00     0.251 C 
ATOM     32  H   UNL A   1      39.520  18.304  25.586  1.00  0.00     0.163 HD
ATOM     33  O   UNL A   1      41.977  18.490  25.720  1.00  0.00    -0.269 OA
BRANCH  31  34
ATOM     34  C   UNL A   1      41.641  20.662  26.531  1.00  0.00     0.039 A 
ATOM     35  C   UNL A   1      42.246  21.657  25.757  1.00  0.00     0.014 A 
ATOM     36  C   UNL A   1      41.424  20.859  27.890  1.00  0.00     0.014 A 
ATOM     37  C   UNL A   1      42.557  22.875  26.357  1.00  0.00     0.010 A 
ATOM     38  C   UNL A   1      41.521  22.113  28.417  1.00  0.00     0.010 A 
ATOM     39  C   UNL A   1      42.174  23.096  27.688  1.00  0.00    -0.014 A 
BRANCH  39  40
ATOM     40  C   UNL A   1      42.331  24.386  28.343  1.00  0.00     0.031 A 
ATOM     41  C   UNL A   1      41.222  25.331  28.064  1.00  0.00     0.074 A 
ATOM     42  C   UNL A   1      43.244  24.586  29.321  1.00  0.00     0.049 A 
ATOM     43  N   UNL A   1      41.271  26.405  27.350  1.00  0.00    -0.248 NA
ATOM     44  C   UNL A   1      39.860  24.953  28.482  1.00  0.00     0.031 C 
ATOM     45  C   UNL A   1      44.175  23.607  29.904  1.00  0.00     0.029 A 
ATOM     46  N   UNL A   1      43.446  25.679  30.103  1.00  0.00    -0.354 N 
ATOM     47  C   UNL A   1      40.001  26.967  27.431  1.00  0.00     0.074 A 
ATOM     48  C   UNL A   1      39.136  25.931  27.932  1.00  0.00     0.031 C 
ATOM     49  C   UNL A   1      44.653  24.072  31.080  1.00  0.00     0.029 A 
ATOM     50  C   UNL A   1      44.210  25.442  31.245  1.00  0.00     0.049 A 
ATOM     51  H   UNL A   1      43.084  26.567  29.881  1.00  0.00     0.167 HD
ATOM     52  C   UNL A   1      39.836  28.318  27.387  1.00  0.00     0.031 A 
ATOM     53  C   UNL A   1      44.447  26.308  32.262  1.00  0.00     0.031 A 
ATOM     54  C   UNL A   1      41.051  28.972  26.957  1.00  0.00     0.049 A 
ATOM     55  C   UNL A   1      44.160  27.663  31.746  1.00  0.00     0.074 A 
ATOM     56  C   UNL A   1      41.829  28.968  25.820  1.00  0.00     0.029 A 
ATOM     57  N   UNL A   1      41.840  29.463  27.969  1.00  0.00    -0.354 N 
ATOM     58  N   UNL A   1      44.874  28.243  30.828  1.00  0.00    -0.248 NA
ATOM     59  C   UNL A   1      42.826  28.208  31.940  1.00  0.00     0.031 C 
ATOM     60  C   UNL A   1      43.173  29.078  26.286  1.00  0.00     0.029 A 
ATOM     61  C   UNL A   1      43.152  29.220  27.676  1.00  0.00     0.049 A 
ATOM     62  H   UNL A   1      41.511  29.919  28.778  1.00  0.00     0.167 HD
ATOM     63  C   UNL A   1      43.946  28.887  30.025  1.00  0.00     0.074 A 
ATOM     64  C   UNL A   1      42.733  28.956  30.836  1.00  0.00     0.031 C 
ATOM     65  C   UNL A   1      44.173  29.025  28.684  1.00  0.00     0.031 A 
BRANCH  52  66
ATOM     66  C   UNL A   1      38.804  29.068  28.206  1.00  0.00    -0.014 A 
ATOM     67  C   UNL A   1      38.775  28.846  29.598  1.00  0.00     0.009 A 
ATOM     68  C   UNL A   1      37.687  29.725  27.656  1.00  0.00     0.009 A 
ATOM     69  C   UNL A   1      37.649  29.164  30.367  1.00  0.00     0.001 A 
ATOM     70  C   UNL A   1      36.578  30.080  28.429  1.00  0.00     0.001 A 
ATOM     71  C   UNL A   1      36.545  29.768  29.779  1.00  0.00     0.000 A 
ENDBRANCH  52  66
BRANCH  53  72
ATOM     72  C   UNL A   1      44.698  26.070  33.698  1.00  0.00    -0.014 A 
ATOM     73  C   UNL A   1      43.659  25.654  34.548  1.00  0.00     0.009 A 
ATOM     74  C   UNL A   1      46.017  25.958  34.172  1.00  0.00     0.009 A 
ATOM     75  C   UNL A   1      43.934  25.092  35.803  1.00  0.00     0.001 A 
ATOM     76  C   UNL A   1      46.291  25.396  35.425  1.00  0.00     0.001 A 
ATOM     77  C   UNL A   1      45.250  24.947  36.234  1.00  0.00     0.000 A 
ENDBRANCH  53  72
BRANCH  65  78
ATOM     78  C   UNL A   1      45.568  28.739  28.184  1.00  0.00    -0.014 A 
ATOM     79  C   UNL A   1      46.017  27.458  27.812  1.00  0.00     0.009 A 
ATOM     80  C   UNL A   1      46.421  29.830  27.968  1.00  0.00     0.009 A 
ATOM     81  C   UNL A   1      47.294  27.276  27.270  1.00  0.00     0.001 A 
ATOM     82  C   UNL A   1      47.686  29.652  27.406  1.00  0.00     0.001 A 
ATOM     83  C   UNL A   1      48.125  28.375  27.063  1.00  0.00     0.000 A 
ENDBRANCH  65  78
ENDBRANCH  39  40
ENDBRANCH  31  34
ENDBRANCH  29  30
ENDBRANCH  28  29
ENDBRANCH  27  28
ENDBRANCH   3  27
TORSDOF 15
ENDMDL
MODEL 3
REMARK VINA RESULT:     -11.5      2.775      6.528
REMARK SMILES C/C(=N\NC(N)=S)c1nnn(-c2ccc(C(=O)NCCCNC(=O)c3ccc(-c4c5nc(c(-c6ccccc6)c6ccc([nH]6)c(-c6ccccc6)c6nc(c(-c7ccccc7)c7ccc4[nH]7)C=C6)C=C5)cc3)cc2)c1C
REMARK SMILES IDX 16 1 17 2 18 3 15 5 12 6 13 7 74 8 14 9 73 10 11 11 8 12
REMARK SMILES IDX 9 13 75 14 10 15 76 16 2 17 1 18 3 19 4 20 5 22 7 23 6 24
REMARK SMILES IDX 19 27 20 28 21 29 22 30 23 31 24 33 25 34 26 35 72 36 27 37
REMARK SMILES IDX 71 38 28 39 29 40 30 41 65 42 31 43 70 44 64 45 66 46 32 47
REMARK SMILES IDX 69 48 63 49 62 50 33 52 55 53 40 54 54 55 41 56 44 57 53 58
REMARK SMILES IDX 67 59 42 60 43 61 52 63 68 64 45 65 34 66 35 67 39 68 36 69
REMARK SMILES IDX 38 70 37 71 56 72 57 73 61 74 58 75 60 76 59 77 46 78 47 79
REMARK SMILES IDX 51 80 48 81 50 82 49 83
REMARK H PARENT 18 4 4 21 6 25 6 26 22 32 66 51 44 62
REMARK Flexibility Score: inf
ROOT
ATOM      1  C   UNL A   1      31.164  29.186  24.435  1.00  0.00     0.251 C 
ATOM      2  O   UNL A   1      30.391  29.475  23.521  1.00  0.00    -0.269 OA
ATOM      3  N   UNL A   1      31.362  30.117  25.430  1.00  0.00    -0.352 N 
ATOM      4  H   UNL A   1      30.929  30.984  25.260  1.00  0.00     0.163 HD
ENDROOT
BRANCH   1   5
ATOM      5  C   UNL A   1      31.796  27.836  24.456  1.00  0.00     0.039 A 
ATOM      6  C   UNL A   1      32.935  25.318  24.816  1.00  0.00     0.067 A 
ATOM      7  C   UNL A   1      31.545  25.442  24.853  1.00  0.00     0.029 A 
ATOM      8  C   UNL A   1      33.743  26.396  24.477  1.00  0.00     0.029 A 
ATOM      9  C   UNL A   1      30.981  26.716  24.700  1.00  0.00     0.016 A 
ATOM     10  C   UNL A   1      33.161  27.633  24.251  1.00  0.00     0.016 A 
BRANCH   6  11
ATOM     11  N   UNL A   1      33.555  24.132  25.232  1.00  0.00    -0.217 N 
ATOM     12  C   UNL A   1      34.512  22.188  25.313  1.00  0.00     0.132 A 
ATOM     13  N   UNL A   1      34.544  22.751  26.564  1.00  0.00    -0.128 NA
ATOM     14  C   UNL A   1      33.895  23.055  24.434  1.00  0.00     0.071 A 
ATOM     15  N   UNL A   1      34.022  23.967  26.485  1.00  0.00    -0.061 NA
ATOM     16  C   UNL A   1      33.783  23.029  22.955  1.00  0.00     0.069 C 
BRANCH  12  17
ATOM     17  C   UNL A   1      35.291  21.010  24.983  1.00  0.00     0.087 C 
ATOM     18  C   UNL A   1      36.764  21.261  24.802  1.00  0.00     0.071 C 
ATOM     19  N   UNL A   1      34.635  19.890  24.925  1.00  0.00    -0.176 NA
BRANCH  19  20
ATOM     20  N   UNL A   1      35.247  18.686  24.730  1.00  0.00    -0.254 N 
ATOM     21  H   UNL A   1      36.231  18.713  24.747  1.00  0.00     0.193 HD
BRANCH  20  22
ATOM     22  C   UNL A   1      34.701  17.436  24.513  1.00  0.00     0.184 C 
ATOM     23  S   UNL A   1      33.549  16.947  23.420  1.00  0.00    -0.040 S 
BRANCH  22  24
ATOM     24  N   UNL A   1      35.225  16.498  25.363  1.00  0.00    -0.375 N 
ATOM     25  H   UNL A   1      35.887  15.849  25.031  1.00  0.00     0.159 HD
ATOM     26  H   UNL A   1      34.938  16.472  26.304  1.00  0.00     0.159 HD
ENDBRANCH  22  24
ENDBRANCH  20  22
ENDBRANCH  19  20
ENDBRANCH  12  17
ENDBRANCH   6  11
ENDBRANCH   1   5
BRANCH   3  27
ATOM     27  C   UNL A   1      32.095  30.057  26.690  1.00  0.00     0.118 C 
BRANCH  27  28
ATOM     28  C   UNL A   1      33.209  31.113  26.767  1.00  0.00     0.042 C 
BRANCH  28  29
ATOM     29  C   UNL A   1      34.274  30.763  27.786  1.00  0.00     0.118 C 
BRANCH  29  30
ATOM     30  N   UNL A   1      34.479  31.823  28.773  1.00  0.00    -0.352 N 
ATOM     31  C   UNL A   1      35.435  31.896  29.772  1.00  0.00     0.251 C 
ATOM     32  H   UNL A   1      33.857  32.584  28.719  1.00  0.00     0.163 HD
ATOM     33  O   UNL A   1      35.286  32.633  30.729  1.00  0.00    -0.269 OA
BRANCH  31  34
ATOM     34  C   UNL A   1      36.644  31.060  29.648  1.00  0.00     0.039 A 
ATOM     35  C   UNL A   1      37.885  31.598  29.296  1.00  0.00     0.014 A 
ATOM     36  C   UNL A   1      36.513  29.704  29.923  1.00  0.00     0.014 A 
ATOM     37  C   UNL A   1      39.001  30.764  29.298  1.00  0.00     0.010 A 
ATOM     38  C   UNL A   1      37.627  28.947  30.140  1.00  0.00     0.010 A 
ATOM     39  C   UNL A   1      38.860  29.439  29.739  1.00  0.00    -0.014 A 
BRANCH  39  40
ATOM     40  C   UNL A   1      39.996  28.547  29.910  1.00  0.00     0.031 A 
ATOM     41  C   UNL A   1      40.415  28.384  31.323  1.00  0.00     0.074 A 
ATOM     42  C   UNL A   1      40.431  27.742  28.913  1.00  0.00     0.049 A 
ATOM     43  N   UNL A   1      41.494  28.827  31.876  1.00  0.00    -0.248 NA
ATOM     44  C   UNL A   1      39.447  27.812  32.277  1.00  0.00     0.031 C 
ATOM     45  C   UNL A   1      39.866  27.590  27.562  1.00  0.00     0.029 A 
ATOM     46  N   UNL A   1      41.393  26.783  28.934  1.00  0.00    -0.354 N 
ATOM     47  C   UNL A   1      41.453  28.377  33.191  1.00  0.00     0.074 A 
ATOM     48  C   UNL A   1      40.093  27.973  33.435  1.00  0.00     0.031 C 
ATOM     49  C   UNL A   1      40.329  26.452  26.997  1.00  0.00     0.029 A 
ATOM     50  C   UNL A   1      41.350  25.894  27.862  1.00  0.00     0.049 A 
ATOM     51  H   UNL A   1      42.067  26.721  29.649  1.00  0.00     0.167 HD
ATOM     52  C   UNL A   1      42.602  28.076  33.858  1.00  0.00     0.031 A 
ATOM     53  C   UNL A   1      42.092  24.770  27.704  1.00  0.00     0.031 A 
ATOM     54  C   UNL A   1      43.757  28.567  33.142  1.00  0.00     0.049 A 
ATOM     55  C   UNL A   1      43.255  24.894  28.607  1.00  0.00     0.074 A 
ATOM     56  C   UNL A   1      44.232  29.802  32.756  1.00  0.00     0.029 A 
ATOM     57  N   UNL A   1      44.396  27.640  32.356  1.00  0.00    -0.354 N 
ATOM     58  N   UNL A   1      44.198  25.773  28.438  1.00  0.00    -0.248 NA
ATOM     59  C   UNL A   1      43.158  24.329  29.943  1.00  0.00     0.031 C 
ATOM     60  C   UNL A   1      44.834  29.588  31.480  1.00  0.00     0.029 A 
ATOM     61  C   UNL A   1      44.769  28.226  31.179  1.00  0.00     0.049 A 
ATOM     62  H   UNL A   1      44.559  26.700  32.601  1.00  0.00     0.167 HD
ATOM     63  C   UNL A   1      44.493  26.214  29.719  1.00  0.00     0.074 A 
ATOM     64  C   UNL A   1      43.936  25.192  30.603  1.00  0.00     0.031 C 
ATOM     65  C   UNL A   1      44.889  27.504  29.930  1.00  0.00     0.031 A 
BRANCH  52  66
ATOM     66  C   UNL A   1      42.732  26.925  34.836  1.00  0.00    -0.014 A 
ATOM     67  C   UNL A   1      43.056  25.653  34.321  1.00  0.00     0.009 A 
ATOM     68  C   UNL A   1      42.260  26.959  36.161  1.00  0.00     0.009 A 
ATOM     69  C   UNL A   1      42.816  24.484  35.052  1.00  0.00     0.001 A 
ATOM     70  C   UNL A   1      42.057  25.795  36.909  1.00  0.00     0.001 A 
ATOM     71  C   UNL A   1      42.302  24.555  36.341  1.00  0.00     0.000 A 
ENDBRANCH  52  66
BRANCH  53  72
ATOM     72  C   UNL A   1      41.794  23.502  27.006  1.00  0.00    -0.014 A 
ATOM     73  C   UNL A   1      42.829  22.724  26.460  1.00  0.00     0.009 A 
ATOM     74  C   UNL A   1      40.528  22.906  27.141  1.00  0.00     0.009 A 
ATOM     75  C   UNL A   1      42.620  21.381  26.115  1.00  0.00     0.001 A 
ATOM     76  C   UNL A   1      40.319  21.564  26.798  1.00  0.00     0.001 A 
ATOM     77  C   UNL A   1      41.369  20.797  26.301  1.00  0.00     0.000 A 
ENDBRANCH  53  72
BRANCH  65  78
ATOM     78  C   UNL A   1      45.286  28.314  28.719  1.00  0.00    -0.014 A 
ATOM     79  C   UNL A   1      46.585  28.324  28.178  1.00  0.00     0.009 A 
ATOM     80  C   UNL A   1      44.275  28.998  28.031  1.00  0.00     0.009 A 
ATOM     81  C   UNL A   1      46.865  29.025  27.000  1.00  0.00     0.001 A 
ATOM     82  C   UNL A   1      44.548  29.679  26.844  1.00  0.00     0.001 A 
ATOM     83  C   UNL A   1      45.844  29.698  26.332  1.00  0.00     0.000 A 
ENDBRANCH  65  78
ENDBRANCH  39  40
ENDBRANCH  31  34
ENDBRANCH  29  30
ENDBRANCH  28  29
ENDBRANCH  27  28
ENDBRANCH   3  27
TORSDOF 15
ENDMDL
