MODEL 1
REMARK VINA RESULT:     -13.1      0.000      0.000
REMARK SMILES Cc1c(CC(=O)NCCCNC(=O)c2ccc(-c3c4nc(c(-c5ccccc5)c5ccc([nH]5)c(-c5ccccc5)c5nc(c(-c6ccccc6)c6ccc3[nH]6)C=C5)C=C4)cc2)c2ccccc2n1C(=O)c1ccc(Cl)cc1
REMARK SMILES IDX 8 1 7 2 5 3 6 4 4 6 3 7 1 8 2 9 68 10 62 11 67 12 63 13
REMARK SMILES IDX 66 14 64 15 65 16 69 17 70 18 71 19 72 20 77 21 73 22 76 23
REMARK SMILES IDX 74 24 75 25 9 26 10 27 11 28 12 29 13 31 14 32 15 33 61 34
REMARK SMILES IDX 16 35 60 36 17 37 18 38 19 39 54 40 20 41 59 42 53 43 55 44
REMARK SMILES IDX 21 45 58 46 52 47 51 48 22 50 44 51 29 52 43 53 30 54 33 55
REMARK SMILES IDX 42 56 56 57 31 58 32 59 41 61 57 62 34 63 23 64 24 65 28 66
REMARK SMILES IDX 25 67 27 68 26 69 45 70 46 71 50 72 47 73 49 74 48 75 35 76
REMARK SMILES IDX 36 77 40 78 37 79 39 80 38 81
REMARK H PARENT 7 5 11 30 55 49 33 60
REMARK Flexibility Score: inf
ROOT
ATOM      1  C   UNL A   1      35.939  22.393  24.080  1.00  0.00     0.117 C 
ENDROOT
BRANCH   1   2
ATOM      2  N   UNL A   1      35.358  23.368  23.175  1.00  0.00    -0.356 N 
ATOM      3  C   UNL A   1      34.335  24.247  23.382  1.00  0.00     0.224 C 
ATOM      4  O   UNL A   1      33.997  24.972  22.444  1.00  0.00    -0.275 OA
ATOM      5  H   UNL A   1      35.763  23.400  22.278  1.00  0.00     0.163 HD
BRANCH   3   6
ATOM      6  C   UNL A   1      33.678  24.358  24.747  1.00  0.00     0.138 C 
BRANCH   6   7
ATOM      7  C   UNL A   1      32.623  25.424  24.815  1.00  0.00    -0.010 A 
ATOM      8  C   UNL A   1      30.652  24.219  23.623  1.00  0.00     0.065 C 
ATOM      9  C   UNL A   1      31.329  25.362  24.316  1.00  0.00     0.028 A 
ATOM     10  N   UNL A   1      30.703  26.601  24.521  1.00  0.00    -0.280 N 
ATOM     11  C   UNL A   1      32.763  26.684  25.462  1.00  0.00     0.004 A 
ATOM     12  C   UNL A   1      31.550  27.370  25.337  1.00  0.00     0.056 A 
ATOM     13  C   UNL A   1      33.830  27.282  26.171  1.00  0.00     0.010 A 
ATOM     14  C   UNL A   1      31.381  28.614  25.985  1.00  0.00     0.027 A 
ATOM     15  C   UNL A   1      33.675  28.544  26.744  1.00  0.00     0.001 A 
ATOM     16  C   UNL A   1      32.458  29.197  26.659  1.00  0.00     0.002 A 
BRANCH  10  17
ATOM     17  C   UNL A   1      29.434  26.978  23.985  1.00  0.00     0.262 C 
ATOM     18  O   UNL A   1      28.455  26.289  24.235  1.00  0.00    -0.268 OA
BRANCH  17  19
ATOM     19  C   UNL A   1      29.182  28.163  23.145  1.00  0.00     0.040 A 
ATOM     20  C   UNL A   1      30.206  28.764  22.405  1.00  0.00     0.015 A 
ATOM     21  C   UNL A   1      27.882  28.679  23.119  1.00  0.00     0.015 A 
ATOM     22  C   UNL A   1      29.945  29.952  21.719  1.00  0.00     0.021 A 
ATOM     23  C   UNL A   1      27.624  29.859  22.422  1.00  0.00     0.021 A 
ATOM     24  C   UNL A   1      28.661  30.502  21.746  1.00  0.00     0.041 A 
ATOM     25  Cl  UNL A   1      28.359  32.002  20.959  1.00  0.00    -0.084 Cl
ENDBRANCH  17  19
ENDBRANCH  10  17
ENDBRANCH   6   7
ENDBRANCH   3   6
ENDBRANCH   1   2
BRANCH   1  26
ATOM     26  C   UNL A   1      37.373  22.747  24.481  1.00  0.00     0.042 C 
BRANCH  26  27
ATOM     27  C   UNL A   1      37.870  21.985  25.710  1.00  0.00     0.118 C 
BRANCH  27  28
ATOM     28  N   UNL A   1      39.307  21.804  25.757  1.00  0.00    -0.352 N 
ATOM     29  C   UNL A   1      40.350  22.429  26.377  1.00  0.00     0.251 C 
ATOM     30  H   UNL A   1      39.605  21.044  25.205  1.00  0.00     0.163 HD
ATOM     31  O   UNL A   1      41.451  21.886  26.256  1.00  0.00    -0.269 OA
BRANCH  29  32
ATOM     32  C   UNL A   1      40.276  23.725  27.102  1.00  0.00     0.039 A 
ATOM     33  C   UNL A   1      39.248  24.663  27.004  1.00  0.00     0.014 A 
ATOM     34  C   UNL A   1      41.392  24.030  27.906  1.00  0.00     0.014 A 
ATOM     35  C   UNL A   1      39.389  25.916  27.594  1.00  0.00     0.010 A 
ATOM     36  C   UNL A   1      41.530  25.272  28.509  1.00  0.00     0.010 A 
ATOM     37  C   UNL A   1      40.552  26.235  28.303  1.00  0.00    -0.014 A 
BRANCH  37  38
ATOM     38  C   UNL A   1      40.650  27.549  28.930  1.00  0.00     0.031 A 
ATOM     39  C   UNL A   1      41.668  28.436  28.310  1.00  0.00     0.074 A 
ATOM     40  C   UNL A   1      39.825  27.974  29.912  1.00  0.00     0.049 A 
ATOM     41  N   UNL A   1      42.739  28.905  28.858  1.00  0.00    -0.248 NA
ATOM     42  C   UNL A   1      41.557  28.729  26.872  1.00  0.00     0.031 C 
ATOM     43  C   UNL A   1      38.623  27.300  30.417  1.00  0.00     0.029 A 
ATOM     44  N   UNL A   1      39.822  29.154  30.602  1.00  0.00    -0.354 N 
ATOM     45  C   UNL A   1      43.343  29.714  27.897  1.00  0.00     0.074 A 
ATOM     46  C   UNL A   1      42.662  29.447  26.658  1.00  0.00     0.031 C 
ATOM     47  C   UNL A   1      37.885  28.175  31.139  1.00  0.00     0.029 A 
ATOM     48  C   UNL A   1      38.636  29.409  31.285  1.00  0.00     0.049 A 
ATOM     49  H   UNL A   1      40.591  29.769  30.616  1.00  0.00     0.167 HD
ATOM     50  C   UNL A   1      44.183  30.722  28.262  1.00  0.00     0.031 A 
ATOM     51  C   UNL A   1      38.285  30.562  31.906  1.00  0.00     0.031 A 
ATOM     52  C   UNL A   1      44.590  30.585  29.635  1.00  0.00     0.049 A 
ATOM     53  C   UNL A   1      39.522  31.304  32.214  1.00  0.00     0.074 A 
ATOM     54  C   UNL A   1      45.487  29.823  30.345  1.00  0.00     0.029 A 
ATOM     55  N   UNL A   1      43.696  31.117  30.527  1.00  0.00    -0.354 N 
ATOM     56  N   UNL A   1      40.399  30.896  33.083  1.00  0.00    -0.248 NA
ATOM     57  C   UNL A   1      39.966  32.368  31.321  1.00  0.00     0.031 C 
ATOM     58  C   UNL A   1      44.977  29.756  31.674  1.00  0.00     0.029 A 
ATOM     59  C   UNL A   1      43.813  30.521  31.751  1.00  0.00     0.049 A 
ATOM     60  H   UNL A   1      43.057  31.834  30.314  1.00  0.00     0.167 HD
ATOM     61  C   UNL A   1      41.605  31.312  32.560  1.00  0.00     0.074 A 
ATOM     62  C   UNL A   1      41.271  32.359  31.603  1.00  0.00     0.031 C 
ATOM     63  C   UNL A   1      42.726  30.551  32.707  1.00  0.00     0.031 A 
BRANCH  50  64
ATOM     64  C   UNL A   1      44.229  32.077  27.584  1.00  0.00    -0.014 A 
ATOM     65  C   UNL A   1      44.376  32.257  26.197  1.00  0.00     0.009 A 
ATOM     66  C   UNL A   1      43.808  33.204  28.319  1.00  0.00     0.009 A 
ATOM     67  C   UNL A   1      44.078  33.472  25.569  1.00  0.00     0.001 A 
ATOM     68  C   UNL A   1      43.478  34.413  27.691  1.00  0.00     0.001 A 
ATOM     69  C   UNL A   1      43.603  34.542  26.313  1.00  0.00     0.000 A 
ENDBRANCH  50  64
BRANCH  51  70
ATOM     70  C   UNL A   1      36.964  31.212  32.038  1.00  0.00    -0.014 A 
ATOM     71  C   UNL A   1      36.215  31.500  30.885  1.00  0.00     0.009 A 
ATOM     72  C   UNL A   1      36.603  31.856  33.235  1.00  0.00     0.009 A 
ATOM     73  C   UNL A   1      35.189  32.452  30.909  1.00  0.00     0.001 A 
ATOM     74  C   UNL A   1      35.574  32.808  33.258  1.00  0.00     0.001 A 
ATOM     75  C   UNL A   1      34.883  33.122  32.091  1.00  0.00     0.000 A 
ENDBRANCH  51  70
BRANCH  63  76
ATOM     76  C   UNL A   1      42.751  29.530  33.809  1.00  0.00    -0.014 A 
ATOM     77  C   UNL A   1      43.253  29.938  35.054  1.00  0.00     0.009 A 
ATOM     78  C   UNL A   1      42.422  28.177  33.628  1.00  0.00     0.009 A 
ATOM     79  C   UNL A   1      43.451  29.019  36.082  1.00  0.00     0.001 A 
ATOM     80  C   UNL A   1      42.595  27.260  34.670  1.00  0.00     0.001 A 
ATOM     81  C   UNL A   1      43.122  27.681  35.891  1.00  0.00     0.000 A 
ENDBRANCH  63  76
ENDBRANCH  37  38
ENDBRANCH  29  32
ENDBRANCH  27  28
ENDBRANCH  26  27
ENDBRANCH   1  26
TORSDOF 13
ENDMDL
MODEL 2
REMARK VINA RESULT:     -13.1      3.886      9.469
REMARK SMILES Cc1c(CC(=O)NCCCNC(=O)c2ccc(-c3c4nc(c(-c5ccccc5)c5ccc([nH]5)c(-c5ccccc5)c5nc(c(-c6ccccc6)c6ccc3[nH]6)C=C5)C=C4)cc2)c2ccccc2n1C(=O)c1ccc(Cl)cc1
REMARK SMILES IDX 8 1 7 2 5 3 6 4 4 6 3 7 1 8 2 9 68 10 62 11 67 12 63 13
REMARK SMILES IDX 66 14 64 15 65 16 69 17 70 18 71 19 72 20 77 21 73 22 76 23
REMARK SMILES IDX 74 24 75 25 9 26 10 27 11 28 12 29 13 31 14 32 15 33 61 34
REMARK SMILES IDX 16 35 60 36 17 37 18 38 19 39 54 40 20 41 59 42 53 43 55 44
REMARK SMILES IDX 21 45 58 46 52 47 51 48 22 50 44 51 29 52 43 53 30 54 33 55
REMARK SMILES IDX 42 56 56 57 31 58 32 59 41 61 57 62 34 63 23 64 24 65 28 66
REMARK SMILES IDX 25 67 27 68 26 69 45 70 46 71 50 72 47 73 49 74 48 75 35 76
REMARK SMILES IDX 36 77 40 78 37 79 39 80 38 81
REMARK H PARENT 7 5 11 30 55 49 33 60
REMARK Flexibility Score: inf
ROOT
ATOM      1  C   UNL A   1      38.149  33.792  33.183  1.00  0.00     0.117 C 
ENDROOT
BRANCH   1   2
ATOM      2  N   UNL A   1      37.027  34.711  33.110  1.00  0.00    -0.356 N 
ATOM      3  C   UNL A   1      35.692  34.448  33.008  1.00  0.00     0.224 C 
ATOM      4  O   UNL A   1      34.918  35.406  32.937  1.00  0.00    -0.275 OA
ATOM      5  H   UNL A   1      37.265  35.666  33.138  1.00  0.00     0.163 HD
BRANCH   3   6
ATOM      6  C   UNL A   1      35.183  33.018  33.037  1.00  0.00     0.138 C 
BRANCH   6   7
ATOM      7  C   UNL A   1      35.460  32.262  31.770  1.00  0.00    -0.010 A 
ATOM      8  C   UNL A   1      34.376  33.851  30.022  1.00  0.00     0.065 C 
ATOM      9  C   UNL A   1      35.096  32.620  30.478  1.00  0.00     0.028 A 
ATOM     10  N   UNL A   1      35.480  31.596  29.598  1.00  0.00    -0.280 N 
ATOM     11  C   UNL A   1      36.202  31.051  31.676  1.00  0.00     0.004 A 
ATOM     12  C   UNL A   1      36.269  30.689  30.326  1.00  0.00     0.056 A 
ATOM     13  C   UNL A   1      36.847  30.246  32.643  1.00  0.00     0.010 A 
ATOM     14  C   UNL A   1      37.043  29.573  29.939  1.00  0.00     0.027 A 
ATOM     15  C   UNL A   1      37.546  29.104  32.257  1.00  0.00     0.001 A 
ATOM     16  C   UNL A   1      37.651  28.779  30.916  1.00  0.00     0.002 A 
BRANCH  10  17
ATOM     17  C   UNL A   1      35.118  31.521  28.218  1.00  0.00     0.262 C 
ATOM     18  O   UNL A   1      35.616  32.313  27.430  1.00  0.00    -0.268 OA
BRANCH  17  19
ATOM     19  C   UNL A   1      34.182  30.543  27.635  1.00  0.00     0.040 A 
ATOM     20  C   UNL A   1      34.571  29.223  27.383  1.00  0.00     0.015 A 
ATOM     21  C   UNL A   1      32.890  30.981  27.327  1.00  0.00     0.015 A 
ATOM     22  C   UNL A   1      33.688  28.367  26.720  1.00  0.00     0.021 A 
ATOM     23  C   UNL A   1      32.008  30.117  26.678  1.00  0.00     0.021 A 
ATOM     24  C   UNL A   1      32.419  28.823  26.356  1.00  0.00     0.041 A 
ATOM     25  Cl  UNL A   1      31.361  27.790  25.479  1.00  0.00    -0.084 Cl
ENDBRANCH  17  19
ENDBRANCH  10  17
ENDBRANCH   6   7
ENDBRANCH   3   6
ENDBRANCH   1   2
BRANCH   1  26
ATOM     26  C   UNL A   1      39.299  34.339  34.034  1.00  0.00     0.042 C 
BRANCH  26  27
ATOM     27  C   UNL A   1      40.656  34.286  33.332  1.00  0.00     0.118 C 
BRANCH  27  28
ATOM     28  N   UNL A   1      40.605  34.589  31.916  1.00  0.00    -0.352 N 
ATOM     29  C   UNL A   1      40.755  33.879  30.760  1.00  0.00     0.251 C 
ATOM     30  H   UNL A   1      40.417  35.541  31.745  1.00  0.00     0.163 HD
ATOM     31  O   UNL A   1      40.514  34.492  29.717  1.00  0.00    -0.269 OA
BRANCH  29  32
ATOM     32  C   UNL A   1      41.252  32.481  30.660  1.00  0.00     0.039 A 
ATOM     33  C   UNL A   1      42.475  32.080  30.121  1.00  0.00     0.014 A 
ATOM     34  C   UNL A   1      40.354  31.490  31.104  1.00  0.00     0.014 A 
ATOM     35  C   UNL A   1      42.739  30.728  29.920  1.00  0.00     0.010 A 
ATOM     36  C   UNL A   1      40.619  30.141  30.920  1.00  0.00     0.010 A 
ATOM     37  C   UNL A   1      41.789  29.764  30.275  1.00  0.00    -0.014 A 
BRANCH  37  38
ATOM     38  C   UNL A   1      42.115  28.355  30.074  1.00  0.00     0.031 A 
ATOM     39  C   UNL A   1      42.884  27.752  31.194  1.00  0.00     0.074 A 
ATOM     40  C   UNL A   1      41.672  27.626  29.027  1.00  0.00     0.049 A 
ATOM     41  N   UNL A   1      44.085  27.279  31.155  1.00  0.00    -0.248 NA
ATOM     42  C   UNL A   1      42.306  27.800  32.546  1.00  0.00     0.031 C 
ATOM     43  C   UNL A   1      40.696  28.033  28.010  1.00  0.00     0.029 A 
ATOM     44  N   UNL A   1      41.922  26.322  28.701  1.00  0.00    -0.354 N 
ATOM     45  C   UNL A   1      44.348  26.788  32.433  1.00  0.00     0.074 A 
ATOM     46  C   UNL A   1      43.288  27.271  33.278  1.00  0.00     0.031 C 
ATOM     47  C   UNL A   1      40.257  26.940  27.343  1.00  0.00     0.029 A 
ATOM     48  C   UNL A   1      41.036  25.791  27.768  1.00  0.00     0.049 A 
ATOM     49  H   UNL A   1      42.663  25.805  29.092  1.00  0.00     0.167 HD
ATOM     50  C   UNL A   1      45.281  25.815  32.627  1.00  0.00     0.031 A 
ATOM     51  C   UNL A   1      40.934  24.493  27.389  1.00  0.00     0.031 A 
ATOM     52  C   UNL A   1      46.120  25.663  31.469  1.00  0.00     0.049 A 
ATOM     53  C   UNL A   1      42.216  23.831  27.693  1.00  0.00     0.074 A 
ATOM     54  C   UNL A   1      47.188  26.322  30.909  1.00  0.00     0.029 A 
ATOM     55  N   UNL A   1      45.585  24.844  30.509  1.00  0.00    -0.354 N 
ATOM     56  N   UNL A   1      43.325  24.109  27.072  1.00  0.00    -0.248 NA
ATOM     57  C   UNL A   1      42.356  23.062  28.923  1.00  0.00     0.031 C 
ATOM     58  C   UNL A   1      47.150  26.017  29.517  1.00  0.00     0.029 A 
ATOM     59  C   UNL A   1      46.092  25.140  29.275  1.00  0.00     0.049 A 
ATOM     60  H   UNL A   1      44.925  24.136  30.685  1.00  0.00     0.167 HD
ATOM     61  C   UNL A   1      44.296  23.956  28.041  1.00  0.00     0.074 A 
ATOM     62  C   UNL A   1      43.681  23.138  29.078  1.00  0.00     0.031 C 
ATOM     63  C   UNL A   1      45.386  24.772  28.066  1.00  0.00     0.031 A 
BRANCH  50  64
ATOM     64  C   UNL A   1      45.123  24.673  33.612  1.00  0.00    -0.014 A 
ATOM     65  C   UNL A   1      44.186  23.635  33.468  1.00  0.00     0.009 A 
ATOM     66  C   UNL A   1      46.149  24.463  34.557  1.00  0.00     0.009 A 
ATOM     67  C   UNL A   1      44.286  22.438  34.186  1.00  0.00     0.001 A 
ATOM     68  C   UNL A   1      46.271  23.254  35.255  1.00  0.00     0.001 A 
ATOM     69  C   UNL A   1      45.345  22.236  35.060  1.00  0.00     0.000 A 
ENDBRANCH  50  64
BRANCH  51  70
ATOM     70  C   UNL A   1      39.744  23.698  27.017  1.00  0.00    -0.014 A 
ATOM     71  C   UNL A   1      39.900  22.353  26.643  1.00  0.00     0.009 A 
ATOM     72  C   UNL A   1      38.533  24.335  26.694  1.00  0.00     0.009 A 
ATOM     73  C   UNL A   1      38.911  21.689  25.908  1.00  0.00     0.001 A 
ATOM     74  C   UNL A   1      37.543  23.668  25.959  1.00  0.00     0.001 A 
ATOM     75  C   UNL A   1      37.742  22.353  25.547  1.00  0.00     0.000 A 
ENDBRANCH  51  70
BRANCH  63  76
ATOM     76  C   UNL A   1      45.759  25.497  26.804  1.00  0.00    -0.014 A 
ATOM     77  C   UNL A   1      46.754  24.922  25.999  1.00  0.00     0.009 A 
ATOM     78  C   UNL A   1      45.263  26.764  26.456  1.00  0.00     0.009 A 
ATOM     79  C   UNL A   1      47.264  25.602  24.895  1.00  0.00     0.001 A 
ATOM     80  C   UNL A   1      45.755  27.434  25.332  1.00  0.00     0.001 A 
ATOM     81  C   UNL A   1      46.764  26.857  24.561  1.00  0.00     0.000 A 
ENDBRANCH  63  76
ENDBRANCH  37  38
ENDBRANCH  29  32
ENDBRANCH  27  28
ENDBRANCH  26  27
ENDBRANCH   1  26
TORSDOF 13
ENDMDL
MODEL 3
REMARK VINA RESULT:     -13.0      3.587      8.366
REMARK SMILES Cc1c(CC(=O)NCCCNC(=O)c2ccc(-c3c4nc(c(-c5ccccc5)c5ccc([nH]5)c(-c5ccccc5)c5nc(c(-c6ccccc6)c6ccc3[nH]6)C=C5)C=C4)cc2)c2ccccc2n1C(=O)c1ccc(Cl)cc1
REMARK SMILES IDX 8 1 7 2 5 3 6 4 4 6 3 7 1 8 2 9 68 10 62 11 67 12 63 13
REMARK SMILES IDX 66 14 64 15 65 16 69 17 70 18 71 19 72 20 77 21 73 22 76 23
REMARK SMILES IDX 74 24 75 25 9 26 10 27 11 28 12 29 13 31 14 32 15 33 61 34
REMARK SMILES IDX 16 35 60 36 17 37 18 38 19 39 54 40 20 41 59 42 53 43 55 44
REMARK SMILES IDX 21 45 58 46 52 47 51 48 22 50 44 51 29 52 43 53 30 54 33 55
REMARK SMILES IDX 42 56 56 57 31 58 32 59 41 61 57 62 34 63 23 64 24 65 28 66
REMARK SMILES IDX 25 67 27 68 26 69 45 70 46 71 50 72 47 73 49 74 48 75 35 76
REMARK SMILES IDX 36 77 40 78 37 79 39 80 38 81
REMARK H PARENT 7 5 11 30 55 49 33 60
REMARK Flexibility Score: inf
ROOT
ATOM      1  C   UNL A   1      31.924  28.556  26.292  1.00  0.00     0.117 C 
ENDROOT
BRANCH   1   2
ATOM      2  N   UNL A   1      32.672  28.176  25.107  1.00  0.00    -0.356 N 
ATOM      3  C   UNL A   1      33.275  26.991  24.801  1.00  0.00     0.224 C 
ATOM      4  O   UNL A   1      33.880  26.909  23.730  1.00  0.00    -0.275 OA
ATOM      5  H   UNL A   1      32.756  28.878  24.421  1.00  0.00     0.163 HD
BRANCH   3   6
ATOM      6  C   UNL A   1      33.153  25.799  25.735  1.00  0.00     0.138 C 
BRANCH   6   7
ATOM      7  C   UNL A   1      33.463  24.489  25.072  1.00  0.00    -0.010 A 
ATOM      8  C   UNL A   1      31.168  23.956  23.975  1.00  0.00     0.065 C 
ATOM      9  C   UNL A   1      32.599  23.695  24.329  1.00  0.00     0.028 A 
ATOM     10  N   UNL A   1      33.270  22.519  23.958  1.00  0.00    -0.280 N 
ATOM     11  C   UNL A   1      34.737  23.854  25.053  1.00  0.00     0.004 A 
ATOM     12  C   UNL A   1      34.622  22.679  24.303  1.00  0.00     0.056 A 
ATOM     13  C   UNL A   1      35.992  24.210  25.599  1.00  0.00     0.010 A 
ATOM     14  C   UNL A   1      35.773  21.905  24.036  1.00  0.00     0.027 A 
ATOM     15  C   UNL A   1      37.106  23.399  25.391  1.00  0.00     0.001 A 
ATOM     16  C   UNL A   1      36.997  22.263  24.607  1.00  0.00     0.002 A 
BRANCH  10  17
ATOM     17  C   UNL A   1      32.657  21.385  23.343  1.00  0.00     0.262 C 
ATOM     18  O   UNL A   1      32.134  21.515  22.245  1.00  0.00    -0.268 OA
BRANCH  17  19
ATOM     19  C   UNL A   1      32.605  20.028  23.917  1.00  0.00     0.040 A 
ATOM     20  C   UNL A   1      32.656  19.819  25.299  1.00  0.00     0.015 A 
ATOM     21  C   UNL A   1      32.514  18.949  23.031  1.00  0.00     0.015 A 
ATOM     22  C   UNL A   1      32.724  18.512  25.788  1.00  0.00     0.021 A 
ATOM     23  C   UNL A   1      32.568  17.647  23.527  1.00  0.00     0.021 A 
ATOM     24  C   UNL A   1      32.697  17.435  24.899  1.00  0.00     0.041 A 
ATOM     25  Cl  UNL A   1      32.851  15.830  25.499  1.00  0.00    -0.084 Cl
ENDBRANCH  17  19
ENDBRANCH  10  17
ENDBRANCH   6   7
ENDBRANCH   3   6
ENDBRANCH   1   2
BRANCH   1  26
ATOM     26  C   UNL A   1      32.791  29.283  27.323  1.00  0.00     0.042 C 
BRANCH  26  27
ATOM     27  C   UNL A   1      34.022  29.959  26.718  1.00  0.00     0.118 C 
BRANCH  27  28
ATOM     28  N   UNL A   1      34.363  31.229  27.329  1.00  0.00    -0.352 N 
ATOM     29  C   UNL A   1      35.437  31.729  28.007  1.00  0.00     0.251 C 
ATOM     30  H   UNL A   1      33.643  31.894  27.232  1.00  0.00     0.163 HD
ATOM     31  O   UNL A   1      35.393  32.933  28.271  1.00  0.00    -0.269 OA
BRANCH  29  32
ATOM     32  C   UNL A   1      36.591  30.935  28.507  1.00  0.00     0.039 A 
ATOM     33  C   UNL A   1      37.867  31.425  28.782  1.00  0.00     0.014 A 
ATOM     34  C   UNL A   1      36.355  29.553  28.646  1.00  0.00     0.014 A 
ATOM     35  C   UNL A   1      38.906  30.544  29.069  1.00  0.00     0.010 A 
ATOM     36  C   UNL A   1      37.384  28.672  28.947  1.00  0.00     0.010 A 
ATOM     37  C   UNL A   1      38.672  29.165  29.102  1.00  0.00    -0.014 A 
BRANCH  37  38
ATOM     38  C   UNL A   1      39.781  28.276  29.434  1.00  0.00     0.031 A 
ATOM     39  C   UNL A   1      40.125  28.259  30.880  1.00  0.00     0.074 A 
ATOM     40  C   UNL A   1      40.377  27.456  28.541  1.00  0.00     0.049 A 
ATOM     41  N   UNL A   1      41.230  28.643  31.428  1.00  0.00    -0.248 NA
ATOM     42  C   UNL A   1      39.074  27.901  31.845  1.00  0.00     0.031 C 
ATOM     43  C   UNL A   1      39.954  27.187  27.162  1.00  0.00     0.029 A 
ATOM     44  N   UNL A   1      41.433  26.603  28.705  1.00  0.00    -0.354 N 
ATOM     45  C   UNL A   1      41.091  28.394  32.792  1.00  0.00     0.074 A 
ATOM     46  C   UNL A   1      39.702  28.087  33.008  1.00  0.00     0.031 C 
ATOM     47  C   UNL A   1      40.580  26.077  26.707  1.00  0.00     0.029 A 
ATOM     48  C   UNL A   1      41.562  25.658  27.692  1.00  0.00     0.049 A 
ATOM     49  H   UNL A   1      42.048  26.654  29.472  1.00  0.00     0.167 HD
ATOM     50  C   UNL A   1      42.185  28.214  33.583  1.00  0.00     0.031 A 
ATOM     51  C   UNL A   1      42.398  24.592  27.674  1.00  0.00     0.031 A 
ATOM     52  C   UNL A   1      43.383  28.649  32.916  1.00  0.00     0.049 A 
ATOM     53  C   UNL A   1      43.506  24.871  28.608  1.00  0.00     0.074 A 
ATOM     54  C   UNL A   1      44.002  29.846  32.642  1.00  0.00     0.029 A 
ATOM     55  N   UNL A   1      43.925  27.700  32.090  1.00  0.00    -0.354 N 
ATOM     56  N   UNL A   1      44.395  25.797  28.400  1.00  0.00    -0.248 NA
ATOM     57  C   UNL A   1      43.461  24.329  29.960  1.00  0.00     0.031 C 
ATOM     58  C   UNL A   1      44.795  29.618  31.479  1.00  0.00     0.029 A 
ATOM     59  C   UNL A   1      44.679  28.278  31.108  1.00  0.00     0.049 A 
ATOM     60  H   UNL A   1      43.790  26.731  32.192  1.00  0.00     0.167 HD
ATOM     61  C   UNL A   1      44.693  26.261  29.664  1.00  0.00     0.074 A 
ATOM     62  C   UNL A   1      44.251  25.213  30.576  1.00  0.00     0.031 C 
ATOM     63  C   UNL A   1      44.967  27.579  29.873  1.00  0.00     0.031 A 
BRANCH  50  64
ATOM     64  C   UNL A   1      42.262  27.201  34.708  1.00  0.00    -0.014 A 
ATOM     65  C   UNL A   1      41.910  27.478  36.040  1.00  0.00     0.009 A 
ATOM     66  C   UNL A   1      42.403  25.839  34.368  1.00  0.00     0.009 A 
ATOM     67  C   UNL A   1      41.666  26.462  36.971  1.00  0.00     0.001 A 
ATOM     68  C   UNL A   1      42.130  24.818  35.289  1.00  0.00     0.001 A 
ATOM     69  C   UNL A   1      41.749  25.131  36.588  1.00  0.00     0.000 A 
ENDBRANCH  50  64
BRANCH  51  70
ATOM     70  C   UNL A   1      42.207  23.236  27.116  1.00  0.00    -0.014 A 
ATOM     71  C   UNL A   1      41.255  22.378  27.690  1.00  0.00     0.009 A 
ATOM     72  C   UNL A   1      43.178  22.670  26.270  1.00  0.00     0.009 A 
ATOM     73  C   UNL A   1      41.314  20.995  27.487  1.00  0.00     0.001 A 
ATOM     74  C   UNL A   1      43.235  21.285  26.066  1.00  0.00     0.001 A 
ATOM     75  C   UNL A   1      42.317  20.446  26.693  1.00  0.00     0.000 A 
ENDBRANCH  51  70
BRANCH  63  76
ATOM     76  C   UNL A   1      45.401  28.409  28.698  1.00  0.00    -0.014 A 
ATOM     77  C   UNL A   1      46.779  28.527  28.465  1.00  0.00     0.009 A 
ATOM     78  C   UNL A   1      44.519  29.164  27.908  1.00  0.00     0.009 A 
ATOM     79  C   UNL A   1      47.269  29.395  27.492  1.00  0.00     0.001 A 
ATOM     80  C   UNL A   1      45.010  30.015  26.913  1.00  0.00     0.001 A 
ATOM     81  C   UNL A   1      46.386  30.138  26.716  1.00  0.00     0.000 A 
ENDBRANCH  63  76
ENDBRANCH  37  38
ENDBRANCH  29  32
ENDBRANCH  27  28
ENDBRANCH  26  27
ENDBRANCH   1  26
TORSDOF 13
ENDMDL
