MODEL 1
REMARK VINA RESULT:     -11.9      0.000      0.000
REMARK SMILES COc1cccc(-c2ccc(=O)n(CC(=O)N[C@@H](C(=O)NCCCNC(=O)c3ccc(-c4c5nc(c(-c6ccccc6)c6ccc([nH]6)c(-c6ccccc6)c6nc(c(-c7ccccc7)c7ccc4[nH]7)C=C6)C=C5)cc3)C(C)C)n2)c1
REMARK SMILES IDX 19 1 20 2 21 3 18 5 17 6 15 7 16 8 14 10 13 11 8 12 9 13
REMARK SMILES IDX 79 14 10 15 11 16 12 17 7 18 3 19 4 20 80 21 5 22 6 23 2 24
REMARK SMILES IDX 1 25 76 26 77 27 78 28 22 29 23 30 24 31 25 32 26 33 27 35
REMARK SMILES IDX 28 36 29 37 75 38 30 39 74 40 31 41 32 42 33 43 68 44 34 45
REMARK SMILES IDX 73 46 67 47 69 48 35 49 72 50 66 51 65 52 36 54 58 55 43 56
REMARK SMILES IDX 57 57 44 58 47 59 56 60 70 61 45 62 46 63 55 65 71 66 48 67
REMARK SMILES IDX 37 68 38 69 42 70 39 71 41 72 40 73 59 74 60 75 64 76 61 77
REMARK SMILES IDX 63 78 62 79 49 80 50 81 54 82 51 83 53 84 52 85
REMARK H PARENT 21 4 17 9 25 34 69 53 47 64
REMARK Flexibility Score: inf
ROOT
ATOM      1  C   UNL A   1      32.359  28.745  27.053  1.00  0.00     0.242 C 
ATOM      2  O   UNL A   1      33.071  28.280  27.946  1.00  0.00    -0.273 OA
ATOM      3  N   UNL A   1      32.107  30.089  27.115  1.00  0.00    -0.354 N 
ATOM      4  H   UNL A   1      32.373  30.548  27.943  1.00  0.00     0.163 HD
ENDROOT
BRANCH   1   5
ATOM      5  C   UNL A   1      31.824  27.893  25.852  1.00  0.00     0.173 C 
BRANCH   5   6
ATOM      6  N   UNL A   1      31.028  26.781  26.395  1.00  0.00    -0.342 N 
ATOM      7  C   UNL A   1      30.179  25.894  25.797  1.00  0.00     0.242 C 
ATOM      8  O   UNL A   1      29.631  25.074  26.543  1.00  0.00    -0.273 OA
ATOM      9  H   UNL A   1      31.126  26.654  27.367  1.00  0.00     0.164 HD
BRANCH   7  10
ATOM     10  C   UNL A   1      29.956  25.842  24.275  1.00  0.00     0.248 C 
BRANCH  10  11
ATOM     11  N   UNL A   1      31.053  25.258  23.504  1.00  0.00    -0.220 N 
ATOM     12  C   UNL A   1      32.636  23.614  23.398  1.00  0.00     0.091 A 
ATOM     13  C   UNL A   1      33.264  24.181  22.193  1.00  0.00     0.036 A 
ATOM     14  N   UNL A   1      31.615  24.109  24.017  1.00  0.00    -0.169 NA
ATOM     15  C   UNL A   1      32.651  25.241  21.662  1.00  0.00     0.075 A 
ATOM     16  C   UNL A   1      31.444  25.829  22.296  1.00  0.00     0.267 A 
ATOM     17  O   UNL A   1      30.916  26.804  21.773  1.00  0.00    -0.268 OA
BRANCH  12  18
ATOM     18  C   UNL A   1      33.213  22.356  23.888  1.00  0.00     0.006 A 
ATOM     19  C   UNL A   1      32.811  20.096  24.611  1.00  0.00     0.119 A 
ATOM     20  C   UNL A   1      34.167  19.984  24.934  1.00  0.00     0.046 A 
ATOM     21  C   UNL A   1      32.331  21.296  24.100  1.00  0.00     0.056 A 
ATOM     22  C   UNL A   1      35.046  21.053  24.725  1.00  0.00     0.005 A 
ATOM     23  C   UNL A   1      34.570  22.253  24.196  1.00  0.00     0.011 A 
BRANCH  19  24
ATOM     24  O   UNL A   1      32.047  18.991  24.868  1.00  0.00    -0.497 OA
ATOM     25  C   UNL A   1      32.748  17.851  25.356  1.00  0.00     0.278 C 
ENDBRANCH  19  24
ENDBRANCH  12  18
ENDBRANCH  10  11
ENDBRANCH   7  10
ENDBRANCH   5   6
BRANCH   5  26
ATOM     26  C   UNL A   1      33.009  27.399  24.981  1.00  0.00     0.015 C 
ATOM     27  C   UNL A   1      33.976  28.512  24.568  1.00  0.00     0.010 C 
ATOM     28  C   UNL A   1      33.799  26.311  25.725  1.00  0.00     0.010 C 
ENDBRANCH   5  26
ENDBRANCH   1   5
BRANCH   3  29
ATOM     29  C   UNL A   1      31.493  30.903  26.101  1.00  0.00     0.117 C 
BRANCH  29  30
ATOM     30  C   UNL A   1      31.302  32.349  26.509  1.00  0.00     0.042 C 
BRANCH  30  31
ATOM     31  C   UNL A   1      32.506  32.891  27.256  1.00  0.00     0.118 C 
BRANCH  31  32
ATOM     32  N   UNL A   1      32.352  34.298  27.621  1.00  0.00    -0.352 N 
ATOM     33  C   UNL A   1      33.008  35.041  28.575  1.00  0.00     0.251 C 
ATOM     34  H   UNL A   1      31.674  34.790  27.104  1.00  0.00     0.163 HD
ATOM     35  O   UNL A   1      32.604  36.157  28.859  1.00  0.00    -0.269 OA
BRANCH  33  36
ATOM     36  C   UNL A   1      34.185  34.464  29.262  1.00  0.00     0.039 A 
ATOM     37  C   UNL A   1      34.008  33.762  30.456  1.00  0.00     0.014 A 
ATOM     38  C   UNL A   1      35.458  34.592  28.704  1.00  0.00     0.014 A 
ATOM     39  C   UNL A   1      35.101  33.122  31.045  1.00  0.00     0.010 A 
ATOM     40  C   UNL A   1      36.511  33.854  29.220  1.00  0.00     0.010 A 
ATOM     41  C   UNL A   1      36.351  33.126  30.406  1.00  0.00    -0.014 A 
BRANCH  41  42
ATOM     42  C   UNL A   1      37.524  32.407  30.961  1.00  0.00     0.031 A 
ATOM     43  C   UNL A   1      38.174  32.907  32.224  1.00  0.00     0.074 A 
ATOM     44  C   UNL A   1      38.056  31.367  30.291  1.00  0.00     0.049 A 
ATOM     45  N   UNL A   1      39.265  32.492  32.815  1.00  0.00    -0.248 NA
ATOM     46  C   UNL A   1      37.535  34.057  32.888  1.00  0.00     0.031 C 
ATOM     47  C   UNL A   1      37.551  30.815  29.033  1.00  0.00     0.029 A 
ATOM     48  N   UNL A   1      39.150  30.591  30.578  1.00  0.00    -0.354 N 
ATOM     49  C   UNL A   1      39.454  33.346  33.895  1.00  0.00     0.074 A 
ATOM     50  C   UNL A   1      38.411  34.343  33.837  1.00  0.00     0.031 C 
ATOM     51  C   UNL A   1      38.305  29.762  28.680  1.00  0.00     0.029 A 
ATOM     52  C   UNL A   1      39.374  29.595  29.659  1.00  0.00     0.049 A 
ATOM     53  H   UNL A   1      39.721  30.734  31.367  1.00  0.00     0.167 HD
ATOM     54  C   UNL A   1      40.393  33.289  34.869  1.00  0.00     0.031 A 
ATOM     55  C   UNL A   1      40.334  28.654  29.612  1.00  0.00     0.031 A 
ATOM     56  C   UNL A   1      41.417  32.284  34.938  1.00  0.00     0.049 A 
ATOM     57  C   UNL A   1      41.373  28.614  30.698  1.00  0.00     0.074 A 
ATOM     58  C   UNL A   1      42.386  32.101  35.908  1.00  0.00     0.029 A 
ATOM     59  N   UNL A   1      41.601  31.285  33.993  1.00  0.00    -0.354 N 
ATOM     60  N   UNL A   1      41.504  29.391  31.747  1.00  0.00    -0.248 NA
ATOM     61  C   UNL A   1      42.389  27.558  30.600  1.00  0.00     0.031 C 
ATOM     62  C   UNL A   1      43.185  31.019  35.526  1.00  0.00     0.029 A 
ATOM     63  C   UNL A   1      42.678  30.492  34.350  1.00  0.00     0.049 A 
ATOM     64  H   UNL A   1      41.048  31.160  33.188  1.00  0.00     0.167 HD
ATOM     65  C   UNL A   1      42.593  28.896  32.452  1.00  0.00     0.074 A 
ATOM     66  C   UNL A   1      43.078  27.745  31.716  1.00  0.00     0.031 C 
ATOM     67  C   UNL A   1      43.141  29.348  33.606  1.00  0.00     0.031 A 
BRANCH  54  68
ATOM     68  C   UNL A   1      40.341  34.351  35.934  1.00  0.00    -0.014 A 
ATOM     69  C   UNL A   1      40.956  35.601  35.748  1.00  0.00     0.009 A 
ATOM     70  C   UNL A   1      39.671  34.101  37.140  1.00  0.00     0.009 A 
ATOM     71  C   UNL A   1      40.948  36.555  36.767  1.00  0.00     0.001 A 
ATOM     72  C   UNL A   1      39.633  35.070  38.145  1.00  0.00     0.001 A 
ATOM     73  C   UNL A   1      40.283  36.290  37.963  1.00  0.00     0.000 A 
ENDBRANCH  54  68
BRANCH  55  74
ATOM     74  C   UNL A   1      40.336  27.643  28.522  1.00  0.00    -0.014 A 
ATOM     75  C   UNL A   1      40.991  27.912  27.310  1.00  0.00     0.009 A 
ATOM     76  C   UNL A   1      39.686  26.409  28.682  1.00  0.00     0.009 A 
ATOM     77  C   UNL A   1      40.975  26.980  26.272  1.00  0.00     0.001 A 
ATOM     78  C   UNL A   1      39.697  25.466  27.650  1.00  0.00     0.001 A 
ATOM     79  C   UNL A   1      40.332  25.755  26.444  1.00  0.00     0.000 A 
ENDBRANCH  55  74
BRANCH  67  80
ATOM     80  C   UNL A   1      44.293  28.566  34.171  1.00  0.00    -0.014 A 
ATOM     81  C   UNL A   1      45.622  28.888  33.859  1.00  0.00     0.009 A 
ATOM     82  C   UNL A   1      44.039  27.513  35.064  1.00  0.00     0.009 A 
ATOM     83  C   UNL A   1      46.672  28.145  34.400  1.00  0.00     0.001 A 
ATOM     84  C   UNL A   1      45.091  26.794  35.629  1.00  0.00     0.001 A 
ATOM     85  C   UNL A   1      46.407  27.103  35.289  1.00  0.00     0.000 A 
ENDBRANCH  67  80
ENDBRANCH  41  42
ENDBRANCH  33  36
ENDBRANCH  31  32
ENDBRANCH  30  31
ENDBRANCH  29  30
ENDBRANCH   3  29
TORSDOF 16
ENDMDL
MODEL 2
REMARK VINA RESULT:     -11.4      0.682      5.806
REMARK SMILES COc1cccc(-c2ccc(=O)n(CC(=O)N[C@@H](C(=O)NCCCNC(=O)c3ccc(-c4c5nc(c(-c6ccccc6)c6ccc([nH]6)c(-c6ccccc6)c6nc(c(-c7ccccc7)c7ccc4[nH]7)C=C6)C=C5)cc3)C(C)C)n2)c1
REMARK SMILES IDX 19 1 20 2 21 3 18 5 17 6 15 7 16 8 14 10 13 11 8 12 9 13
REMARK SMILES IDX 79 14 10 15 11 16 12 17 7 18 3 19 4 20 80 21 5 22 6 23 2 24
REMARK SMILES IDX 1 25 76 26 77 27 78 28 22 29 23 30 24 31 25 32 26 33 27 35
REMARK SMILES IDX 28 36 29 37 75 38 30 39 74 40 31 41 32 42 33 43 68 44 34 45
REMARK SMILES IDX 73 46 67 47 69 48 35 49 72 50 66 51 65 52 36 54 58 55 43 56
REMARK SMILES IDX 57 57 44 58 47 59 56 60 70 61 45 62 46 63 55 65 71 66 48 67
REMARK SMILES IDX 37 68 38 69 42 70 39 71 41 72 40 73 59 74 60 75 64 76 61 77
REMARK SMILES IDX 63 78 62 79 49 80 50 81 54 82 51 83 53 84 52 85
REMARK H PARENT 21 4 17 9 25 34 69 53 47 64
REMARK Flexibility Score: inf
ROOT
ATOM      1  C   UNL A   1      32.397  28.869  26.866  1.00  0.00     0.242 C 
ATOM      2  O   UNL A   1      33.276  28.493  27.645  1.00  0.00    -0.273 OA
ATOM      3  N   UNL A   1      31.956  30.155  27.022  1.00  0.00    -0.354 N 
ATOM      4  H   UNL A   1      32.252  30.626  27.834  1.00  0.00     0.163 HD
ENDROOT
BRANCH   1   5
ATOM      5  C   UNL A   1      31.851  27.981  25.697  1.00  0.00     0.173 C 
BRANCH   5   6
ATOM      6  N   UNL A   1      31.071  26.879  26.282  1.00  0.00    -0.342 N 
ATOM      7  C   UNL A   1      30.217  25.971  25.722  1.00  0.00     0.242 C 
ATOM      8  O   UNL A   1      29.687  25.169  26.497  1.00  0.00    -0.273 OA
ATOM      9  H   UNL A   1      31.186  26.777  27.255  1.00  0.00     0.164 HD
BRANCH   7  10
ATOM     10  C   UNL A   1      29.969  25.879  24.205  1.00  0.00     0.248 C 
BRANCH  10  11
ATOM     11  N   UNL A   1      31.062  25.294  23.429  1.00  0.00    -0.220 N 
ATOM     12  C   UNL A   1      32.620  23.628  23.300  1.00  0.00     0.091 A 
ATOM     13  C   UNL A   1      33.265  24.211  22.111  1.00  0.00     0.036 A 
ATOM     14  N   UNL A   1      31.603  24.127  23.922  1.00  0.00    -0.169 NA
ATOM     15  C   UNL A   1      32.671  25.290  21.597  1.00  0.00     0.075 A 
ATOM     16  C   UNL A   1      31.469  25.884  22.236  1.00  0.00     0.267 A 
ATOM     17  O   UNL A   1      30.959  26.877  21.729  1.00  0.00    -0.268 OA
BRANCH  12  18
ATOM     18  C   UNL A   1      33.175  22.353  23.768  1.00  0.00     0.006 A 
ATOM     19  C   UNL A   1      32.864  19.977  23.994  1.00  0.00     0.119 A 
ATOM     20  C   UNL A   1      34.058  19.915  24.721  1.00  0.00     0.046 A 
ATOM     21  C   UNL A   1      32.415  21.207  23.529  1.00  0.00     0.056 A 
ATOM     22  C   UNL A   1      34.813  21.069  24.962  1.00  0.00     0.005 A 
ATOM     23  C   UNL A   1      34.373  22.302  24.483  1.00  0.00     0.011 A 
BRANCH  19  24
ATOM     24  O   UNL A   1      32.208  18.788  23.830  1.00  0.00    -0.497 OA
ATOM     25  C   UNL A   1      32.333  18.181  22.547  1.00  0.00     0.278 C 
ENDBRANCH  19  24
ENDBRANCH  12  18
ENDBRANCH  10  11
ENDBRANCH   7  10
ENDBRANCH   5   6
BRANCH   5  26
ATOM     26  C   UNL A   1      33.027  27.470  24.822  1.00  0.00     0.015 C 
ATOM     27  C   UNL A   1      33.986  28.576  24.375  1.00  0.00     0.010 C 
ATOM     28  C   UNL A   1      33.828  26.400  25.580  1.00  0.00     0.010 C 
ENDBRANCH   5  26
ENDBRANCH   1   5
BRANCH   3  29
ATOM     29  C   UNL A   1      31.106  30.894  26.128  1.00  0.00     0.117 C 
BRANCH  29  30
ATOM     30  C   UNL A   1      31.226  32.397  26.272  1.00  0.00     0.042 C 
BRANCH  30  31
ATOM     31  C   UNL A   1      32.489  32.797  27.010  1.00  0.00     0.118 C 
BRANCH  31  32
ATOM     32  N   UNL A   1      32.358  34.085  27.688  1.00  0.00    -0.352 N 
ATOM     33  C   UNL A   1      33.115  34.635  28.697  1.00  0.00     0.251 C 
ATOM     34  H   UNL A   1      31.613  34.647  27.374  1.00  0.00     0.163 HD
ATOM     35  O   UNL A   1      32.730  35.646  29.262  1.00  0.00    -0.269 OA
BRANCH  33  36
ATOM     36  C   UNL A   1      34.377  33.976  29.098  1.00  0.00     0.039 A 
ATOM     37  C   UNL A   1      35.581  34.391  28.524  1.00  0.00     0.014 A 
ATOM     38  C   UNL A   1      34.370  32.971  30.066  1.00  0.00     0.014 A 
ATOM     39  C   UNL A   1      36.784  33.847  28.983  1.00  0.00     0.010 A 
ATOM     40  C   UNL A   1      35.567  32.528  30.606  1.00  0.00     0.010 A 
ATOM     41  C   UNL A   1      36.787  32.946  30.059  1.00  0.00    -0.014 A 
BRANCH  41  42
ATOM     42  C   UNL A   1      38.043  32.392  30.622  1.00  0.00     0.031 A 
ATOM     43  C   UNL A   1      38.639  31.145  30.026  1.00  0.00     0.074 A 
ATOM     44  C   UNL A   1      38.598  32.955  31.713  1.00  0.00     0.049 A 
ATOM     45  N   UNL A   1      39.666  30.441  30.432  1.00  0.00    -0.248 NA
ATOM     46  C   UNL A   1      37.964  30.588  28.841  1.00  0.00     0.031 C 
ATOM     47  C   UNL A   1      38.092  34.137  32.414  1.00  0.00     0.029 A 
ATOM     48  N   UNL A   1      39.711  32.596  32.429  1.00  0.00    -0.354 N 
ATOM     49  C   UNL A   1      39.736  29.352  29.572  1.00  0.00     0.074 A 
ATOM     50  C   UNL A   1      38.611  29.447  28.671  1.00  0.00     0.031 C 
ATOM     51  C   UNL A   1      38.918  34.432  33.430  1.00  0.00     0.029 A 
ATOM     52  C   UNL A   1      39.981  33.434  33.482  1.00  0.00     0.049 A 
ATOM     53  H   UNL A   1      40.264  31.812  32.209  1.00  0.00     0.167 HD
ATOM     54  C   UNL A   1      40.671  28.374  29.515  1.00  0.00     0.031 A 
ATOM     55  C   UNL A   1      40.975  33.401  34.389  1.00  0.00     0.031 A 
ATOM     56  C   UNL A   1      41.801  28.293  30.398  1.00  0.00     0.049 A 
ATOM     57  C   UNL A   1      41.998  32.302  34.313  1.00  0.00     0.074 A 
ATOM     58  C   UNL A   1      42.837  27.376  30.394  1.00  0.00     0.029 A 
ATOM     59  N   UNL A   1      42.045  29.170  31.444  1.00  0.00    -0.354 N 
ATOM     60  N   UNL A   1      42.087  31.312  33.457  1.00  0.00    -0.248 NA
ATOM     61  C   UNL A   1      43.065  32.324  35.322  1.00  0.00     0.031 C 
ATOM     62  C   UNL A   1      43.683  27.672  31.469  1.00  0.00     0.029 A 
ATOM     63  C   UNL A   1      43.207  28.807  32.103  1.00  0.00     0.049 A 
ATOM     64  H   UNL A   1      41.475  29.937  31.682  1.00  0.00     0.167 HD
ATOM     65  C   UNL A   1      43.238  30.615  33.801  1.00  0.00     0.074 A 
ATOM     66  C   UNL A   1      43.818  31.304  34.936  1.00  0.00     0.031 C 
ATOM     67  C   UNL A   1      43.770  29.508  33.227  1.00  0.00     0.031 A 
BRANCH  54  68
ATOM     68  C   UNL A   1      40.497  27.321  28.453  1.00  0.00    -0.014 A 
ATOM     69  C   UNL A   1      39.761  26.150  28.702  1.00  0.00     0.009 A 
ATOM     70  C   UNL A   1      41.077  27.499  27.189  1.00  0.00     0.009 A 
ATOM     71  C   UNL A   1      39.657  25.157  27.727  1.00  0.00     0.001 A 
ATOM     72  C   UNL A   1      40.940  26.520  26.202  1.00  0.00     0.001 A 
ATOM     73  C   UNL A   1      40.243  25.344  26.477  1.00  0.00     0.000 A 
ENDBRANCH  54  68
BRANCH  55  74
ATOM     74  C   UNL A   1      41.080  34.466  35.421  1.00  0.00    -0.014 A 
ATOM     75  C   UNL A   1      40.346  34.367  36.614  1.00  0.00     0.009 A 
ATOM     76  C   UNL A   1      41.906  35.583  35.225  1.00  0.00     0.009 A 
ATOM     77  C   UNL A   1      40.418  35.375  37.577  1.00  0.00     0.001 A 
ATOM     78  C   UNL A   1      41.998  36.576  36.204  1.00  0.00     0.001 A 
ATOM     79  C   UNL A   1      41.247  36.476  37.374  1.00  0.00     0.000 A 
ENDBRANCH  55  74
BRANCH  67  80
ATOM     80  C   UNL A   1      45.071  29.006  33.786  1.00  0.00    -0.014 A 
ATOM     81  C   UNL A   1      46.304  29.482  33.316  1.00  0.00     0.009 A 
ATOM     82  C   UNL A   1      45.056  28.069  34.831  1.00  0.00     0.009 A 
ATOM     83  C   UNL A   1      47.497  28.998  33.856  1.00  0.00     0.001 A 
ATOM     84  C   UNL A   1      46.249  27.612  35.391  1.00  0.00     0.001 A 
ATOM     85  C   UNL A   1      47.469  28.069  34.896  1.00  0.00     0.000 A 
ENDBRANCH  67  80
ENDBRANCH  41  42
ENDBRANCH  33  36
ENDBRANCH  31  32
ENDBRANCH  30  31
ENDBRANCH  29  30
ENDBRANCH   3  29
TORSDOF 16
ENDMDL
MODEL 3
REMARK VINA RESULT:     -10.9      4.585     10.266
REMARK SMILES COc1cccc(-c2ccc(=O)n(CC(=O)N[C@@H](C(=O)NCCCNC(=O)c3ccc(-c4c5nc(c(-c6ccccc6)c6ccc([nH]6)c(-c6ccccc6)c6nc(c(-c7ccccc7)c7ccc4[nH]7)C=C6)C=C5)cc3)C(C)C)n2)c1
REMARK SMILES IDX 19 1 20 2 21 3 18 5 17 6 15 7 16 8 14 10 13 11 8 12 9 13
REMARK SMILES IDX 79 14 10 15 11 16 12 17 7 18 3 19 4 20 80 21 5 22 6 23 2 24
REMARK SMILES IDX 1 25 76 26 77 27 78 28 22 29 23 30 24 31 25 32 26 33 27 35
REMARK SMILES IDX 28 36 29 37 75 38 30 39 74 40 31 41 32 42 33 43 68 44 34 45
REMARK SMILES IDX 73 46 67 47 69 48 35 49 72 50 66 51 65 52 36 54 58 55 43 56
REMARK SMILES IDX 57 57 44 58 47 59 56 60 70 61 45 62 46 63 55 65 71 66 48 67
REMARK SMILES IDX 37 68 38 69 42 70 39 71 41 72 40 73 59 74 60 75 64 76 61 77
REMARK SMILES IDX 63 78 62 79 49 80 50 81 54 82 51 83 53 84 52 85
REMARK H PARENT 21 4 17 9 25 34 69 53 47 64
REMARK Flexibility Score: inf
ROOT
ATOM      1  C   UNL A   1      36.476  34.538  32.177  1.00  0.00     0.242 C 
ATOM      2  O   UNL A   1      36.552  35.002  33.317  1.00  0.00    -0.273 OA
ATOM      3  N   UNL A   1      35.376  34.900  31.445  1.00  0.00    -0.354 N 
ATOM      4  H   UNL A   1      34.659  35.364  31.932  1.00  0.00     0.163 HD
ENDROOT
BRANCH   1   5
ATOM      5  C   UNL A   1      37.596  33.651  31.536  1.00  0.00     0.173 C 
BRANCH   5   6
ATOM      6  N   UNL A   1      38.760  33.658  32.437  1.00  0.00    -0.342 N 
ATOM      7  C   UNL A   1      39.075  32.888  33.521  1.00  0.00     0.242 C 
ATOM      8  O   UNL A   1      40.136  33.160  34.094  1.00  0.00    -0.273 OA
ATOM      9  H   UNL A   1      39.434  34.341  32.218  1.00  0.00     0.164 HD
BRANCH   7  10
ATOM     10  C   UNL A   1      38.218  31.695  33.980  1.00  0.00     0.248 C 
BRANCH  10  11
ATOM     11  N   UNL A   1      38.718  30.379  33.583  1.00  0.00    -0.220 N 
ATOM     12  C   UNL A   1      40.509  28.961  33.541  1.00  0.00     0.091 A 
ATOM     13  C   UNL A   1      39.808  27.967  32.711  1.00  0.00     0.036 A 
ATOM     14  N   UNL A   1      40.015  30.085  33.944  1.00  0.00    -0.169 NA
ATOM     15  C   UNL A   1      38.526  28.230  32.448  1.00  0.00     0.075 A 
ATOM     16  C   UNL A   1      37.884  29.480  32.925  1.00  0.00     0.267 A 
ATOM     17  O   UNL A   1      36.704  29.680  32.657  1.00  0.00    -0.268 OA
BRANCH  12  18
ATOM     18  C   UNL A   1      41.866  28.597  33.965  1.00  0.00     0.006 A 
ATOM     19  C   UNL A   1      43.602  26.930  33.969  1.00  0.00     0.119 A 
ATOM     20  C   UNL A   1      44.355  27.751  34.815  1.00  0.00     0.046 A 
ATOM     21  C   UNL A   1      42.344  27.351  33.556  1.00  0.00     0.056 A 
ATOM     22  C   UNL A   1      43.868  28.997  35.227  1.00  0.00     0.005 A 
ATOM     23  C   UNL A   1      42.613  29.429  34.801  1.00  0.00     0.011 A 
BRANCH  19  24
ATOM     24  O   UNL A   1      44.176  25.732  33.642  1.00  0.00    -0.497 OA
ATOM     25  C   UNL A   1      44.782  25.019  34.715  1.00  0.00     0.278 C 
ENDBRANCH  19  24
ENDBRANCH  12  18
ENDBRANCH  10  11
ENDBRANCH   7  10
ENDBRANCH   5   6
BRANCH   5  26
ATOM     26  C   UNL A   1      37.946  34.175  30.118  1.00  0.00     0.015 C 
ATOM     27  C   UNL A   1      39.312  34.862  30.035  1.00  0.00     0.010 C 
ATOM     28  C   UNL A   1      37.912  33.023  29.102  1.00  0.00     0.010 C 
ENDBRANCH   5  26
ENDBRANCH   1   5
BRANCH   3  29
ATOM     29  C   UNL A   1      35.156  34.674  30.043  1.00  0.00     0.117 C 
BRANCH  29  30
ATOM     30  C   UNL A   1      34.076  33.653  29.749  1.00  0.00     0.042 C 
BRANCH  30  31
ATOM     31  C   UNL A   1      34.645  32.256  29.594  1.00  0.00     0.118 C 
BRANCH  31  32
ATOM     32  N   UNL A   1      34.007  31.508  28.512  1.00  0.00    -0.352 N 
ATOM     33  C   UNL A   1      34.530  30.558  27.665  1.00  0.00     0.251 C 
ATOM     34  H   UNL A   1      33.056  31.717  28.366  1.00  0.00     0.163 HD
ATOM     35  O   UNL A   1      33.884  30.184  26.699  1.00  0.00    -0.269 OA
BRANCH  33  36
ATOM     36  C   UNL A   1      35.881  30.017  27.929  1.00  0.00     0.039 A 
ATOM     37  C   UNL A   1      36.896  30.217  26.990  1.00  0.00     0.014 A 
ATOM     38  C   UNL A   1      36.150  29.340  29.119  1.00  0.00     0.014 A 
ATOM     39  C   UNL A   1      38.197  29.804  27.287  1.00  0.00     0.010 A 
ATOM     40  C   UNL A   1      37.459  29.047  29.463  1.00  0.00     0.010 A 
ATOM     41  C   UNL A   1      38.496  29.258  28.545  1.00  0.00    -0.014 A 
BRANCH  41  42
ATOM     42  C   UNL A   1      39.874  28.865  28.929  1.00  0.00     0.031 A 
ATOM     43  C   UNL A   1      40.386  27.496  28.567  1.00  0.00     0.074 A 
ATOM     44  C   UNL A   1      40.630  29.697  29.671  1.00  0.00     0.049 A 
ATOM     45  N   UNL A   1      41.513  26.919  28.897  1.00  0.00    -0.248 NA
ATOM     46  C   UNL A   1      39.491  26.646  27.763  1.00  0.00     0.031 C 
ATOM     47  C   UNL A   1      40.233  31.031  30.128  1.00  0.00     0.029 A 
ATOM     48  N   UNL A   1      41.893  29.535  30.179  1.00  0.00    -0.354 N 
ATOM     49  C   UNL A   1      41.445  25.636  28.367  1.00  0.00     0.074 A 
ATOM     50  C   UNL A   1      40.143  25.494  27.759  1.00  0.00     0.031 C 
ATOM     51  C   UNL A   1      41.250  31.583  30.808  1.00  0.00     0.029 A 
ATOM     52  C   UNL A   1      42.349  30.625  30.878  1.00  0.00     0.049 A 
ATOM     53  H   UNL A   1      42.424  28.715  30.054  1.00  0.00     0.167 HD
ATOM     54  C   UNL A   1      42.394  24.669  28.358  1.00  0.00     0.031 A 
ATOM     55  C   UNL A   1      43.522  30.830  31.505  1.00  0.00     0.031 A 
ATOM     56  C   UNL A   1      43.697  24.819  28.944  1.00  0.00     0.049 A 
ATOM     57  C   UNL A   1      44.558  29.740  31.491  1.00  0.00     0.074 A 
ATOM     58  C   UNL A   1      44.752  23.925  28.947  1.00  0.00     0.029 A 
ATOM     59  N   UNL A   1      44.123  25.946  29.633  1.00  0.00    -0.354 N 
ATOM     60  N   UNL A   1      44.504  28.554  30.934  1.00  0.00    -0.248 NA
ATOM     61  C   UNL A   1      45.823  30.025  32.182  1.00  0.00     0.031 C 
ATOM     62  C   UNL A   1      45.802  24.493  29.677  1.00  0.00     0.029 A 
ATOM     63  C   UNL A   1      45.421  25.763  30.077  1.00  0.00     0.049 A 
ATOM     64  H   UNL A   1      43.582  26.755  29.782  1.00  0.00     0.167 HD
ATOM     65  C   UNL A   1      45.738  27.965  31.176  1.00  0.00     0.074 A 
ATOM     66  C   UNL A   1      46.523  28.930  31.919  1.00  0.00     0.031 C 
ATOM     67  C   UNL A   1      46.185  26.738  30.811  1.00  0.00     0.031 A 
BRANCH  54  68
ATOM     68  C   UNL A   1      42.041  23.369  27.687  1.00  0.00    -0.014 A 
ATOM     69  C   UNL A   1      41.383  22.343  28.386  1.00  0.00     0.009 A 
ATOM     70  C   UNL A   1      42.371  23.165  26.339  1.00  0.00     0.009 A 
ATOM     71  C   UNL A   1      41.114  21.122  27.765  1.00  0.00     0.001 A 
ATOM     72  C   UNL A   1      42.068  21.956  25.710  1.00  0.00     0.001 A 
ATOM     73  C   UNL A   1      41.453  20.930  26.428  1.00  0.00     0.000 A 
ENDBRANCH  54  68
BRANCH  55  74
ATOM     74  C   UNL A   1      43.801  32.134  32.162  1.00  0.00    -0.014 A 
ATOM     75  C   UNL A   1      43.461  32.332  33.510  1.00  0.00     0.009 A 
ATOM     76  C   UNL A   1      44.402  33.185  31.454  1.00  0.00     0.009 A 
ATOM     77  C   UNL A   1      43.694  33.561  34.127  1.00  0.00     0.001 A 
ATOM     78  C   UNL A   1      44.661  34.405  32.084  1.00  0.00     0.001 A 
ATOM     79  C   UNL A   1      44.298  34.596  33.416  1.00  0.00     0.000 A 
ENDBRANCH  55  74
BRANCH  67  80
ATOM     80  C   UNL A   1      47.604  26.392  31.167  1.00  0.00    -0.014 A 
ATOM     81  C   UNL A   1      47.934  25.837  32.412  1.00  0.00     0.009 A 
ATOM     82  C   UNL A   1      48.620  26.590  30.219  1.00  0.00     0.009 A 
ATOM     83  C   UNL A   1      49.260  25.523  32.714  1.00  0.00     0.001 A 
ATOM     84  C   UNL A   1      49.939  26.246  30.511  1.00  0.00     0.001 A 
ATOM     85  C   UNL A   1      50.260  25.722  31.762  1.00  0.00     0.000 A 
ENDBRANCH  67  80
ENDBRANCH  41  42
ENDBRANCH  33  36
ENDBRANCH  31  32
ENDBRANCH  30  31
ENDBRANCH  29  30
ENDBRANCH   3  29
TORSDOF 16
ENDMDL
