MODEL 1
REMARK VINA RESULT:     -10.8      0.000      0.000
REMARK SMILES CC(C)[NH2+][C@@]1(C(=O)NCCCNC(=O)c2ccc(-c3c4nc(c(-c5ccccc5)c5ccc([nH]5)c(-c5ccccc5)c5nc(c(-c6ccccc6)c6ccc3[nH]6)C=C5)C=C4)cc2)CCC[C@H](SC2CCCCC2)C1
REMARK SMILES IDX 10 1 9 2 8 3 6 4 7 5 5 7 63 8 74 9 64 10 66 11 65 12 4 13
REMARK SMILES IDX 2 16 1 17 3 18 67 19 68 20 69 21 73 22 70 23 72 24 71 25
REMARK SMILES IDX 11 26 12 27 13 28 14 30 15 31 16 32 62 33 17 34 61 35 18 36
REMARK SMILES IDX 19 37 20 38 55 39 21 40 60 41 54 42 56 43 22 44 59 45 53 46
REMARK SMILES IDX 52 47 23 49 45 50 30 51 44 52 31 53 34 54 43 55 57 56 32 57
REMARK SMILES IDX 33 58 42 60 58 61 35 62 24 63 25 64 29 65 26 66 28 67 27 68
REMARK SMILES IDX 46 69 47 70 51 71 48 72 50 73 49 74 36 75 37 76 41 77 38 78
REMARK SMILES IDX 40 79 39 80
REMARK H PARENT 8 6 4 14 4 15 12 29 56 48 34 59
REMARK Flexibility Score: inf
ROOT
ATOM      1  C   UNL A   1      37.879  20.429  24.665  1.00  0.00     0.042 C 
ENDROOT
BRANCH   1   2
ATOM      2  C   UNL A   1      37.399  21.844  24.936  1.00  0.00     0.118 C 
BRANCH   2   3
ATOM      3  N   UNL A   1      36.507  21.855  26.084  1.00  0.00    -0.351 N 
ATOM      4  C   UNL A   1      35.163  21.788  26.254  1.00  0.00     0.281 C 
ATOM      5  O   UNL A   1      34.797  22.246  27.356  1.00  0.00    -0.268 OA
ATOM      6  H   UNL A   1      36.991  21.930  26.938  1.00  0.00     0.163 HD
BRANCH   4   7
ATOM      7  C   UNL A   1      34.030  21.224  25.244  1.00  0.00     0.176 C 
ATOM      8  C   UNL A   1      34.175  21.756  23.810  1.00  0.00     0.079 C 
ATOM      9  C   UNL A   1      32.636  21.404  25.923  1.00  0.00     0.093 C 
ATOM     10  C   UNL A   1      33.212  22.868  23.407  1.00  0.00     0.008 C 
ATOM     11  C   UNL A   1      31.573  22.362  25.304  1.00  0.00     0.053 C 
ATOM     12  C   UNL A   1      31.787  22.558  23.811  1.00  0.00     0.015 C 
BRANCH   7  13
ATOM     13  N   UNL A   1      34.411  19.764  25.249  1.00  0.00    -0.332 N 
ATOM     14  H   UNL A   1      35.389  19.745  24.960  1.00  0.00     0.347 HD
ATOM     15  H   UNL A   1      34.100  19.512  26.186  1.00  0.00     0.347 HD
BRANCH  13  16
ATOM     16  C   UNL A   1      33.771  18.696  24.488  1.00  0.00     0.176 C 
ATOM     17  C   UNL A   1      34.865  17.640  24.248  1.00  0.00     0.075 C 
ATOM     18  C   UNL A   1      32.590  17.995  25.161  1.00  0.00     0.075 C 
ENDBRANCH  13  16
ENDBRANCH   7  13
BRANCH  11  19
ATOM     19  S   UNL A   1      31.345  23.705  26.544  1.00  0.00    -0.155 SA
BRANCH  19  20
ATOM     20  C   UNL A   1      31.952  25.337  25.982  1.00  0.00     0.047 C 
ATOM     21  C   UNL A   1      31.383  26.658  26.500  1.00  0.00     0.014 C 
ATOM     22  C   UNL A   1      33.482  25.335  25.979  1.00  0.00     0.014 C 
ATOM     23  C   UNL A   1      31.936  27.848  25.708  1.00  0.00     0.001 C 
ATOM     24  C   UNL A   1      34.005  26.525  25.180  1.00  0.00     0.001 C 
ATOM     25  C   UNL A   1      33.462  27.848  25.704  1.00  0.00     0.000 C 
ENDBRANCH  19  20
ENDBRANCH  11  19
ENDBRANCH   4   7
ENDBRANCH   2   3
ENDBRANCH   1   2
BRANCH   1  26
ATOM     26  C   UNL A   1      38.275  19.519  25.822  1.00  0.00     0.118 C 
BRANCH  26  27
ATOM     27  N   UNL A   1      39.632  19.013  25.710  1.00  0.00    -0.352 N 
ATOM     28  C   UNL A   1      40.876  19.529  25.983  1.00  0.00     0.251 C 
ATOM     29  H   UNL A   1      39.669  18.094  25.361  1.00  0.00     0.163 HD
ATOM     30  O   UNL A   1      41.834  18.815  25.657  1.00  0.00    -0.269 OA
BRANCH  28  31
ATOM     31  C   UNL A   1      41.177  20.858  26.612  1.00  0.00     0.039 A 
ATOM     32  C   UNL A   1      41.577  21.893  25.744  1.00  0.00     0.014 A 
ATOM     33  C   UNL A   1      41.177  21.139  27.979  1.00  0.00     0.014 A 
ATOM     34  C   UNL A   1      41.954  23.159  26.220  1.00  0.00     0.010 A 
ATOM     35  C   UNL A   1      41.491  22.428  28.456  1.00  0.00     0.010 A 
ATOM     36  C   UNL A   1      41.911  23.450  27.588  1.00  0.00    -0.014 A 
BRANCH  36  37
ATOM     37  C   UNL A   1      42.364  24.778  28.107  1.00  0.00     0.031 A 
ATOM     38  C   UNL A   1      41.375  25.902  28.300  1.00  0.00     0.074 A 
ATOM     39  C   UNL A   1      43.657  25.001  28.420  1.00  0.00     0.049 A 
ATOM     40  N   UNL A   1      41.577  27.113  28.760  1.00  0.00    -0.248 NA
ATOM     41  C   UNL A   1      39.978  25.629  27.928  1.00  0.00     0.031 C 
ATOM     42  C   UNL A   1      44.730  24.021  28.306  1.00  0.00     0.029 A 
ATOM     43  N   UNL A   1      44.293  26.125  28.896  1.00  0.00    -0.354 N 
ATOM     44  C   UNL A   1      40.339  27.744  28.729  1.00  0.00     0.074 A 
ATOM     45  C   UNL A   1      39.403  26.800  28.157  1.00  0.00     0.031 C 
ATOM     46  C   UNL A   1      45.890  24.576  28.691  1.00  0.00     0.029 A 
ATOM     47  C   UNL A   1      45.648  25.962  29.073  1.00  0.00     0.049 A 
ATOM     48  H   UNL A   1      43.823  26.967  29.092  1.00  0.00     0.167 HD
ATOM     49  C   UNL A   1      40.000  28.985  29.156  1.00  0.00     0.031 A 
ATOM     50  C   UNL A   1      46.596  26.820  29.498  1.00  0.00     0.031 A 
ATOM     51  C   UNL A   1      40.920  29.940  29.721  1.00  0.00     0.049 A 
ATOM     52  C   UNL A   1      46.205  28.209  29.920  1.00  0.00     0.074 A 
ATOM     53  C   UNL A   1      40.654  31.207  30.212  1.00  0.00     0.029 A 
ATOM     54  N   UNL A   1      42.284  29.738  29.863  1.00  0.00    -0.354 N 
ATOM     55  N   UNL A   1      45.017  28.762  29.941  1.00  0.00    -0.248 NA
ATOM     56  C   UNL A   1      47.284  29.080  30.407  1.00  0.00     0.031 C 
ATOM     57  C   UNL A   1      41.863  31.794  30.597  1.00  0.00     0.029 A 
ATOM     58  C   UNL A   1      42.875  30.866  30.411  1.00  0.00     0.049 A 
ATOM     59  H   UNL A   1      42.762  28.914  29.613  1.00  0.00     0.167 HD
ATOM     60  C   UNL A   1      45.200  30.029  30.481  1.00  0.00     0.074 A 
ATOM     61  C   UNL A   1      46.610  30.156  30.786  1.00  0.00     0.031 C 
ATOM     62  C   UNL A   1      44.277  30.995  30.711  1.00  0.00     0.031 A 
BRANCH  49  63
ATOM     63  C   UNL A   1      38.558  29.393  29.013  1.00  0.00    -0.014 A 
ATOM     64  C   UNL A   1      38.058  29.888  27.797  1.00  0.00     0.009 A 
ATOM     65  C   UNL A   1      37.680  29.249  30.098  1.00  0.00     0.009 A 
ATOM     66  C   UNL A   1      36.718  30.266  27.684  1.00  0.00     0.001 A 
ATOM     67  C   UNL A   1      36.334  29.597  29.972  1.00  0.00     0.001 A 
ATOM     68  C   UNL A   1      35.856  30.117  28.770  1.00  0.00     0.000 A 
ENDBRANCH  49  63
BRANCH  50  69
ATOM     69  C   UNL A   1      48.018  26.385  29.577  1.00  0.00    -0.014 A 
ATOM     70  C   UNL A   1      48.877  26.546  28.479  1.00  0.00     0.009 A 
ATOM     71  C   UNL A   1      48.514  25.782  30.744  1.00  0.00     0.009 A 
ATOM     72  C   UNL A   1      50.194  26.083  28.536  1.00  0.00     0.001 A 
ATOM     73  C   UNL A   1      49.840  25.348  30.809  1.00  0.00     0.001 A 
ATOM     74  C   UNL A   1      50.676  25.488  29.702  1.00  0.00     0.000 A 
ENDBRANCH  50  69
BRANCH  62  75
ATOM     75  C   UNL A   1      44.756  32.260  31.372  1.00  0.00    -0.014 A 
ATOM     76  C   UNL A   1      45.225  33.352  30.624  1.00  0.00     0.009 A 
ATOM     77  C   UNL A   1      44.727  32.362  32.772  1.00  0.00     0.009 A 
ATOM     78  C   UNL A   1      45.700  34.497  31.267  1.00  0.00     0.001 A 
ATOM     79  C   UNL A   1      45.169  33.522  33.411  1.00  0.00     0.001 A 
ATOM     80  C   UNL A   1      45.668  34.583  32.658  1.00  0.00     0.000 A 
ENDBRANCH  62  75
ENDBRANCH  36  37
ENDBRANCH  28  31
ENDBRANCH  26  27
ENDBRANCH   1  26
TORSDOF 14
ENDMDL
MODEL 2
REMARK VINA RESULT:     -10.7      3.879      8.866
REMARK SMILES CC(C)[NH2+][C@@]1(C(=O)NCCCNC(=O)c2ccc(-c3c4nc(c(-c5ccccc5)c5ccc([nH]5)c(-c5ccccc5)c5nc(c(-c6ccccc6)c6ccc3[nH]6)C=C5)C=C4)cc2)CCC[C@H](SC2CCCCC2)C1
REMARK SMILES IDX 10 1 9 2 8 3 6 4 7 5 5 7 63 8 74 9 64 10 66 11 65 12 4 13
REMARK SMILES IDX 2 16 1 17 3 18 67 19 68 20 69 21 73 22 70 23 72 24 71 25
REMARK SMILES IDX 11 26 12 27 13 28 14 30 15 31 16 32 62 33 17 34 61 35 18 36
REMARK SMILES IDX 19 37 20 38 55 39 21 40 60 41 54 42 56 43 22 44 59 45 53 46
REMARK SMILES IDX 52 47 23 49 45 50 30 51 44 52 31 53 34 54 43 55 57 56 32 57
REMARK SMILES IDX 33 58 42 60 58 61 35 62 24 63 25 64 29 65 26 66 28 67 27 68
REMARK SMILES IDX 46 69 47 70 51 71 48 72 50 73 49 74 36 75 37 76 41 77 38 78
REMARK SMILES IDX 40 79 39 80
REMARK H PARENT 8 6 4 14 4 15 12 29 56 48 34 59
REMARK Flexibility Score: inf
ROOT
ATOM      1  C   UNL A   1      32.627  31.051  27.402  1.00  0.00     0.042 C 
ENDROOT
BRANCH   1   2
ATOM      2  C   UNL A   1      32.734  29.662  26.796  1.00  0.00     0.118 C 
BRANCH   2   3
ATOM      3  N   UNL A   1      33.210  29.753  25.425  1.00  0.00    -0.351 N 
ATOM      4  C   UNL A   1      32.821  29.226  24.238  1.00  0.00     0.281 C 
ATOM      5  O   UNL A   1      33.739  29.223  23.392  1.00  0.00    -0.268 OA
ATOM      6  H   UNL A   1      34.001  30.333  25.338  1.00  0.00     0.163 HD
BRANCH   4   7
ATOM      7  C   UNL A   1      31.382  28.618  23.810  1.00  0.00     0.176 C 
ATOM      8  C   UNL A   1      30.671  27.878  24.955  1.00  0.00     0.079 C 
ATOM      9  C   UNL A   1      31.560  27.837  22.471  1.00  0.00     0.093 C 
ATOM     10  C   UNL A   1      30.725  26.355  24.903  1.00  0.00     0.008 C 
ATOM     11  C   UNL A   1      31.331  26.295  22.417  1.00  0.00     0.053 C 
ATOM     12  C   UNL A   1      30.399  25.822  23.524  1.00  0.00     0.015 C 
BRANCH   7  13
ATOM     13  N   UNL A   1      30.644  29.908  23.550  1.00  0.00    -0.332 N 
ATOM     14  H   UNL A   1      30.919  30.528  24.313  1.00  0.00     0.347 HD
ATOM     15  H   UNL A   1      30.915  30.063  22.579  1.00  0.00     0.347 HD
BRANCH  13  16
ATOM     16  C   UNL A   1      29.201  30.075  23.427  1.00  0.00     0.176 C 
ATOM     17  C   UNL A   1      28.907  31.521  23.867  1.00  0.00     0.075 C 
ATOM     18  C   UNL A   1      28.611  29.887  22.029  1.00  0.00     0.075 C 
ENDBRANCH  13  16
ENDBRANCH   7  13
BRANCH  11  19
ATOM     19  S   UNL A   1      32.976  25.570  22.012  1.00  0.00    -0.155 SA
BRANCH  19  20
ATOM     20  C   UNL A   1      33.747  24.670  23.406  1.00  0.00     0.047 C 
ATOM     21  C   UNL A   1      34.779  23.561  23.208  1.00  0.00     0.014 C 
ATOM     22  C   UNL A   1      34.182  25.672  24.478  1.00  0.00     0.014 C 
ATOM     23  C   UNL A   1      35.095  22.854  24.530  1.00  0.00     0.001 C 
ATOM     24  C   UNL A   1      34.483  24.942  25.784  1.00  0.00     0.001 C 
ATOM     25  C   UNL A   1      35.529  23.850  25.601  1.00  0.00     0.000 C 
ENDBRANCH  19  20
ENDBRANCH  11  19
ENDBRANCH   4   7
ENDBRANCH   2   3
ENDBRANCH   1   2
BRANCH   1  26
ATOM     26  C   UNL A   1      32.239  32.240  26.530  1.00  0.00     0.118 C 
BRANCH  26  27
ATOM     27  N   UNL A   1      32.173  33.489  27.268  1.00  0.00    -0.352 N 
ATOM     28  C   UNL A   1      32.948  34.075  28.239  1.00  0.00     0.251 C 
ATOM     29  H   UNL A   1      31.399  34.042  27.014  1.00  0.00     0.163 HD
ATOM     30  O   UNL A   1      32.508  35.132  28.709  1.00  0.00    -0.269 OA
BRANCH  28  31
ATOM     31  C   UNL A   1      34.247  33.555  28.784  1.00  0.00     0.039 A 
ATOM     32  C   UNL A   1      35.379  33.686  27.955  1.00  0.00     0.014 A 
ATOM     33  C   UNL A   1      34.419  32.882  29.994  1.00  0.00     0.014 A 
ATOM     34  C   UNL A   1      36.634  33.174  28.323  1.00  0.00     0.010 A 
ATOM     35  C   UNL A   1      35.691  32.425  30.397  1.00  0.00     0.010 A 
ATOM     36  C   UNL A   1      36.812  32.540  29.557  1.00  0.00    -0.014 A 
BRANCH  36  37
ATOM     37  C   UNL A   1      38.132  31.943  29.932  1.00  0.00     0.031 A 
ATOM     38  C   UNL A   1      39.074  32.684  30.848  1.00  0.00     0.074 A 
ATOM     39  C   UNL A   1      38.507  30.733  29.469  1.00  0.00     0.049 A 
ATOM     40  N   UNL A   1      40.249  32.318  31.302  1.00  0.00    -0.248 NA
ATOM     41  C   UNL A   1      38.640  34.011  31.315  1.00  0.00     0.031 C 
ATOM     42  C   UNL A   1      37.710  29.884  28.592  1.00  0.00     0.029 A 
ATOM     43  N   UNL A   1      39.658  30.004  29.670  1.00  0.00    -0.354 N 
ATOM     44  C   UNL A   1      40.693  33.365  32.100  1.00  0.00     0.074 A 
ATOM     45  C   UNL A   1      39.686  34.402  32.028  1.00  0.00     0.031 C 
ATOM     46  C   UNL A   1      38.387  28.757  28.320  1.00  0.00     0.029 A 
ATOM     47  C   UNL A   1      39.676  28.803  28.998  1.00  0.00     0.049 A 
ATOM     48  H   UNL A   1      40.398  30.311  30.241  1.00  0.00     0.167 HD
ATOM     49  C   UNL A   1      41.821  33.453  32.847  1.00  0.00     0.031 A 
ATOM     50  C   UNL A   1      40.615  27.838  28.932  1.00  0.00     0.031 A 
ATOM     51  C   UNL A   1      42.837  32.433  32.925  1.00  0.00     0.049 A 
ATOM     52  C   UNL A   1      41.882  27.980  29.729  1.00  0.00     0.074 A 
ATOM     53  C   UNL A   1      43.995  32.427  33.684  1.00  0.00     0.029 A 
ATOM     54  N   UNL A   1      42.822  31.245  32.214  1.00  0.00    -0.354 N 
ATOM     55  N   UNL A   1      42.251  28.951  30.528  1.00  0.00    -0.248 NA
ATOM     56  C   UNL A   1      42.846  26.874  29.638  1.00  0.00     0.031 C 
ATOM     57  C   UNL A   1      44.709  31.262  33.389  1.00  0.00     0.029 A 
ATOM     58  C   UNL A   1      43.962  30.509  32.498  1.00  0.00     0.049 A 
ATOM     59  H   UNL A   1      42.107  30.963  31.598  1.00  0.00     0.167 HD
ATOM     60  C   UNL A   1      43.469  28.555  31.065  1.00  0.00     0.074 A 
ATOM     61  C   UNL A   1      43.768  27.251  30.512  1.00  0.00     0.031 C 
ATOM     62  C   UNL A   1      44.263  29.213  31.946  1.00  0.00     0.031 A 
BRANCH  49  63
ATOM     63  C   UNL A   1      42.028  34.718  33.637  1.00  0.00    -0.014 A 
ATOM     64  C   UNL A   1      41.504  34.862  34.932  1.00  0.00     0.009 A 
ATOM     65  C   UNL A   1      42.786  35.766  33.092  1.00  0.00     0.009 A 
ATOM     66  C   UNL A   1      41.701  36.045  35.648  1.00  0.00     0.001 A 
ATOM     67  C   UNL A   1      43.009  36.935  33.823  1.00  0.00     0.001 A 
ATOM     68  C   UNL A   1      42.457  37.078  35.096  1.00  0.00     0.000 A 
ENDBRANCH  49  63
BRANCH  50  69
ATOM     69  C   UNL A   1      40.386  26.626  28.098  1.00  0.00    -0.014 A 
ATOM     70  C   UNL A   1      40.920  26.538  26.803  1.00  0.00     0.009 A 
ATOM     71  C   UNL A   1      39.609  25.563  28.585  1.00  0.00     0.009 A 
ATOM     72  C   UNL A   1      40.653  25.425  26.000  1.00  0.00     0.001 A 
ATOM     73  C   UNL A   1      39.370  24.438  27.792  1.00  0.00     0.001 A 
ATOM     74  C   UNL A   1      39.882  24.375  26.497  1.00  0.00     0.000 A 
ENDBRANCH  50  69
BRANCH  62  75
ATOM     75  C   UNL A   1      45.509  28.508  32.408  1.00  0.00    -0.014 A 
ATOM     76  C   UNL A   1      45.507  27.661  33.528  1.00  0.00     0.009 A 
ATOM     77  C   UNL A   1      46.709  28.690  31.701  1.00  0.00     0.009 A 
ATOM     78  C   UNL A   1      46.688  27.053  33.957  1.00  0.00     0.001 A 
ATOM     79  C   UNL A   1      47.881  28.052  32.111  1.00  0.00     0.001 A 
ATOM     80  C   UNL A   1      47.872  27.245  33.247  1.00  0.00     0.000 A 
ENDBRANCH  62  75
ENDBRANCH  36  37
ENDBRANCH  28  31
ENDBRANCH  26  27
ENDBRANCH   1  26
TORSDOF 14
ENDMDL
MODEL 3
REMARK VINA RESULT:     -10.7      2.281      3.598
REMARK SMILES CC(C)[NH2+][C@@]1(C(=O)NCCCNC(=O)c2ccc(-c3c4nc(c(-c5ccccc5)c5ccc([nH]5)c(-c5ccccc5)c5nc(c(-c6ccccc6)c6ccc3[nH]6)C=C5)C=C4)cc2)CCC[C@H](SC2CCCCC2)C1
REMARK SMILES IDX 10 1 9 2 8 3 6 4 7 5 5 7 63 8 74 9 64 10 66 11 65 12 4 13
REMARK SMILES IDX 2 16 1 17 3 18 67 19 68 20 69 21 73 22 70 23 72 24 71 25
REMARK SMILES IDX 11 26 12 27 13 28 14 30 15 31 16 32 62 33 17 34 61 35 18 36
REMARK SMILES IDX 19 37 20 38 55 39 21 40 60 41 54 42 56 43 22 44 59 45 53 46
REMARK SMILES IDX 52 47 23 49 45 50 30 51 44 52 31 53 34 54 43 55 57 56 32 57
REMARK SMILES IDX 33 58 42 60 58 61 35 62 24 63 25 64 29 65 26 66 28 67 27 68
REMARK SMILES IDX 46 69 47 70 51 71 48 72 50 73 49 74 36 75 37 76 41 77 38 78
REMARK SMILES IDX 40 79 39 80
REMARK H PARENT 8 6 4 14 4 15 12 29 56 48 34 59
REMARK Flexibility Score: inf
ROOT
ATOM      1  C   UNL A   1      35.874  23.195  26.158  1.00  0.00     0.042 C 
ENDROOT
BRANCH   1   2
ATOM      2  C   UNL A   1      34.897  22.067  26.437  1.00  0.00     0.118 C 
BRANCH   2   3
ATOM      3  N   UNL A   1      33.648  22.606  26.951  1.00  0.00    -0.351 N 
ATOM      4  C   UNL A   1      32.651  23.370  26.440  1.00  0.00     0.281 C 
ATOM      5  O   UNL A   1      31.985  23.942  27.327  1.00  0.00    -0.268 OA
ATOM      6  H   UNL A   1      33.489  22.358  27.890  1.00  0.00     0.163 HD
BRANCH   4   7
ATOM      7  C   UNL A   1      32.249  23.628  24.893  1.00  0.00     0.176 C 
ATOM      8  C   UNL A   1      33.429  24.102  24.029  1.00  0.00     0.079 C 
ATOM      9  C   UNL A   1      30.959  24.505  24.862  1.00  0.00     0.093 C 
ATOM     10  C   UNL A   1      33.466  25.592  23.705  1.00  0.00     0.008 C 
ATOM     11  C   UNL A   1      30.993  25.943  24.260  1.00  0.00     0.053 C 
ATOM     12  C   UNL A   1      32.118  26.106  23.248  1.00  0.00     0.015 C 
BRANCH   7  13
ATOM     13  N   UNL A   1      31.909  22.213  24.494  1.00  0.00    -0.332 N 
ATOM     14  H   UNL A   1      31.950  21.677  25.362  1.00  0.00     0.347 HD
ATOM     15  H   UNL A   1      31.043  22.385  23.984  1.00  0.00     0.347 HD
BRANCH  13  16
ATOM     16  C   UNL A   1      32.609  21.394  23.511  1.00  0.00     0.176 C 
ATOM     17  C   UNL A   1      32.713  19.990  24.133  1.00  0.00     0.075 C 
ATOM     18  C   UNL A   1      31.937  21.249  22.145  1.00  0.00     0.075 C 
ENDBRANCH  13  16
ENDBRANCH   7  13
BRANCH  11  19
ATOM     19  S   UNL A   1      30.642  27.074  25.672  1.00  0.00    -0.155 SA
BRANCH  19  20
ATOM     20  C   UNL A   1      32.007  28.235  26.041  1.00  0.00     0.047 C 
ATOM     21  C   UNL A   1      31.792  29.565  26.762  1.00  0.00     0.014 C 
ATOM     22  C   UNL A   1      33.193  27.458  26.615  1.00  0.00     0.014 C 
ATOM     23  C   UNL A   1      33.067  30.415  26.751  1.00  0.00     0.001 C 
ATOM     24  C   UNL A   1      34.449  28.325  26.585  1.00  0.00     0.001 C 
ATOM     25  C   UNL A   1      34.252  29.642  27.323  1.00  0.00     0.000 C 
ENDBRANCH  19  20
ENDBRANCH  11  19
ENDBRANCH   4   7
ENDBRANCH   2   3
ENDBRANCH   1   2
BRANCH   1  26
ATOM     26  C   UNL A   1      36.875  23.077  25.014  1.00  0.00     0.118 C 
BRANCH  26  27
ATOM     27  N   UNL A   1      38.095  22.386  25.394  1.00  0.00    -0.352 N 
ATOM     28  C   UNL A   1      39.223  22.741  26.093  1.00  0.00     0.251 C 
ATOM     29  H   UNL A   1      38.118  21.453  25.081  1.00  0.00     0.163 HD
ATOM     30  O   UNL A   1      40.119  21.888  26.131  1.00  0.00    -0.269 OA
BRANCH  28  31
ATOM     31  C   UNL A   1      39.472  24.048  26.788  1.00  0.00     0.039 A 
ATOM     32  C   UNL A   1      40.168  25.032  26.057  1.00  0.00     0.014 A 
ATOM     33  C   UNL A   1      39.152  24.348  28.113  1.00  0.00     0.014 A 
ATOM     34  C   UNL A   1      40.524  26.267  26.622  1.00  0.00     0.010 A 
ATOM     35  C   UNL A   1      39.449  25.612  28.664  1.00  0.00     0.010 A 
ATOM     36  C   UNL A   1      40.163  26.580  27.937  1.00  0.00    -0.014 A 
BRANCH  36  37
ATOM     37  C   UNL A   1      40.586  27.871  28.564  1.00  0.00     0.031 A 
ATOM     38  C   UNL A   1      39.599  29.000  28.732  1.00  0.00     0.074 A 
ATOM     39  C   UNL A   1      41.850  28.055  28.999  1.00  0.00     0.049 A 
ATOM     40  N   UNL A   1      39.776  30.182  29.271  1.00  0.00    -0.248 NA
ATOM     41  C   UNL A   1      38.237  28.772  28.226  1.00  0.00     0.031 C 
ATOM     42  C   UNL A   1      42.916  27.063  28.926  1.00  0.00     0.029 A 
ATOM     43  N   UNL A   1      42.456  29.141  29.588  1.00  0.00    -0.354 N 
ATOM     44  C   UNL A   1      38.554  30.836  29.167  1.00  0.00     0.074 A 
ATOM     45  C   UNL A   1      37.659  29.940  28.467  1.00  0.00     0.031 C 
ATOM     46  C   UNL A   1      44.045  27.577  29.439  1.00  0.00     0.029 A 
ATOM     47  C   UNL A   1      43.789  28.945  29.872  1.00  0.00     0.049 A 
ATOM     48  H   UNL A   1      41.982  29.980  29.788  1.00  0.00     0.167 HD
ATOM     49  C   UNL A   1      38.195  32.059  29.630  1.00  0.00     0.031 A 
ATOM     50  C   UNL A   1      44.707  29.762  30.423  1.00  0.00     0.031 A 
ATOM     51  C   UNL A   1      39.075  32.966  30.323  1.00  0.00     0.049 A 
ATOM     52  C   UNL A   1      44.299  31.134  30.883  1.00  0.00     0.074 A 
ATOM     53  C   UNL A   1      38.784  34.210  30.856  1.00  0.00     0.029 A 
ATOM     54  N   UNL A   1      40.418  32.733  30.571  1.00  0.00    -0.354 N 
ATOM     55  N   UNL A   1      43.121  31.706  30.832  1.00  0.00    -0.248 NA
ATOM     56  C   UNL A   1      45.343  31.959  31.508  1.00  0.00     0.031 C 
ATOM     57  C   UNL A   1      39.963  34.755  31.375  1.00  0.00     0.029 A 
ATOM     58  C   UNL A   1      40.974  33.820  31.227  1.00  0.00     0.049 A 
ATOM     59  H   UNL A   1      40.906  31.915  30.319  1.00  0.00     0.167 HD
ATOM     60  C   UNL A   1      43.274  32.939  31.453  1.00  0.00     0.074 A 
ATOM     61  C   UNL A   1      44.653  33.025  31.884  1.00  0.00     0.031 C 
ATOM     62  C   UNL A   1      42.347  33.908  31.654  1.00  0.00     0.031 A 
BRANCH  49  63
ATOM     63  C   UNL A   1      36.777  32.499  29.385  1.00  0.00    -0.014 A 
ATOM     64  C   UNL A   1      35.771  32.284  30.341  1.00  0.00     0.009 A 
ATOM     65  C   UNL A   1      36.449  33.170  28.196  1.00  0.00     0.009 A 
ATOM     66  C   UNL A   1      34.459  32.695  30.095  1.00  0.00     0.001 A 
ATOM     67  C   UNL A   1      35.144  33.608  27.966  1.00  0.00     0.001 A 
ATOM     68  C   UNL A   1      34.147  33.361  28.909  1.00  0.00     0.000 A 
ENDBRANCH  49  63
BRANCH  50  69
ATOM     69  C   UNL A   1      46.111  29.299  30.601  1.00  0.00    -0.014 A 
ATOM     70  C   UNL A   1      46.509  28.661  31.787  1.00  0.00     0.009 A 
ATOM     71  C   UNL A   1      47.066  29.518  29.596  1.00  0.00     0.009 A 
ATOM     72  C   UNL A   1      47.841  28.282  31.975  1.00  0.00     0.001 A 
ATOM     73  C   UNL A   1      48.390  29.109  29.774  1.00  0.00     0.001 A 
ATOM     74  C   UNL A   1      48.779  28.502  30.967  1.00  0.00     0.000 A 
ENDBRANCH  50  69
BRANCH  62  75
ATOM     75  C   UNL A   1      42.782  35.128  32.420  1.00  0.00    -0.014 A 
ATOM     76  C   UNL A   1      43.474  36.182  31.801  1.00  0.00     0.009 A 
ATOM     77  C   UNL A   1      42.485  35.227  33.789  1.00  0.00     0.009 A 
ATOM     78  C   UNL A   1      43.900  37.283  32.547  1.00  0.00     0.001 A 
ATOM     79  C   UNL A   1      42.881  36.345  34.525  1.00  0.00     0.001 A 
ATOM     80  C   UNL A   1      43.601  37.366  33.906  1.00  0.00     0.000 A 
ENDBRANCH  62  75
ENDBRANCH  36  37
ENDBRANCH  28  31
ENDBRANCH  26  27
ENDBRANCH   1  26
TORSDOF 14
ENDMDL
