MODEL 1
REMARK VINA RESULT:     -12.1      0.000      0.000
REMARK SMILES O=C(NCCCNC(=O)[C@H]1[NH2+][C@@H](c2cc(Br)ccc2O)[C@@H]2C(=O)N(c3ccccc3)C(=O)[C@H]21)c1ccc(-c2c3nc(c(-c4ccccc4)c4ccc([nH]4)c(-c4ccccc4)c4nc(c(-c5ccccc5)c5ccc2[nH]5)C=C4)C=C3)cc1
REMARK SMILES IDX 5 1 4 2 3 3 1 4 2 5 34 7 35 8 81 9 36 10 80 11 37 12 38 13
REMARK SMILES IDX 39 14 74 15 40 16 79 17 73 18 75 19 41 20 78 21 72 22 71 23
REMARK SMILES IDX 42 25 64 26 49 27 63 28 50 29 53 30 62 31 76 32 51 33 52 34
REMARK SMILES IDX 61 36 77 37 54 38 43 39 44 40 48 41 45 42 47 43 46 44 65 45
REMARK SMILES IDX 66 46 70 47 67 48 69 49 68 50 55 51 56 52 60 53 57 54 59 55
REMARK SMILES IDX 58 56 6 57 7 58 8 59 9 61 10 62 11 63 33 64 12 65 21 68
REMARK SMILES IDX 31 69 22 70 24 71 32 72 23 73 13 74 14 75 19 76 15 77 18 78
REMARK SMILES IDX 16 79 17 80 20 81 25 83 26 84 30 85 27 86 29 87 28 88
REMARK H PARENT 3 6 75 24 53 35 7 60 11 66 11 67 20 82
REMARK Flexibility Score: inf
ROOT
ATOM      1  C   UNL A   1      33.123  27.620  25.670  1.00  0.00     0.042 C 
ENDROOT
BRANCH   1   2
ATOM      2  C   UNL A   1      33.815  28.910  25.249  1.00  0.00     0.118 C 
BRANCH   2   3
ATOM      3  N   UNL A   1      33.143  30.091  25.765  1.00  0.00    -0.352 N 
ATOM      4  O   UNL A   1      32.627  31.683  27.270  1.00  0.00    -0.269 OA
ATOM      5  C   UNL A   1      33.446  30.866  26.857  1.00  0.00     0.251 C 
ATOM      6  H   UNL A   1      32.351  30.379  25.255  1.00  0.00     0.163 HD
BRANCH   5   7
ATOM      7  C   UNL A   1      34.750  30.723  27.542  1.00  0.00     0.039 A 
ATOM      8  C   UNL A   1      35.578  31.829  27.747  1.00  0.00     0.014 A 
ATOM      9  C   UNL A   1      35.123  29.472  28.041  1.00  0.00     0.014 A 
ATOM     10  C   UNL A   1      36.828  31.663  28.331  1.00  0.00     0.010 A 
ATOM     11  C   UNL A   1      36.339  29.325  28.716  1.00  0.00     0.010 A 
ATOM     12  C   UNL A   1      37.210  30.416  28.850  1.00  0.00    -0.014 A 
BRANCH  12  13
ATOM     13  C   UNL A   1      38.480  30.307  29.611  1.00  0.00     0.031 A 
ATOM     14  C   UNL A   1      38.594  30.811  31.021  1.00  0.00     0.074 A 
ATOM     15  C   UNL A   1      39.537  29.721  29.014  1.00  0.00     0.049 A 
ATOM     16  N   UNL A   1      39.627  30.771  31.825  1.00  0.00    -0.248 NA
ATOM     17  C   UNL A   1      37.403  31.447  31.604  1.00  0.00     0.031 C 
ATOM     18  C   UNL A   1      39.550  29.199  27.644  1.00  0.00     0.029 A 
ATOM     19  N   UNL A   1      40.796  29.446  29.483  1.00  0.00    -0.354 N 
ATOM     20  C   UNL A   1      39.219  31.391  32.999  1.00  0.00     0.074 A 
ATOM     21  C   UNL A   1      37.852  31.822  32.795  1.00  0.00     0.031 C 
ATOM     22  C   UNL A   1      40.735  28.622  27.403  1.00  0.00     0.029 A 
ATOM     23  C   UNL A   1      41.590  28.795  28.570  1.00  0.00     0.049 A 
ATOM     24  H   UNL A   1      41.101  29.692  30.387  1.00  0.00     0.167 HD
ATOM     25  C   UNL A   1      39.919  31.581  34.144  1.00  0.00     0.031 A 
ATOM     26  C   UNL A   1      42.871  28.396  28.652  1.00  0.00     0.031 A 
ATOM     27  C   UNL A   1      41.283  31.155  34.340  1.00  0.00     0.049 A 
ATOM     28  C   UNL A   1      43.634  28.655  29.917  1.00  0.00     0.074 A 
ATOM     29  C   UNL A   1      42.069  31.275  35.474  1.00  0.00     0.029 A 
ATOM     30  N   UNL A   1      42.065  30.536  33.377  1.00  0.00    -0.354 N 
ATOM     31  N   UNL A   1      43.221  29.210  31.029  1.00  0.00    -0.248 NA
ATOM     32  C   UNL A   1      45.040  28.234  29.935  1.00  0.00     0.031 C 
ATOM     33  C   UNL A   1      43.343  30.781  35.179  1.00  0.00     0.029 A 
ATOM     34  C   UNL A   1      43.334  30.295  33.881  1.00  0.00     0.049 A 
ATOM     35  H   UNL A   1      41.764  30.303  32.469  1.00  0.00     0.167 HD
ATOM     36  C   UNL A   1      44.310  29.188  31.889  1.00  0.00     0.074 A 
ATOM     37  C   UNL A   1      45.394  28.545  31.174  1.00  0.00     0.031 C 
ATOM     38  C   UNL A   1      44.404  29.661  33.155  1.00  0.00     0.031 A 
BRANCH  25  39
ATOM     39  C   UNL A   1      39.235  32.310  35.269  1.00  0.00    -0.014 A 
ATOM     40  C   UNL A   1      38.538  31.617  36.272  1.00  0.00     0.009 A 
ATOM     41  C   UNL A   1      39.330  33.707  35.351  1.00  0.00     0.009 A 
ATOM     42  C   UNL A   1      37.924  32.314  37.315  1.00  0.00     0.001 A 
ATOM     43  C   UNL A   1      38.739  34.399  36.410  1.00  0.00     0.001 A 
ATOM     44  C   UNL A   1      38.029  33.703  37.387  1.00  0.00     0.000 A 
ENDBRANCH  25  39
BRANCH  26  45
ATOM     45  C   UNL A   1      43.513  27.725  27.491  1.00  0.00    -0.014 A 
ATOM     46  C   UNL A   1      44.279  28.459  26.573  1.00  0.00     0.009 A 
ATOM     47  C   UNL A   1      43.370  26.341  27.304  1.00  0.00     0.009 A 
ATOM     48  C   UNL A   1      44.870  27.823  25.479  1.00  0.00     0.001 A 
ATOM     49  C   UNL A   1      43.990  25.703  26.228  1.00  0.00     0.001 A 
ATOM     50  C   UNL A   1      44.730  26.446  25.311  1.00  0.00     0.000 A 
ENDBRANCH  26  45
BRANCH  38  51
ATOM     51  C   UNL A   1      45.718  29.470  33.856  1.00  0.00    -0.014 A 
ATOM     52  C   UNL A   1      46.753  30.411  33.737  1.00  0.00     0.009 A 
ATOM     53  C   UNL A   1      45.914  28.341  34.667  1.00  0.00     0.009 A 
ATOM     54  C   UNL A   1      47.971  30.205  34.387  1.00  0.00     0.001 A 
ATOM     55  C   UNL A   1      47.122  28.154  35.341  1.00  0.00     0.001 A 
ATOM     56  C   UNL A   1      48.153  29.080  35.192  1.00  0.00     0.000 A 
ENDBRANCH  38  51
ENDBRANCH  12  13
ENDBRANCH   5   7
ENDBRANCH   2   3
ENDBRANCH   1   2
BRANCH   1  57
ATOM     57  C   UNL A   1      33.661  26.378  24.964  1.00  0.00     0.118 C 
BRANCH  57  58
ATOM     58  N   UNL A   1      33.957  25.344  25.928  1.00  0.00    -0.351 N 
ATOM     59  C   UNL A   1      34.414  24.084  25.775  1.00  0.00     0.279 C 
ATOM     60  H   UNL A   1      33.799  25.605  26.864  1.00  0.00     0.163 HD
ATOM     61  O   UNL A   1      34.532  23.433  26.821  1.00  0.00    -0.268 OA
BRANCH  59  62
ATOM     62  C   UNL A   1      34.841  23.471  24.408  1.00  0.00     0.286 C 
ATOM     63  N   UNL A   1      36.348  23.689  24.295  1.00  0.00    -0.328 N 
ATOM     64  C   UNL A   1      34.841  21.991  24.175  1.00  0.00     0.166 C 
ATOM     65  C   UNL A   1      37.035  22.410  24.721  1.00  0.00     0.231 C 
ATOM     66  H   UNL A   1      36.634  24.455  24.906  1.00  0.00     0.347 HD
ATOM     67  H   UNL A   1      36.602  23.927  23.337  1.00  0.00     0.347 HD
ATOM     68  C   UNL A   1      35.883  21.533  25.163  1.00  0.00     0.161 C 
ATOM     69  C   UNL A   1      33.802  20.933  24.291  1.00  0.00     0.244 C 
ATOM     70  C   UNL A   1      35.818  20.051  24.977  1.00  0.00     0.244 C 
ATOM     71  N   UNL A   1      34.484  19.776  24.660  1.00  0.00    -0.250 N 
ATOM     72  O   UNL A   1      32.632  21.081  23.977  1.00  0.00    -0.273 OA
ATOM     73  O   UNL A   1      36.748  19.289  25.150  1.00  0.00    -0.273 OA
BRANCH  65  74
ATOM     74  C   UNL A   1      38.137  22.643  25.732  1.00  0.00     0.053 A 
ATOM     75  C   UNL A   1      38.209  23.824  26.492  1.00  0.00     0.029 A 
ATOM     76  C   UNL A   1      39.154  21.693  25.915  1.00  0.00     0.124 A 
ATOM     77  C   UNL A   1      39.246  24.030  27.405  1.00  0.00     0.018 A 
ATOM     78  C   UNL A   1      40.193  21.897  26.826  1.00  0.00     0.048 A 
ATOM     79  Br  UNL A   1      39.303  25.629  28.411  1.00  0.00    -0.051 Br
ATOM     80  C   UNL A   1      40.238  23.070  27.576  1.00  0.00     0.019 A 
BRANCH  76  81
ATOM     81  O   UNL A   1      39.126  20.539  25.182  1.00  0.00    -0.507 OA
ATOM     82  H   UNL A   1      39.752  20.402  24.498  1.00  0.00     0.293 HD
ENDBRANCH  76  81
ENDBRANCH  65  74
BRANCH  71  83
ATOM     83  C   UNL A   1      33.909  18.476  24.677  1.00  0.00     0.052 A 
ATOM     84  C   UNL A   1      34.275  17.513  23.724  1.00  0.00     0.027 A 
ATOM     85  C   UNL A   1      32.972  18.105  25.655  1.00  0.00     0.027 A 
ATOM     86  C   UNL A   1      33.741  16.220  23.762  1.00  0.00     0.002 A 
ATOM     87  C   UNL A   1      32.417  16.820  25.677  1.00  0.00     0.002 A 
ATOM     88  C   UNL A   1      32.809  15.875  24.736  1.00  0.00     0.000 A 
ENDBRANCH  71  83
ENDBRANCH  59  62
ENDBRANCH  57  58
ENDBRANCH   1  57
TORSDOF 13
ENDMDL
MODEL 2
REMARK VINA RESULT:     -12.0      0.353      5.734
REMARK SMILES O=C(NCCCNC(=O)[C@H]1[NH2+][C@@H](c2cc(Br)ccc2O)[C@@H]2C(=O)N(c3ccccc3)C(=O)[C@H]21)c1ccc(-c2c3nc(c(-c4ccccc4)c4ccc([nH]4)c(-c4ccccc4)c4nc(c(-c5ccccc5)c5ccc2[nH]5)C=C4)C=C3)cc1
REMARK SMILES IDX 5 1 4 2 3 3 1 4 2 5 34 7 35 8 81 9 36 10 80 11 37 12 38 13
REMARK SMILES IDX 39 14 74 15 40 16 79 17 73 18 75 19 41 20 78 21 72 22 71 23
REMARK SMILES IDX 42 25 64 26 49 27 63 28 50 29 53 30 62 31 76 32 51 33 52 34
REMARK SMILES IDX 61 36 77 37 54 38 43 39 44 40 48 41 45 42 47 43 46 44 65 45
REMARK SMILES IDX 66 46 70 47 67 48 69 49 68 50 55 51 56 52 60 53 57 54 59 55
REMARK SMILES IDX 58 56 6 57 7 58 8 59 9 61 10 62 11 63 33 64 12 65 21 68
REMARK SMILES IDX 31 69 22 70 24 71 32 72 23 73 13 74 14 75 19 76 15 77 18 78
REMARK SMILES IDX 16 79 17 80 20 81 25 83 26 84 30 85 27 86 29 87 28 88
REMARK H PARENT 3 6 75 24 53 35 7 60 11 66 11 67 20 82
REMARK Flexibility Score: inf
ROOT
ATOM      1  C   UNL A   1      33.135  27.600  25.986  1.00  0.00     0.042 C 
ENDROOT
BRANCH   1   2
ATOM      2  C   UNL A   1      33.885  28.841  25.515  1.00  0.00     0.118 C 
BRANCH   2   3
ATOM      3  N   UNL A   1      33.211  30.071  25.897  1.00  0.00    -0.352 N 
ATOM      4  O   UNL A   1      32.650  31.789  27.237  1.00  0.00    -0.269 OA
ATOM      5  C   UNL A   1      33.472  30.928  26.937  1.00  0.00     0.251 C 
ATOM      6  H   UNL A   1      32.454  30.329  25.322  1.00  0.00     0.163 HD
BRANCH   5   7
ATOM      7  C   UNL A   1      34.734  30.820  27.702  1.00  0.00     0.039 A 
ATOM      8  C   UNL A   1      35.097  29.621  28.320  1.00  0.00     0.014 A 
ATOM      9  C   UNL A   1      35.597  31.918  27.750  1.00  0.00     0.014 A 
ATOM     10  C   UNL A   1      36.253  29.560  29.091  1.00  0.00     0.010 A 
ATOM     11  C   UNL A   1      36.808  31.824  28.445  1.00  0.00     0.010 A 
ATOM     12  C   UNL A   1      37.136  30.649  29.137  1.00  0.00    -0.014 A 
BRANCH  12  13
ATOM     13  C   UNL A   1      38.439  30.498  29.833  1.00  0.00     0.031 A 
ATOM     14  C   UNL A   1      39.593  29.787  29.189  1.00  0.00     0.074 A 
ATOM     15  C   UNL A   1      38.574  31.034  31.062  1.00  0.00     0.049 A 
ATOM     16  N   UNL A   1      40.800  29.588  29.658  1.00  0.00    -0.248 NA
ATOM     17  C   UNL A   1      39.369  29.219  27.850  1.00  0.00     0.031 C 
ATOM     18  C   UNL A   1      37.519  31.741  31.795  1.00  0.00     0.029 A 
ATOM     19  N   UNL A   1      39.655  31.088  31.905  1.00  0.00    -0.354 N 
ATOM     20  C   UNL A   1      41.472  28.859  28.686  1.00  0.00     0.074 A 
ATOM     21  C   UNL A   1      40.532  28.627  27.610  1.00  0.00     0.031 C 
ATOM     22  C   UNL A   1      38.019  32.203  32.950  1.00  0.00     0.029 A 
ATOM     23  C   UNL A   1      39.403  31.765  33.074  1.00  0.00     0.049 A 
ATOM     24  H   UNL A   1      40.526  30.680  31.693  1.00  0.00     0.167 HD
ATOM     25  C   UNL A   1      42.756  28.426  28.689  1.00  0.00     0.031 A 
ATOM     26  C   UNL A   1      40.191  31.994  34.140  1.00  0.00     0.031 A 
ATOM     27  C   UNL A   1      43.686  28.655  29.766  1.00  0.00     0.049 A 
ATOM     28  C   UNL A   1      41.595  31.467  34.132  1.00  0.00     0.074 A 
ATOM     29  C   UNL A   1      45.017  28.282  29.850  1.00  0.00     0.029 A 
ATOM     30  N   UNL A   1      43.381  29.308  30.951  1.00  0.00    -0.354 N 
ATOM     31  N   UNL A   1      42.224  30.812  33.189  1.00  0.00    -0.248 NA
ATOM     32  C   UNL A   1      42.396  31.712  35.338  1.00  0.00     0.031 C 
ATOM     33  C   UNL A   1      45.500  28.659  31.107  1.00  0.00     0.029 A 
ATOM     34  C   UNL A   1      44.489  29.323  31.782  1.00  0.00     0.049 A 
ATOM     35  H   UNL A   1      42.505  29.703  31.168  1.00  0.00     0.167 HD
ATOM     36  C   UNL A   1      43.502  30.581  33.678  1.00  0.00     0.074 A 
ATOM     37  C   UNL A   1      43.562  31.188  34.992  1.00  0.00     0.031 C 
ATOM     38  C   UNL A   1      44.531  29.924  33.091  1.00  0.00     0.031 A 
BRANCH  25  39
ATOM     39  C   UNL A   1      43.227  27.630  27.502  1.00  0.00    -0.014 A 
ATOM     40  C   UNL A   1      43.896  28.241  26.430  1.00  0.00     0.009 A 
ATOM     41  C   UNL A   1      43.040  26.239  27.479  1.00  0.00     0.009 A 
ATOM     42  C   UNL A   1      44.339  27.479  25.346  1.00  0.00     0.001 A 
ATOM     43  C   UNL A   1      43.508  25.476  26.408  1.00  0.00     0.001 A 
ATOM     44  C   UNL A   1      44.150  26.097  25.338  1.00  0.00     0.000 A 
ENDBRANCH  25  39
BRANCH  26  45
ATOM     45  C   UNL A   1      39.657  32.743  35.307  1.00  0.00    -0.014 A 
ATOM     46  C   UNL A   1      39.832  34.131  35.409  1.00  0.00     0.009 A 
ATOM     47  C   UNL A   1      38.954  32.070  36.320  1.00  0.00     0.009 A 
ATOM     48  C   UNL A   1      39.336  34.825  36.514  1.00  0.00     0.001 A 
ATOM     49  C   UNL A   1      38.431  32.773  37.406  1.00  0.00     0.001 A 
ATOM     50  C   UNL A   1      38.630  34.148  37.508  1.00  0.00     0.000 A 
ENDBRANCH  26  45
BRANCH  38  51
ATOM     51  C   UNL A   1      45.821  29.856  33.859  1.00  0.00    -0.014 A 
ATOM     52  C   UNL A   1      46.102  28.783  34.719  1.00  0.00     0.009 A 
ATOM     53  C   UNL A   1      46.777  30.871  33.700  1.00  0.00     0.009 A 
ATOM     54  C   UNL A   1      47.301  28.748  35.433  1.00  0.00     0.001 A 
ATOM     55  C   UNL A   1      47.987  30.817  34.392  1.00  0.00     0.001 A 
ATOM     56  C   UNL A   1      48.244  29.762  35.266  1.00  0.00     0.000 A 
ENDBRANCH  38  51
ENDBRANCH  12  13
ENDBRANCH   5   7
ENDBRANCH   2   3
ENDBRANCH   1   2
BRANCH   1  57
ATOM     57  C   UNL A   1      33.511  26.332  25.224  1.00  0.00     0.118 C 
BRANCH  57  58
ATOM     58  N   UNL A   1      33.860  25.279  26.147  1.00  0.00    -0.351 N 
ATOM     59  C   UNL A   1      34.339  24.034  25.944  1.00  0.00     0.279 C 
ATOM     60  H   UNL A   1      33.726  25.510  27.095  1.00  0.00     0.163 HD
ATOM     61  O   UNL A   1      34.505  23.357  26.967  1.00  0.00    -0.268 OA
BRANCH  59  62
ATOM     62  C   UNL A   1      34.736  23.470  24.547  1.00  0.00     0.286 C 
ATOM     63  N   UNL A   1      36.235  23.716  24.398  1.00  0.00    -0.328 N 
ATOM     64  C   UNL A   1      34.753  21.997  24.270  1.00  0.00     0.166 C 
ATOM     65  C   UNL A   1      36.955  22.437  24.764  1.00  0.00     0.231 C 
ATOM     66  H   UNL A   1      36.526  24.468  25.022  1.00  0.00     0.347 HD
ATOM     67  H   UNL A   1      36.457  23.987  23.439  1.00  0.00     0.347 HD
ATOM     68  C   UNL A   1      35.831  21.528  25.212  1.00  0.00     0.161 C 
ATOM     69  C   UNL A   1      33.735  20.919  24.383  1.00  0.00     0.244 C 
ATOM     70  C   UNL A   1      35.785  20.052  24.983  1.00  0.00     0.244 C 
ATOM     71  N   UNL A   1      34.447  19.763  24.698  1.00  0.00    -0.250 N 
ATOM     72  O   UNL A   1      32.554  21.056  24.108  1.00  0.00    -0.273 OA
ATOM     73  O   UNL A   1      36.732  19.301  25.106  1.00  0.00    -0.273 OA
BRANCH  65  74
ATOM     74  C   UNL A   1      38.082  22.659  25.749  1.00  0.00     0.053 A 
ATOM     75  C   UNL A   1      38.179  23.835  26.514  1.00  0.00     0.029 A 
ATOM     76  C   UNL A   1      39.099  21.703  25.902  1.00  0.00     0.124 A 
ATOM     77  C   UNL A   1      39.239  24.031  27.402  1.00  0.00     0.018 A 
ATOM     78  C   UNL A   1      40.161  21.897  26.789  1.00  0.00     0.048 A 
ATOM     79  Br  UNL A   1      39.329  25.624  28.416  1.00  0.00    -0.051 Br
ATOM     80  C   UNL A   1      40.230  23.066  27.544  1.00  0.00     0.019 A 
BRANCH  76  81
ATOM     81  O   UNL A   1      39.047  20.554  25.164  1.00  0.00    -0.507 OA
ATOM     82  H   UNL A   1      38.406  19.898  25.360  1.00  0.00     0.293 HD
ENDBRANCH  76  81
ENDBRANCH  65  74
BRANCH  71  83
ATOM     83  C   UNL A   1      33.893  18.453  24.691  1.00  0.00     0.052 A 
ATOM     84  C   UNL A   1      34.251  17.524  23.703  1.00  0.00     0.027 A 
ATOM     85  C   UNL A   1      32.988  18.040  25.682  1.00  0.00     0.027 A 
ATOM     86  C   UNL A   1      33.739  16.221  23.717  1.00  0.00     0.002 A 
ATOM     87  C   UNL A   1      32.455  16.745  25.681  1.00  0.00     0.002 A 
ATOM     88  C   UNL A   1      32.839  15.833  24.704  1.00  0.00     0.000 A 
ENDBRANCH  71  83
ENDBRANCH  59  62
ENDBRANCH  57  58
ENDBRANCH   1  57
TORSDOF 13
ENDMDL
MODEL 3
REMARK VINA RESULT:     -11.7      5.253     11.445
REMARK SMILES O=C(NCCCNC(=O)[C@H]1[NH2+][C@@H](c2cc(Br)ccc2O)[C@@H]2C(=O)N(c3ccccc3)C(=O)[C@H]21)c1ccc(-c2c3nc(c(-c4ccccc4)c4ccc([nH]4)c(-c4ccccc4)c4nc(c(-c5ccccc5)c5ccc2[nH]5)C=C4)C=C3)cc1
REMARK SMILES IDX 5 1 4 2 3 3 1 4 2 5 34 7 35 8 81 9 36 10 80 11 37 12 38 13
REMARK SMILES IDX 39 14 74 15 40 16 79 17 73 18 75 19 41 20 78 21 72 22 71 23
REMARK SMILES IDX 42 25 64 26 49 27 63 28 50 29 53 30 62 31 76 32 51 33 52 34
REMARK SMILES IDX 61 36 77 37 54 38 43 39 44 40 48 41 45 42 47 43 46 44 65 45
REMARK SMILES IDX 66 46 70 47 67 48 69 49 68 50 55 51 56 52 60 53 57 54 59 55
REMARK SMILES IDX 58 56 6 57 7 58 8 59 9 61 10 62 11 63 33 64 12 65 21 68
REMARK SMILES IDX 31 69 22 70 24 71 32 72 23 73 13 74 14 75 19 76 15 77 18 78
REMARK SMILES IDX 16 79 17 80 20 81 25 83 26 84 30 85 27 86 29 87 28 88
REMARK H PARENT 3 6 75 24 53 35 7 60 11 66 11 67 20 82
REMARK Flexibility Score: inf
ROOT
ATOM      1  C   UNL A   1      42.379  35.554  36.665  1.00  0.00     0.042 C 
ENDROOT
BRANCH   1   2
ATOM      2  C   UNL A   1      42.576  36.046  35.236  1.00  0.00     0.118 C 
BRANCH   2   3
ATOM      3  N   UNL A   1      43.968  36.338  34.939  1.00  0.00    -0.352 N 
ATOM      4  O   UNL A   1      46.104  35.885  34.398  1.00  0.00    -0.269 OA
ATOM      5  C   UNL A   1      44.924  35.548  34.351  1.00  0.00     0.251 C 
ATOM      6  H   UNL A   1      44.271  37.239  35.198  1.00  0.00     0.163 HD
BRANCH   5   7
ATOM      7  C   UNL A   1      44.545  34.293  33.665  1.00  0.00     0.039 A 
ATOM      8  C   UNL A   1      44.650  34.175  32.277  1.00  0.00     0.014 A 
ATOM      9  C   UNL A   1      44.135  33.196  34.429  1.00  0.00     0.014 A 
ATOM     10  C   UNL A   1      44.224  33.013  31.645  1.00  0.00     0.010 A 
ATOM     11  C   UNL A   1      43.800  31.994  33.798  1.00  0.00     0.010 A 
ATOM     12  C   UNL A   1      43.824  31.899  32.398  1.00  0.00    -0.014 A 
BRANCH  12  13
ATOM     13  C   UNL A   1      43.531  30.620  31.703  1.00  0.00     0.031 A 
ATOM     14  C   UNL A   1      42.198  30.364  31.064  1.00  0.00     0.074 A 
ATOM     15  C   UNL A   1      44.503  29.688  31.638  1.00  0.00     0.049 A 
ATOM     16  N   UNL A   1      41.793  29.308  30.403  1.00  0.00    -0.248 NA
ATOM     17  C   UNL A   1      41.183  31.422  31.183  1.00  0.00     0.031 C 
ATOM     18  C   UNL A   1      45.839  29.820  32.230  1.00  0.00     0.029 A 
ATOM     19  N   UNL A   1      44.530  28.459  31.032  1.00  0.00    -0.354 N 
ATOM     20  C   UNL A   1      40.476  29.563  30.046  1.00  0.00     0.074 A 
ATOM     21  C   UNL A   1      40.139  30.864  30.584  1.00  0.00     0.031 C 
ATOM     22  C   UNL A   1      46.569  28.742  31.912  1.00  0.00     0.029 A 
ATOM     23  C   UNL A   1      45.736  27.813  31.159  1.00  0.00     0.049 A 
ATOM     24  H   UNL A   1      43.760  28.076  30.553  1.00  0.00     0.167 HD
ATOM     25  C   UNL A   1      39.627  28.785  29.331  1.00  0.00     0.031 A 
ATOM     26  C   UNL A   1      46.128  26.598  30.735  1.00  0.00     0.031 A 
ATOM     27  C   UNL A   1      39.966  27.488  28.802  1.00  0.00     0.049 A 
ATOM     28  C   UNL A   1      45.153  25.742  29.982  1.00  0.00     0.074 A 
ATOM     29  C   UNL A   1      39.184  26.636  28.040  1.00  0.00     0.029 A 
ATOM     30  N   UNL A   1      41.184  26.851  28.989  1.00  0.00    -0.354 N 
ATOM     31  N   UNL A   1      43.924  26.016  29.621  1.00  0.00    -0.248 NA
ATOM     32  C   UNL A   1      45.622  24.411  29.579  1.00  0.00     0.031 C 
ATOM     33  C   UNL A   1      39.909  25.461  27.814  1.00  0.00     0.029 A 
ATOM     34  C   UNL A   1      41.164  25.605  28.381  1.00  0.00     0.049 A 
ATOM     35  H   UNL A   1      41.949  27.228  29.481  1.00  0.00     0.167 HD
ATOM     36  C   UNL A   1      43.476  24.898  28.931  1.00  0.00     0.074 A 
ATOM     37  C   UNL A   1      44.575  23.954  28.906  1.00  0.00     0.031 C 
ATOM     38  C   UNL A   1      42.263  24.674  28.371  1.00  0.00     0.031 A 
BRANCH  25  39
ATOM     39  C   UNL A   1      38.232  29.302  29.102  1.00  0.00    -0.014 A 
ATOM     40  C   UNL A   1      37.281  29.324  30.136  1.00  0.00     0.009 A 
ATOM     41  C   UNL A   1      37.879  29.820  27.847  1.00  0.00     0.009 A 
ATOM     42  C   UNL A   1      35.998  29.824  29.905  1.00  0.00     0.001 A 
ATOM     43  C   UNL A   1      36.604  30.344  27.627  1.00  0.00     0.001 A 
ATOM     44  C   UNL A   1      35.661  30.338  28.653  1.00  0.00     0.000 A 
ENDBRANCH  25  39
BRANCH  26  45
ATOM     45  C   UNL A   1      47.502  26.118  31.033  1.00  0.00    -0.014 A 
ATOM     46  C   UNL A   1      47.833  25.637  32.309  1.00  0.00     0.009 A 
ATOM     47  C   UNL A   1      48.489  26.127  30.034  1.00  0.00     0.009 A 
ATOM     48  C   UNL A   1      49.130  25.197  32.583  1.00  0.00     0.001 A 
ATOM     49  C   UNL A   1      49.775  25.655  30.302  1.00  0.00     0.001 A 
ATOM     50  C   UNL A   1      50.097  25.201  31.579  1.00  0.00     0.000 A 
ENDBRANCH  26  45
BRANCH  38  51
ATOM     51  C   UNL A   1      42.075  23.366  27.658  1.00  0.00    -0.014 A 
ATOM     52  C   UNL A   1      42.506  23.188  26.334  1.00  0.00     0.009 A 
ATOM     53  C   UNL A   1      41.477  22.288  28.330  1.00  0.00     0.009 A 
ATOM     54  C   UNL A   1      42.309  21.967  25.686  1.00  0.00     0.001 A 
ATOM     55  C   UNL A   1      41.309  21.060  27.690  1.00  0.00     0.001 A 
ATOM     56  C   UNL A   1      41.715  20.903  26.365  1.00  0.00     0.000 A 
ENDBRANCH  38  51
ENDBRANCH  12  13
ENDBRANCH   5   7
ENDBRANCH   2   3
ENDBRANCH   1   2
BRANCH   1  57
ATOM     57  C   UNL A   1      40.939  35.162  36.985  1.00  0.00     0.118 C 
BRANCH  57  58
ATOM     58  N   UNL A   1      40.080  35.456  35.862  1.00  0.00    -0.351 N 
ATOM     59  C   UNL A   1      38.983  34.830  35.388  1.00  0.00     0.279 C 
ATOM     60  H   UNL A   1      40.340  36.256  35.351  1.00  0.00     0.163 HD
ATOM     61  O   UNL A   1      38.488  35.327  34.368  1.00  0.00    -0.268 OA
BRANCH  59  62
ATOM     62  C   UNL A   1      38.309  33.608  36.080  1.00  0.00     0.286 C 
ATOM     63  N   UNL A   1      36.936  33.453  35.431  1.00  0.00    -0.328 N 
ATOM     64  C   UNL A   1      38.792  32.208  35.847  1.00  0.00     0.166 C 
ATOM     65  C   UNL A   1      37.043  32.385  34.365  1.00  0.00     0.231 C 
ATOM     66  H   UNL A   1      36.652  34.337  35.008  1.00  0.00     0.347 HD
ATOM     67  H   UNL A   1      36.241  33.190  36.129  1.00  0.00     0.347 HD
ATOM     68  C   UNL A   1      38.516  32.038  34.375  1.00  0.00     0.161 C 
ATOM     69  C   UNL A   1      40.109  31.536  36.008  1.00  0.00     0.244 C 
ATOM     70  C   UNL A   1      39.072  30.670  34.140  1.00  0.00     0.244 C 
ATOM     71  N   UNL A   1      40.149  30.551  35.023  1.00  0.00    -0.250 N 
ATOM     72  O   UNL A   1      40.886  31.756  36.922  1.00  0.00    -0.273 OA
ATOM     73  O   UNL A   1      38.674  29.896  33.292  1.00  0.00    -0.273 OA
BRANCH  65  74
ATOM     74  C   UNL A   1      36.458  32.819  33.038  1.00  0.00     0.053 A 
ATOM     75  C   UNL A   1      37.249  32.935  31.880  1.00  0.00     0.029 A 
ATOM     76  C   UNL A   1      35.101  33.161  32.931  1.00  0.00     0.124 A 
ATOM     77  C   UNL A   1      36.695  33.358  30.670  1.00  0.00     0.018 A 
ATOM     78  C   UNL A   1      34.545  33.585  31.721  1.00  0.00     0.048 A 
ATOM     79  Br  UNL A   1      37.792  33.495  29.136  1.00  0.00    -0.051 Br
ATOM     80  C   UNL A   1      35.346  33.682  30.585  1.00  0.00     0.019 A 
BRANCH  76  81
ATOM     81  O   UNL A   1      34.304  33.075  34.038  1.00  0.00    -0.507 OA
ATOM     82  H   UNL A   1      33.817  33.823  34.324  1.00  0.00     0.293 HD
ENDBRANCH  76  81
ENDBRANCH  65  74
BRANCH  71  83
ATOM     83  C   UNL A   1      41.138  29.531  34.948  1.00  0.00     0.052 A 
ATOM     84  C   UNL A   1      41.115  28.580  33.917  1.00  0.00     0.027 A 
ATOM     85  C   UNL A   1      42.178  29.454  35.888  1.00  0.00     0.027 A 
ATOM     86  C   UNL A   1      42.110  27.600  33.817  1.00  0.00     0.002 A 
ATOM     87  C   UNL A   1      43.158  28.458  35.803  1.00  0.00     0.002 A 
ATOM     88  C   UNL A   1      43.129  27.537  34.762  1.00  0.00     0.000 A 
ENDBRANCH  71  83
ENDBRANCH  59  62
ENDBRANCH  57  58
ENDBRANCH   1  57
TORSDOF 13
ENDMDL
