MODEL 1
REMARK VINA RESULT:      -9.6      0.000      0.000
REMARK SMILES [NH3+][C@H](CCc1c[nH]nc1C(F)(F)F)C(=O)NCCCNC(=O)c1ccc(-c2c3nc(c(-c4ccccc4)c4ccc([nH]4)c(-c4ccccc4)c4nc(c(-c5ccccc5)c5ccc2[nH]5)C=C4)C=C3)cc1
REMARK SMILES IDX 17 1 16 2 14 3 15 4 2 6 1 7 3 11 4 12 5 13 6 14 9 15 7 16
REMARK SMILES IDX 8 17 10 19 11 20 12 21 13 22 18 23 19 24 20 25 21 26 22 28
REMARK SMILES IDX 23 29 24 30 70 31 25 32 69 33 26 34 27 35 28 36 63 37 29 38
REMARK SMILES IDX 68 39 62 40 64 41 30 42 67 43 61 44 60 45 31 47 53 48 38 49
REMARK SMILES IDX 52 50 39 51 42 52 51 53 65 54 40 55 41 56 50 58 66 59 43 60
REMARK SMILES IDX 32 61 33 62 37 63 34 64 36 65 35 66 54 67 55 68 59 69 56 70
REMARK SMILES IDX 58 71 57 72 44 73 45 74 49 75 46 76 48 77 47 78
REMARK H PARENT 16 5 1 8 1 9 1 10 7 18 20 27 64 46 42 57
REMARK Flexibility Score: inf
ROOT
ATOM      1  C   UNL A   1      33.165  34.933  28.775  1.00  0.00     0.118 C 
ENDROOT
BRANCH   1   2
ATOM      2  N   UNL A   1      33.019  36.177  29.497  1.00  0.00    -0.351 N 
ATOM      3  C   UNL A   1      33.014  36.442  30.830  1.00  0.00     0.278 C 
ATOM      4  O   UNL A   1      32.907  37.635  31.143  1.00  0.00    -0.268 OA
ATOM      5  H   UNL A   1      32.904  36.970  28.924  1.00  0.00     0.163 HD
BRANCH   3   6
ATOM      6  C   UNL A   1      33.188  35.375  31.944  1.00  0.00     0.271 C 
BRANCH   6   7
ATOM      7  N   UNL A   1      32.014  35.315  32.831  1.00  0.00    -0.347 N 
ATOM      8  H   UNL A   1      31.950  36.180  33.369  1.00  0.00     0.345 HD
ATOM      9  H   UNL A   1      32.109  34.524  33.467  1.00  0.00     0.345 HD
ATOM     10  H   UNL A   1      31.170  35.201  32.270  1.00  0.00     0.345 HD
ENDBRANCH   6   7
BRANCH   6  11
ATOM     11  C   UNL A   1      34.541  35.185  32.648  1.00  0.00     0.080 C 
BRANCH  11  12
ATOM     12  C   UNL A   1      35.778  34.535  32.037  1.00  0.00     0.046 C 
BRANCH  12  13
ATOM     13  C   UNL A   1      36.318  33.202  32.467  1.00  0.00     0.003 A 
ATOM     14  C   UNL A   1      35.737  31.954  32.553  1.00  0.00     0.109 A 
ATOM     15  C   UNL A   1      37.648  32.983  32.995  1.00  0.00     0.169 A 
ATOM     16  N   UNL A   1      36.641  31.121  33.141  1.00  0.00    -0.285 N 
ATOM     17  N   UNL A   1      37.815  31.704  33.390  1.00  0.00    -0.171 NA
ATOM     18  H   UNL A   1      36.445  30.181  33.361  1.00  0.00     0.189 HD
BRANCH  15  19
ATOM     19  C   UNL A   1      38.760  33.997  33.153  1.00  0.00     0.435 C 
ATOM     20  F   UNL A   1      38.429  35.016  33.992  1.00  0.00    -0.164 F 
ATOM     21  F   UNL A   1      39.899  33.436  33.638  1.00  0.00    -0.164 F 
ATOM     22  F   UNL A   1      39.098  34.584  31.971  1.00  0.00    -0.164 F 
ENDBRANCH  15  19
ENDBRANCH  12  13
ENDBRANCH  11  12
ENDBRANCH   6  11
ENDBRANCH   3   6
ENDBRANCH   1   2
BRANCH   1  23
ATOM     23  C   UNL A   1      34.615  34.710  28.355  1.00  0.00     0.042 C 
BRANCH  23  24
ATOM     24  C   UNL A   1      35.136  33.308  28.616  1.00  0.00     0.118 C 
BRANCH  24  25
ATOM     25  N   UNL A   1      34.201  32.275  28.188  1.00  0.00    -0.352 N 
ATOM     26  C   UNL A   1      34.405  30.936  27.948  1.00  0.00     0.251 C 
ATOM     27  H   UNL A   1      33.278  32.586  28.049  1.00  0.00     0.163 HD
ATOM     28  O   UNL A   1      33.506  30.269  27.438  1.00  0.00    -0.269 OA
BRANCH  26  29
ATOM     29  C   UNL A   1      35.699  30.293  28.274  1.00  0.00     0.039 A 
ATOM     30  C   UNL A   1      36.713  30.260  27.309  1.00  0.00     0.014 A 
ATOM     31  C   UNL A   1      35.922  29.715  29.525  1.00  0.00     0.014 A 
ATOM     32  C   UNL A   1      37.967  29.728  27.630  1.00  0.00     0.010 A 
ATOM     33  C   UNL A   1      37.197  29.290  29.876  1.00  0.00     0.010 A 
ATOM     34  C   UNL A   1      38.236  29.283  28.933  1.00  0.00    -0.014 A 
BRANCH  34  35
ATOM     35  C   UNL A   1      39.575  28.789  29.350  1.00  0.00     0.031 A 
ATOM     36  C   UNL A   1      40.487  29.688  30.145  1.00  0.00     0.074 A 
ATOM     37  C   UNL A   1      40.020  27.589  28.926  1.00  0.00     0.049 A 
ATOM     38  N   UNL A   1      41.748  29.527  30.454  1.00  0.00    -0.248 NA
ATOM     39  C   UNL A   1      39.911  30.957  30.622  1.00  0.00     0.031 C 
ATOM     40  C   UNL A   1      39.256  26.631  28.125  1.00  0.00     0.029 A 
ATOM     41  N   UNL A   1      41.238  26.979  29.097  1.00  0.00    -0.354 N 
ATOM     42  C   UNL A   1      42.124  30.687  31.122  1.00  0.00     0.074 A 
ATOM     43  C   UNL A   1      40.974  31.562  31.130  1.00  0.00     0.031 C 
ATOM     44  C   UNL A   1      40.013  25.547  27.894  1.00  0.00     0.029 A 
ATOM     45  C   UNL A   1      41.333  25.754  28.479  1.00  0.00     0.049 A 
ATOM     46  H   UNL A   1      41.975  27.380  29.612  1.00  0.00     0.167 HD
ATOM     47  C   UNL A   1      43.313  30.990  31.694  1.00  0.00     0.031 A 
ATOM     48  C   UNL A   1      42.371  24.902  28.379  1.00  0.00     0.031 A 
ATOM     49  C   UNL A   1      44.447  30.107  31.713  1.00  0.00     0.049 A 
ATOM     50  C   UNL A   1      43.686  25.263  29.016  1.00  0.00     0.074 A 
ATOM     51  C   UNL A   1      45.675  30.295  32.321  1.00  0.00     0.029 A 
ATOM     52  N   UNL A   1      44.487  28.864  31.101  1.00  0.00    -0.354 N 
ATOM     53  N   UNL A   1      44.008  26.341  29.687  1.00  0.00    -0.248 NA
ATOM     54  C   UNL A   1      44.775  24.286  28.888  1.00  0.00     0.031 C 
ATOM     55  C   UNL A   1      46.478  29.187  32.035  1.00  0.00     0.029 A 
ATOM     56  C   UNL A   1      45.727  28.283  31.300  1.00  0.00     0.049 A 
ATOM     57  H   UNL A   1      43.745  28.457  30.598  1.00  0.00     0.167 HD
ATOM     58  C   UNL A   1      45.324  26.156  30.093  1.00  0.00     0.074 A 
ATOM     59  C   UNL A   1      45.738  24.860  29.597  1.00  0.00     0.031 C 
ATOM     60  C   UNL A   1      46.116  26.985  30.816  1.00  0.00     0.031 A 
BRANCH  47  61
ATOM     61  C   UNL A   1      43.446  32.341  32.345  1.00  0.00    -0.014 A 
ATOM     62  C   UNL A   1      43.800  33.478  31.602  1.00  0.00     0.009 A 
ATOM     63  C   UNL A   1      43.183  32.483  33.717  1.00  0.00     0.009 A 
ATOM     64  C   UNL A   1      43.930  34.721  32.227  1.00  0.00     0.001 A 
ATOM     65  C   UNL A   1      43.281  33.732  34.332  1.00  0.00     0.001 A 
ATOM     66  C   UNL A   1      43.666  34.846  33.590  1.00  0.00     0.000 A 
ENDBRANCH  47  61
BRANCH  48  67
ATOM     67  C   UNL A   1      42.211  23.612  27.654  1.00  0.00    -0.014 A 
ATOM     68  C   UNL A   1      41.726  22.477  28.323  1.00  0.00     0.009 A 
ATOM     69  C   UNL A   1      42.546  23.505  26.296  1.00  0.00     0.009 A 
ATOM     70  C   UNL A   1      41.605  21.257  27.654  1.00  0.00     0.001 A 
ATOM     71  C   UNL A   1      42.396  22.291  25.621  1.00  0.00     0.001 A 
ATOM     72  C   UNL A   1      41.937  21.166  26.303  1.00  0.00     0.000 A 
ENDBRANCH  48  67
BRANCH  60  73
ATOM     73  C   UNL A   1      47.491  26.497  31.171  1.00  0.00    -0.014 A 
ATOM     74  C   UNL A   1      47.738  25.801  32.364  1.00  0.00     0.009 A 
ATOM     75  C   UNL A   1      48.543  26.675  30.257  1.00  0.00     0.009 A 
ATOM     76  C   UNL A   1      49.016  25.313  32.644  1.00  0.00     0.001 A 
ATOM     77  C   UNL A   1      49.811  26.161  30.525  1.00  0.00     0.001 A 
ATOM     78  C   UNL A   1      50.049  25.486  31.722  1.00  0.00     0.000 A 
ENDBRANCH  60  73
ENDBRANCH  34  35
ENDBRANCH  26  29
ENDBRANCH  24  25
ENDBRANCH  23  24
ENDBRANCH   1  23
TORSDOF 15
ENDMDL
MODEL 2
REMARK VINA RESULT:      -9.4      6.652     11.076
REMARK SMILES [NH3+][C@H](CCc1c[nH]nc1C(F)(F)F)C(=O)NCCCNC(=O)c1ccc(-c2c3nc(c(-c4ccccc4)c4ccc([nH]4)c(-c4ccccc4)c4nc(c(-c5ccccc5)c5ccc2[nH]5)C=C4)C=C3)cc1
REMARK SMILES IDX 17 1 16 2 14 3 15 4 2 6 1 7 3 11 4 12 5 13 6 14 9 15 7 16
REMARK SMILES IDX 8 17 10 19 11 20 12 21 13 22 18 23 19 24 20 25 21 26 22 28
REMARK SMILES IDX 23 29 24 30 70 31 25 32 69 33 26 34 27 35 28 36 63 37 29 38
REMARK SMILES IDX 68 39 62 40 64 41 30 42 67 43 61 44 60 45 31 47 53 48 38 49
REMARK SMILES IDX 52 50 39 51 42 52 51 53 65 54 40 55 41 56 50 58 66 59 43 60
REMARK SMILES IDX 32 61 33 62 37 63 34 64 36 65 35 66 54 67 55 68 59 69 56 70
REMARK SMILES IDX 58 71 57 72 44 73 45 74 49 75 46 76 48 77 47 78
REMARK H PARENT 16 5 1 8 1 9 1 10 7 18 20 27 64 46 42 57
REMARK Flexibility Score: inf
ROOT
ATOM      1  C   UNL A   1      36.406  19.966  25.001  1.00  0.00     0.118 C 
ENDROOT
BRANCH   1   2
ATOM      2  N   UNL A   1      36.637  21.376  25.226  1.00  0.00    -0.351 N 
ATOM      3  C   UNL A   1      35.838  22.337  25.761  1.00  0.00     0.278 C 
ATOM      4  O   UNL A   1      36.342  23.464  25.859  1.00  0.00    -0.268 OA
ATOM      5  H   UNL A   1      37.525  21.694  24.946  1.00  0.00     0.163 HD
BRANCH   3   6
ATOM      6  C   UNL A   1      34.399  22.098  26.290  1.00  0.00     0.271 C 
BRANCH   6   7
ATOM      7  N   UNL A   1      34.403  21.453  27.613  1.00  0.00    -0.347 N 
ATOM      8  H   UNL A   1      33.481  21.060  27.803  1.00  0.00     0.345 HD
ATOM      9  H   UNL A   1      34.632  22.144  28.327  1.00  0.00     0.345 HD
ATOM     10  H   UNL A   1      35.099  20.708  27.626  1.00  0.00     0.345 HD
ENDBRANCH   6   7
BRANCH   6  11
ATOM     11  C   UNL A   1      33.280  21.630  25.346  1.00  0.00     0.080 C 
BRANCH  11  12
ATOM     12  C   UNL A   1      32.772  20.198  25.210  1.00  0.00     0.046 C 
BRANCH  12  13
ATOM     13  C   UNL A   1      32.621  19.488  23.896  1.00  0.00     0.003 A 
ATOM     14  C   UNL A   1      32.167  19.910  22.665  1.00  0.00     0.109 A 
ATOM     15  C   UNL A   1      32.873  18.078  23.688  1.00  0.00     0.169 A 
ATOM     16  N   UNL A   1      32.105  18.817  21.853  1.00  0.00    -0.285 N 
ATOM     17  N   UNL A   1      32.555  17.703  22.432  1.00  0.00    -0.171 NA
ATOM     18  H   UNL A   1      31.761  18.848  20.931  1.00  0.00     0.189 HD
BRANCH  15  19
ATOM     19  C   UNL A   1      33.392  17.072  24.692  1.00  0.00     0.435 C 
ATOM     20  F   UNL A   1      34.711  17.246  24.979  1.00  0.00    -0.164 F 
ATOM     21  F   UNL A   1      32.716  17.129  25.871  1.00  0.00    -0.164 F 
ATOM     22  F   UNL A   1      33.275  15.789  24.249  1.00  0.00    -0.164 F 
ENDBRANCH  15  19
ENDBRANCH  12  13
ENDBRANCH  11  12
ENDBRANCH   6  11
ENDBRANCH   3   6
ENDBRANCH   1   2
BRANCH   1  23
ATOM     23  C   UNL A   1      37.725  19.201  24.921  1.00  0.00     0.042 C 
BRANCH  23  24
ATOM     24  C   UNL A   1      38.899  19.903  25.579  1.00  0.00     0.118 C 
BRANCH  24  25
ATOM     25  N   UNL A   1      40.047  19.023  25.761  1.00  0.00    -0.352 N 
ATOM     26  C   UNL A   1      41.343  19.315  26.118  1.00  0.00     0.251 C 
ATOM     27  H   UNL A   1      39.866  18.070  25.601  1.00  0.00     0.163 HD
ATOM     28  O   UNL A   1      42.200  18.435  26.060  1.00  0.00    -0.269 OA
BRANCH  26  29
ATOM     29  C   UNL A   1      41.724  20.680  26.550  1.00  0.00     0.039 A 
ATOM     30  C   UNL A   1      41.917  20.941  27.911  1.00  0.00     0.014 A 
ATOM     31  C   UNL A   1      41.887  21.710  25.623  1.00  0.00     0.014 A 
ATOM     32  C   UNL A   1      42.355  22.204  28.327  1.00  0.00     0.010 A 
ATOM     33  C   UNL A   1      42.427  22.927  26.024  1.00  0.00     0.010 A 
ATOM     34  C   UNL A   1      42.661  23.194  27.381  1.00  0.00    -0.014 A 
BRANCH  34  35
ATOM     35  C   UNL A   1      43.212  24.522  27.762  1.00  0.00     0.031 A 
ATOM     36  C   UNL A   1      42.274  25.626  28.179  1.00  0.00     0.074 A 
ATOM     37  C   UNL A   1      44.529  24.775  27.631  1.00  0.00     0.049 A 
ATOM     38  N   UNL A   1      42.523  26.895  28.377  1.00  0.00    -0.248 NA
ATOM     39  C   UNL A   1      40.860  25.258  28.359  1.00  0.00     0.031 C 
ATOM     40  C   UNL A   1      45.545  23.809  27.208  1.00  0.00     0.029 A 
ATOM     41  N   UNL A   1      45.238  25.936  27.822  1.00  0.00    -0.354 N 
ATOM     42  C   UNL A   1      41.294  27.480  28.662  1.00  0.00     0.074 A 
ATOM     43  C   UNL A   1      40.297  26.439  28.563  1.00  0.00     0.031 C 
ATOM     44  C   UNL A   1      46.745  24.409  27.194  1.00  0.00     0.029 A 
ATOM     45  C   UNL A   1      46.580  25.814  27.550  1.00  0.00     0.049 A 
ATOM     46  H   UNL A   1      44.823  26.777  28.124  1.00  0.00     0.167 HD
ATOM     47  C   UNL A   1      41.022  28.764  28.995  1.00  0.00     0.031 A 
ATOM     48  C   UNL A   1      47.564  26.734  27.567  1.00  0.00     0.031 A 
ATOM     49  C   UNL A   1      42.019  29.792  29.124  1.00  0.00     0.049 A 
ATOM     50  C   UNL A   1      47.237  28.157  27.932  1.00  0.00     0.074 A 
ATOM     51  C   UNL A   1      41.853  31.108  29.517  1.00  0.00     0.029 A 
ATOM     52  N   UNL A   1      43.369  29.616  28.868  1.00  0.00    -0.354 N 
ATOM     53  N   UNL A   1      46.078  28.682  28.248  1.00  0.00    -0.248 NA
ATOM     54  C   UNL A   1      48.354  29.111  27.951  1.00  0.00     0.031 C 
ATOM     55  C   UNL A   1      43.096  31.743  29.451  1.00  0.00     0.029 A 
ATOM     56  C   UNL A   1      44.046  30.805  29.076  1.00  0.00     0.049 A 
ATOM     57  H   UNL A   1      43.785  28.772  28.580  1.00  0.00     0.167 HD
ATOM     58  C   UNL A   1      46.333  30.016  28.539  1.00  0.00     0.074 A 
ATOM     59  C   UNL A   1      47.756  30.219  28.367  1.00  0.00     0.031 C 
ATOM     60  C   UNL A   1      45.465  30.985  28.918  1.00  0.00     0.031 A 
BRANCH  47  61
ATOM     61  C   UNL A   1      39.582  29.128  29.239  1.00  0.00    -0.014 A 
ATOM     62  C   UNL A   1      38.765  29.611  28.205  1.00  0.00     0.009 A 
ATOM     63  C   UNL A   1      39.026  28.954  30.516  1.00  0.00     0.009 A 
ATOM     64  C   UNL A   1      37.434  29.955  28.454  1.00  0.00     0.001 A 
ATOM     65  C   UNL A   1      37.687  29.266  30.755  1.00  0.00     0.001 A 
ATOM     66  C   UNL A   1      36.896  29.777  29.728  1.00  0.00     0.000 A 
ENDBRANCH  47  61
BRANCH  48  67
ATOM     67  C   UNL A   1      48.960  26.340  27.239  1.00  0.00    -0.014 A 
ATOM     68  C   UNL A   1      49.836  25.919  28.252  1.00  0.00     0.009 A 
ATOM     69  C   UNL A   1      49.428  26.387  25.917  1.00  0.00     0.009 A 
ATOM     70  C   UNL A   1      51.157  25.580  27.952  1.00  0.00     0.001 A 
ATOM     71  C   UNL A   1      50.741  26.017  25.615  1.00  0.00     0.001 A 
ATOM     72  C   UNL A   1      51.607  25.625  26.634  1.00  0.00     0.000 A 
ENDBRANCH  48  67
BRANCH  60  73
ATOM     73  C   UNL A   1      46.030  32.340  29.236  1.00  0.00    -0.014 A 
ATOM     74  C   UNL A   1      46.123  33.343  28.260  1.00  0.00     0.009 A 
ATOM     75  C   UNL A   1      46.408  32.636  30.556  1.00  0.00     0.009 A 
ATOM     76  C   UNL A   1      46.604  34.611  28.597  1.00  0.00     0.001 A 
ATOM     77  C   UNL A   1      46.860  33.911  30.896  1.00  0.00     0.001 A 
ATOM     78  C   UNL A   1      46.965  34.895  29.915  1.00  0.00     0.000 A 
ENDBRANCH  60  73
ENDBRANCH  34  35
ENDBRANCH  26  29
ENDBRANCH  24  25
ENDBRANCH  23  24
ENDBRANCH   1  23
TORSDOF 15
ENDMDL
MODEL 3
REMARK VINA RESULT:      -9.4      4.685      6.869
REMARK SMILES [NH3+][C@H](CCc1c[nH]nc1C(F)(F)F)C(=O)NCCCNC(=O)c1ccc(-c2c3nc(c(-c4ccccc4)c4ccc([nH]4)c(-c4ccccc4)c4nc(c(-c5ccccc5)c5ccc2[nH]5)C=C4)C=C3)cc1
REMARK SMILES IDX 17 1 16 2 14 3 15 4 2 6 1 7 3 11 4 12 5 13 6 14 9 15 7 16
REMARK SMILES IDX 8 17 10 19 11 20 12 21 13 22 18 23 19 24 20 25 21 26 22 28
REMARK SMILES IDX 23 29 24 30 70 31 25 32 69 33 26 34 27 35 28 36 63 37 29 38
REMARK SMILES IDX 68 39 62 40 64 41 30 42 67 43 61 44 60 45 31 47 53 48 38 49
REMARK SMILES IDX 52 50 39 51 42 52 51 53 65 54 40 55 41 56 50 58 66 59 43 60
REMARK SMILES IDX 32 61 33 62 37 63 34 64 36 65 35 66 54 67 55 68 59 69 56 70
REMARK SMILES IDX 58 71 57 72 44 73 45 74 49 75 46 76 48 77 47 78
REMARK H PARENT 16 5 1 8 1 9 1 10 7 18 20 27 64 46 42 57
REMARK Flexibility Score: inf
ROOT
ATOM      1  C   UNL A   1      31.520  27.506  26.450  1.00  0.00     0.118 C 
ENDROOT
BRANCH   1   2
ATOM      2  N   UNL A   1      31.063  26.200  26.871  1.00  0.00    -0.351 N 
ATOM      3  C   UNL A   1      31.031  25.010  26.216  1.00  0.00     0.278 C 
ATOM      4  O   UNL A   1      30.611  24.045  26.868  1.00  0.00    -0.268 OA
ATOM      5  H   UNL A   1      30.715  26.167  27.791  1.00  0.00     0.163 HD
BRANCH   3   6
ATOM      6  C   UNL A   1      31.529  24.786  24.763  1.00  0.00     0.271 C 
BRANCH   6   7
ATOM      7  N   UNL A   1      30.505  24.138  23.927  1.00  0.00    -0.347 N 
ATOM      8  H   UNL A   1      30.918  23.344  23.437  1.00  0.00     0.345 HD
ATOM      9  H   UNL A   1      30.147  24.808  23.248  1.00  0.00     0.345 HD
ATOM     10  H   UNL A   1      29.741  23.811  24.519  1.00  0.00     0.345 HD
ENDBRANCH   6   7
BRANCH   6  11
ATOM     11  C   UNL A   1      32.972  24.333  24.485  1.00  0.00     0.080 C 
BRANCH  11  12
ATOM     12  C   UNL A   1      33.379  23.110  23.669  1.00  0.00     0.046 C 
BRANCH  12  13
ATOM     13  C   UNL A   1      34.032  21.894  24.260  1.00  0.00     0.003 A 
ATOM     14  C   UNL A   1      33.512  20.731  24.787  1.00  0.00     0.109 A 
ATOM     15  C   UNL A   1      35.456  21.746  24.475  1.00  0.00     0.169 A 
ATOM     16  N   UNL A   1      34.549  20.021  25.314  1.00  0.00    -0.285 N 
ATOM     17  N   UNL A   1      35.738  20.592  25.113  1.00  0.00    -0.171 NA
ATOM     18  H   UNL A   1      34.431  19.171  25.797  1.00  0.00     0.189 HD
BRANCH  15  19
ATOM     19  C   UNL A   1      36.555  22.716  24.100  1.00  0.00     0.435 C 
ATOM     20  F   UNL A   1      37.782  22.317  24.534  1.00  0.00    -0.164 F 
ATOM     21  F   UNL A   1      36.646  22.891  22.755  1.00  0.00    -0.164 F 
ATOM     22  F   UNL A   1      36.358  23.955  24.632  1.00  0.00    -0.164 F 
ENDBRANCH  15  19
ENDBRANCH  12  13
ENDBRANCH  11  12
ENDBRANCH   6  11
ENDBRANCH   3   6
ENDBRANCH   1   2
BRANCH   1  23
ATOM     23  C   UNL A   1      32.356  28.171  27.540  1.00  0.00     0.042 C 
BRANCH  23  24
ATOM     24  C   UNL A   1      33.515  29.004  27.022  1.00  0.00     0.118 C 
BRANCH  24  25
ATOM     25  N   UNL A   1      33.576  30.322  27.641  1.00  0.00    -0.352 N 
ATOM     26  C   UNL A   1      34.571  30.908  28.390  1.00  0.00     0.251 C 
ATOM     27  H   UNL A   1      32.779  30.882  27.501  1.00  0.00     0.163 HD
ATOM     28  O   UNL A   1      34.352  31.978  28.954  1.00  0.00    -0.269 OA
BRANCH  26  29
ATOM     29  C   UNL A   1      35.891  30.255  28.544  1.00  0.00     0.039 A 
ATOM     30  C   UNL A   1      36.789  30.259  27.470  1.00  0.00     0.014 A 
ATOM     31  C   UNL A   1      36.252  29.631  29.738  1.00  0.00     0.014 A 
ATOM     32  C   UNL A   1      38.070  29.718  27.626  1.00  0.00     0.010 A 
ATOM     33  C   UNL A   1      37.558  29.194  29.927  1.00  0.00     0.010 A 
ATOM     34  C   UNL A   1      38.483  29.224  28.873  1.00  0.00    -0.014 A 
BRANCH  34  35
ATOM     35  C   UNL A   1      39.860  28.717  29.116  1.00  0.00     0.031 A 
ATOM     36  C   UNL A   1      40.912  29.649  29.660  1.00  0.00     0.074 A 
ATOM     37  C   UNL A   1      40.199  27.465  28.750  1.00  0.00     0.049 A 
ATOM     38  N   UNL A   1      42.203  29.466  29.777  1.00  0.00    -0.248 NA
ATOM     39  C   UNL A   1      40.455  30.980  30.093  1.00  0.00     0.031 C 
ATOM     40  C   UNL A   1      39.289  26.467  28.183  1.00  0.00     0.029 A 
ATOM     41  N   UNL A   1      41.412  26.823  28.783  1.00  0.00    -0.354 N 
ATOM     42  C   UNL A   1      42.712  30.667  30.256  1.00  0.00     0.074 A 
ATOM     43  C   UNL A   1      41.602  31.587  30.360  1.00  0.00     0.031 C 
ATOM     44  C   UNL A   1      39.970  25.336  27.943  1.00  0.00     0.029 A 
ATOM     45  C   UNL A   1      41.373  25.542  28.285  1.00  0.00     0.049 A 
ATOM     46  H   UNL A   1      42.233  27.241  29.131  1.00  0.00     0.167 HD
ATOM     47  C   UNL A   1      43.986  30.974  30.596  1.00  0.00     0.031 A 
ATOM     48  C   UNL A   1      42.358  24.642  28.106  1.00  0.00     0.031 A 
ATOM     49  C   UNL A   1      45.085  30.050  30.522  1.00  0.00     0.049 A 
ATOM     50  C   UNL A   1      43.768  25.007  28.484  1.00  0.00     0.074 A 
ATOM     51  C   UNL A   1      46.401  30.244  30.902  1.00  0.00     0.029 A 
ATOM     52  N   UNL A   1      44.993  28.754  30.039  1.00  0.00    -0.354 N 
ATOM     53  N   UNL A   1      44.224  26.130  28.982  1.00  0.00    -0.248 NA
ATOM     54  C   UNL A   1      44.797  23.977  28.281  1.00  0.00     0.031 C 
ATOM     55  C   UNL A   1      47.117  29.081  30.604  1.00  0.00     0.029 A 
ATOM     56  C   UNL A   1      46.233  28.143  30.094  1.00  0.00     0.049 A 
ATOM     57  H   UNL A   1      44.168  28.332  29.706  1.00  0.00     0.167 HD
ATOM     58  C   UNL A   1      45.583  25.929  29.188  1.00  0.00     0.074 A 
ATOM     59  C   UNL A   1      45.877  24.576  28.765  1.00  0.00     0.031 C 
ATOM     60  C   UNL A   1      46.504  26.789  29.687  1.00  0.00     0.031 A 
BRANCH  47  61
ATOM     61  C   UNL A   1      44.260  32.374  31.078  1.00  0.00    -0.014 A 
ATOM     62  C   UNL A   1      44.639  33.391  30.188  1.00  0.00     0.009 A 
ATOM     63  C   UNL A   1      44.103  32.686  32.438  1.00  0.00     0.009 A 
ATOM     64  C   UNL A   1      44.899  34.681  30.657  1.00  0.00     0.001 A 
ATOM     65  C   UNL A   1      44.331  33.984  32.898  1.00  0.00     0.001 A 
ATOM     66  C   UNL A   1      44.740  34.976  32.010  1.00  0.00     0.000 A 
ENDBRANCH  47  61
BRANCH  48  67
ATOM     67  C   UNL A   1      42.049  23.297  27.550  1.00  0.00    -0.014 A 
ATOM     68  C   UNL A   1      41.520  22.292  28.375  1.00  0.00     0.009 A 
ATOM     69  C   UNL A   1      42.284  23.007  26.197  1.00  0.00     0.009 A 
ATOM     70  C   UNL A   1      41.259  21.019  27.864  1.00  0.00     0.001 A 
ATOM     71  C   UNL A   1      41.994  21.742  25.681  1.00  0.00     0.001 A 
ATOM     72  C   UNL A   1      41.492  20.746  26.517  1.00  0.00     0.000 A 
ENDBRANCH  48  67
BRANCH  60  73
ATOM     73  C   UNL A   1      47.906  26.281  29.864  1.00  0.00    -0.014 A 
ATOM     74  C   UNL A   1      48.371  25.829  31.108  1.00  0.00     0.009 A 
ATOM     75  C   UNL A   1      48.751  26.186  28.745  1.00  0.00     0.009 A 
ATOM     76  C   UNL A   1      49.663  25.312  31.232  1.00  0.00     0.001 A 
ATOM     77  C   UNL A   1      50.029  25.641  28.866  1.00  0.00     0.001 A 
ATOM     78  C   UNL A   1      50.487  25.212  30.110  1.00  0.00     0.000 A 
ENDBRANCH  60  73
ENDBRANCH  34  35
ENDBRANCH  26  29
ENDBRANCH  24  25
ENDBRANCH  23  24
ENDBRANCH   1  23
TORSDOF 15
ENDMDL
