MODEL 1
REMARK VINA RESULT:     -11.6      0.000      0.000
REMARK SMILES Cc1cc(Br)cc2c1O[C@H](C(F)(F)F)C(C(=O)NCCCNC(=O)c1ccc(-c3c4nc(c(-c5ccccc5)c5ccc([nH]5)c(-c5ccccc5)c5nc(c(-c6ccccc6)c6ccc3[nH]6)C=C5)C=C4)cc1)=C2
REMARK SMILES IDX 20 1 19 2 18 3 16 4 17 5 15 7 1 8 2 9 3 10 8 11 4 12 7 13
REMARK SMILES IDX 9 14 5 15 6 16 73 17 10 18 11 19 12 20 13 21 14 22 21 23
REMARK SMILES IDX 22 24 23 25 24 27 25 28 26 29 72 30 27 31 71 32 28 33 29 34
REMARK SMILES IDX 30 35 65 36 31 37 70 38 64 39 66 40 32 41 69 42 63 43 62 44
REMARK SMILES IDX 33 46 55 47 40 48 54 49 41 50 44 51 53 52 67 53 42 54 43 55
REMARK SMILES IDX 52 57 68 58 45 59 34 60 35 61 39 62 36 63 38 64 37 65 56 66
REMARK SMILES IDX 57 67 61 68 58 69 60 70 59 71 46 72 47 73 51 74 48 75 50 76
REMARK SMILES IDX 49 77
REMARK H PARENT 18 6 22 26 66 45 44 56
REMARK Flexibility Score: inf
ROOT
ATOM      1  C   UNL A   1      33.965  28.229  24.899  1.00  0.00     0.042 C 
ENDROOT
BRANCH   1   2
ATOM      2  C   UNL A   1      32.683  27.651  24.323  1.00  0.00     0.118 C 
BRANCH   2   3
ATOM      3  N   UNL A   1      31.802  27.146  25.365  1.00  0.00    -0.352 N 
ATOM      4  C   UNL A   1      31.567  25.961  25.977  1.00  0.00     0.251 C 
ATOM      5  O   UNL A   1      30.688  25.984  26.844  1.00  0.00    -0.270 OA
ATOM      6  H   UNL A   1      31.220  27.855  25.719  1.00  0.00     0.163 HD
BRANCH   4   7
ATOM      7  C   UNL A   1      32.278  24.687  25.674  1.00  0.00     0.067 C 
ATOM      8  C   UNL A   1      33.605  19.827  24.643  1.00  0.00     0.048 C 
ATOM      9  C   UNL A   1      34.329  21.064  25.097  1.00  0.00    -0.007 A 
ATOM     10  C   UNL A   1      35.724  21.049  25.214  1.00  0.00     0.023 A 
ATOM     11  C   UNL A   1      33.649  22.264  25.339  1.00  0.00     0.130 A 
ATOM     12  C   UNL A   1      36.409  22.202  25.596  1.00  0.00     0.019 A 
ATOM     13  C   UNL A   1      34.334  23.423  25.724  1.00  0.00     0.019 A 
ATOM     14  O   UNL A   1      32.287  22.238  25.234  1.00  0.00    -0.475 OA
ATOM     15  Br  UNL A   1      38.292  22.155  25.765  1.00  0.00    -0.051 Br
ATOM     16  C   UNL A   1      35.723  23.389  25.855  1.00  0.00     0.027 A 
ATOM     17  C   UNL A   1      33.581  24.640  26.010  1.00  0.00     0.025 C 
ATOM     18  C   UNL A   1      31.631  23.509  25.009  1.00  0.00     0.314 C 
BRANCH  18  19
ATOM     19  C   UNL A   1      31.422  23.713  23.496  1.00  0.00     0.429 C 
ATOM     20  F   UNL A   1      32.351  24.572  23.006  1.00  0.00    -0.167 F 
ATOM     21  F   UNL A   1      31.555  22.564  22.791  1.00  0.00    -0.167 F 
ATOM     22  F   UNL A   1      30.204  24.216  23.198  1.00  0.00    -0.167 F 
ENDBRANCH  18  19
ENDBRANCH   4   7
ENDBRANCH   2   3
ENDBRANCH   1   2
BRANCH   1  23
ATOM     23  C   UNL A   1      33.869  28.428  26.404  1.00  0.00     0.118 C 
BRANCH  23  24
ATOM     24  N   UNL A   1      33.704  29.838  26.753  1.00  0.00    -0.352 N 
ATOM     25  C   UNL A   1      34.415  30.622  27.624  1.00  0.00     0.251 C 
ATOM     26  H   UNL A   1      32.967  30.296  26.288  1.00  0.00     0.163 HD
ATOM     27  O   UNL A   1      33.952  31.697  28.003  1.00  0.00    -0.269 OA
BRANCH  25  28
ATOM     28  C   UNL A   1      35.733  30.175  28.106  1.00  0.00     0.039 A 
ATOM     29  C   UNL A   1      35.857  29.668  29.401  1.00  0.00     0.014 A 
ATOM     30  C   UNL A   1      36.852  30.280  27.278  1.00  0.00     0.014 A 
ATOM     31  C   UNL A   1      37.099  29.208  29.840  1.00  0.00     0.010 A 
ATOM     32  C   UNL A   1      38.055  29.720  27.672  1.00  0.00     0.010 A 
ATOM     33  C   UNL A   1      38.198  29.202  28.965  1.00  0.00    -0.014 A 
BRANCH  33  34
ATOM     34  C   UNL A   1      39.523  28.700  29.391  1.00  0.00     0.031 A 
ATOM     35  C   UNL A   1      40.356  29.511  30.341  1.00  0.00     0.074 A 
ATOM     36  C   UNL A   1      39.992  27.546  28.884  1.00  0.00     0.049 A 
ATOM     37  N   UNL A   1      41.553  29.262  30.808  1.00  0.00    -0.248 NA
ATOM     38  C   UNL A   1      39.783  30.786  30.807  1.00  0.00     0.031 C 
ATOM     39  C   UNL A   1      39.285  26.690  27.930  1.00  0.00     0.029 A 
ATOM     40  N   UNL A   1      41.175  26.890  29.110  1.00  0.00    -0.354 N 
ATOM     41  C   UNL A   1      41.871  30.348  31.613  1.00  0.00     0.074 A 
ATOM     42  C   UNL A   1      40.784  31.293  31.507  1.00  0.00     0.031 C 
ATOM     43  C   UNL A   1      40.023  25.593  27.698  1.00  0.00     0.029 A 
ATOM     44  C   UNL A   1      41.271  25.692  28.448  1.00  0.00     0.049 A 
ATOM     45  H   UNL A   1      41.887  27.245  29.691  1.00  0.00     0.167 HD
ATOM     46  C   UNL A   1      42.957  30.528  32.402  1.00  0.00     0.031 A 
ATOM     47  C   UNL A   1      42.251  24.770  28.455  1.00  0.00     0.031 A 
ATOM     48  C   UNL A   1      44.036  29.585  32.503  1.00  0.00     0.049 A 
ATOM     49  C   UNL A   1      43.473  25.009  29.295  1.00  0.00     0.074 A 
ATOM     50  C   UNL A   1      45.168  29.652  33.293  1.00  0.00     0.029 A 
ATOM     51  N   UNL A   1      44.115  28.401  31.783  1.00  0.00    -0.354 N 
ATOM     52  N   UNL A   1      43.741  26.016  30.092  1.00  0.00    -0.248 NA
ATOM     53  C   UNL A   1      44.526  23.986  29.239  1.00  0.00     0.031 C 
ATOM     54  C   UNL A   1      45.961  28.535  33.009  1.00  0.00     0.029 A 
ATOM     55  C   UNL A   1      45.293  27.742  32.088  1.00  0.00     0.049 A 
ATOM     56  H   UNL A   1      43.435  28.079  31.148  1.00  0.00     0.167 HD
ATOM     57  C   UNL A   1      44.983  25.742  30.647  1.00  0.00     0.074 A 
ATOM     58  C   UNL A   1      45.408  24.465  30.106  1.00  0.00     0.031 C 
ATOM     59  C   UNL A   1      45.706  26.480  31.525  1.00  0.00     0.031 A 
BRANCH  46  60
ATOM     60  C   UNL A   1      43.012  31.794  33.212  1.00  0.00    -0.014 A 
ATOM     61  C   UNL A   1      42.453  31.855  34.500  1.00  0.00     0.009 A 
ATOM     62  C   UNL A   1      43.622  32.942  32.684  1.00  0.00     0.009 A 
ATOM     63  C   UNL A   1      42.460  33.051  35.220  1.00  0.00     0.001 A 
ATOM     64  C   UNL A   1      43.659  34.127  33.421  1.00  0.00     0.001 A 
ATOM     65  C   UNL A   1      43.067  34.185  34.682  1.00  0.00     0.000 A 
ENDBRANCH  46  60
BRANCH  47  66
ATOM     66  C   UNL A   1      42.073  23.513  27.684  1.00  0.00    -0.014 A 
ATOM     67  C   UNL A   1      42.514  23.437  26.355  1.00  0.00     0.009 A 
ATOM     68  C   UNL A   1      41.531  22.366  28.287  1.00  0.00     0.009 A 
ATOM     69  C   UNL A   1      42.417  22.238  25.645  1.00  0.00     0.001 A 
ATOM     70  C   UNL A   1      41.458  21.162  27.582  1.00  0.00     0.001 A 
ATOM     71  C   UNL A   1      41.899  21.101  26.261  1.00  0.00     0.000 A 
ENDBRANCH  47  66
BRANCH  59  72
ATOM     72  C   UNL A   1      47.033  25.932  31.964  1.00  0.00    -0.014 A 
ATOM     73  C   UNL A   1      48.199  26.179  31.222  1.00  0.00     0.009 A 
ATOM     74  C   UNL A   1      47.134  25.236  33.180  1.00  0.00     0.009 A 
ATOM     75  C   UNL A   1      49.436  25.725  31.680  1.00  0.00     0.001 A 
ATOM     76  C   UNL A   1      48.376  24.811  33.650  1.00  0.00     0.001 A 
ATOM     77  C   UNL A   1      49.525  25.050  32.898  1.00  0.00     0.000 A 
ENDBRANCH  59  72
ENDBRANCH  33  34
ENDBRANCH  25  28
ENDBRANCH  23  24
ENDBRANCH   1  23
TORSDOF 11
ENDMDL
MODEL 2
REMARK VINA RESULT:     -11.5      2.863      7.703
REMARK SMILES Cc1cc(Br)cc2c1O[C@H](C(F)(F)F)C(C(=O)NCCCNC(=O)c1ccc(-c3c4nc(c(-c5ccccc5)c5ccc([nH]5)c(-c5ccccc5)c5nc(c(-c6ccccc6)c6ccc3[nH]6)C=C5)C=C4)cc1)=C2
REMARK SMILES IDX 20 1 19 2 18 3 16 4 17 5 15 7 1 8 2 9 3 10 8 11 4 12 7 13
REMARK SMILES IDX 9 14 5 15 6 16 73 17 10 18 11 19 12 20 13 21 14 22 21 23
REMARK SMILES IDX 22 24 23 25 24 27 25 28 26 29 72 30 27 31 71 32 28 33 29 34
REMARK SMILES IDX 30 35 65 36 31 37 70 38 64 39 66 40 32 41 69 42 63 43 62 44
REMARK SMILES IDX 33 46 55 47 40 48 54 49 41 50 44 51 53 52 67 53 42 54 43 55
REMARK SMILES IDX 52 57 68 58 45 59 34 60 35 61 39 62 36 63 38 64 37 65 56 66
REMARK SMILES IDX 57 67 61 68 58 69 60 70 59 71 46 72 47 73 51 74 48 75 50 76
REMARK SMILES IDX 49 77
REMARK H PARENT 18 6 22 26 66 45 44 56
REMARK Flexibility Score: inf
ROOT
ATOM      1  C   UNL A   1      35.510  23.475  26.155  1.00  0.00     0.042 C 
ENDROOT
BRANCH   1   2
ATOM      2  C   UNL A   1      34.288  22.841  25.510  1.00  0.00     0.118 C 
BRANCH   2   3
ATOM      3  N   UNL A   1      34.301  22.991  24.063  1.00  0.00    -0.352 N 
ATOM      4  C   UNL A   1      33.883  23.905  23.156  1.00  0.00     0.251 C 
ATOM      5  O   UNL A   1      34.106  23.614  21.977  1.00  0.00    -0.270 OA
ATOM      6  H   UNL A   1      34.729  22.220  23.625  1.00  0.00     0.163 HD
BRANCH   4   7
ATOM      7  C   UNL A   1      33.199  25.187  23.489  1.00  0.00     0.067 C 
ATOM      8  C   UNL A   1      30.214  29.373  23.614  1.00  0.00     0.048 C 
ATOM      9  C   UNL A   1      31.480  28.936  24.298  1.00  0.00    -0.007 A 
ATOM     10  C   UNL A   1      32.033  29.731  25.310  1.00  0.00     0.023 A 
ATOM     11  C   UNL A   1      32.088  27.709  24.001  1.00  0.00     0.130 A 
ATOM     12  C   UNL A   1      33.184  29.316  25.978  1.00  0.00     0.019 A 
ATOM     13  C   UNL A   1      33.245  27.291  24.670  1.00  0.00     0.019 A 
ATOM     14  O   UNL A   1      31.533  26.969  22.997  1.00  0.00    -0.475 OA
ATOM     15  Br  UNL A   1      33.925  30.413  27.328  1.00  0.00    -0.051 Br
ATOM     16  C   UNL A   1      33.796  28.102  25.663  1.00  0.00     0.027 A 
ATOM     17  C   UNL A   1      33.871  26.027  24.297  1.00  0.00     0.025 C 
ATOM     18  C   UNL A   1      31.829  25.552  22.999  1.00  0.00     0.314 C 
BRANCH  18  19
ATOM     19  C   UNL A   1      30.707  24.798  23.739  1.00  0.00     0.429 C 
ATOM     20  F   UNL A   1      31.123  24.436  24.978  1.00  0.00    -0.167 F 
ATOM     21  F   UNL A   1      29.597  25.556  23.915  1.00  0.00    -0.167 F 
ATOM     22  F   UNL A   1      30.315  23.676  23.096  1.00  0.00    -0.167 F 
ENDBRANCH  18  19
ENDBRANCH   4   7
ENDBRANCH   2   3
ENDBRANCH   1   2
BRANCH   1  23
ATOM     23  C   UNL A   1      36.704  23.486  25.213  1.00  0.00     0.118 C 
BRANCH  23  24
ATOM     24  N   UNL A   1      37.724  22.524  25.623  1.00  0.00    -0.352 N 
ATOM     25  C   UNL A   1      38.962  22.728  26.176  1.00  0.00     0.251 C 
ATOM     26  H   UNL A   1      37.485  21.579  25.480  1.00  0.00     0.163 HD
ATOM     27  O   UNL A   1      39.791  21.821  26.184  1.00  0.00    -0.269 OA
BRANCH  25  28
ATOM     28  C   UNL A   1      39.296  24.039  26.761  1.00  0.00     0.039 A 
ATOM     29  C   UNL A   1      38.909  24.327  28.072  1.00  0.00     0.014 A 
ATOM     30  C   UNL A   1      39.974  24.992  25.999  1.00  0.00     0.014 A 
ATOM     31  C   UNL A   1      39.261  25.553  28.635  1.00  0.00     0.010 A 
ATOM     32  C   UNL A   1      40.421  26.159  26.595  1.00  0.00     0.010 A 
ATOM     33  C   UNL A   1      40.047  26.463  27.909  1.00  0.00    -0.014 A 
BRANCH  33  34
ATOM     34  C   UNL A   1      40.458  27.762  28.486  1.00  0.00     0.031 A 
ATOM     35  C   UNL A   1      41.890  27.980  28.884  1.00  0.00     0.074 A 
ATOM     36  C   UNL A   1      39.537  28.719  28.697  1.00  0.00     0.049 A 
ATOM     37  N   UNL A   1      42.442  29.031  29.433  1.00  0.00    -0.248 NA
ATOM     38  C   UNL A   1      42.821  26.860  28.661  1.00  0.00     0.031 C 
ATOM     39  C   UNL A   1      38.112  28.608  28.380  1.00  0.00     0.029 A 
ATOM     40  N   UNL A   1      39.666  29.979  29.221  1.00  0.00    -0.354 N 
ATOM     41  C   UNL A   1      43.776  28.693  29.625  1.00  0.00     0.074 A 
ATOM     42  C   UNL A   1      43.932  27.318  29.212  1.00  0.00     0.031 C 
ATOM     43  C   UNL A   1      37.510  29.774  28.662  1.00  0.00     0.029 A 
ATOM     44  C   UNL A   1      38.494  30.694  29.221  1.00  0.00     0.049 A 
ATOM     45  H   UNL A   1      40.517  30.337  29.565  1.00  0.00     0.167 HD
ATOM     46  C   UNL A   1      44.791  29.470  30.071  1.00  0.00     0.031 A 
ATOM     47  C   UNL A   1      38.245  31.956  29.617  1.00  0.00     0.031 A 
ATOM     48  C   UNL A   1      44.630  30.837  30.482  1.00  0.00     0.049 A 
ATOM     49  C   UNL A   1      39.372  32.788  30.159  1.00  0.00     0.074 A 
ATOM     50  C   UNL A   1      45.593  31.726  30.920  1.00  0.00     0.029 A 
ATOM     51  N   UNL A   1      43.417  31.512  30.506  1.00  0.00    -0.354 N 
ATOM     52  N   UNL A   1      40.640  32.474  30.288  1.00  0.00    -0.248 NA
ATOM     53  C   UNL A   1      39.037  34.145  30.607  1.00  0.00     0.031 C 
ATOM     54  C   UNL A   1      44.956  32.921  31.265  1.00  0.00     0.029 A 
ATOM     55  C   UNL A   1      43.604  32.798  30.982  1.00  0.00     0.049 A 
ATOM     56  H   UNL A   1      42.553  31.132  30.228  1.00  0.00     0.167 HD
ATOM     57  C   UNL A   1      41.258  33.599  30.815  1.00  0.00     0.074 A 
ATOM     58  C   UNL A   1      40.227  34.609  30.966  1.00  0.00     0.031 C 
ATOM     59  C   UNL A   1      42.561  33.781  31.142  1.00  0.00     0.031 A 
BRANCH  46  60
ATOM     60  C   UNL A   1      46.157  28.845  30.127  1.00  0.00    -0.014 A 
ATOM     61  C   UNL A   1      47.022  28.891  29.020  1.00  0.00     0.009 A 
ATOM     62  C   UNL A   1      46.587  28.195  31.294  1.00  0.00     0.009 A 
ATOM     63  C   UNL A   1      48.266  28.260  29.065  1.00  0.00     0.001 A 
ATOM     64  C   UNL A   1      47.846  27.594  31.348  1.00  0.00     0.001 A 
ATOM     65  C   UNL A   1      48.679  27.614  30.229  1.00  0.00     0.000 A 
ENDBRANCH  46  60
BRANCH  47  66
ATOM     66  C   UNL A   1      36.879  32.514  29.450  1.00  0.00    -0.014 A 
ATOM     67  C   UNL A   1      35.935  32.376  30.477  1.00  0.00     0.009 A 
ATOM     68  C   UNL A   1      36.533  33.245  28.302  1.00  0.00     0.009 A 
ATOM     69  C   UNL A   1      34.671  32.959  30.360  1.00  0.00     0.001 A 
ATOM     70  C   UNL A   1      35.277  33.848  28.199  1.00  0.00     0.001 A 
ATOM     71  C   UNL A   1      34.347  33.703  29.227  1.00  0.00     0.000 A 
ENDBRANCH  47  66
BRANCH  59  72
ATOM     72  C   UNL A   1      42.957  35.120  31.697  1.00  0.00    -0.014 A 
ATOM     73  C   UNL A   1      42.870  35.387  33.072  1.00  0.00     0.009 A 
ATOM     74  C   UNL A   1      43.504  36.094  30.847  1.00  0.00     0.009 A 
ATOM     75  C   UNL A   1      43.310  36.609  33.582  1.00  0.00     0.001 A 
ATOM     76  C   UNL A   1      43.970  37.303  31.364  1.00  0.00     0.001 A 
ATOM     77  C   UNL A   1      43.868  37.562  32.729  1.00  0.00     0.000 A 
ENDBRANCH  59  72
ENDBRANCH  33  34
ENDBRANCH  25  28
ENDBRANCH  23  24
ENDBRANCH   1  23
TORSDOF 11
ENDMDL
MODEL 3
REMARK VINA RESULT:     -11.5      2.652      7.505
REMARK SMILES Cc1cc(Br)cc2c1O[C@H](C(F)(F)F)C(C(=O)NCCCNC(=O)c1ccc(-c3c4nc(c(-c5ccccc5)c5ccc([nH]5)c(-c5ccccc5)c5nc(c(-c6ccccc6)c6ccc3[nH]6)C=C5)C=C4)cc1)=C2
REMARK SMILES IDX 20 1 19 2 18 3 16 4 17 5 15 7 1 8 2 9 3 10 8 11 4 12 7 13
REMARK SMILES IDX 9 14 5 15 6 16 73 17 10 18 11 19 12 20 13 21 14 22 21 23
REMARK SMILES IDX 22 24 23 25 24 27 25 28 26 29 72 30 27 31 71 32 28 33 29 34
REMARK SMILES IDX 30 35 65 36 31 37 70 38 64 39 66 40 32 41 69 42 63 43 62 44
REMARK SMILES IDX 33 46 55 47 40 48 54 49 41 50 44 51 53 52 67 53 42 54 43 55
REMARK SMILES IDX 52 57 68 58 45 59 34 60 35 61 39 62 36 63 38 64 37 65 56 66
REMARK SMILES IDX 57 67 61 68 58 69 60 70 59 71 46 72 47 73 51 74 48 75 50 76
REMARK SMILES IDX 49 77
REMARK H PARENT 18 6 22 26 66 45 44 56
REMARK Flexibility Score: inf
ROOT
ATOM      1  C   UNL A   1      37.760  19.507  24.947  1.00  0.00     0.042 C 
ENDROOT
BRANCH   1   2
ATOM      2  C   UNL A   1      36.646  20.490  24.627  1.00  0.00     0.118 C 
BRANCH   2   3
ATOM      3  N   UNL A   1      35.767  20.700  25.766  1.00  0.00    -0.352 N 
ATOM      4  C   UNL A   1      34.817  21.591  26.136  1.00  0.00     0.251 C 
ATOM      5  O   UNL A   1      34.303  21.382  27.240  1.00  0.00    -0.270 OA
ATOM      6  H   UNL A   1      35.898  20.009  26.455  1.00  0.00     0.163 HD
BRANCH   4   7
ATOM      7  C   UNL A   1      34.378  22.759  25.321  1.00  0.00     0.067 C 
ATOM      8  C   UNL A   1      33.074  26.033  21.576  1.00  0.00     0.048 C 
ATOM      9  C   UNL A   1      33.407  26.151  23.037  1.00  0.00    -0.007 A 
ATOM     10  C   UNL A   1      33.276  27.388  23.682  1.00  0.00     0.023 A 
ATOM     11  C   UNL A   1      33.779  25.035  23.797  1.00  0.00     0.130 A 
ATOM     12  C   UNL A   1      33.544  27.500  25.046  1.00  0.00     0.019 A 
ATOM     13  C   UNL A   1      34.050  25.145  25.167  1.00  0.00     0.019 A 
ATOM     14  O   UNL A   1      33.916  23.849  23.133  1.00  0.00    -0.475 OA
ATOM     15  Br  UNL A   1      33.378  29.182  25.893  1.00  0.00    -0.051 Br
ATOM     16  C   UNL A   1      33.934  26.387  25.792  1.00  0.00     0.027 A 
ATOM     17  C   UNL A   1      34.479  23.965  25.910  1.00  0.00     0.025 C 
ATOM     18  C   UNL A   1      33.825  22.646  23.932  1.00  0.00     0.314 C 
BRANCH  18  19
ATOM     19  C   UNL A   1      32.375  22.124  23.904  1.00  0.00     0.429 C 
ATOM     20  F   UNL A   1      31.751  22.534  22.771  1.00  0.00    -0.167 F 
ATOM     21  F   UNL A   1      32.307  20.771  23.910  1.00  0.00    -0.167 F 
ATOM     22  F   UNL A   1      31.642  22.556  24.953  1.00  0.00    -0.167 F 
ENDBRANCH  18  19
ENDBRANCH   4   7
ENDBRANCH   2   3
ENDBRANCH   1   2
BRANCH   1  23
ATOM     23  C   UNL A   1      38.888  20.166  25.726  1.00  0.00     0.118 C 
BRANCH  23  24
ATOM     24  N   UNL A   1      40.062  19.299  25.813  1.00  0.00    -0.352 N 
ATOM     25  C   UNL A   1      41.380  19.613  26.025  1.00  0.00     0.251 C 
ATOM     26  H   UNL A   1      39.877  18.339  25.701  1.00  0.00     0.163 HD
ATOM     27  O   UNL A   1      42.257  18.789  25.777  1.00  0.00    -0.269 OA
BRANCH  25  28
ATOM     28  C   UNL A   1      41.741  20.941  26.552  1.00  0.00     0.039 A 
ATOM     29  C   UNL A   1      42.188  21.932  25.675  1.00  0.00     0.014 A 
ATOM     30  C   UNL A   1      41.657  21.195  27.922  1.00  0.00     0.014 A 
ATOM     31  C   UNL A   1      42.491  23.199  26.173  1.00  0.00     0.010 A 
ATOM     32  C   UNL A   1      41.848  22.482  28.397  1.00  0.00     0.010 A 
ATOM     33  C   UNL A   1      42.291  23.490  27.532  1.00  0.00    -0.014 A 
BRANCH  33  34
ATOM     34  C   UNL A   1      42.581  24.830  28.087  1.00  0.00     0.031 A 
ATOM     35  C   UNL A   1      43.989  25.191  28.466  1.00  0.00     0.074 A 
ATOM     36  C   UNL A   1      41.573  25.696  28.296  1.00  0.00     0.049 A 
ATOM     37  N   UNL A   1      44.442  26.298  28.996  1.00  0.00    -0.248 NA
ATOM     38  C   UNL A   1      45.021  24.162  28.249  1.00  0.00     0.031 C 
ATOM     39  C   UNL A   1      40.163  25.444  27.996  1.00  0.00     0.029 A 
ATOM     40  N   UNL A   1      41.586  26.971  28.802  1.00  0.00    -0.354 N 
ATOM     41  C   UNL A   1      45.804  26.092  29.177  1.00  0.00     0.074 A 
ATOM     42  C   UNL A   1      46.088  24.733  28.781  1.00  0.00     0.031 C 
ATOM     43  C   UNL A   1      39.454  26.550  28.269  1.00  0.00     0.029 A 
ATOM     44  C   UNL A   1      40.350  27.569  28.806  1.00  0.00     0.049 A 
ATOM     45  H   UNL A   1      42.401  27.413  29.132  1.00  0.00     0.167 HD
ATOM     46  C   UNL A   1      46.743  26.970  29.602  1.00  0.00     0.031 A 
ATOM     47  C   UNL A   1      39.984  28.806  29.187  1.00  0.00     0.031 A 
ATOM     48  C   UNL A   1      46.455  28.321  29.997  1.00  0.00     0.049 A 
ATOM     49  C   UNL A   1      41.031  29.751  29.706  1.00  0.00     0.074 A 
ATOM     50  C   UNL A   1      47.333  29.304  30.413  1.00  0.00     0.029 A 
ATOM     51  N   UNL A   1      45.183  28.876  30.026  1.00  0.00    -0.354 N 
ATOM     52  N   UNL A   1      42.324  29.563  29.825  1.00  0.00    -0.248 NA
ATOM     53  C   UNL A   1      40.570  31.076  30.140  1.00  0.00     0.031 C 
ATOM     54  C   UNL A   1      46.586  30.438  30.749  1.00  0.00     0.029 A 
ATOM     55  C   UNL A   1      45.249  30.180  30.482  1.00  0.00     0.049 A 
ATOM     56  H   UNL A   1      44.357  28.411  29.762  1.00  0.00     0.167 HD
ATOM     57  C   UNL A   1      42.836  30.750  30.330  1.00  0.00     0.074 A 
ATOM     58  C   UNL A   1      41.714  31.657  30.480  1.00  0.00     0.031 C 
ATOM     59  C   UNL A   1      44.118  31.061  30.641  1.00  0.00     0.031 A 
BRANCH  46  60
ATOM     60  C   UNL A   1      48.164  26.480  29.652  1.00  0.00    -0.014 A 
ATOM     61  C   UNL A   1      48.677  25.859  30.805  1.00  0.00     0.009 A 
ATOM     62  C   UNL A   1      49.006  26.644  28.541  1.00  0.00     0.009 A 
ATOM     63  C   UNL A   1      50.013  25.459  30.860  1.00  0.00     0.001 A 
ATOM     64  C   UNL A   1      50.332  26.210  28.588  1.00  0.00     0.001 A 
ATOM     65  C   UNL A   1      50.838  25.632  29.751  1.00  0.00     0.000 A 
ENDBRANCH  46  60
BRANCH  47  66
ATOM     66  C   UNL A   1      38.569  29.228  29.028  1.00  0.00    -0.014 A 
ATOM     67  C   UNL A   1      37.694  29.176  30.123  1.00  0.00     0.009 A 
ATOM     68  C   UNL A   1      38.103  29.749  27.809  1.00  0.00     0.009 A 
ATOM     69  C   UNL A   1      36.381  29.638  30.002  1.00  0.00     0.001 A 
ATOM     70  C   UNL A   1      36.797  30.233  27.700  1.00  0.00     0.001 A 
ATOM     71  C   UNL A   1      35.937  30.174  28.796  1.00  0.00     0.000 A 
ENDBRANCH  47  66
BRANCH  59  72
ATOM     72  C   UNL A   1      44.388  32.439  31.174  1.00  0.00    -0.014 A 
ATOM     73  C   UNL A   1      44.686  33.504  30.309  1.00  0.00     0.009 A 
ATOM     74  C   UNL A   1      44.256  32.694  32.548  1.00  0.00     0.009 A 
ATOM     75  C   UNL A   1      44.863  34.793  30.813  1.00  0.00     0.001 A 
ATOM     76  C   UNL A   1      44.403  33.989  33.045  1.00  0.00     0.001 A 
ATOM     77  C   UNL A   1      44.712  35.036  32.178  1.00  0.00     0.000 A 
ENDBRANCH  59  72
ENDBRANCH  33  34
ENDBRANCH  25  28
ENDBRANCH  23  24
ENDBRANCH   1  23
TORSDOF 11
ENDMDL
