MODEL 1
REMARK VINA RESULT:     -11.1      0.000      0.000
REMARK SMILES Cc1ncccc1C(=O)N1CC[C@H](C(=O)NCCCNC(=O)c2ccc(-c3c4nc(c(-c5ccccc5)c5ccc([nH]5)c(-c5ccccc5)c5nc(c(-c6ccccc6)c6ccc3[nH]6)C=C5)C=C4)cc2)C1
REMARK SMILES IDX 18 1 17 2 16 3 14 4 15 5 13 7 10 8 11 9 71 10 12 11 8 12
REMARK SMILES IDX 9 13 7 14 1 15 2 16 3 17 4 18 6 19 5 20 19 21 20 22 21 23
REMARK SMILES IDX 22 25 23 26 24 27 70 28 25 29 69 30 26 31 27 32 28 33 63 34
REMARK SMILES IDX 29 35 68 36 62 37 64 38 30 39 67 40 61 41 60 42 31 44 53 45
REMARK SMILES IDX 38 46 52 47 39 48 42 49 51 50 65 51 40 52 41 53 50 55 66 56
REMARK SMILES IDX 43 57 32 58 33 59 37 60 34 61 36 62 35 63 54 64 55 65 59 66
REMARK SMILES IDX 56 67 58 68 57 69 44 70 45 71 49 72 46 73 48 74 47 75
REMARK H PARENT 16 6 20 24 64 43 42 54
REMARK Flexibility Score: inf
ROOT
ATOM      1  C   UNL A   1      33.027  28.936  24.784  1.00  0.00     0.042 C 
ENDROOT
BRANCH   1   2
ATOM      2  C   UNL A   1      31.594  29.446  24.863  1.00  0.00     0.117 C 
BRANCH   2   3
ATOM      3  N   UNL A   1      31.060  29.814  23.561  1.00  0.00    -0.356 N 
ATOM      4  C   UNL A   1      30.407  29.115  22.599  1.00  0.00     0.224 C 
ATOM      5  O   UNL A   1      30.058  29.761  21.603  1.00  0.00    -0.275 OA
ATOM      6  H   UNL A   1      31.200  30.761  23.334  1.00  0.00     0.163 HD
BRANCH   4   7
ATOM      7  C   UNL A   1      30.140  27.615  22.639  1.00  0.00     0.099 C 
ATOM      8  N   UNL A   1      30.784  26.086  24.319  1.00  0.00    -0.338 N 
ATOM      9  C   UNL A   1      31.295  25.537  23.082  1.00  0.00     0.120 C 
ATOM     10  C   UNL A   1      29.737  27.052  23.997  1.00  0.00     0.133 C 
ATOM     11  C   UNL A   1      31.326  26.758  22.166  1.00  0.00     0.037 C 
BRANCH   8  12
ATOM     12  C   UNL A   1      31.054  25.807  25.644  1.00  0.00     0.255 C 
ATOM     13  O   UNL A   1      30.480  26.470  26.518  1.00  0.00    -0.269 OA
BRANCH  12  14
ATOM     14  C   UNL A   1      32.062  24.817  26.137  1.00  0.00     0.061 A 
ATOM     15  C   UNL A   1      30.539  22.848  26.816  1.00  0.00     0.067 C 
ATOM     16  C   UNL A   1      31.854  23.492  26.541  1.00  0.00     0.050 A 
ATOM     17  N   UNL A   1      32.883  22.604  26.711  1.00  0.00    -0.261 NA
ATOM     18  C   UNL A   1      34.137  23.001  26.428  1.00  0.00     0.111 A 
ATOM     19  C   UNL A   1      33.403  25.191  25.900  1.00  0.00     0.017 A 
ATOM     20  C   UNL A   1      34.448  24.281  26.032  1.00  0.00     0.021 A 
ENDBRANCH  12  14
ENDBRANCH   8  12
ENDBRANCH   4   7
ENDBRANCH   2   3
ENDBRANCH   1   2
BRANCH   1  21
ATOM     21  C   UNL A   1      33.795  28.991  26.096  1.00  0.00     0.118 C 
BRANCH  21  22
ATOM     22  N   UNL A   1      33.693  30.290  26.742  1.00  0.00    -0.352 N 
ATOM     23  C   UNL A   1      34.476  30.880  27.702  1.00  0.00     0.251 C 
ATOM     24  H   UNL A   1      32.934  30.839  26.439  1.00  0.00     0.163 HD
ATOM     25  O   UNL A   1      34.075  31.913  28.244  1.00  0.00    -0.269 OA
BRANCH  23  26
ATOM     26  C   UNL A   1      35.784  30.313  28.108  1.00  0.00     0.039 A 
ATOM     27  C   UNL A   1      35.900  29.738  29.379  1.00  0.00     0.014 A 
ATOM     28  C   UNL A   1      36.915  30.411  27.295  1.00  0.00     0.014 A 
ATOM     29  C   UNL A   1      37.129  29.230  29.814  1.00  0.00     0.010 A 
ATOM     30  C   UNL A   1      38.117  29.828  27.692  1.00  0.00     0.010 A 
ATOM     31  C   UNL A   1      38.245  29.252  28.965  1.00  0.00    -0.014 A 
BRANCH  31  32
ATOM     32  C   UNL A   1      39.567  28.731  29.402  1.00  0.00     0.031 A 
ATOM     33  C   UNL A   1      40.439  29.561  30.308  1.00  0.00     0.074 A 
ATOM     34  C   UNL A   1      40.014  27.546  28.944  1.00  0.00     0.049 A 
ATOM     35  N   UNL A   1      41.660  29.328  30.723  1.00  0.00    -0.248 NA
ATOM     36  C   UNL A   1      39.877  30.834  30.788  1.00  0.00     0.031 C 
ATOM     37  C   UNL A   1      39.286  26.654  28.039  1.00  0.00     0.029 A 
ATOM     38  N   UNL A   1      41.199  26.892  29.174  1.00  0.00    -0.354 N 
ATOM     39  C   UNL A   1      42.020  30.436  31.480  1.00  0.00     0.074 A 
ATOM     40  C   UNL A   1      40.906  31.359  31.435  1.00  0.00     0.031 C 
ATOM     41  C   UNL A   1      40.030  25.560  27.811  1.00  0.00     0.029 A 
ATOM     42  C   UNL A   1      41.300  25.690  28.518  1.00  0.00     0.049 A 
ATOM     43  H   UNL A   1      41.910  27.252  29.753  1.00  0.00     0.167 HD
ATOM     44  C   UNL A   1      43.164  30.663  32.168  1.00  0.00     0.031 A 
ATOM     45  C   UNL A   1      42.305  24.794  28.485  1.00  0.00     0.031 A 
ATOM     46  C   UNL A   1      44.261  29.736  32.246  1.00  0.00     0.049 A 
ATOM     47  C   UNL A   1      43.561  25.061  29.266  1.00  0.00     0.074 A 
ATOM     48  C   UNL A   1      45.438  29.850  32.966  1.00  0.00     0.029 A 
ATOM     49  N   UNL A   1      44.310  28.519  31.586  1.00  0.00    -0.354 N 
ATOM     50  N   UNL A   1      43.864  26.093  30.014  1.00  0.00    -0.248 NA
ATOM     51  C   UNL A   1      44.609  24.032  29.204  1.00  0.00     0.031 C 
ATOM     52  C   UNL A   1      46.216  28.715  32.712  1.00  0.00     0.029 A 
ATOM     53  C   UNL A   1      45.504  27.877  31.870  1.00  0.00     0.049 A 
ATOM     54  H   UNL A   1      43.603  28.163  31.001  1.00  0.00     0.167 HD
ATOM     55  C   UNL A   1      45.125  25.826  30.534  1.00  0.00     0.074 A 
ATOM     56  C   UNL A   1      45.523  24.530  30.026  1.00  0.00     0.031 C 
ATOM     57  C   UNL A   1      45.883  26.587  31.360  1.00  0.00     0.031 A 
BRANCH  44  58
ATOM     58  C   UNL A   1      43.287  31.975  32.891  1.00  0.00    -0.014 A 
ATOM     59  C   UNL A   1      42.806  32.132  34.200  1.00  0.00     0.009 A 
ATOM     60  C   UNL A   1      43.915  33.062  32.261  1.00  0.00     0.009 A 
ATOM     61  C   UNL A   1      42.917  33.363  34.851  1.00  0.00     0.001 A 
ATOM     62  C   UNL A   1      44.048  34.283  32.925  1.00  0.00     0.001 A 
ATOM     63  C   UNL A   1      43.540  34.436  34.214  1.00  0.00     0.000 A 
ENDBRANCH  44  58
BRANCH  45  64
ATOM     64  C   UNL A   1      42.159  23.544  27.697  1.00  0.00    -0.014 A 
ATOM     65  C   UNL A   1      42.578  23.497  26.359  1.00  0.00     0.009 A 
ATOM     66  C   UNL A   1      41.596  22.395  28.274  1.00  0.00     0.009 A 
ATOM     67  C   UNL A   1      42.415  22.331  25.607  1.00  0.00     0.001 A 
ATOM     68  C   UNL A   1      41.458  21.224  27.527  1.00  0.00     0.001 A 
ATOM     69  C   UNL A   1      41.859  21.195  26.192  1.00  0.00     0.000 A 
ENDBRANCH  45  64
BRANCH  57  70
ATOM     70  C   UNL A   1      47.204  26.019  31.796  1.00  0.00    -0.014 A 
ATOM     71  C   UNL A   1      48.354  26.166  31.008  1.00  0.00     0.009 A 
ATOM     72  C   UNL A   1      47.302  25.365  33.033  1.00  0.00     0.009 A 
ATOM     73  C   UNL A   1      49.574  25.641  31.438  1.00  0.00     0.001 A 
ATOM     74  C   UNL A   1      48.528  24.862  33.472  1.00  0.00     0.001 A 
ATOM     75  C   UNL A   1      49.661  24.993  32.670  1.00  0.00     0.000 A 
ENDBRANCH  57  70
ENDBRANCH  31  32
ENDBRANCH  23  26
ENDBRANCH  21  22
ENDBRANCH   1  21
TORSDOF 12
ENDMDL
MODEL 2
REMARK VINA RESULT:     -10.9      2.837      7.528
REMARK SMILES Cc1ncccc1C(=O)N1CC[C@H](C(=O)NCCCNC(=O)c2ccc(-c3c4nc(c(-c5ccccc5)c5ccc([nH]5)c(-c5ccccc5)c5nc(c(-c6ccccc6)c6ccc3[nH]6)C=C5)C=C4)cc2)C1
REMARK SMILES IDX 18 1 17 2 16 3 14 4 15 5 13 7 10 8 11 9 71 10 12 11 8 12
REMARK SMILES IDX 9 13 7 14 1 15 2 16 3 17 4 18 6 19 5 20 19 21 20 22 21 23
REMARK SMILES IDX 22 25 23 26 24 27 70 28 25 29 69 30 26 31 27 32 28 33 63 34
REMARK SMILES IDX 29 35 68 36 62 37 64 38 30 39 67 40 61 41 60 42 31 44 53 45
REMARK SMILES IDX 38 46 52 47 39 48 42 49 51 50 65 51 40 52 41 53 50 55 66 56
REMARK SMILES IDX 43 57 32 58 33 59 37 60 34 61 36 62 35 63 54 64 55 65 59 66
REMARK SMILES IDX 56 67 58 68 57 69 44 70 45 71 49 72 46 73 48 74 47 75
REMARK H PARENT 16 6 20 24 64 43 42 54
REMARK Flexibility Score: inf
ROOT
ATOM      1  C   UNL A   1      37.691  19.856  24.600  1.00  0.00     0.042 C 
ENDROOT
BRANCH   1   2
ATOM      2  C   UNL A   1      36.236  19.796  25.048  1.00  0.00     0.117 C 
BRANCH   2   3
ATOM      3  N   UNL A   1      35.800  21.022  25.696  1.00  0.00    -0.356 N 
ATOM      4  C   UNL A   1      34.987  22.036  25.306  1.00  0.00     0.224 C 
ATOM      5  O   UNL A   1      34.801  22.933  26.137  1.00  0.00    -0.275 OA
ATOM      6  H   UNL A   1      36.169  21.140  26.601  1.00  0.00     0.163 HD
BRANCH   4   7
ATOM      7  C   UNL A   1      34.357  22.167  23.923  1.00  0.00     0.099 C 
ATOM      8  N   UNL A   1      33.431  24.105  22.944  1.00  0.00    -0.338 N 
ATOM      9  C   UNL A   1      32.396  23.099  22.860  1.00  0.00     0.120 C 
ATOM     10  C   UNL A   1      34.711  23.434  23.153  1.00  0.00     0.133 C 
ATOM     11  C   UNL A   1      32.821  22.096  23.929  1.00  0.00     0.037 C 
BRANCH   8  12
ATOM     12  C   UNL A   1      33.411  25.478  22.794  1.00  0.00     0.255 C 
ATOM     13  O   UNL A   1      33.849  25.965  21.744  1.00  0.00    -0.269 OA
BRANCH  12  14
ATOM     14  C   UNL A   1      32.981  26.462  23.837  1.00  0.00     0.061 A 
ATOM     15  C   UNL A   1      30.831  27.411  22.773  1.00  0.00     0.067 C 
ATOM     16  C   UNL A   1      31.804  27.220  23.885  1.00  0.00     0.050 A 
ATOM     17  N   UNL A   1      31.397  27.876  25.015  1.00  0.00    -0.261 NA
ATOM     18  C   UNL A   1      32.123  27.745  26.141  1.00  0.00     0.111 A 
ATOM     19  C   UNL A   1      33.728  26.397  25.033  1.00  0.00     0.017 A 
ATOM     20  C   UNL A   1      33.296  27.029  26.197  1.00  0.00     0.021 A 
ENDBRANCH  12  14
ENDBRANCH   8  12
ENDBRANCH   4   7
ENDBRANCH   2   3
ENDBRANCH   1   2
BRANCH   1  21
ATOM     21  C   UNL A   1      38.672  20.280  25.683  1.00  0.00     0.118 C 
BRANCH  21  22
ATOM     22  N   UNL A   1      39.818  19.388  25.772  1.00  0.00    -0.352 N 
ATOM     23  C   UNL A   1      41.133  19.641  26.068  1.00  0.00     0.251 C 
ATOM     24  H   UNL A   1      39.615  18.442  25.587  1.00  0.00     0.163 HD
ATOM     25  O   UNL A   1      41.966  18.750  25.885  1.00  0.00    -0.269 OA
BRANCH  23  26
ATOM     26  C   UNL A   1      41.581  20.950  26.599  1.00  0.00     0.039 A 
ATOM     27  C   UNL A   1      41.588  21.145  27.985  1.00  0.00     0.014 A 
ATOM     28  C   UNL A   1      41.913  22.013  25.757  1.00  0.00     0.014 A 
ATOM     29  C   UNL A   1      41.964  22.381  28.522  1.00  0.00     0.010 A 
ATOM     30  C   UNL A   1      42.371  23.217  26.292  1.00  0.00     0.010 A 
ATOM     31  C   UNL A   1      42.379  23.423  27.679  1.00  0.00    -0.014 A 
BRANCH  31  32
ATOM     32  C   UNL A   1      42.773  24.751  28.219  1.00  0.00     0.031 A 
ATOM     33  C   UNL A   1      41.727  25.811  28.444  1.00  0.00     0.074 A 
ATOM     34  C   UNL A   1      44.070  25.031  28.451  1.00  0.00     0.049 A 
ATOM     35  N   UNL A   1      41.878  27.058  28.814  1.00  0.00    -0.248 NA
ATOM     36  C   UNL A   1      40.328  25.427  28.191  1.00  0.00     0.031 C 
ATOM     37  C   UNL A   1      45.189  24.109  28.249  1.00  0.00     0.029 A 
ATOM     38  N   UNL A   1      44.665  26.183  28.902  1.00  0.00    -0.354 N 
ATOM     39  C   UNL A   1      40.604  27.613  28.805  1.00  0.00     0.074 A 
ATOM     40  C   UNL A   1      39.696  26.580  28.355  1.00  0.00     0.031 C 
ATOM     41  C   UNL A   1      46.331  24.723  28.597  1.00  0.00     0.029 A 
ATOM     42  C   UNL A   1      46.032  26.091  29.008  1.00  0.00     0.049 A 
ATOM     43  H   UNL A   1      44.160  26.998  29.127  1.00  0.00     0.167 HD
ATOM     44  C   UNL A   1      40.216  28.862  29.157  1.00  0.00     0.031 A 
ATOM     45  C   UNL A   1      46.942  27.007  29.388  1.00  0.00     0.031 A 
ATOM     46  C   UNL A   1      41.107  29.882  29.639  1.00  0.00     0.049 A 
ATOM     47  C   UNL A   1      46.487  28.383  29.786  1.00  0.00     0.074 A 
ATOM     48  C   UNL A   1      40.800  31.159  30.077  1.00  0.00     0.029 A 
ATOM     49  N   UNL A   1      42.480  29.738  29.755  1.00  0.00    -0.354 N 
ATOM     50  N   UNL A   1      45.273  28.874  29.816  1.00  0.00    -0.248 NA
ATOM     51  C   UNL A   1      47.531  29.327  30.212  1.00  0.00     0.031 C 
ATOM     52  C   UNL A   1      41.994  31.800  30.424  1.00  0.00     0.029 A 
ATOM     53  C   UNL A   1      43.037  30.907  30.243  1.00  0.00     0.049 A 
ATOM     54  H   UNL A   1      42.984  28.925  29.522  1.00  0.00     0.167 HD
ATOM     55  C   UNL A   1      45.402  30.174  30.290  1.00  0.00     0.074 A 
ATOM     56  C   UNL A   1      46.812  30.390  30.545  1.00  0.00     0.031 C 
ATOM     57  C   UNL A   1      44.439  31.104  30.496  1.00  0.00     0.031 A 
BRANCH  44  58
ATOM     58  C   UNL A   1      38.755  29.194  29.028  1.00  0.00    -0.014 A 
ATOM     59  C   UNL A   1      37.878  29.052  30.114  1.00  0.00     0.009 A 
ATOM     60  C   UNL A   1      38.255  29.677  27.808  1.00  0.00     0.009 A 
ATOM     61  C   UNL A   1      36.521  29.351  29.972  1.00  0.00     0.001 A 
ATOM     62  C   UNL A   1      36.904  30.002  27.677  1.00  0.00     0.001 A 
ATOM     63  C   UNL A   1      36.036  29.829  28.754  1.00  0.00     0.000 A 
ENDBRANCH  44  58
BRANCH  45  64
ATOM     64  C   UNL A   1      48.383  26.647  29.432  1.00  0.00    -0.014 A 
ATOM     65  C   UNL A   1      49.205  26.885  28.320  1.00  0.00     0.009 A 
ATOM     66  C   UNL A   1      48.941  26.062  30.578  1.00  0.00     0.009 A 
ATOM     67  C   UNL A   1      50.554  26.521  28.347  1.00  0.00     0.001 A 
ATOM     68  C   UNL A   1      50.295  25.723  30.611  1.00  0.00     0.001 A 
ATOM     69  C   UNL A   1      51.098  25.944  29.493  1.00  0.00     0.000 A 
ENDBRANCH  45  64
BRANCH  57  70
ATOM     70  C   UNL A   1      44.873  32.427  31.059  1.00  0.00    -0.014 A 
ATOM     71  C   UNL A   1      44.964  32.634  32.443  1.00  0.00     0.009 A 
ATOM     72  C   UNL A   1      45.235  33.466  30.188  1.00  0.00     0.009 A 
ATOM     73  C   UNL A   1      45.381  33.868  32.945  1.00  0.00     0.001 A 
ATOM     74  C   UNL A   1      45.675  34.691  30.692  1.00  0.00     0.001 A 
ATOM     75  C   UNL A   1      45.739  34.894  32.070  1.00  0.00     0.000 A 
ENDBRANCH  57  70
ENDBRANCH  31  32
ENDBRANCH  23  26
ENDBRANCH  21  22
ENDBRANCH   1  21
TORSDOF 12
ENDMDL
MODEL 3
REMARK VINA RESULT:     -10.9      3.286      7.812
REMARK SMILES Cc1ncccc1C(=O)N1CC[C@H](C(=O)NCCCNC(=O)c2ccc(-c3c4nc(c(-c5ccccc5)c5ccc([nH]5)c(-c5ccccc5)c5nc(c(-c6ccccc6)c6ccc3[nH]6)C=C5)C=C4)cc2)C1
REMARK SMILES IDX 18 1 17 2 16 3 14 4 15 5 13 7 10 8 11 9 71 10 12 11 8 12
REMARK SMILES IDX 9 13 7 14 1 15 2 16 3 17 4 18 6 19 5 20 19 21 20 22 21 23
REMARK SMILES IDX 22 25 23 26 24 27 70 28 25 29 69 30 26 31 27 32 28 33 63 34
REMARK SMILES IDX 29 35 68 36 62 37 64 38 30 39 67 40 61 41 60 42 31 44 53 45
REMARK SMILES IDX 38 46 52 47 39 48 42 49 51 50 65 51 40 52 41 53 50 55 66 56
REMARK SMILES IDX 43 57 32 58 33 59 37 60 34 61 36 62 35 63 54 64 55 65 59 66
REMARK SMILES IDX 56 67 58 68 57 69 44 70 45 71 49 72 46 73 48 74 47 75
REMARK H PARENT 16 6 20 24 64 43 42 54
REMARK Flexibility Score: inf
ROOT
ATOM      1  C   UNL A   1      37.517  19.667  24.548  1.00  0.00     0.042 C 
ENDROOT
BRANCH   1   2
ATOM      2  C   UNL A   1      36.063  19.494  24.972  1.00  0.00     0.117 C 
BRANCH   2   3
ATOM      3  N   UNL A   1      35.520  18.201  24.589  1.00  0.00    -0.356 N 
ATOM      4  C   UNL A   1      34.267  17.776  24.286  1.00  0.00     0.224 C 
ATOM      5  O   UNL A   1      34.161  16.587  23.964  1.00  0.00    -0.275 OA
ATOM      6  H   UNL A   1      36.199  17.490  24.538  1.00  0.00     0.163 HD
BRANCH   4   7
ATOM      7  C   UNL A   1      33.010  18.634  24.376  1.00  0.00     0.099 C 
ATOM      8  N   UNL A   1      32.854  20.980  24.161  1.00  0.00    -0.338 N 
ATOM      9  C   UNL A   1      32.223  20.666  25.424  1.00  0.00     0.120 C 
ATOM     10  C   UNL A   1      32.906  19.763  23.356  1.00  0.00     0.133 C 
ATOM     11  C   UNL A   1      32.802  19.292  25.751  1.00  0.00     0.037 C 
BRANCH   8  12
ATOM     12  C   UNL A   1      33.306  22.165  23.614  1.00  0.00     0.255 C 
ATOM     13  O   UNL A   1      32.726  22.616  22.618  1.00  0.00    -0.269 OA
BRANCH  12  14
ATOM     14  C   UNL A   1      34.510  22.930  24.067  1.00  0.00     0.061 A 
ATOM     15  C   UNL A   1      33.694  23.849  26.335  1.00  0.00     0.067 C 
ATOM     16  C   UNL A   1      34.724  23.568  25.296  1.00  0.00     0.050 A 
ATOM     17  N   UNL A   1      35.960  23.998  25.697  1.00  0.00    -0.261 NA
ATOM     18  C   UNL A   1      37.021  23.752  24.906  1.00  0.00     0.111 A 
ATOM     19  C   UNL A   1      35.651  22.740  23.259  1.00  0.00     0.017 A 
ATOM     20  C   UNL A   1      36.917  23.139  23.680  1.00  0.00     0.021 A 
ENDBRANCH  12  14
ENDBRANCH   8  12
ENDBRANCH   4   7
ENDBRANCH   2   3
ENDBRANCH   1   2
BRANCH   1  21
ATOM     21  C   UNL A   1      38.456  20.098  25.664  1.00  0.00     0.118 C 
BRANCH  21  22
ATOM     22  N   UNL A   1      39.649  19.268  25.736  1.00  0.00    -0.352 N 
ATOM     23  C   UNL A   1      40.947  19.584  26.048  1.00  0.00     0.251 C 
ATOM     24  H   UNL A   1      39.499  18.318  25.524  1.00  0.00     0.163 HD
ATOM     25  O   UNL A   1      41.828  18.744  25.846  1.00  0.00    -0.269 OA
BRANCH  23  26
ATOM     26  C   UNL A   1      41.320  20.900  26.617  1.00  0.00     0.039 A 
ATOM     27  C   UNL A   1      41.773  21.901  25.750  1.00  0.00     0.014 A 
ATOM     28  C   UNL A   1      41.311  21.139  27.993  1.00  0.00     0.014 A 
ATOM     29  C   UNL A   1      42.174  23.143  26.254  1.00  0.00     0.010 A 
ATOM     30  C   UNL A   1      41.627  22.404  28.488  1.00  0.00     0.010 A 
ATOM     31  C   UNL A   1      42.086  23.412  27.628  1.00  0.00    -0.014 A 
BRANCH  31  32
ATOM     32  C   UNL A   1      42.515  24.717  28.195  1.00  0.00     0.031 A 
ATOM     33  C   UNL A   1      41.501  25.810  28.418  1.00  0.00     0.074 A 
ATOM     34  C   UNL A   1      43.816  24.950  28.454  1.00  0.00     0.049 A 
ATOM     35  N   UNL A   1      41.688  27.045  28.811  1.00  0.00    -0.248 NA
ATOM     36  C   UNL A   1      40.095  25.477  28.135  1.00  0.00     0.031 C 
ATOM     37  C   UNL A   1      44.906  23.993  28.257  1.00  0.00     0.029 A 
ATOM     38  N   UNL A   1      44.442  26.074  28.933  1.00  0.00    -0.354 N 
ATOM     39  C   UNL A   1      40.433  27.643  28.788  1.00  0.00     0.074 A 
ATOM     40  C   UNL A   1      39.500  26.648  28.306  1.00  0.00     0.031 C 
ATOM     41  C   UNL A   1      46.062  24.563  28.634  1.00  0.00     0.029 A 
ATOM     42  C   UNL A   1      45.802  25.934  29.061  1.00  0.00     0.049 A 
ATOM     43  H   UNL A   1      43.961  26.903  29.162  1.00  0.00     0.167 HD
ATOM     44  C   UNL A   1      40.081  28.899  29.152  1.00  0.00     0.031 A 
ATOM     45  C   UNL A   1      46.736  26.812  29.471  1.00  0.00     0.031 A 
ATOM     46  C   UNL A   1      40.997  29.881  29.666  1.00  0.00     0.049 A 
ATOM     47  C   UNL A   1      46.321  28.197  29.883  1.00  0.00     0.074 A 
ATOM     48  C   UNL A   1      40.726  31.161  30.118  1.00  0.00     0.029 A 
ATOM     49  N   UNL A   1      42.363  29.688  29.802  1.00  0.00    -0.354 N 
ATOM     50  N   UNL A   1      45.123  28.729  29.899  1.00  0.00    -0.248 NA
ATOM     51  C   UNL A   1      47.388  29.099  30.341  1.00  0.00     0.031 C 
ATOM     52  C   UNL A   1      41.935  31.756  30.495  1.00  0.00     0.029 A 
ATOM     53  C   UNL A   1      42.950  30.831  30.319  1.00  0.00     0.049 A 
ATOM     54  H   UNL A   1      42.843  28.862  29.567  1.00  0.00     0.167 HD
ATOM     55  C   UNL A   1      45.288  30.016  30.395  1.00  0.00     0.074 A 
ATOM     56  C   UNL A   1      46.699  30.181  30.678  1.00  0.00     0.031 C 
ATOM     57  C   UNL A   1      44.354  30.976  30.599  1.00  0.00     0.031 A 
BRANCH  44  58
ATOM     58  C   UNL A   1      38.635  29.282  29.003  1.00  0.00    -0.014 A 
ATOM     59  C   UNL A   1      38.136  29.777  27.789  1.00  0.00     0.009 A 
ATOM     60  C   UNL A   1      37.756  29.122  30.086  1.00  0.00     0.009 A 
ATOM     61  C   UNL A   1      36.792  30.141  27.672  1.00  0.00     0.001 A 
ATOM     62  C   UNL A   1      36.408  29.461  29.958  1.00  0.00     0.001 A 
ATOM     63  C   UNL A   1      35.929  29.979  28.756  1.00  0.00     0.000 A 
ENDBRANCH  44  58
BRANCH  45  64
ATOM     64  C   UNL A   1      48.163  26.404  29.534  1.00  0.00    -0.014 A 
ATOM     65  C   UNL A   1      48.999  26.579  28.421  1.00  0.00     0.009 A 
ATOM     66  C   UNL A   1      48.693  25.833  30.701  1.00  0.00     0.009 A 
ATOM     67  C   UNL A   1      50.334  26.168  28.468  1.00  0.00     0.001 A 
ATOM     68  C   UNL A   1      50.035  25.447  30.752  1.00  0.00     0.001 A 
ATOM     69  C   UNL A   1      50.851  25.607  29.633  1.00  0.00     0.000 A 
ENDBRANCH  45  64
BRANCH  57  70
ATOM     70  C   UNL A   1      44.822  32.275  31.190  1.00  0.00    -0.014 A 
ATOM     71  C   UNL A   1      44.881  32.463  32.578  1.00  0.00     0.009 A 
ATOM     72  C   UNL A   1      45.248  33.308  30.342  1.00  0.00     0.009 A 
ATOM     73  C   UNL A   1      45.330  33.674  33.106  1.00  0.00     0.001 A 
ATOM     74  C   UNL A   1      45.721  34.509  30.873  1.00  0.00     0.001 A 
ATOM     75  C   UNL A   1      45.753  34.695  32.254  1.00  0.00     0.000 A 
ENDBRANCH  57  70
ENDBRANCH  31  32
ENDBRANCH  23  26
ENDBRANCH  21  22
ENDBRANCH   1  21
TORSDOF 12
ENDMDL
