MODEL 1
REMARK VINA RESULT:     -11.6      0.000      0.000
REMARK SMILES CC1(C)S[C@H](c2ccc(-c3ccccc3)o2)[NH2+][C@H]1C(=O)NCCCNC(=O)c1ccc(-c2c3nc(c(-c4ccccc4)c4ccc([nH]4)c(-c4ccccc4)c4nc(c(-c5ccccc5)c5ccc2[nH]5)C=C4)C=C3)cc1
REMARK SMILES IDX 23 1 22 2 21 3 19 4 20 5 18 7 1 8 2 9 3 10 4 11 5 12 17 13
REMARK SMILES IDX 6 16 7 17 16 18 8 19 9 20 10 21 11 22 15 23 12 24 14 25
REMARK SMILES IDX 13 26 24 27 25 28 26 29 27 31 28 32 29 33 75 34 30 35 74 36
REMARK SMILES IDX 31 37 32 38 33 39 68 40 34 41 73 42 67 43 69 44 35 45 72 46
REMARK SMILES IDX 66 47 65 48 36 50 58 51 43 52 57 53 44 54 47 55 56 56 70 57
REMARK SMILES IDX 45 58 46 59 55 61 71 62 48 63 37 64 38 65 42 66 39 67 41 68
REMARK SMILES IDX 40 69 59 70 60 71 64 72 61 73 63 74 62 75 49 76 50 77 54 78
REMARK SMILES IDX 51 79 53 80 52 81
REMARK H PARENT 21 6 17 14 17 15 25 30 69 49 47 60
REMARK Flexibility Score: inf
ROOT
ATOM      1  C   UNL A   1      36.962  23.761  25.106  1.00  0.00     0.042 C 
ENDROOT
BRANCH   1   2
ATOM      2  C   UNL A   1      36.603  22.276  25.074  1.00  0.00     0.118 C 
BRANCH   2   3
ATOM      3  N   UNL A   1      35.809  21.860  26.223  1.00  0.00    -0.351 N 
ATOM      4  C   UNL A   1      34.543  22.096  26.666  1.00  0.00     0.279 C 
ATOM      5  O   UNL A   1      34.278  21.612  27.775  1.00  0.00    -0.268 OA
ATOM      6  H   UNL A   1      36.309  21.261  26.825  1.00  0.00     0.163 HD
BRANCH   4   7
ATOM      7  C   UNL A   1      33.487  22.958  25.942  1.00  0.00     0.289 C 
ATOM      8  C   UNL A   1      32.266  20.789  25.126  1.00  0.00     0.030 C 
ATOM      9  C   UNL A   1      32.722  22.213  24.827  1.00  0.00     0.078 C 
ATOM     10  C   UNL A   1      33.512  22.224  23.511  1.00  0.00     0.030 C 
ATOM     11  S   UNL A   1      31.210  23.203  24.615  1.00  0.00    -0.078 SA
ATOM     12  C   UNL A   1      31.430  24.159  26.138  1.00  0.00     0.311 C 
ATOM     13  N   UNL A   1      32.597  23.679  26.876  1.00  0.00    -0.317 N 
ATOM     14  H   UNL A   1      32.297  23.048  27.619  1.00  0.00     0.348 HD
ATOM     15  H   UNL A   1      33.094  24.466  27.291  1.00  0.00     0.348 HD
BRANCH  12  16
ATOM     16  C   UNL A   1      31.427  25.619  25.825  1.00  0.00     0.172 A 
ATOM     17  C   UNL A   1      30.632  26.350  24.960  1.00  0.00     0.054 A 
ATOM     18  O   UNL A   1      32.337  26.448  26.427  1.00  0.00    -0.454 OA
ATOM     19  C   UNL A   1      31.057  27.690  25.054  1.00  0.00     0.051 A 
ATOM     20  C   UNL A   1      32.092  27.712  25.967  1.00  0.00     0.134 A 
BRANCH  20  21
ATOM     21  C   UNL A   1      32.908  28.789  26.503  1.00  0.00     0.017 A 
ATOM     22  C   UNL A   1      32.370  30.056  26.751  1.00  0.00     0.012 A 
ATOM     23  C   UNL A   1      34.250  28.548  26.831  1.00  0.00     0.012 A 
ATOM     24  C   UNL A   1      33.154  31.056  27.335  1.00  0.00     0.001 A 
ATOM     25  C   UNL A   1      35.037  29.550  27.403  1.00  0.00     0.001 A 
ATOM     26  C   UNL A   1      34.485  30.802  27.662  1.00  0.00     0.000 A 
ENDBRANCH  20  21
ENDBRANCH  12  16
ENDBRANCH   4   7
ENDBRANCH   2   3
ENDBRANCH   1   2
BRANCH   1  27
ATOM     27  C   UNL A   1      37.859  24.177  26.262  1.00  0.00     0.118 C 
BRANCH  27  28
ATOM     28  N   UNL A   1      39.262  23.906  25.996  1.00  0.00    -0.352 N 
ATOM     29  C   UNL A   1      40.389  24.555  26.440  1.00  0.00     0.251 C 
ATOM     30  H   UNL A   1      39.431  23.137  25.406  1.00  0.00     0.163 HD
ATOM     31  O   UNL A   1      41.473  24.301  25.922  1.00  0.00    -0.269 OA
BRANCH  29  32
ATOM     32  C   UNL A   1      40.319  25.570  27.520  1.00  0.00     0.039 A 
ATOM     33  C   UNL A   1      41.173  26.677  27.457  1.00  0.00     0.014 A 
ATOM     34  C   UNL A   1      39.473  25.418  28.622  1.00  0.00     0.014 A 
ATOM     35  C   UNL A   1      41.141  27.646  28.466  1.00  0.00     0.010 A 
ATOM     36  C   UNL A   1      39.380  26.426  29.581  1.00  0.00     0.010 A 
ATOM     37  C   UNL A   1      40.225  27.544  29.524  1.00  0.00    -0.014 A 
BRANCH  37  38
ATOM     38  C   UNL A   1      40.164  28.572  30.597  1.00  0.00     0.031 A 
ATOM     39  C   UNL A   1      39.161  29.693  30.516  1.00  0.00     0.074 A 
ATOM     40  C   UNL A   1      41.039  28.531  31.621  1.00  0.00     0.049 A 
ATOM     41  N   UNL A   1      38.994  30.713  31.322  1.00  0.00    -0.248 NA
ATOM     42  C   UNL A   1      38.242  29.682  29.366  1.00  0.00     0.031 C 
ATOM     43  C   UNL A   1      42.083  27.522  31.807  1.00  0.00     0.029 A 
ATOM     44  N   UNL A   1      41.187  29.367  32.700  1.00  0.00    -0.354 N 
ATOM     45  C   UNL A   1      37.972  31.472  30.764  1.00  0.00     0.074 A 
ATOM     46  C   UNL A   1      37.588  30.822  29.530  1.00  0.00     0.031 C 
ATOM     47  C   UNL A   1      42.742  27.780  32.949  1.00  0.00     0.029 A 
ATOM     48  C   UNL A   1      42.195  28.990  33.555  1.00  0.00     0.049 A 
ATOM     49  H   UNL A   1      40.625  30.161  32.848  1.00  0.00     0.167 HD
ATOM     50  C   UNL A   1      37.388  32.597  31.242  1.00  0.00     0.031 A 
ATOM     51  C   UNL A   1      42.630  29.553  34.697  1.00  0.00     0.031 A 
ATOM     52  C   UNL A   1      37.745  33.234  32.481  1.00  0.00     0.049 A 
ATOM     53  C   UNL A   1      41.966  30.800  35.209  1.00  0.00     0.074 A 
ATOM     54  C   UNL A   1      37.173  34.347  33.074  1.00  0.00     0.029 A 
ATOM     55  N   UNL A   1      38.765  32.813  33.318  1.00  0.00    -0.354 N 
ATOM     56  N   UNL A   1      40.966  31.474  34.694  1.00  0.00    -0.248 NA
ATOM     57  C   UNL A   1      42.485  31.356  36.467  1.00  0.00     0.031 C 
ATOM     58  C   UNL A   1      37.872  34.621  34.255  1.00  0.00     0.029 A 
ATOM     59  C   UNL A   1      38.851  33.652  34.416  1.00  0.00     0.049 A 
ATOM     60  H   UNL A   1      39.344  32.034  33.155  1.00  0.00     0.167 HD
ATOM     61  C   UNL A   1      40.722  32.518  35.576  1.00  0.00     0.074 A 
ATOM     62  C   UNL A   1      41.667  32.380  36.664  1.00  0.00     0.031 C 
ATOM     63  C   UNL A   1      39.795  33.503  35.491  1.00  0.00     0.031 A 
BRANCH  50  64
ATOM     64  C   UNL A   1      36.295  33.210  30.414  1.00  0.00    -0.014 A 
ATOM     65  C   UNL A   1      34.951  33.139  30.816  1.00  0.00     0.009 A 
ATOM     66  C   UNL A   1      36.613  33.893  29.230  1.00  0.00     0.009 A 
ATOM     67  C   UNL A   1      33.946  33.706  30.031  1.00  0.00     0.001 A 
ATOM     68  C   UNL A   1      35.609  34.483  28.460  1.00  0.00     0.001 A 
ATOM     69  C   UNL A   1      34.276  34.381  28.855  1.00  0.00     0.000 A 
ENDBRANCH  50  64
BRANCH  51  70
ATOM     70  C   UNL A   1      43.744  28.927  35.455  1.00  0.00    -0.014 A 
ATOM     71  C   UNL A   1      43.477  27.948  36.425  1.00  0.00     0.009 A 
ATOM     72  C   UNL A   1      45.073  29.308  35.221  1.00  0.00     0.009 A 
ATOM     73  C   UNL A   1      44.519  27.378  37.159  1.00  0.00     0.001 A 
ATOM     74  C   UNL A   1      46.115  28.718  35.940  1.00  0.00     0.001 A 
ATOM     75  C   UNL A   1      45.837  27.761  36.914  1.00  0.00     0.000 A 
ENDBRANCH  51  70
BRANCH  63  76
ATOM     76  C   UNL A   1      39.738  34.489  36.621  1.00  0.00    -0.014 A 
ATOM     77  C   UNL A   1      40.434  35.706  36.560  1.00  0.00     0.009 A 
ATOM     78  C   UNL A   1      38.947  34.211  37.747  1.00  0.00     0.009 A 
ATOM     79  C   UNL A   1      40.362  36.612  37.619  1.00  0.00     0.001 A 
ATOM     80  C   UNL A   1      38.858  35.129  38.794  1.00  0.00     0.001 A 
ATOM     81  C   UNL A   1      39.571  36.326  38.733  1.00  0.00     0.000 A 
ENDBRANCH  63  76
ENDBRANCH  37  38
ENDBRANCH  29  32
ENDBRANCH  27  28
ENDBRANCH   1  27
TORSDOF 12
ENDMDL
MODEL 2
REMARK VINA RESULT:     -11.5      3.744      8.634
REMARK SMILES CC1(C)S[C@H](c2ccc(-c3ccccc3)o2)[NH2+][C@H]1C(=O)NCCCNC(=O)c1ccc(-c2c3nc(c(-c4ccccc4)c4ccc([nH]4)c(-c4ccccc4)c4nc(c(-c5ccccc5)c5ccc2[nH]5)C=C4)C=C3)cc1
REMARK SMILES IDX 23 1 22 2 21 3 19 4 20 5 18 7 1 8 2 9 3 10 4 11 5 12 17 13
REMARK SMILES IDX 6 16 7 17 16 18 8 19 9 20 10 21 11 22 15 23 12 24 14 25
REMARK SMILES IDX 13 26 24 27 25 28 26 29 27 31 28 32 29 33 75 34 30 35 74 36
REMARK SMILES IDX 31 37 32 38 33 39 68 40 34 41 73 42 67 43 69 44 35 45 72 46
REMARK SMILES IDX 66 47 65 48 36 50 58 51 43 52 57 53 44 54 47 55 56 56 70 57
REMARK SMILES IDX 45 58 46 59 55 61 71 62 48 63 37 64 38 65 42 66 39 67 41 68
REMARK SMILES IDX 40 69 59 70 60 71 64 72 61 73 63 74 62 75 49 76 50 77 54 78
REMARK SMILES IDX 51 79 53 80 52 81
REMARK H PARENT 21 6 17 14 17 15 25 30 69 49 47 60
REMARK Flexibility Score: inf
ROOT
ATOM      1  C   UNL A   1      33.215  29.178  24.830  1.00  0.00     0.042 C 
ENDROOT
BRANCH   1   2
ATOM      2  C   UNL A   1      33.712  28.274  23.701  1.00  0.00     0.118 C 
BRANCH   2   3
ATOM      3  N   UNL A   1      32.657  27.898  22.770  1.00  0.00    -0.351 N 
ATOM      4  C   UNL A   1      31.851  26.813  22.601  1.00  0.00     0.279 C 
ATOM      5  O   UNL A   1      31.126  26.850  21.596  1.00  0.00    -0.268 OA
ATOM      6  H   UNL A   1      32.483  28.599  22.100  1.00  0.00     0.163 HD
BRANCH   4   7
ATOM      7  C   UNL A   1      31.839  25.557  23.499  1.00  0.00     0.289 C 
ATOM      8  C   UNL A   1      29.444  26.184  24.354  1.00  0.00     0.030 C 
ATOM      9  C   UNL A   1      30.829  25.626  24.664  1.00  0.00     0.078 C 
ATOM     10  C   UNL A   1      31.419  26.377  25.865  1.00  0.00     0.030 C 
ATOM     11  S   UNL A   1      30.589  23.880  25.120  1.00  0.00    -0.078 SA
ATOM     12  C   UNL A   1      31.380  23.216  23.632  1.00  0.00     0.311 C 
ATOM     13  N   UNL A   1      31.751  24.300  22.725  1.00  0.00    -0.317 N 
ATOM     14  H   UNL A   1      31.044  24.395  21.996  1.00  0.00     0.348 HD
ATOM     15  H   UNL A   1      32.651  24.098  22.290  1.00  0.00     0.348 HD
BRANCH  12  16
ATOM     16  C   UNL A   1      32.491  22.295  24.017  1.00  0.00     0.172 A 
ATOM     17  C   UNL A   1      32.548  20.913  24.029  1.00  0.00     0.054 A 
ATOM     18  O   UNL A   1      33.680  22.810  24.464  1.00  0.00    -0.454 OA
ATOM     19  C   UNL A   1      33.837  20.565  24.480  1.00  0.00     0.051 A 
ATOM     20  C   UNL A   1      34.502  21.748  24.725  1.00  0.00     0.134 A 
BRANCH  20  21
ATOM     21  C   UNL A   1      35.854  22.043  25.173  1.00  0.00     0.017 A 
ATOM     22  C   UNL A   1      36.870  21.085  25.099  1.00  0.00     0.012 A 
ATOM     23  C   UNL A   1      36.167  23.327  25.643  1.00  0.00     0.012 A 
ATOM     24  C   UNL A   1      38.179  21.413  25.467  1.00  0.00     0.001 A 
ATOM     25  C   UNL A   1      37.471  23.651  26.022  1.00  0.00     0.001 A 
ATOM     26  C   UNL A   1      38.479  22.695  25.926  1.00  0.00     0.000 A 
ENDBRANCH  20  21
ENDBRANCH  12  16
ENDBRANCH   4   7
ENDBRANCH   2   3
ENDBRANCH   1   2
BRANCH   1  27
ATOM     27  C   UNL A   1      34.061  29.146  26.093  1.00  0.00     0.118 C 
BRANCH  27  28
ATOM     28  N   UNL A   1      33.838  30.309  26.935  1.00  0.00    -0.352 N 
ATOM     29  C   UNL A   1      34.591  30.812  27.968  1.00  0.00     0.251 C 
ATOM     30  H   UNL A   1      33.018  30.816  26.734  1.00  0.00     0.163 HD
ATOM     31  O   UNL A   1      34.113  31.680  28.694  1.00  0.00    -0.269 OA
BRANCH  29  32
ATOM     32  C   UNL A   1      35.964  30.315  28.236  1.00  0.00     0.039 A 
ATOM     33  C   UNL A   1      36.246  29.765  29.491  1.00  0.00     0.014 A 
ATOM     34  C   UNL A   1      36.988  30.438  27.294  1.00  0.00     0.014 A 
ATOM     35  C   UNL A   1      37.532  29.298  29.779  1.00  0.00     0.010 A 
ATOM     36  C   UNL A   1      38.247  29.894  27.550  1.00  0.00     0.010 A 
ATOM     37  C   UNL A   1      38.539  29.333  28.802  1.00  0.00    -0.014 A 
BRANCH  37  38
ATOM     38  C   UNL A   1      39.909  28.827  29.084  1.00  0.00     0.031 A 
ATOM     39  C   UNL A   1      40.918  29.712  29.767  1.00  0.00     0.074 A 
ATOM     40  C   UNL A   1      40.267  27.591  28.684  1.00  0.00     0.049 A 
ATOM     41  N   UNL A   1      42.175  29.471  30.047  1.00  0.00    -0.248 NA
ATOM     42  C   UNL A   1      40.463  31.053  30.169  1.00  0.00     0.031 C 
ATOM     43  C   UNL A   1      39.403  26.640  27.983  1.00  0.00     0.029 A 
ATOM     44  N   UNL A   1      41.461  26.924  28.812  1.00  0.00    -0.354 N 
ATOM     45  C   UNL A   1      42.663  30.633  30.630  1.00  0.00     0.074 A 
ATOM     46  C   UNL A   1      41.582  31.594  30.625  1.00  0.00     0.031 C 
ATOM     47  C   UNL A   1      40.084  25.502  27.771  1.00  0.00     0.029 A 
ATOM     48  C   UNL A   1      41.441  25.654  28.286  1.00  0.00     0.049 A 
ATOM     49  H   UNL A   1      42.255  27.317  29.240  1.00  0.00     0.167 HD
ATOM     50  C   UNL A   1      43.892  30.877  31.145  1.00  0.00     0.031 A 
ATOM     51  C   UNL A   1      42.405  24.718  28.225  1.00  0.00     0.031 A 
ATOM     52  C   UNL A   1      44.964  29.919  31.179  1.00  0.00     0.049 A 
ATOM     53  C   UNL A   1      43.761  25.010  28.804  1.00  0.00     0.074 A 
ATOM     54  C   UNL A   1      46.227  30.058  31.729  1.00  0.00     0.029 A 
ATOM     55  N   UNL A   1      44.897  28.644  30.643  1.00  0.00    -0.354 N 
ATOM     56  N   UNL A   1      44.187  26.098  29.400  1.00  0.00    -0.248 NA
ATOM     57  C   UNL A   1      44.764  23.940  28.712  1.00  0.00     0.031 C 
ATOM     58  C   UNL A   1      46.938  28.876  31.493  1.00  0.00     0.029 A 
ATOM     59  C   UNL A   1      46.101  27.988  30.835  1.00  0.00     0.049 A 
ATOM     60  H   UNL A   1      44.111  28.261  30.192  1.00  0.00     0.167 HD
ATOM     61  C   UNL A   1      45.498  25.834  29.772  1.00  0.00     0.074 A 
ATOM     62  C   UNL A   1      45.792  24.480  29.351  1.00  0.00     0.031 C 
ATOM     63  C   UNL A   1      46.380  26.642  30.411  1.00  0.00     0.031 A 
BRANCH  50  64
ATOM     64  C   UNL A   1      44.140  32.245  31.717  1.00  0.00    -0.014 A 
ATOM     65  C   UNL A   1      44.627  33.290  30.917  1.00  0.00     0.009 A 
ATOM     66  C   UNL A   1      43.857  32.499  33.068  1.00  0.00     0.009 A 
ATOM     67  C   UNL A   1      44.861  34.553  31.466  1.00  0.00     0.001 A 
ATOM     68  C   UNL A   1      44.066  33.770  33.609  1.00  0.00     0.001 A 
ATOM     69  C   UNL A   1      44.577  34.792  32.810  1.00  0.00     0.000 A 
ENDBRANCH  50  64
BRANCH  51  70
ATOM     70  C   UNL A   1      42.118  23.396  27.610  1.00  0.00    -0.014 A 
ATOM     71  C   UNL A   1      41.497  22.386  28.362  1.00  0.00     0.009 A 
ATOM     72  C   UNL A   1      42.468  23.135  26.277  1.00  0.00     0.009 A 
ATOM     73  C   UNL A   1      41.252  21.134  27.795  1.00  0.00     0.001 A 
ATOM     74  C   UNL A   1      42.199  21.889  25.707  1.00  0.00     0.001 A 
ATOM     75  C   UNL A   1      41.599  20.887  26.468  1.00  0.00     0.000 A 
ENDBRANCH  51  70
BRANCH  63  76
ATOM     76  C   UNL A   1      47.734  26.072  30.718  1.00  0.00    -0.014 A 
ATOM     77  C   UNL A   1      48.738  26.013  29.739  1.00  0.00     0.009 A 
ATOM     78  C   UNL A   1      48.019  25.620  32.016  1.00  0.00     0.009 A 
ATOM     79  C   UNL A   1      49.992  25.485  30.048  1.00  0.00     0.001 A 
ATOM     80  C   UNL A   1      49.282  25.115  32.328  1.00  0.00     0.001 A 
ATOM     81  C   UNL A   1      50.265  25.040  31.342  1.00  0.00     0.000 A 
ENDBRANCH  63  76
ENDBRANCH  37  38
ENDBRANCH  29  32
ENDBRANCH  27  28
ENDBRANCH   1  27
TORSDOF 12
ENDMDL
MODEL 3
REMARK VINA RESULT:     -11.5      5.062     10.109
REMARK SMILES CC1(C)S[C@H](c2ccc(-c3ccccc3)o2)[NH2+][C@H]1C(=O)NCCCNC(=O)c1ccc(-c2c3nc(c(-c4ccccc4)c4ccc([nH]4)c(-c4ccccc4)c4nc(c(-c5ccccc5)c5ccc2[nH]5)C=C4)C=C3)cc1
REMARK SMILES IDX 23 1 22 2 21 3 19 4 20 5 18 7 1 8 2 9 3 10 4 11 5 12 17 13
REMARK SMILES IDX 6 16 7 17 16 18 8 19 9 20 10 21 11 22 15 23 12 24 14 25
REMARK SMILES IDX 13 26 24 27 25 28 26 29 27 31 28 32 29 33 75 34 30 35 74 36
REMARK SMILES IDX 31 37 32 38 33 39 68 40 34 41 73 42 67 43 69 44 35 45 72 46
REMARK SMILES IDX 66 47 65 48 36 50 58 51 43 52 57 53 44 54 47 55 56 56 70 57
REMARK SMILES IDX 45 58 46 59 55 61 71 62 48 63 37 64 38 65 42 66 39 67 41 68
REMARK SMILES IDX 40 69 59 70 60 71 64 72 61 73 63 74 62 75 49 76 50 77 54 78
REMARK SMILES IDX 51 79 53 80 52 81
REMARK H PARENT 21 6 17 14 17 15 25 30 69 49 47 60
REMARK Flexibility Score: inf
ROOT
ATOM      1  C   UNL A   1      33.848  28.645  27.170  1.00  0.00     0.042 C 
ENDROOT
BRANCH   1   2
ATOM      2  C   UNL A   1      32.766  29.287  26.302  1.00  0.00     0.118 C 
BRANCH   2   3
ATOM      3  N   UNL A   1      33.186  29.476  24.920  1.00  0.00    -0.351 N 
ATOM      4  C   UNL A   1      33.307  28.677  23.823  1.00  0.00     0.279 C 
ATOM      5  O   UNL A   1      33.807  29.224  22.830  1.00  0.00    -0.268 OA
ATOM      6  H   UNL A   1      33.445  30.408  24.733  1.00  0.00     0.163 HD
BRANCH   4   7
ATOM      7  C   UNL A   1      32.950  27.176  23.764  1.00  0.00     0.289 C 
ATOM      8  C   UNL A   1      30.662  27.760  22.630  1.00  0.00     0.030 C 
ATOM      9  C   UNL A   1      31.440  26.894  23.615  1.00  0.00     0.078 C 
ATOM     10  C   UNL A   1      30.735  26.922  24.978  1.00  0.00     0.030 C 
ATOM     11  S   UNL A   1      31.388  25.197  22.960  1.00  0.00    -0.078 SA
ATOM     12  C   UNL A   1      33.148  25.135  22.538  1.00  0.00     0.311 C 
ATOM     13  N   UNL A   1      33.780  26.428  22.796  1.00  0.00    -0.317 N 
ATOM     14  H   UNL A   1      33.852  26.955  21.926  1.00  0.00     0.348 HD
ATOM     15  H   UNL A   1      34.715  26.288  23.178  1.00  0.00     0.348 HD
BRANCH  12  16
ATOM     16  C   UNL A   1      33.789  23.964  23.206  1.00  0.00     0.172 A 
ATOM     17  C   UNL A   1      33.342  22.665  23.364  1.00  0.00     0.054 A 
ATOM     18  O   UNL A   1      35.012  24.107  23.808  1.00  0.00    -0.454 OA
ATOM     19  C   UNL A   1      34.345  21.974  24.073  1.00  0.00     0.051 A 
ATOM     20  C   UNL A   1      35.353  22.885  24.317  1.00  0.00     0.134 A 
BRANCH  20  21
ATOM     21  C   UNL A   1      36.646  22.769  24.971  1.00  0.00     0.017 A 
ATOM     22  C   UNL A   1      37.186  23.826  25.710  1.00  0.00     0.012 A 
ATOM     23  C   UNL A   1      37.351  21.557  24.909  1.00  0.00     0.012 A 
ATOM     24  C   UNL A   1      38.398  23.668  26.391  1.00  0.00     0.001 A 
ATOM     25  C   UNL A   1      38.567  21.402  25.579  1.00  0.00     0.001 A 
ATOM     26  C   UNL A   1      39.085  22.457  26.327  1.00  0.00     0.000 A 
ENDBRANCH  20  21
ENDBRANCH  12  16
ENDBRANCH   4   7
ENDBRANCH   2   3
ENDBRANCH   1   2
BRANCH   1  27
ATOM     27  C   UNL A   1      35.076  29.511  27.404  1.00  0.00     0.118 C 
BRANCH  27  28
ATOM     28  N   UNL A   1      35.103  30.080  28.741  1.00  0.00    -0.352 N 
ATOM     29  C   UNL A   1      36.115  30.111  29.670  1.00  0.00     0.251 C 
ATOM     30  H   UNL A   1      34.265  30.512  29.024  1.00  0.00     0.163 HD
ATOM     31  O   UNL A   1      35.861  30.448  30.824  1.00  0.00    -0.269 OA
BRANCH  29  32
ATOM     32  C   UNL A   1      37.502  29.725  29.313  1.00  0.00     0.039 A 
ATOM     33  C   UNL A   1      38.352  29.264  30.324  1.00  0.00     0.014 A 
ATOM     34  C   UNL A   1      37.996  29.870  28.014  1.00  0.00     0.014 A 
ATOM     35  C   UNL A   1      39.670  28.903  30.023  1.00  0.00     0.010 A 
ATOM     36  C   UNL A   1      39.281  29.430  27.698  1.00  0.00     0.010 A 
ATOM     37  C   UNL A   1      40.139  28.958  28.701  1.00  0.00    -0.014 A 
BRANCH  37  38
ATOM     38  C   UNL A   1      41.532  28.564  28.358  1.00  0.00     0.031 A 
ATOM     39  C   UNL A   1      41.849  27.136  28.000  1.00  0.00     0.074 A 
ATOM     40  C   UNL A   1      42.524  29.474  28.415  1.00  0.00     0.049 A 
ATOM     41  N   UNL A   1      43.008  26.589  27.728  1.00  0.00    -0.248 NA
ATOM     42  C   UNL A   1      40.720  26.191  27.967  1.00  0.00     0.031 C 
ATOM     43  C   UNL A   1      42.365  30.883  28.778  1.00  0.00     0.029 A 
ATOM     44  N   UNL A   1      43.868  29.344  28.165  1.00  0.00    -0.354 N 
ATOM     45  C   UNL A   1      42.750  25.240  27.517  1.00  0.00     0.074 A 
ATOM     46  C   UNL A   1      41.334  25.042  27.736  1.00  0.00     0.031 C 
ATOM     47  C   UNL A   1      43.559  31.494  28.698  1.00  0.00     0.029 A 
ATOM     48  C   UNL A   1      44.572  30.515  28.314  1.00  0.00     0.049 A 
ATOM     49  H   UNL A   1      44.288  28.493  27.904  1.00  0.00     0.167 HD
ATOM     50  C   UNL A   1      43.607  24.256  27.153  1.00  0.00     0.031 A 
ATOM     51  C   UNL A   1      45.883  30.773  28.160  1.00  0.00     0.031 A 
ATOM     52  C   UNL A   1      45.010  24.449  26.907  1.00  0.00     0.049 A 
ATOM     53  C   UNL A   1      46.814  29.666  27.754  1.00  0.00     0.074 A 
ATOM     54  C   UNL A   1      45.947  23.522  26.481  1.00  0.00     0.029 A 
ATOM     55  N   UNL A   1      45.678  25.652  27.061  1.00  0.00    -0.354 N 
ATOM     56  N   UNL A   1      46.542  28.407  27.508  1.00  0.00    -0.248 NA
ATOM     57  C   UNL A   1      48.232  30.020  27.593  1.00  0.00     0.031 C 
ATOM     58  C   UNL A   1      47.191  24.158  26.414  1.00  0.00     0.029 A 
ATOM     59  C   UNL A   1      47.018  25.491  26.755  1.00  0.00     0.049 A 
ATOM     60  H   UNL A   1      45.262  26.497  27.348  1.00  0.00     0.167 HD
ATOM     61  C   UNL A   1      47.749  27.825  27.142  1.00  0.00     0.074 A 
ATOM     62  C   UNL A   1      48.750  28.870  27.183  1.00  0.00     0.031 C 
ATOM     63  C   UNL A   1      48.003  26.539  26.800  1.00  0.00     0.031 A 
BRANCH  50  64
ATOM     64  C   UNL A   1      43.040  22.872  26.999  1.00  0.00    -0.014 A 
ATOM     65  C   UNL A   1      42.978  22.248  25.742  1.00  0.00     0.009 A 
ATOM     66  C   UNL A   1      42.587  22.171  28.127  1.00  0.00     0.009 A 
ATOM     67  C   UNL A   1      42.440  20.966  25.614  1.00  0.00     0.001 A 
ATOM     68  C   UNL A   1      42.075  20.879  28.000  1.00  0.00     0.001 A 
ATOM     69  C   UNL A   1      41.992  20.282  26.743  1.00  0.00     0.000 A 
ENDBRANCH  50  64
BRANCH  51  70
ATOM     70  C   UNL A   1      46.398  32.152  28.366  1.00  0.00    -0.014 A 
ATOM     71  C   UNL A   1      46.449  33.056  27.293  1.00  0.00     0.009 A 
ATOM     72  C   UNL A   1      46.845  32.568  29.629  1.00  0.00     0.009 A 
ATOM     73  C   UNL A   1      46.958  34.343  27.478  1.00  0.00     0.001 A 
ATOM     74  C   UNL A   1      47.331  33.864  29.815  1.00  0.00     0.001 A 
ATOM     75  C   UNL A   1      47.395  34.747  28.738  1.00  0.00     0.000 A 
ENDBRANCH  51  70
BRANCH  63  76
ATOM     76  C   UNL A   1      49.413  26.198  26.414  1.00  0.00    -0.014 A 
ATOM     77  C   UNL A   1      49.899  26.466  25.125  1.00  0.00     0.009 A 
ATOM     78  C   UNL A   1      50.277  25.636  27.366  1.00  0.00     0.009 A 
ATOM     79  C   UNL A   1      51.215  26.148  24.789  1.00  0.00     0.001 A 
ATOM     80  C   UNL A   1      51.601  25.342  27.034  1.00  0.00     0.001 A 
ATOM     81  C   UNL A   1      52.067  25.590  25.744  1.00  0.00     0.000 A 
ENDBRANCH  63  76
ENDBRANCH  37  38
ENDBRANCH  29  32
ENDBRANCH  27  28
ENDBRANCH   1  27
TORSDOF 12
ENDMDL
