MODEL 1
REMARK VINA RESULT:     -12.3      0.000      0.000
REMARK SMILES CCOC(=O)c1c(NC(=O)[C@@H]2[C@@H](C(=O)NCCCNC(=O)c3ccc(-c4c5nc(c(-c6ccccc6)c6ccc([nH]6)c(-c6ccccc6)c6nc(c(-c7ccccc7)c7ccc4[nH]7)C=C6)C=C5)cc3)[C@@H]3C=C[C@H]2CC3)sc2c1CCC2
REMARK SMILES IDX 13 1 14 2 15 3 12 5 11 6 73 7 70 8 72 9 74 10 71 11 75 12
REMARK SMILES IDX 9 13 8 14 10 16 7 17 6 18 78 19 76 20 77 21 79 22 81 23
REMARK SMILES IDX 80 24 4 25 5 26 3 27 2 28 1 29 16 30 17 31 18 32 19 33 20 34
REMARK SMILES IDX 21 36 22 37 23 38 69 39 24 40 68 41 25 42 26 43 27 44 62 45
REMARK SMILES IDX 28 46 67 47 61 48 63 49 29 50 66 51 60 52 59 53 30 55 52 56
REMARK SMILES IDX 37 57 51 58 38 59 41 60 50 61 64 62 39 63 40 64 49 66 65 67
REMARK SMILES IDX 42 68 31 69 32 70 36 71 33 72 35 73 34 74 53 75 54 76 58 77
REMARK SMILES IDX 55 78 57 79 56 80 43 81 44 82 48 83 45 84 47 85 46 86
REMARK H PARENT 15 4 8 15 19 35 63 54 41 65
REMARK Flexibility Score: inf
ROOT
ATOM      1  C   UNL A   1      36.096  22.545  25.152  1.00  0.00     0.224 C 
ATOM      2  O   UNL A   1      36.338  23.597  25.762  1.00  0.00    -0.275 OA
ATOM      3  N   UNL A   1      37.191  21.777  24.933  1.00  0.00    -0.356 N 
ATOM      4  H   UNL A   1      38.019  22.187  25.272  1.00  0.00     0.163 HD
ENDROOT
BRANCH   1   5
ATOM      5  C   UNL A   1      34.638  22.187  24.782  1.00  0.00     0.098 C 
ATOM      6  C   UNL A   1      33.543  23.291  24.933  1.00  0.00     0.099 C 
ATOM      7  C   UNL A   1      32.380  22.777  25.837  1.00  0.00     0.025 C 
ATOM      8  C   UNL A   1      34.224  20.979  25.709  1.00  0.00     0.025 C 
ATOM      9  C   UNL A   1      31.901  21.439  25.339  1.00  0.00    -0.027 C 
ATOM     10  C   UNL A   1      32.989  22.579  27.244  1.00  0.00     0.009 C 
ATOM     11  C   UNL A   1      32.854  20.503  25.275  1.00  0.00    -0.027 C 
ATOM     12  C   UNL A   1      34.074  21.487  27.174  1.00  0.00     0.009 C 
BRANCH   6  13
ATOM     13  C   UNL A   1      32.993  23.883  23.629  1.00  0.00     0.229 C 
ATOM     14  N   UNL A   1      32.530  25.179  23.530  1.00  0.00    -0.317 N 
ATOM     15  H   UNL A   1      32.121  25.381  22.658  1.00  0.00     0.170 HD
ATOM     16  O   UNL A   1      32.967  23.206  22.595  1.00  0.00    -0.274 OA
BRANCH  14  17
ATOM     17  C   UNL A   1      32.522  26.262  24.407  1.00  0.00     0.110 A 
ATOM     18  C   UNL A   1      31.599  26.557  25.423  1.00  0.00     0.098 A 
ATOM     19  C   UNL A   1      32.016  27.733  26.135  1.00  0.00    -0.017 A 
ATOM     20  S   UNL A   1      33.693  27.493  24.286  1.00  0.00    -0.122 S 
ATOM     21  C   UNL A   1      33.151  28.271  25.613  1.00  0.00     0.011 A 
ATOM     22  C   UNL A   1      31.611  28.524  27.329  1.00  0.00     0.038 C 
ATOM     23  C   UNL A   1      33.704  29.444  26.304  1.00  0.00     0.047 C 
ATOM     24  C   UNL A   1      32.494  29.819  27.191  1.00  0.00     0.010 C 
BRANCH  18  25
ATOM     25  C   UNL A   1      30.430  25.730  25.704  1.00  0.00     0.341 C 
ATOM     26  O   UNL A   1      30.261  25.163  26.771  1.00  0.00    -0.246 OA
BRANCH  25  27
ATOM     27  O   UNL A   1      29.609  25.620  24.619  1.00  0.00    -0.462 OA
BRANCH  27  28
ATOM     28  C   UNL A   1      29.157  26.845  24.019  1.00  0.00     0.230 C 
ATOM     29  C   UNL A   1      27.657  26.870  23.762  1.00  0.00     0.049 C 
ENDBRANCH  27  28
ENDBRANCH  25  27
ENDBRANCH  18  25
ENDBRANCH  14  17
ENDBRANCH   6  13
ENDBRANCH   1   5
BRANCH   3  30
ATOM     30  C   UNL A   1      37.419  20.484  24.307  1.00  0.00     0.117 C 
BRANCH  30  31
ATOM     31  C   UNL A   1      38.168  19.516  25.230  1.00  0.00     0.042 C 
BRANCH  31  32
ATOM     32  C   UNL A   1      39.404  20.095  25.866  1.00  0.00     0.118 C 
BRANCH  32  33
ATOM     33  N   UNL A   1      40.557  19.190  25.806  1.00  0.00    -0.352 N 
ATOM     34  C   UNL A   1      41.903  19.518  25.877  1.00  0.00     0.251 C 
ATOM     35  H   UNL A   1      40.351  18.233  25.703  1.00  0.00     0.163 HD
ATOM     36  O   UNL A   1      42.766  18.746  25.478  1.00  0.00    -0.269 OA
BRANCH  34  37
ATOM     37  C   UNL A   1      42.269  20.830  26.442  1.00  0.00     0.039 A 
ATOM     38  C   UNL A   1      42.714  21.907  25.672  1.00  0.00     0.014 A 
ATOM     39  C   UNL A   1      42.078  20.977  27.805  1.00  0.00     0.014 A 
ATOM     40  C   UNL A   1      42.905  23.134  26.307  1.00  0.00     0.010 A 
ATOM     41  C   UNL A   1      41.918  22.219  28.323  1.00  0.00     0.010 A 
ATOM     42  C   UNL A   1      42.491  23.271  27.640  1.00  0.00    -0.014 A 
BRANCH  42  43
ATOM     43  C   UNL A   1      42.559  24.512  28.386  1.00  0.00     0.031 A 
ATOM     44  C   UNL A   1      41.430  25.425  28.118  1.00  0.00     0.074 A 
ATOM     45  C   UNL A   1      43.419  24.676  29.419  1.00  0.00     0.049 A 
ATOM     46  N   UNL A   1      41.484  26.535  27.468  1.00  0.00    -0.248 NA
ATOM     47  C   UNL A   1      40.063  24.982  28.441  1.00  0.00     0.031 C 
ATOM     48  C   UNL A   1      44.378  23.711  29.983  1.00  0.00     0.029 A 
ATOM     49  N   UNL A   1      43.518  25.713  30.287  1.00  0.00    -0.354 N 
ATOM     50  C   UNL A   1      40.198  27.055  27.507  1.00  0.00     0.074 A 
ATOM     51  C   UNL A   1      39.339  25.970  27.908  1.00  0.00     0.031 C 
ATOM     52  C   UNL A   1      44.753  24.110  31.220  1.00  0.00     0.029 A 
ATOM     53  C   UNL A   1      44.199  25.428  31.466  1.00  0.00     0.049 A 
ATOM     54  H   UNL A   1      43.137  26.602  30.098  1.00  0.00     0.167 HD
ATOM     55  C   UNL A   1      39.997  28.401  27.488  1.00  0.00     0.031 A 
ATOM     56  C   UNL A   1      44.273  26.212  32.572  1.00  0.00     0.031 A 
ATOM     57  C   UNL A   1      41.216  29.106  27.163  1.00  0.00     0.049 A 
ATOM     58  C   UNL A   1      43.921  27.590  32.147  1.00  0.00     0.074 A 
ATOM     59  C   UNL A   1      42.090  29.084  26.094  1.00  0.00     0.029 A 
ATOM     60  N   UNL A   1      41.914  29.649  28.218  1.00  0.00    -0.354 N 
ATOM     61  N   UNL A   1      44.675  28.297  31.353  1.00  0.00    -0.248 NA
ATOM     62  C   UNL A   1      42.519  27.979  32.183  1.00  0.00     0.031 C 
ATOM     63  C   UNL A   1      43.387  29.152  26.684  1.00  0.00     0.029 A 
ATOM     64  C   UNL A   1      43.236  29.317  28.062  1.00  0.00     0.049 A 
ATOM     65  H   UNL A   1      41.534  30.182  28.953  1.00  0.00     0.167 HD
ATOM     66  C   UNL A   1      43.788  28.874  30.455  1.00  0.00     0.074 A 
ATOM     67  C   UNL A   1      42.471  28.733  31.079  1.00  0.00     0.031 C 
ATOM     68  C   UNL A   1      44.156  29.122  29.162  1.00  0.00     0.031 A 
BRANCH  55  69
ATOM     69  C   UNL A   1      38.857  29.090  28.189  1.00  0.00    -0.014 A 
ATOM     70  C   UNL A   1      38.704  28.879  29.570  1.00  0.00     0.009 A 
ATOM     71  C   UNL A   1      37.777  29.691  27.515  1.00  0.00     0.009 A 
ATOM     72  C   UNL A   1      37.502  29.170  30.221  1.00  0.00     0.001 A 
ATOM     73  C   UNL A   1      36.589  30.021  28.170  1.00  0.00     0.001 A 
ATOM     74  C   UNL A   1      36.440  29.730  29.518  1.00  0.00     0.000 A 
ENDBRANCH  55  69
BRANCH  56  75
ATOM     75  C   UNL A   1      44.394  25.824  33.997  1.00  0.00    -0.014 A 
ATOM     76  C   UNL A   1      43.276  25.378  34.724  1.00  0.00     0.009 A 
ATOM     77  C   UNL A   1      45.661  25.634  34.578  1.00  0.00     0.009 A 
ATOM     78  C   UNL A   1      43.427  24.727  35.958  1.00  0.00     0.001 A 
ATOM     79  C   UNL A   1      45.811  24.988  35.811  1.00  0.00     0.001 A 
ATOM     80  C   UNL A   1      44.694  24.518  36.493  1.00  0.00     0.000 A 
ENDBRANCH  56  75
BRANCH  68  81
ATOM     81  C   UNL A   1      45.611  28.939  28.789  1.00  0.00    -0.014 A 
ATOM     82  C   UNL A   1      46.154  27.712  28.362  1.00  0.00     0.009 A 
ATOM     83  C   UNL A   1      46.419  30.081  28.705  1.00  0.00     0.009 A 
ATOM     84  C   UNL A   1      47.470  27.630  27.896  1.00  0.00     0.001 A 
ATOM     85  C   UNL A   1      47.726  30.004  28.218  1.00  0.00     0.001 A 
ATOM     86  C   UNL A   1      48.254  28.778  27.820  1.00  0.00     0.000 A 
ENDBRANCH  68  81
ENDBRANCH  42  43
ENDBRANCH  34  37
ENDBRANCH  32  33
ENDBRANCH  31  32
ENDBRANCH  30  31
ENDBRANCH   3  30
TORSDOF 15
ENDMDL
MODEL 2
REMARK VINA RESULT:     -12.1      3.695      8.930
REMARK SMILES CCOC(=O)c1c(NC(=O)[C@@H]2[C@@H](C(=O)NCCCNC(=O)c3ccc(-c4c5nc(c(-c6ccccc6)c6ccc([nH]6)c(-c6ccccc6)c6nc(c(-c7ccccc7)c7ccc4[nH]7)C=C6)C=C5)cc3)[C@@H]3C=C[C@H]2CC3)sc2c1CCC2
REMARK SMILES IDX 13 1 14 2 15 3 12 5 11 6 73 7 70 8 72 9 74 10 71 11 75 12
REMARK SMILES IDX 9 13 8 14 10 16 7 17 6 18 78 19 76 20 77 21 79 22 81 23
REMARK SMILES IDX 80 24 4 25 5 26 3 27 2 28 1 29 16 30 17 31 18 32 19 33 20 34
REMARK SMILES IDX 21 36 22 37 23 38 69 39 24 40 68 41 25 42 26 43 27 44 62 45
REMARK SMILES IDX 28 46 67 47 61 48 63 49 29 50 66 51 60 52 59 53 30 55 52 56
REMARK SMILES IDX 37 57 51 58 38 59 41 60 50 61 64 62 39 63 40 64 49 66 65 67
REMARK SMILES IDX 42 68 31 69 32 70 36 71 33 72 35 73 34 74 53 75 54 76 58 77
REMARK SMILES IDX 55 78 57 79 56 80 43 81 44 82 48 83 45 84 47 85 46 86
REMARK H PARENT 15 4 8 15 19 35 63 54 41 65
REMARK Flexibility Score: inf
ROOT
ATOM      1  C   UNL A   1      32.478  28.608  25.420  1.00  0.00     0.224 C 
ATOM      2  O   UNL A   1      33.585  28.331  24.936  1.00  0.00    -0.275 OA
ATOM      3  N   UNL A   1      32.464  29.766  26.124  1.00  0.00    -0.356 N 
ATOM      4  H   UNL A   1      33.347  30.200  26.164  1.00  0.00     0.163 HD
ENDROOT
BRANCH   1   5
ATOM      5  C   UNL A   1      31.263  27.698  25.132  1.00  0.00     0.098 C 
ATOM      6  C   UNL A   1      31.522  26.185  24.841  1.00  0.00     0.099 C 
ATOM      7  C   UNL A   1      30.878  25.780  23.479  1.00  0.00     0.025 C 
ATOM      8  C   UNL A   1      30.537  28.305  23.868  1.00  0.00     0.025 C 
ATOM      9  C   UNL A   1      29.437  26.218  23.446  1.00  0.00    -0.027 C 
ATOM     10  C   UNL A   1      31.648  26.565  22.393  1.00  0.00     0.009 C 
ATOM     11  C   UNL A   1      29.257  27.528  23.644  1.00  0.00    -0.027 C 
ATOM     12  C   UNL A   1      31.424  28.075  22.609  1.00  0.00     0.009 C 
BRANCH   6  13
ATOM     13  C   UNL A   1      31.114  25.202  25.946  1.00  0.00     0.229 C 
ATOM     14  N   UNL A   1      31.867  24.096  26.283  1.00  0.00    -0.317 N 
ATOM     15  H   UNL A   1      31.428  23.512  26.941  1.00  0.00     0.170 HD
ATOM     16  O   UNL A   1      30.081  25.388  26.599  1.00  0.00    -0.274 OA
BRANCH  14  17
ATOM     17  C   UNL A   1      33.121  23.636  25.886  1.00  0.00     0.110 A 
ATOM     18  C   UNL A   1      33.512  22.324  25.572  1.00  0.00     0.098 A 
ATOM     19  C   UNL A   1      34.882  22.314  25.138  1.00  0.00    -0.017 A 
ATOM     20  S   UNL A   1      34.454  24.694  25.800  1.00  0.00    -0.122 S 
ATOM     21  C   UNL A   1      35.445  23.551  25.192  1.00  0.00     0.011 A 
ATOM     22  C   UNL A   1      35.873  21.355  24.580  1.00  0.00     0.038 C 
ATOM     23  C   UNL A   1      36.828  23.668  24.711  1.00  0.00     0.047 C 
ATOM     24  C   UNL A   1      37.216  22.172  24.664  1.00  0.00     0.010 C 
BRANCH  18  25
ATOM     25  C   UNL A   1      32.607  21.183  25.646  1.00  0.00     0.341 C 
ATOM     26  O   UNL A   1      31.413  21.267  25.407  1.00  0.00    -0.246 OA
BRANCH  25  27
ATOM     27  O   UNL A   1      33.243  20.054  26.075  1.00  0.00    -0.462 OA
BRANCH  27  28
ATOM     28  C   UNL A   1      32.834  18.811  25.482  1.00  0.00     0.230 C 
ATOM     29  C   UNL A   1      33.352  18.623  24.063  1.00  0.00     0.049 C 
ENDBRANCH  27  28
ENDBRANCH  25  27
ENDBRANCH  18  25
ENDBRANCH  14  17
ENDBRANCH   6  13
ENDBRANCH   1   5
BRANCH   3  30
ATOM     30  C   UNL A   1      31.439  30.512  26.837  1.00  0.00     0.117 C 
BRANCH  30  31
ATOM     31  C   UNL A   1      31.537  32.021  26.585  1.00  0.00     0.042 C 
BRANCH  31  32
ATOM     32  C   UNL A   1      32.769  32.668  27.161  1.00  0.00     0.118 C 
BRANCH  32  33
ATOM     33  N   UNL A   1      32.514  34.008  27.699  1.00  0.00    -0.352 N 
ATOM     34  C   UNL A   1      33.112  34.616  28.794  1.00  0.00     0.251 C 
ATOM     35  H   UNL A   1      31.835  34.542  27.227  1.00  0.00     0.163 HD
ATOM     36  O   UNL A   1      32.592  35.574  29.350  1.00  0.00    -0.269 OA
BRANCH  34  37
ATOM     37  C   UNL A   1      34.394  34.070  29.275  1.00  0.00     0.039 A 
ATOM     38  C   UNL A   1      34.520  33.295  30.431  1.00  0.00     0.014 A 
ATOM     39  C   UNL A   1      35.494  34.305  28.468  1.00  0.00     0.014 A 
ATOM     40  C   UNL A   1      35.765  32.730  30.710  1.00  0.00     0.010 A 
ATOM     41  C   UNL A   1      36.565  33.479  28.549  1.00  0.00     0.010 A 
ATOM     42  C   UNL A   1      36.778  32.829  29.746  1.00  0.00    -0.014 A 
BRANCH  42  43
ATOM     43  C   UNL A   1      38.086  32.217  29.879  1.00  0.00     0.031 A 
ATOM     44  C   UNL A   1      38.128  30.811  29.431  1.00  0.00     0.074 A 
ATOM     45  C   UNL A   1      39.195  32.954  30.123  1.00  0.00     0.049 A 
ATOM     46  N   UNL A   1      38.251  29.774  30.184  1.00  0.00    -0.248 NA
ATOM     47  C   UNL A   1      37.818  30.500  28.026  1.00  0.00     0.031 C 
ATOM     48  C   UNL A   1      39.319  34.413  30.272  1.00  0.00     0.029 A 
ATOM     49  N   UNL A   1      40.491  32.555  30.148  1.00  0.00    -0.354 N 
ATOM     50  C   UNL A   1      38.278  28.686  29.323  1.00  0.00     0.074 A 
ATOM     51  C   UNL A   1      37.786  29.165  28.056  1.00  0.00     0.031 C 
ATOM     52  C   UNL A   1      40.611  34.780  30.113  1.00  0.00     0.029 A 
ATOM     53  C   UNL A   1      41.422  33.581  30.019  1.00  0.00     0.049 A 
ATOM     54  H   UNL A   1      40.755  31.612  30.251  1.00  0.00     0.167 HD
ATOM     55  C   UNL A   1      38.976  27.564  29.650  1.00  0.00     0.031 A 
ATOM     56  C   UNL A   1      42.758  33.446  29.819  1.00  0.00     0.031 A 
ATOM     57  C   UNL A   1      39.398  27.596  31.032  1.00  0.00     0.049 A 
ATOM     58  C   UNL A   1      43.117  32.067  30.234  1.00  0.00     0.074 A 
ATOM     59  C   UNL A   1      38.740  27.705  32.242  1.00  0.00     0.029 A 
ATOM     60  N   UNL A   1      40.702  27.969  31.270  1.00  0.00    -0.354 N 
ATOM     61  N   UNL A   1      43.062  31.666  31.473  1.00  0.00    -0.248 NA
ATOM     62  C   UNL A   1      43.042  31.011  29.235  1.00  0.00     0.031 C 
ATOM     63  C   UNL A   1      39.545  28.592  33.015  1.00  0.00     0.029 A 
ATOM     64  C   UNL A   1      40.696  28.893  32.284  1.00  0.00     0.049 A 
ATOM     65  H   UNL A   1      41.498  27.631  30.799  1.00  0.00     0.167 HD
ATOM     66  C   UNL A   1      42.470  30.412  31.406  1.00  0.00     0.074 A 
ATOM     67  C   UNL A   1      42.581  30.015  30.000  1.00  0.00     0.031 C 
ATOM     68  C   UNL A   1      41.670  29.955  32.415  1.00  0.00     0.031 A 
BRANCH  55  69
ATOM     69  C   UNL A   1      39.658  26.675  28.644  1.00  0.00    -0.014 A 
ATOM     70  C   UNL A   1      40.586  27.260  27.765  1.00  0.00     0.009 A 
ATOM     71  C   UNL A   1      39.223  25.373  28.334  1.00  0.00     0.009 A 
ATOM     72  C   UNL A   1      40.985  26.612  26.593  1.00  0.00     0.001 A 
ATOM     73  C   UNL A   1      39.651  24.706  27.185  1.00  0.00     0.001 A 
ATOM     74  C   UNL A   1      40.508  25.339  26.297  1.00  0.00     0.000 A 
ENDBRANCH  55  69
BRANCH  56  75
ATOM     75  C   UNL A   1      43.697  34.327  29.086  1.00  0.00    -0.014 A 
ATOM     76  C   UNL A   1      43.430  34.731  27.766  1.00  0.00     0.009 A 
ATOM     77  C   UNL A   1      44.729  34.995  29.771  1.00  0.00     0.009 A 
ATOM     78  C   UNL A   1      44.137  35.792  27.176  1.00  0.00     0.001 A 
ATOM     79  C   UNL A   1      45.435  36.050  29.181  1.00  0.00     0.001 A 
ATOM     80  C   UNL A   1      45.127  36.460  27.889  1.00  0.00     0.000 A 
ENDBRANCH  56  75
BRANCH  68  81
ATOM     81  C   UNL A   1      41.607  30.762  33.693  1.00  0.00    -0.014 A 
ATOM     82  C   UNL A   1      40.745  31.860  33.876  1.00  0.00     0.009 A 
ATOM     83  C   UNL A   1      42.320  30.293  34.806  1.00  0.00     0.009 A 
ATOM     84  C   UNL A   1      40.625  32.483  35.123  1.00  0.00     0.001 A 
ATOM     85  C   UNL A   1      42.184  30.900  36.057  1.00  0.00     0.001 A 
ATOM     86  C   UNL A   1      41.342  31.999  36.214  1.00  0.00     0.000 A 
ENDBRANCH  68  81
ENDBRANCH  42  43
ENDBRANCH  34  37
ENDBRANCH  32  33
ENDBRANCH  31  32
ENDBRANCH  30  31
ENDBRANCH   3  30
TORSDOF 15
ENDMDL
MODEL 3
REMARK VINA RESULT:     -11.9      2.585      7.622
REMARK SMILES CCOC(=O)c1c(NC(=O)[C@@H]2[C@@H](C(=O)NCCCNC(=O)c3ccc(-c4c5nc(c(-c6ccccc6)c6ccc([nH]6)c(-c6ccccc6)c6nc(c(-c7ccccc7)c7ccc4[nH]7)C=C6)C=C5)cc3)[C@@H]3C=C[C@H]2CC3)sc2c1CCC2
REMARK SMILES IDX 13 1 14 2 15 3 12 5 11 6 73 7 70 8 72 9 74 10 71 11 75 12
REMARK SMILES IDX 9 13 8 14 10 16 7 17 6 18 78 19 76 20 77 21 79 22 81 23
REMARK SMILES IDX 80 24 4 25 5 26 3 27 2 28 1 29 16 30 17 31 18 32 19 33 20 34
REMARK SMILES IDX 21 36 22 37 23 38 69 39 24 40 68 41 25 42 26 43 27 44 62 45
REMARK SMILES IDX 28 46 67 47 61 48 63 49 29 50 66 51 60 52 59 53 30 55 52 56
REMARK SMILES IDX 37 57 51 58 38 59 41 60 50 61 64 62 39 63 40 64 49 66 65 67
REMARK SMILES IDX 42 68 31 69 32 70 36 71 33 72 35 73 34 74 53 75 54 76 58 77
REMARK SMILES IDX 55 78 57 79 56 80 43 81 44 82 48 83 45 84 47 85 46 86
REMARK H PARENT 15 4 8 15 19 35 63 54 41 65
REMARK Flexibility Score: inf
ROOT
ATOM      1  C   UNL A   1      33.206  27.231  25.347  1.00  0.00     0.224 C 
ATOM      2  O   UNL A   1      34.377  26.836  25.263  1.00  0.00    -0.275 OA
ATOM      3  N   UNL A   1      33.092  28.570  25.521  1.00  0.00    -0.356 N 
ATOM      4  H   UNL A   1      33.964  29.023  25.578  1.00  0.00     0.163 HD
ENDROOT
BRANCH   1   5
ATOM      5  C   UNL A   1      32.041  26.228  25.183  1.00  0.00     0.098 C 
ATOM      6  C   UNL A   1      32.377  24.703  25.136  1.00  0.00     0.099 C 
ATOM      7  C   UNL A   1      31.787  24.061  23.842  1.00  0.00     0.025 C 
ATOM      8  C   UNL A   1      31.320  26.596  23.828  1.00  0.00     0.025 C 
ATOM      9  C   UNL A   1      30.329  24.417  23.715  1.00  0.00    -0.027 C 
ATOM     10  C   UNL A   1      32.547  24.706  22.661  1.00  0.00     0.009 C 
ATOM     11  C   UNL A   1      30.084  25.731  23.704  1.00  0.00    -0.027 C 
ATOM     12  C   UNL A   1      32.249  26.218  22.636  1.00  0.00     0.009 C 
BRANCH   6  13
ATOM     13  C   UNL A   1      31.987  23.884  26.373  1.00  0.00     0.229 C 
ATOM     14  N   UNL A   1      32.666  22.749  26.767  1.00  0.00    -0.317 N 
ATOM     15  H   UNL A   1      32.239  22.281  27.519  1.00  0.00     0.170 HD
ATOM     16  O   UNL A   1      31.040  24.237  27.085  1.00  0.00    -0.274 OA
BRANCH  14  17
ATOM     17  C   UNL A   1      33.831  22.128  26.321  1.00  0.00     0.110 A 
ATOM     18  C   UNL A   1      33.970  20.883  25.687  1.00  0.00     0.098 A 
ATOM     19  C   UNL A   1      35.346  20.668  25.331  1.00  0.00    -0.017 A 
ATOM     20  S   UNL A   1      35.356  22.841  26.581  1.00  0.00    -0.122 S 
ATOM     21  C   UNL A   1      36.145  21.690  25.738  1.00  0.00     0.011 A 
ATOM     22  C   UNL A   1      36.169  19.678  24.584  1.00  0.00     0.038 C 
ATOM     23  C   UNL A   1      37.565  21.604  25.370  1.00  0.00     0.047 C 
ATOM     24  C   UNL A   1      37.636  20.119  24.945  1.00  0.00     0.010 C 
BRANCH  18  25
ATOM     25  C   UNL A   1      32.845  19.997  25.412  1.00  0.00     0.341 C 
ATOM     26  O   UNL A   1      31.754  20.404  25.048  1.00  0.00    -0.246 OA
BRANCH  25  27
ATOM     27  O   UNL A   1      33.145  18.692  25.680  1.00  0.00    -0.462 OA
BRANCH  27  28
ATOM     28  C   UNL A   1      32.547  17.699  24.831  1.00  0.00     0.230 C 
ATOM     29  C   UNL A   1      33.408  17.339  23.628  1.00  0.00     0.049 C 
ENDBRANCH  27  28
ENDBRANCH  25  27
ENDBRANCH  18  25
ENDBRANCH  14  17
ENDBRANCH   6  13
ENDBRANCH   1   5
BRANCH   3  30
ATOM     30  C   UNL A   1      31.972  29.490  25.644  1.00  0.00     0.117 C 
BRANCH  30  31
ATOM     31  C   UNL A   1      32.003  30.271  26.963  1.00  0.00     0.042 C 
BRANCH  31  32
ATOM     32  C   UNL A   1      33.382  30.461  27.539  1.00  0.00     0.118 C 
BRANCH  32  33
ATOM     33  N   UNL A   1      33.867  31.841  27.420  1.00  0.00    -0.352 N 
ATOM     34  C   UNL A   1      35.055  32.371  27.901  1.00  0.00     0.251 C 
ATOM     35  H   UNL A   1      33.277  32.467  26.942  1.00  0.00     0.163 HD
ATOM     36  O   UNL A   1      35.198  33.578  28.046  1.00  0.00    -0.269 OA
BRANCH  34  37
ATOM     37  C   UNL A   1      36.146  31.437  28.239  1.00  0.00     0.039 A 
ATOM     38  C   UNL A   1      36.303  30.183  27.643  1.00  0.00     0.014 A 
ATOM     39  C   UNL A   1      37.080  31.901  29.149  1.00  0.00     0.014 A 
ATOM     40  C   UNL A   1      37.446  29.447  27.954  1.00  0.00     0.010 A 
ATOM     41  C   UNL A   1      38.322  31.359  29.160  1.00  0.00     0.010 A 
ATOM     42  C   UNL A   1      38.453  30.061  28.714  1.00  0.00    -0.014 A 
BRANCH  42  43
ATOM     43  C   UNL A   1      39.721  29.435  29.035  1.00  0.00     0.031 A 
ATOM     44  C   UNL A   1      39.887  29.142  30.472  1.00  0.00     0.074 A 
ATOM     45  C   UNL A   1      40.528  28.928  28.073  1.00  0.00     0.049 A 
ATOM     46  N   UNL A   1      40.685  29.743  31.285  1.00  0.00    -0.248 NA
ATOM     47  C   UNL A   1      38.948  28.216  31.124  1.00  0.00     0.031 C 
ATOM     48  C   UNL A   1      40.311  28.879  26.618  1.00  0.00     0.029 A 
ATOM     49  N   UNL A   1      41.669  28.208  28.214  1.00  0.00    -0.354 N 
ATOM     50  C   UNL A   1      40.524  29.106  32.507  1.00  0.00     0.074 A 
ATOM     51  C   UNL A   1      39.303  28.347  32.405  1.00  0.00     0.031 C 
ATOM     52  C   UNL A   1      41.138  27.964  26.063  1.00  0.00     0.029 A 
ATOM     53  C   UNL A   1      42.050  27.488  27.087  1.00  0.00     0.049 A 
ATOM     54  H   UNL A   1      42.190  28.197  29.050  1.00  0.00     0.167 HD
ATOM     55  C   UNL A   1      41.559  29.029  33.388  1.00  0.00     0.031 A 
ATOM     56  C   UNL A   1      43.026  26.546  27.015  1.00  0.00     0.031 A 
ATOM     57  C   UNL A   1      42.649  29.889  32.987  1.00  0.00     0.049 A 
ATOM     58  C   UNL A   1      43.913  26.758  28.186  1.00  0.00     0.074 A 
ATOM     59  C   UNL A   1      42.774  31.243  32.747  1.00  0.00     0.029 A 
ATOM     60  N   UNL A   1      43.705  29.286  32.341  1.00  0.00    -0.354 N 
ATOM     61  N   UNL A   1      44.666  27.813  28.318  1.00  0.00    -0.248 NA
ATOM     62  C   UNL A   1      43.586  26.068  29.425  1.00  0.00     0.031 C 
ATOM     63  C   UNL A   1      43.595  31.331  31.584  1.00  0.00     0.029 A 
ATOM     64  C   UNL A   1      44.012  30.044  31.240  1.00  0.00     0.049 A 
ATOM     65  H   UNL A   1      44.160  28.459  32.621  1.00  0.00     0.167 HD
ATOM     66  C   UNL A   1      44.506  28.190  29.645  1.00  0.00     0.074 A 
ATOM     67  C   UNL A   1      43.920  27.021  30.303  1.00  0.00     0.031 C 
ATOM     68  C   UNL A   1      44.562  29.505  30.015  1.00  0.00     0.031 A 
BRANCH  55  69
ATOM     69  C   UNL A   1      41.777  27.876  34.330  1.00  0.00    -0.014 A 
ATOM     70  C   UNL A   1      41.720  28.130  35.712  1.00  0.00     0.009 A 
ATOM     71  C   UNL A   1      42.314  26.637  33.935  1.00  0.00     0.009 A 
ATOM     72  C   UNL A   1      42.255  27.232  36.639  1.00  0.00     0.001 A 
ATOM     73  C   UNL A   1      42.812  25.718  34.861  1.00  0.00     0.001 A 
ATOM     74  C   UNL A   1      42.812  26.030  36.212  1.00  0.00     0.000 A 
ENDBRANCH  55  69
BRANCH  56  75
ATOM     75  C   UNL A   1      43.116  25.344  26.153  1.00  0.00    -0.014 A 
ATOM     76  C   UNL A   1      44.222  25.138  25.311  1.00  0.00     0.009 A 
ATOM     77  C   UNL A   1      42.244  24.258  26.354  1.00  0.00     0.009 A 
ATOM     78  C   UNL A   1      44.468  23.883  24.731  1.00  0.00     0.001 A 
ATOM     79  C   UNL A   1      42.487  23.007  25.773  1.00  0.00     0.001 A 
ATOM     80  C   UNL A   1      43.610  22.815  24.976  1.00  0.00     0.000 A 
ENDBRANCH  56  75
BRANCH  68  81
ATOM     81  C   UNL A   1      45.003  30.517  28.981  1.00  0.00    -0.014 A 
ATOM     82  C   UNL A   1      46.342  30.913  28.806  1.00  0.00     0.009 A 
ATOM     83  C   UNL A   1      44.059  30.956  28.043  1.00  0.00     0.009 A 
ATOM     84  C   UNL A   1      46.715  31.745  27.744  1.00  0.00     0.001 A 
ATOM     85  C   UNL A   1      44.433  31.768  26.970  1.00  0.00     0.001 A 
ATOM     86  C   UNL A   1      45.760  32.169  26.824  1.00  0.00     0.000 A 
ENDBRANCH  68  81
ENDBRANCH  42  43
ENDBRANCH  34  37
ENDBRANCH  32  33
ENDBRANCH  31  32
ENDBRANCH  30  31
ENDBRANCH   3  30
TORSDOF 15
ENDMDL
