MODEL 1
REMARK VINA RESULT:     -12.0      0.000      0.000
REMARK SMILES C[C@H](Oc1cc2oc(=O)cc(-c3ccccc3)c2cc1Cl)C(=O)NCCCNC(=O)c1ccc(-c2c3nc(c(-c4ccccc4)c4ccc([nH]4)c(-c4ccccc4)c4nc(c(-c5ccccc5)c5ccc2[nH]5)C=C4)C=C3)cc1
REMARK SMILES IDX 25 1 24 2 22 3 23 4 2 6 1 7 3 8 4 9 5 10 20 11 6 12 19 13
REMARK SMILES IDX 21 14 7 15 18 16 8 17 11 18 9 19 10 20 12 21 13 22 17 23
REMARK SMILES IDX 14 24 16 25 15 26 26 27 27 28 28 29 29 30 30 32 31 33 32 34
REMARK SMILES IDX 78 35 33 36 77 37 34 38 35 39 36 40 71 41 37 42 76 43 70 44
REMARK SMILES IDX 72 45 38 46 75 47 69 48 68 49 39 51 61 52 46 53 60 54 47 55
REMARK SMILES IDX 50 56 59 57 73 58 48 59 49 60 58 62 74 63 51 64 40 65 41 66
REMARK SMILES IDX 45 67 42 68 44 69 43 70 62 71 63 72 67 73 64 74 66 75 65 76
REMARK SMILES IDX 52 77 53 78 57 79 54 80 56 81 55 82
REMARK H PARENT 24 5 28 31 72 50 50 61
REMARK Flexibility Score: inf
ROOT
ATOM      1  C   UNL A   1      31.754  28.250  25.770  1.00  0.00     0.118 C 
ENDROOT
BRANCH   1   2
ATOM      2  N   UNL A   1      30.680  27.310  25.499  1.00  0.00    -0.353 N 
ATOM      3  C   UNL A   1      30.163  26.911  24.294  1.00  0.00     0.260 C 
ATOM      4  O   UNL A   1      29.234  26.100  24.301  1.00  0.00    -0.271 OA
ATOM      5  H   UNL A   1      30.264  26.903  26.294  1.00  0.00     0.163 HD
BRANCH   3   6
ATOM      6  C   UNL A   1      30.791  27.413  22.984  1.00  0.00     0.258 C 
ATOM      7  C   UNL A   1      29.832  28.452  22.393  1.00  0.00     0.064 C 
BRANCH   6   8
ATOM      8  O   UNL A   1      31.143  26.225  22.270  1.00  0.00    -0.479 OA
BRANCH   8   9
ATOM      9  C   UNL A   1      31.943  25.219  22.710  1.00  0.00     0.142 A 
ATOM     10  C   UNL A   1      31.563  23.893  22.856  1.00  0.00     0.096 A 
ATOM     11  C   UNL A   1      33.247  25.579  23.100  1.00  0.00     0.084 A 
ATOM     12  C   UNL A   1      32.401  23.005  23.534  1.00  0.00     0.142 A 
ATOM     13  C   UNL A   1      34.109  24.657  23.709  1.00  0.00     0.037 A 
ATOM     14  Cl  UNL A   1      33.836  27.193  22.878  1.00  0.00    -0.080 Cl
ATOM     15  O   UNL A   1      31.855  21.738  23.800  1.00  0.00    -0.423 OA
ATOM     16  C   UNL A   1      33.672  23.359  23.980  1.00  0.00     0.027 A 
ATOM     17  C   UNL A   1      32.507  20.856  24.640  1.00  0.00     0.336 A 
ATOM     18  C   UNL A   1      34.475  22.367  24.714  1.00  0.00    -0.000 A 
ATOM     19  O   UNL A   1      31.992  19.810  25.018  1.00  0.00    -0.246 OA
ATOM     20  C   UNL A   1      33.877  21.207  25.037  1.00  0.00     0.103 A 
BRANCH  18  21
ATOM     21  C   UNL A   1      35.878  22.517  25.153  1.00  0.00    -0.017 A 
ATOM     22  C   UNL A   1      36.296  23.710  25.760  1.00  0.00     0.009 A 
ATOM     23  C   UNL A   1      36.809  21.484  24.970  1.00  0.00     0.009 A 
ATOM     24  C   UNL A   1      37.618  23.869  26.178  1.00  0.00     0.001 A 
ATOM     25  C   UNL A   1      38.129  21.642  25.399  1.00  0.00     0.001 A 
ATOM     26  C   UNL A   1      38.533  22.834  26.000  1.00  0.00     0.000 A 
ENDBRANCH  18  21
ENDBRANCH   8   9
ENDBRANCH   6   8
ENDBRANCH   3   6
ENDBRANCH   1   2
BRANCH   1  27
ATOM     27  C   UNL A   1      32.299  28.113  27.182  1.00  0.00     0.042 C 
BRANCH  27  28
ATOM     28  C   UNL A   1      33.700  28.678  27.353  1.00  0.00     0.118 C 
BRANCH  28  29
ATOM     29  N   UNL A   1      33.699  30.069  27.784  1.00  0.00    -0.352 N 
ATOM     30  C   UNL A   1      34.671  30.797  28.423  1.00  0.00     0.251 C 
ATOM     31  H   UNL A   1      32.871  30.565  27.588  1.00  0.00     0.163 HD
ATOM     32  O   UNL A   1      34.408  31.911  28.863  1.00  0.00    -0.269 OA
BRANCH  30  33
ATOM     33  C   UNL A   1      36.028  30.236  28.602  1.00  0.00     0.039 A 
ATOM     34  C   UNL A   1      36.929  30.303  27.537  1.00  0.00     0.014 A 
ATOM     35  C   UNL A   1      36.409  29.634  29.803  1.00  0.00     0.014 A 
ATOM     36  C   UNL A   1      38.230  29.821  27.700  1.00  0.00     0.010 A 
ATOM     37  C   UNL A   1      37.731  29.246  29.997  1.00  0.00     0.010 A 
ATOM     38  C   UNL A   1      38.652  29.321  28.943  1.00  0.00    -0.014 A 
BRANCH  38  39
ATOM     39  C   UNL A   1      40.046  28.859  29.151  1.00  0.00     0.031 A 
ATOM     40  C   UNL A   1      41.063  29.779  29.773  1.00  0.00     0.074 A 
ATOM     41  C   UNL A   1      40.410  27.631  28.735  1.00  0.00     0.049 A 
ATOM     42  N   UNL A   1      42.334  29.563  30.010  1.00  0.00    -0.248 NA
ATOM     43  C   UNL A   1      40.603  31.124  30.154  1.00  0.00     0.031 C 
ATOM     44  C   UNL A   1      39.532  26.662  28.076  1.00  0.00     0.029 A 
ATOM     45  N   UNL A   1      41.620  26.987  28.807  1.00  0.00    -0.354 N 
ATOM     46  C   UNL A   1      42.821  30.747  30.552  1.00  0.00     0.074 A 
ATOM     47  C   UNL A   1      41.729  31.694  30.552  1.00  0.00     0.031 C 
ATOM     48  C   UNL A   1      40.221  25.535  27.840  1.00  0.00     0.029 A 
ATOM     49  C   UNL A   1      41.597  25.715  28.289  1.00  0.00     0.049 A 
ATOM     50  H   UNL A   1      42.428  27.398  29.192  1.00  0.00     0.167 HD
ATOM     51  C   UNL A   1      44.060  31.016  31.029  1.00  0.00     0.031 A 
ATOM     52  C   UNL A   1      42.576  24.795  28.188  1.00  0.00     0.031 A 
ATOM     53  C   UNL A   1      45.145  30.070  31.035  1.00  0.00     0.049 A 
ATOM     54  C   UNL A   1      43.945  25.123  28.713  1.00  0.00     0.074 A 
ATOM     55  C   UNL A   1      46.423  30.229  31.542  1.00  0.00     0.029 A 
ATOM     56  N   UNL A   1      45.080  28.791  30.504  1.00  0.00    -0.354 N 
ATOM     57  N   UNL A   1      44.371  26.221  29.288  1.00  0.00    -0.248 NA
ATOM     58  C   UNL A   1      44.966  24.072  28.591  1.00  0.00     0.031 C 
ATOM     59  C   UNL A   1      47.148  29.064  31.268  1.00  0.00     0.029 A 
ATOM     60  C   UNL A   1      46.302  28.157  30.650  1.00  0.00     0.049 A 
ATOM     61  H   UNL A   1      44.283  28.394  30.084  1.00  0.00     0.167 HD
ATOM     62  C   UNL A   1      45.697  25.984  29.624  1.00  0.00     0.074 A 
ATOM     63  C   UNL A   1      45.998  24.629  29.206  1.00  0.00     0.031 C 
ATOM     64  C   UNL A   1      46.587  26.811  30.227  1.00  0.00     0.031 A 
BRANCH  51  65
ATOM     65  C   UNL A   1      44.305  32.395  31.578  1.00  0.00    -0.014 A 
ATOM     66  C   UNL A   1      44.092  32.689  32.935  1.00  0.00     0.009 A 
ATOM     67  C   UNL A   1      44.785  33.408  30.733  1.00  0.00     0.009 A 
ATOM     68  C   UNL A   1      44.314  33.978  33.424  1.00  0.00     0.001 A 
ATOM     69  C   UNL A   1      45.038  34.688  31.232  1.00  0.00     0.001 A 
ATOM     70  C   UNL A   1      44.791  34.974  32.573  1.00  0.00     0.000 A 
ENDBRANCH  51  65
BRANCH  52  71
ATOM     71  C   UNL A   1      42.292  23.467  27.582  1.00  0.00    -0.014 A 
ATOM     72  C   UNL A   1      42.589  23.223  26.233  1.00  0.00     0.009 A 
ATOM     73  C   UNL A   1      41.714  22.442  28.345  1.00  0.00     0.009 A 
ATOM     74  C   UNL A   1      42.280  21.990  25.651  1.00  0.00     0.001 A 
ATOM     75  C   UNL A   1      41.436  21.200  27.770  1.00  0.00     0.001 A 
ATOM     76  C   UNL A   1      41.708  20.979  26.421  1.00  0.00     0.000 A 
ENDBRANCH  52  71
BRANCH  64  77
ATOM     77  C   UNL A   1      47.956  26.256  30.509  1.00  0.00    -0.014 A 
ATOM     78  C   UNL A   1      48.968  26.268  29.536  1.00  0.00     0.009 A 
ATOM     79  C   UNL A   1      48.241  25.733  31.779  1.00  0.00     0.009 A 
ATOM     80  C   UNL A   1      50.223  25.724  29.817  1.00  0.00     0.001 A 
ATOM     81  C   UNL A   1      49.507  25.222  32.069  1.00  0.00     0.001 A 
ATOM     82  C   UNL A   1      50.492  25.207  31.083  1.00  0.00     0.000 A 
ENDBRANCH  64  77
ENDBRANCH  38  39
ENDBRANCH  30  33
ENDBRANCH  28  29
ENDBRANCH  27  28
ENDBRANCH   1  27
TORSDOF 13
ENDMDL
MODEL 2
REMARK VINA RESULT:     -11.8      2.447      7.792
REMARK SMILES C[C@H](Oc1cc2oc(=O)cc(-c3ccccc3)c2cc1Cl)C(=O)NCCCNC(=O)c1ccc(-c2c3nc(c(-c4ccccc4)c4ccc([nH]4)c(-c4ccccc4)c4nc(c(-c5ccccc5)c5ccc2[nH]5)C=C4)C=C3)cc1
REMARK SMILES IDX 25 1 24 2 22 3 23 4 2 6 1 7 3 8 4 9 5 10 20 11 6 12 19 13
REMARK SMILES IDX 21 14 7 15 18 16 8 17 11 18 9 19 10 20 12 21 13 22 17 23
REMARK SMILES IDX 14 24 16 25 15 26 26 27 27 28 28 29 29 30 30 32 31 33 32 34
REMARK SMILES IDX 78 35 33 36 77 37 34 38 35 39 36 40 71 41 37 42 76 43 70 44
REMARK SMILES IDX 72 45 38 46 75 47 69 48 68 49 39 51 61 52 46 53 60 54 47 55
REMARK SMILES IDX 50 56 59 57 73 58 48 59 49 60 58 62 74 63 51 64 40 65 41 66
REMARK SMILES IDX 45 67 42 68 44 69 43 70 62 71 63 72 67 73 64 74 66 75 65 76
REMARK SMILES IDX 52 77 53 78 57 79 54 80 56 81 55 82
REMARK H PARENT 24 5 28 31 72 50 50 61
REMARK Flexibility Score: inf
ROOT
ATOM      1  C   UNL A   1      34.943  22.819  23.840  1.00  0.00     0.118 C 
ENDROOT
BRANCH   1   2
ATOM      2  N   UNL A   1      34.686  21.497  24.385  1.00  0.00    -0.353 N 
ATOM      3  C   UNL A   1      33.499  20.821  24.493  1.00  0.00     0.260 C 
ATOM      4  O   UNL A   1      33.513  19.699  25.005  1.00  0.00    -0.271 OA
ATOM      5  H   UNL A   1      35.477  21.019  24.725  1.00  0.00     0.163 HD
BRANCH   3   6
ATOM      6  C   UNL A   1      32.211  21.431  23.915  1.00  0.00     0.258 C 
ATOM      7  C   UNL A   1      32.575  22.056  22.564  1.00  0.00     0.064 C 
BRANCH   6   8
ATOM      8  O   UNL A   1      31.668  22.212  24.983  1.00  0.00    -0.479 OA
BRANCH   8   9
ATOM      9  C   UNL A   1      31.567  23.565  25.030  1.00  0.00     0.142 A 
ATOM     10  C   UNL A   1      30.750  24.341  24.222  1.00  0.00     0.096 A 
ATOM     11  C   UNL A   1      32.411  24.225  25.944  1.00  0.00     0.084 A 
ATOM     12  C   UNL A   1      30.908  25.728  24.208  1.00  0.00     0.142 A 
ATOM     13  C   UNL A   1      32.503  25.624  25.975  1.00  0.00     0.037 A 
ATOM     14  Cl  UNL A   1      33.405  23.337  27.051  1.00  0.00    -0.080 Cl
ATOM     15  O   UNL A   1      30.174  26.414  23.224  1.00  0.00    -0.423 OA
ATOM     16  C   UNL A   1      31.781  26.396  25.063  1.00  0.00     0.027 A 
ATOM     17  C   UNL A   1      30.409  27.753  22.981  1.00  0.00     0.336 A 
ATOM     18  C   UNL A   1      31.907  27.860  24.958  1.00  0.00    -0.000 A 
ATOM     19  O   UNL A   1      29.904  28.344  22.034  1.00  0.00    -0.246 OA
ATOM     20  C   UNL A   1      31.269  28.461  23.939  1.00  0.00     0.103 A 
BRANCH  18  21
ATOM     21  C   UNL A   1      32.680  28.746  25.852  1.00  0.00    -0.017 A 
ATOM     22  C   UNL A   1      34.030  28.468  26.113  1.00  0.00     0.009 A 
ATOM     23  C   UNL A   1      32.088  29.865  26.453  1.00  0.00     0.009 A 
ATOM     24  C   UNL A   1      34.774  29.293  26.958  1.00  0.00     0.001 A 
ATOM     25  C   UNL A   1      32.838  30.696  27.289  1.00  0.00     0.001 A 
ATOM     26  C   UNL A   1      34.179  30.409  27.542  1.00  0.00     0.000 A 
ENDBRANCH  18  21
ENDBRANCH   8   9
ENDBRANCH   6   8
ENDBRANCH   3   6
ENDBRANCH   1   2
BRANCH   1  27
ATOM     27  C   UNL A   1      36.424  23.152  23.806  1.00  0.00     0.042 C 
BRANCH  27  28
ATOM     28  C   UNL A   1      37.019  23.436  25.176  1.00  0.00     0.118 C 
BRANCH  28  29
ATOM     29  N   UNL A   1      38.083  22.508  25.532  1.00  0.00    -0.352 N 
ATOM     30  C   UNL A   1      39.282  22.738  26.157  1.00  0.00     0.251 C 
ATOM     31  H   UNL A   1      37.917  21.569  25.284  1.00  0.00     0.163 HD
ATOM     32  O   UNL A   1      40.124  21.847  26.206  1.00  0.00    -0.269 OA
BRANCH  30  33
ATOM     33  C   UNL A   1      39.572  24.059  26.754  1.00  0.00     0.039 A 
ATOM     34  C   UNL A   1      39.164  24.310  28.066  1.00  0.00     0.014 A 
ATOM     35  C   UNL A   1      40.229  25.053  26.025  1.00  0.00     0.014 A 
ATOM     36  C   UNL A   1      39.469  25.534  28.664  1.00  0.00     0.010 A 
ATOM     37  C   UNL A   1      40.619  26.232  26.653  1.00  0.00     0.010 A 
ATOM     38  C   UNL A   1      40.230  26.492  27.974  1.00  0.00    -0.014 A 
BRANCH  38  39
ATOM     39  C   UNL A   1      40.613  27.774  28.614  1.00  0.00     0.031 A 
ATOM     40  C   UNL A   1      42.014  27.975  29.129  1.00  0.00     0.074 A 
ATOM     41  C   UNL A   1      39.688  28.739  28.778  1.00  0.00     0.049 A 
ATOM     42  N   UNL A   1      42.527  29.014  29.740  1.00  0.00    -0.248 NA
ATOM     43  C   UNL A   1      42.954  26.855  28.960  1.00  0.00     0.031 C 
ATOM     44  C   UNL A   1      38.285  28.652  28.366  1.00  0.00     0.029 A 
ATOM     45  N   UNL A   1      39.792  29.989  29.337  1.00  0.00    -0.354 N 
ATOM     46  C   UNL A   1      43.838  28.665  30.038  1.00  0.00     0.074 A 
ATOM     47  C   UNL A   1      44.025  27.301  29.598  1.00  0.00     0.031 C 
ATOM     48  C   UNL A   1      37.671  29.810  28.651  1.00  0.00     0.029 A 
ATOM     49  C   UNL A   1      38.620  30.706  29.302  1.00  0.00     0.049 A 
ATOM     50  H   UNL A   1      40.627  30.338  29.726  1.00  0.00     0.167 HD
ATOM     51  C   UNL A   1      44.810  29.418  30.607  1.00  0.00     0.031 A 
ATOM     52  C   UNL A   1      38.342  31.946  29.746  1.00  0.00     0.031 A 
ATOM     53  C   UNL A   1      44.626  30.778  31.039  1.00  0.00     0.049 A 
ATOM     54  C   UNL A   1      39.434  32.758  30.384  1.00  0.00     0.074 A 
ATOM     55  C   UNL A   1      45.561  31.645  31.580  1.00  0.00     0.029 A 
ATOM     56  N   UNL A   1      43.425  31.469  30.984  1.00  0.00    -0.354 N 
ATOM     57  N   UNL A   1      40.688  32.439  30.594  1.00  0.00    -0.248 NA
ATOM     58  C   UNL A   1      39.073  34.110  30.832  1.00  0.00     0.031 C 
ATOM     59  C   UNL A   1      44.912  32.841  31.903  1.00  0.00     0.029 A 
ATOM     60  C   UNL A   1      43.589  32.742  31.502  1.00  0.00     0.049 A 
ATOM     61  H   UNL A   1      42.581  31.106  30.629  1.00  0.00     0.167 HD
ATOM     62  C   UNL A   1      41.273  33.560  31.168  1.00  0.00     0.074 A 
ATOM     63  C   UNL A   1      40.240  34.573  31.253  1.00  0.00     0.031 C 
ATOM     64  C   UNL A   1      42.551  33.738  31.584  1.00  0.00     0.031 A 
BRANCH  51  65
ATOM     65  C   UNL A   1      46.159  28.779  30.798  1.00  0.00    -0.014 A 
ATOM     66  C   UNL A   1      47.149  28.854  29.806  1.00  0.00     0.009 A 
ATOM     67  C   UNL A   1      46.453  28.117  32.000  1.00  0.00     0.009 A 
ATOM     68  C   UNL A   1      48.392  28.245  29.997  1.00  0.00     0.001 A 
ATOM     69  C   UNL A   1      47.708  27.537  32.202  1.00  0.00     0.001 A 
ATOM     70  C   UNL A   1      48.671  27.592  31.196  1.00  0.00     0.000 A 
ENDBRANCH  51  65
BRANCH  52  71
ATOM     71  C   UNL A   1      36.974  32.507  29.583  1.00  0.00    -0.014 A 
ATOM     72  C   UNL A   1      36.651  33.281  28.458  1.00  0.00     0.009 A 
ATOM     73  C   UNL A   1      35.989  32.283  30.557  1.00  0.00     0.009 A 
ATOM     74  C   UNL A   1      35.381  33.847  28.328  1.00  0.00     0.001 A 
ATOM     75  C   UNL A   1      34.710  32.823  30.409  1.00  0.00     0.001 A 
ATOM     76  C   UNL A   1      34.410  33.614  29.301  1.00  0.00     0.000 A 
ENDBRANCH  52  71
BRANCH  64  77
ATOM     77  C   UNL A   1      42.912  35.092  32.129  1.00  0.00    -0.014 A 
ATOM     78  C   UNL A   1      42.690  35.426  33.474  1.00  0.00     0.009 A 
ATOM     79  C   UNL A   1      43.507  36.041  31.283  1.00  0.00     0.009 A 
ATOM     80  C   UNL A   1      43.013  36.699  33.948  1.00  0.00     0.001 A 
ATOM     81  C   UNL A   1      43.861  37.301  31.767  1.00  0.00     0.001 A 
ATOM     82  C   UNL A   1      43.602  37.632  33.096  1.00  0.00     0.000 A 
ENDBRANCH  64  77
ENDBRANCH  38  39
ENDBRANCH  30  33
ENDBRANCH  28  29
ENDBRANCH  27  28
ENDBRANCH   1  27
TORSDOF 13
ENDMDL
MODEL 3
REMARK VINA RESULT:     -11.7      2.601      7.831
REMARK SMILES C[C@H](Oc1cc2oc(=O)cc(-c3ccccc3)c2cc1Cl)C(=O)NCCCNC(=O)c1ccc(-c2c3nc(c(-c4ccccc4)c4ccc([nH]4)c(-c4ccccc4)c4nc(c(-c5ccccc5)c5ccc2[nH]5)C=C4)C=C3)cc1
REMARK SMILES IDX 25 1 24 2 22 3 23 4 2 6 1 7 3 8 4 9 5 10 20 11 6 12 19 13
REMARK SMILES IDX 21 14 7 15 18 16 8 17 11 18 9 19 10 20 12 21 13 22 17 23
REMARK SMILES IDX 14 24 16 25 15 26 26 27 27 28 28 29 29 30 30 32 31 33 32 34
REMARK SMILES IDX 78 35 33 36 77 37 34 38 35 39 36 40 71 41 37 42 76 43 70 44
REMARK SMILES IDX 72 45 38 46 75 47 69 48 68 49 39 51 61 52 46 53 60 54 47 55
REMARK SMILES IDX 50 56 59 57 73 58 48 59 49 60 58 62 74 63 51 64 40 65 41 66
REMARK SMILES IDX 45 67 42 68 44 69 43 70 62 71 63 72 67 73 64 74 66 75 65 76
REMARK SMILES IDX 52 77 53 78 57 79 54 80 56 81 55 82
REMARK H PARENT 24 5 28 31 72 50 50 61
REMARK Flexibility Score: inf
ROOT
ATOM      1  C   UNL A   1      36.602  19.643  25.024  1.00  0.00     0.118 C 
ENDROOT
BRANCH   1   2
ATOM      2  N   UNL A   1      35.931  18.411  24.642  1.00  0.00    -0.353 N 
ATOM      3  C   UNL A   1      34.590  18.153  24.534  1.00  0.00     0.260 C 
ATOM      4  O   UNL A   1      34.241  17.019  24.199  1.00  0.00    -0.271 OA
ATOM      5  H   UNL A   1      36.526  17.655  24.429  1.00  0.00     0.163 HD
BRANCH   3   6
ATOM      6  C   UNL A   1      33.570  19.282  24.754  1.00  0.00     0.258 C 
ATOM      7  C   UNL A   1      32.445  19.080  23.733  1.00  0.00     0.064 C 
BRANCH   6   8
ATOM      8  O   UNL A   1      34.352  20.479  24.782  1.00  0.00    -0.479 OA
BRANCH   8   9
ATOM      9  C   UNL A   1      33.898  21.751  24.641  1.00  0.00     0.142 A 
ATOM     10  C   UNL A   1      33.616  22.376  23.436  1.00  0.00     0.096 A 
ATOM     11  C   UNL A   1      33.760  22.503  25.823  1.00  0.00     0.084 A 
ATOM     12  C   UNL A   1      33.381  23.752  23.409  1.00  0.00     0.142 A 
ATOM     13  C   UNL A   1      33.445  23.869  25.788  1.00  0.00     0.037 A 
ATOM     14  Cl  UNL A   1      34.010  21.783  27.379  1.00  0.00    -0.080 Cl
ATOM     15  O   UNL A   1      33.294  24.330  22.131  1.00  0.00    -0.423 OA
ATOM     16  C   UNL A   1      33.300  24.525  24.565  1.00  0.00     0.027 A 
ATOM     17  C   UNL A   1      33.272  25.703  21.982  1.00  0.00     0.336 A 
ATOM     18  C   UNL A   1      33.078  25.976  24.442  1.00  0.00    -0.000 A 
ATOM     19  O   UNL A   1      33.353  26.244  20.886  1.00  0.00    -0.246 OA
ATOM     20  C   UNL A   1      33.106  26.501  23.205  1.00  0.00     0.103 A 
BRANCH  18  21
ATOM     21  C   UNL A   1      32.843  26.930  25.546  1.00  0.00    -0.017 A 
ATOM     22  C   UNL A   1      33.904  27.707  26.035  1.00  0.00     0.009 A 
ATOM     23  C   UNL A   1      31.573  27.075  26.121  1.00  0.00     0.009 A 
ATOM     24  C   UNL A   1      33.700  28.610  27.079  1.00  0.00     0.001 A 
ATOM     25  C   UNL A   1      31.369  27.988  27.158  1.00  0.00     0.001 A 
ATOM     26  C   UNL A   1      32.432  28.753  27.637  1.00  0.00     0.000 A 
ENDBRANCH  18  21
ENDBRANCH   8   9
ENDBRANCH   6   8
ENDBRANCH   3   6
ENDBRANCH   1   2
BRANCH   1  27
ATOM     27  C   UNL A   1      38.067  19.652  24.623  1.00  0.00     0.042 C 
BRANCH  27  28
ATOM     28  C   UNL A   1      39.011  19.995  25.764  1.00  0.00     0.118 C 
BRANCH  28  29
ATOM     29  N   UNL A   1      40.138  19.078  25.858  1.00  0.00    -0.352 N 
ATOM     30  C   UNL A   1      41.460  19.328  26.129  1.00  0.00     0.251 C 
ATOM     31  H   UNL A   1      39.918  18.131  25.702  1.00  0.00     0.163 HD
ATOM     32  O   UNL A   1      42.290  18.437  25.986  1.00  0.00    -0.269 OA
BRANCH  30  33
ATOM     33  C   UNL A   1      41.890  20.672  26.572  1.00  0.00     0.039 A 
ATOM     34  C   UNL A   1      42.097  21.663  25.609  1.00  0.00     0.014 A 
ATOM     35  C   UNL A   1      42.102  20.955  27.923  1.00  0.00     0.014 A 
ATOM     36  C   UNL A   1      42.458  22.951  26.009  1.00  0.00     0.010 A 
ATOM     37  C   UNL A   1      42.364  22.260  28.326  1.00  0.00     0.010 A 
ATOM     38  C   UNL A   1      42.560  23.269  27.374  1.00  0.00    -0.014 A 
BRANCH  38  39
ATOM     39  C   UNL A   1      42.885  24.647  27.818  1.00  0.00     0.031 A 
ATOM     40  C   UNL A   1      44.321  25.067  27.990  1.00  0.00     0.074 A 
ATOM     41  C   UNL A   1      41.890  25.504  28.115  1.00  0.00     0.049 A 
ATOM     42  N   UNL A   1      44.801  26.218  28.393  1.00  0.00    -0.248 NA
ATOM     43  C   UNL A   1      45.352  24.059  27.695  1.00  0.00     0.031 C 
ATOM     44  C   UNL A   1      40.458  25.205  28.036  1.00  0.00     0.029 A 
ATOM     45  N   UNL A   1      41.932  26.807  28.544  1.00  0.00    -0.354 N 
ATOM     46  C   UNL A   1      46.181  26.063  28.415  1.00  0.00     0.074 A 
ATOM     47  C   UNL A   1      46.460  24.694  28.043  1.00  0.00     0.031 C 
ATOM     48  C   UNL A   1      39.761  26.303  28.366  1.00  0.00     0.029 A 
ATOM     49  C   UNL A   1      40.692  27.369  28.722  1.00  0.00     0.049 A 
ATOM     50  H   UNL A   1      42.773  27.293  28.710  1.00  0.00     0.167 HD
ATOM     51  C   UNL A   1      47.135  26.983  28.695  1.00  0.00     0.031 A 
ATOM     52  C   UNL A   1      40.342  28.604  29.126  1.00  0.00     0.031 A 
ATOM     53  C   UNL A   1      46.858  28.347  29.058  1.00  0.00     0.049 A 
ATOM     54  C   UNL A   1      41.419  29.603  29.443  1.00  0.00     0.074 A 
ATOM     55  C   UNL A   1      47.755  29.371  29.312  1.00  0.00     0.029 A 
ATOM     56  N   UNL A   1      45.587  28.877  29.224  1.00  0.00    -0.354 N 
ATOM     57  N   UNL A   1      42.721  29.462  29.389  1.00  0.00    -0.248 NA
ATOM     58  C   UNL A   1      40.974  30.940  29.861  1.00  0.00     0.031 C 
ATOM     59  C   UNL A   1      47.027  30.506  29.685  1.00  0.00     0.029 A 
ATOM     60  C   UNL A   1      45.676  30.207  29.599  1.00  0.00     0.049 A 
ATOM     61  H   UNL A   1      44.747  28.381  29.095  1.00  0.00     0.167 HD
ATOM     62  C   UNL A   1      43.251  30.699  29.734  1.00  0.00     0.074 A 
ATOM     63  C   UNL A   1      42.128  31.581  29.976  1.00  0.00     0.031 C 
ATOM     64  C   UNL A   1      44.550  31.072  29.839  1.00  0.00     0.031 A 
BRANCH  51  65
ATOM     65  C   UNL A   1      48.570  26.535  28.625  1.00  0.00    -0.014 A 
ATOM     66  C   UNL A   1      49.298  26.605  27.426  1.00  0.00     0.009 A 
ATOM     67  C   UNL A   1      49.212  26.064  29.780  1.00  0.00     0.009 A 
ATOM     68  C   UNL A   1      50.626  26.174  27.377  1.00  0.00     0.001 A 
ATOM     69  C   UNL A   1      50.550  25.665  29.736  1.00  0.00     0.001 A 
ATOM     70  C   UNL A   1      51.251  25.710  28.533  1.00  0.00     0.000 A 
ENDBRANCH  51  65
BRANCH  52  71
ATOM     71  C   UNL A   1      38.906  28.976  29.234  1.00  0.00    -0.014 A 
ATOM     72  C   UNL A   1      38.204  29.440  28.112  1.00  0.00     0.009 A 
ATOM     73  C   UNL A   1      38.233  28.879  30.462  1.00  0.00     0.009 A 
ATOM     74  C   UNL A   1      36.868  29.833  28.223  1.00  0.00     0.001 A 
ATOM     75  C   UNL A   1      36.888  29.241  30.564  1.00  0.00     0.001 A 
ATOM     76  C   UNL A   1      36.210  29.730  29.448  1.00  0.00     0.000 A 
ENDBRANCH  52  71
BRANCH  64  77
ATOM     77  C   UNL A   1      44.824  32.508  30.190  1.00  0.00    -0.014 A 
ATOM     78  C   UNL A   1      44.980  32.922  31.523  1.00  0.00     0.009 A 
ATOM     79  C   UNL A   1      44.950  33.458  29.165  1.00  0.00     0.009 A 
ATOM     80  C   UNL A   1      45.210  34.266  31.822  1.00  0.00     0.001 A 
ATOM     81  C   UNL A   1      45.215  34.795  29.464  1.00  0.00     0.001 A 
ATOM     82  C   UNL A   1      45.332  35.200  30.793  1.00  0.00     0.000 A 
ENDBRANCH  64  77
ENDBRANCH  38  39
ENDBRANCH  30  33
ENDBRANCH  28  29
ENDBRANCH  27  28
ENDBRANCH   1  27
TORSDOF 13
ENDMDL
