MODEL 1
REMARK VINA RESULT:     -12.6      0.000      0.000
REMARK SMILES Cn1c(=O)c(=O)n(C)c2cc(S(=O)(=O)N3CCC[C@H]3C(=O)NCCCNC(=O)c3ccc(-c4c5nc(c(-c6ccccc6)c6ccc([nH]6)c(-c6ccccc6)c6nc(c(-c7ccccc7)c7ccc4[nH]7)C=C6)C=C5)cc3)ccc21
REMARK SMILES IDX 24 1 23 2 22 3 20 4 21 5 19 7 15 8 16 9 17 10 18 11 12 12
REMARK SMILES IDX 13 13 14 14 11 15 1 16 2 17 3 18 79 19 4 20 5 21 9 22 78 23
REMARK SMILES IDX 6 24 7 25 10 26 77 27 8 28 25 29 26 30 27 31 28 33 29 34
REMARK SMILES IDX 30 35 76 36 31 37 75 38 32 39 33 40 34 41 69 42 35 43 74 44
REMARK SMILES IDX 68 45 70 46 36 47 73 48 67 49 66 50 37 52 59 53 44 54 58 55
REMARK SMILES IDX 45 56 48 57 57 58 71 59 46 60 47 61 56 63 72 64 49 65 38 66
REMARK SMILES IDX 39 67 43 68 40 69 42 70 41 71 60 72 61 73 65 74 62 75 64 76
REMARK SMILES IDX 63 77 50 78 51 79 55 80 52 81 54 82 53 83
REMARK H PARENT 22 6 26 32 70 51 48 62
REMARK Flexibility Score: inf
ROOT
ATOM      1  C   UNL A   1      31.884  30.977  26.766  1.00  0.00     0.042 C 
ENDROOT
BRANCH   1   2
ATOM      2  C   UNL A   1      32.262  30.056  25.625  1.00  0.00     0.117 C 
BRANCH   2   3
ATOM      3  N   UNL A   1      31.253  29.940  24.595  1.00  0.00    -0.355 N 
ATOM      4  C   UNL A   1      30.874  28.820  23.913  1.00  0.00     0.238 C 
ATOM      5  O   UNL A   1      29.846  28.891  23.234  1.00  0.00    -0.273 OA
ATOM      6  H   UNL A   1      30.782  30.772  24.357  1.00  0.00     0.163 HD
BRANCH   4   7
ATOM      7  C   UNL A   1      31.734  27.548  23.983  1.00  0.00     0.162 C 
ATOM      8  N   UNL A   1      30.996  26.407  24.567  1.00  0.00    -0.185 NA
ATOM      9  C   UNL A   1      30.335  25.657  23.493  1.00  0.00     0.103 C 
ATOM     10  C   UNL A   1      31.256  25.805  22.300  1.00  0.00     0.019 C 
ATOM     11  C   UNL A   1      32.074  27.068  22.552  1.00  0.00     0.032 C 
BRANCH   8  12
ATOM     12  S   UNL A   1      31.314  25.705  26.052  1.00  0.00     0.243 S 
ATOM     13  O   UNL A   1      30.230  24.810  26.393  1.00  0.00    -0.207 OA
ATOM     14  O   UNL A   1      31.715  26.753  26.965  1.00  0.00    -0.207 OA
BRANCH  12  15
ATOM     15  C   UNL A   1      32.754  24.673  25.833  1.00  0.00     0.084 A 
ATOM     16  C   UNL A   1      37.466  22.637  25.555  1.00  0.00     0.154 C 
ATOM     17  N   UNL A   1      36.112  22.125  25.403  1.00  0.00    -0.305 N 
ATOM     18  C   UNL A   1      35.984  20.778  25.070  1.00  0.00     0.316 A 
ATOM     19  C   UNL A   1      34.980  22.974  25.531  1.00  0.00     0.068 A 
ATOM     20  O   UNL A   1      36.944  20.035  24.880  1.00  0.00    -0.263 OA
ATOM     21  C   UNL A   1      34.571  20.206  24.926  1.00  0.00     0.316 A 
ATOM     22  C   UNL A   1      33.679  22.441  25.447  1.00  0.00     0.069 A 
ATOM     23  C   UNL A   1      35.136  24.359  25.727  1.00  0.00     0.030 A 
ATOM     24  O   UNL A   1      34.448  19.020  24.628  1.00  0.00    -0.263 OA
ATOM     25  N   UNL A   1      33.493  21.063  25.148  1.00  0.00    -0.305 N 
ATOM     26  C   UNL A   1      32.575  23.296  25.638  1.00  0.00     0.050 A 
ATOM     27  C   UNL A   1      34.033  25.206  25.852  1.00  0.00     0.024 A 
ATOM     28  C   UNL A   1      32.154  20.509  25.003  1.00  0.00     0.154 C 
ENDBRANCH  12  15
ENDBRANCH   8  12
ENDBRANCH   4   7
ENDBRANCH   2   3
ENDBRANCH   1   2
BRANCH   1  29
ATOM     29  C   UNL A   1      32.998  31.880  27.256  1.00  0.00     0.118 C 
BRANCH  29  30
ATOM     30  N   UNL A   1      32.564  33.222  27.626  1.00  0.00    -0.352 N 
ATOM     31  C   UNL A   1      33.133  34.145  28.478  1.00  0.00     0.251 C 
ATOM     32  H   UNL A   1      31.727  33.516  27.199  1.00  0.00     0.163 HD
ATOM     33  O   UNL A   1      32.555  35.203  28.708  1.00  0.00    -0.269 OA
BRANCH  31  34
ATOM     34  C   UNL A   1      34.409  33.840  29.164  1.00  0.00     0.039 A 
ATOM     35  C   UNL A   1      35.618  34.326  28.676  1.00  0.00     0.014 A 
ATOM     36  C   UNL A   1      34.402  33.004  30.285  1.00  0.00     0.014 A 
ATOM     37  C   UNL A   1      36.808  33.768  29.121  1.00  0.00     0.010 A 
ATOM     38  C   UNL A   1      35.613  32.554  30.828  1.00  0.00     0.010 A 
ATOM     39  C   UNL A   1      36.827  32.869  30.201  1.00  0.00    -0.014 A 
BRANCH  39  40
ATOM     40  C   UNL A   1      38.129  32.281  30.624  1.00  0.00     0.031 A 
ATOM     41  C   UNL A   1      38.894  32.834  31.801  1.00  0.00     0.074 A 
ATOM     42  C   UNL A   1      38.578  31.173  29.998  1.00  0.00     0.049 A 
ATOM     43  N   UNL A   1      39.996  32.377  32.348  1.00  0.00    -0.248 NA
ATOM     44  C   UNL A   1      38.373  34.049  32.447  1.00  0.00     0.031 C 
ATOM     45  C   UNL A   1      37.935  30.540  28.844  1.00  0.00     0.029 A 
ATOM     46  N   UNL A   1      39.647  30.356  30.268  1.00  0.00    -0.354 N 
ATOM     47  C   UNL A   1      40.308  33.260  33.376  1.00  0.00     0.074 A 
ATOM     48  C   UNL A   1      39.298  34.293  33.367  1.00  0.00     0.031 C 
ATOM     49  C   UNL A   1      38.569  29.395  28.559  1.00  0.00     0.029 A 
ATOM     50  C   UNL A   1      39.710  29.249  29.456  1.00  0.00     0.049 A 
ATOM     51  H   UNL A   1      40.306  30.544  30.976  1.00  0.00     0.167 HD
ATOM     52  C   UNL A   1      41.337  33.208  34.254  1.00  0.00     0.031 A 
ATOM     53  C   UNL A   1      40.587  28.226  29.420  1.00  0.00     0.031 A 
ATOM     54  C   UNL A   1      42.328  32.164  34.286  1.00  0.00     0.049 A 
ATOM     55  C   UNL A   1      41.708  28.186  30.417  1.00  0.00     0.074 A 
ATOM     56  C   UNL A   1      43.399  32.027  35.153  1.00  0.00     0.029 A 
ATOM     57  N   UNL A   1      42.366  31.079  33.426  1.00  0.00    -0.354 N 
ATOM     58  N   UNL A   1      41.975  29.026  31.387  1.00  0.00    -0.248 NA
ATOM     59  C   UNL A   1      42.644  27.057  30.322  1.00  0.00     0.031 C 
ATOM     60  C   UNL A   1      44.113  30.885  34.788  1.00  0.00     0.029 A 
ATOM     61  C   UNL A   1      43.448  30.273  33.739  1.00  0.00     0.049 A 
ATOM     62  H   UNL A   1      41.720  30.905  32.704  1.00  0.00     0.167 HD
ATOM     63  C   UNL A   1      43.099  28.522  32.024  1.00  0.00     0.074 A 
ATOM     64  C   UNL A   1      43.448  27.288  31.352  1.00  0.00     0.031 C 
ATOM     65  C   UNL A   1      43.783  29.043  33.071  1.00  0.00     0.031 A 
BRANCH  52  66
ATOM     66  C   UNL A   1      41.466  34.305  35.275  1.00  0.00    -0.014 A 
ATOM     67  C   UNL A   1      40.774  34.205  36.494  1.00  0.00     0.009 A 
ATOM     68  C   UNL A   1      42.155  35.492  34.981  1.00  0.00     0.009 A 
ATOM     69  C   UNL A   1      40.747  35.278  37.386  1.00  0.00     0.001 A 
ATOM     70  C   UNL A   1      42.147  36.555  35.888  1.00  0.00     0.001 A 
ATOM     71  C   UNL A   1      41.434  36.453  37.081  1.00  0.00     0.000 A 
ENDBRANCH  52  66
BRANCH  53  72
ATOM     72  C   UNL A   1      40.422  27.161  28.395  1.00  0.00    -0.014 A 
ATOM     73  C   UNL A   1      41.001  27.308  27.123  1.00  0.00     0.009 A 
ATOM     74  C   UNL A   1      39.649  26.021  28.659  1.00  0.00     0.009 A 
ATOM     75  C   UNL A   1      40.788  26.351  26.130  1.00  0.00     0.001 A 
ATOM     76  C   UNL A   1      39.468  25.046  27.674  1.00  0.00     0.001 A 
ATOM     77  C   UNL A   1      40.028  25.218  26.408  1.00  0.00     0.000 A 
ENDBRANCH  53  72
BRANCH  65  78
ATOM     78  C   UNL A   1      44.970  28.280  33.586  1.00  0.00    -0.014 A 
ATOM     79  C   UNL A   1      44.799  27.346  34.621  1.00  0.00     0.009 A 
ATOM     80  C   UNL A   1      46.266  28.556  33.126  1.00  0.00     0.009 A 
ATOM     81  C   UNL A   1      45.903  26.713  35.194  1.00  0.00     0.001 A 
ATOM     82  C   UNL A   1      47.366  27.899  33.681  1.00  0.00     0.001 A 
ATOM     83  C   UNL A   1      47.185  26.986  34.721  1.00  0.00     0.000 A 
ENDBRANCH  65  78
ENDBRANCH  39  40
ENDBRANCH  31  34
ENDBRANCH  29  30
ENDBRANCH   1  29
TORSDOF 12
ENDMDL
MODEL 2
REMARK VINA RESULT:     -12.6      3.648      7.268
REMARK SMILES Cn1c(=O)c(=O)n(C)c2cc(S(=O)(=O)N3CCC[C@H]3C(=O)NCCCNC(=O)c3ccc(-c4c5nc(c(-c6ccccc6)c6ccc([nH]6)c(-c6ccccc6)c6nc(c(-c7ccccc7)c7ccc4[nH]7)C=C6)C=C5)cc3)ccc21
REMARK SMILES IDX 24 1 23 2 22 3 20 4 21 5 19 7 15 8 16 9 17 10 18 11 12 12
REMARK SMILES IDX 13 13 14 14 11 15 1 16 2 17 3 18 79 19 4 20 5 21 9 22 78 23
REMARK SMILES IDX 6 24 7 25 10 26 77 27 8 28 25 29 26 30 27 31 28 33 29 34
REMARK SMILES IDX 30 35 76 36 31 37 75 38 32 39 33 40 34 41 69 42 35 43 74 44
REMARK SMILES IDX 68 45 70 46 36 47 73 48 67 49 66 50 37 52 59 53 44 54 58 55
REMARK SMILES IDX 45 56 48 57 57 58 71 59 46 60 47 61 56 63 72 64 49 65 38 66
REMARK SMILES IDX 39 67 43 68 40 69 42 70 41 71 60 72 61 73 65 74 62 75 64 76
REMARK SMILES IDX 63 77 50 78 51 79 55 80 52 81 54 82 53 83
REMARK H PARENT 22 6 26 32 70 51 48 62
REMARK Flexibility Score: inf
ROOT
ATOM      1  C   UNL A   1      33.235  30.732  26.567  1.00  0.00     0.042 C 
ENDROOT
BRANCH   1   2
ATOM      2  C   UNL A   1      31.889  30.046  26.464  1.00  0.00     0.117 C 
BRANCH   2   3
ATOM      3  N   UNL A   1      31.241  30.196  25.179  1.00  0.00    -0.355 N 
ATOM      4  C   UNL A   1      31.150  29.277  24.173  1.00  0.00     0.238 C 
ATOM      5  O   UNL A   1      30.369  29.525  23.250  1.00  0.00    -0.273 OA
ATOM      6  H   UNL A   1      30.814  31.067  25.010  1.00  0.00     0.163 HD
BRANCH   4   7
ATOM      7  C   UNL A   1      32.024  28.014  24.201  1.00  0.00     0.162 C 
ATOM      8  N   UNL A   1      31.226  26.789  24.425  1.00  0.00    -0.185 NA
ATOM      9  C   UNL A   1      30.819  26.232  23.131  1.00  0.00     0.103 C 
ATOM     10  C   UNL A   1      31.953  26.583  22.190  1.00  0.00     0.019 C 
ATOM     11  C   UNL A   1      32.658  27.786  22.809  1.00  0.00     0.032 C 
BRANCH   8  12
ATOM     12  S   UNL A   1      31.269  25.844  25.806  1.00  0.00     0.243 S 
ATOM     13  O   UNL A   1      30.135  24.947  25.799  1.00  0.00    -0.207 OA
ATOM     14  O   UNL A   1      31.508  26.715  26.936  1.00  0.00    -0.207 OA
BRANCH  12  15
ATOM     15  C   UNL A   1      32.717  24.809  25.674  1.00  0.00     0.084 A 
ATOM     16  C   UNL A   1      37.434  22.766  25.663  1.00  0.00     0.154 C 
ATOM     17  N   UNL A   1      36.089  22.254  25.449  1.00  0.00    -0.305 N 
ATOM     18  C   UNL A   1      35.977  20.902  25.128  1.00  0.00     0.316 A 
ATOM     19  C   UNL A   1      34.954  23.105  25.508  1.00  0.00     0.068 A 
ATOM     20  O   UNL A   1      36.944  20.156  24.997  1.00  0.00    -0.263 OA
ATOM     21  C   UNL A   1      34.572  20.329  24.920  1.00  0.00     0.316 A 
ATOM     22  C   UNL A   1      33.657  22.571  25.366  1.00  0.00     0.069 A 
ATOM     23  C   UNL A   1      35.101  24.492  25.693  1.00  0.00     0.030 A 
ATOM     24  O   UNL A   1      34.463  19.140  24.632  1.00  0.00    -0.263 OA
ATOM     25  N   UNL A   1      33.485  21.189  25.075  1.00  0.00    -0.305 N 
ATOM     26  C   UNL A   1      32.547  23.429  25.489  1.00  0.00     0.050 A 
ATOM     27  C   UNL A   1      33.994  25.341  25.751  1.00  0.00     0.024 A 
ATOM     28  C   UNL A   1      32.154  20.635  24.870  1.00  0.00     0.154 C 
ENDBRANCH  12  15
ENDBRANCH   8  12
ENDBRANCH   4   7
ENDBRANCH   2   3
ENDBRANCH   1   2
BRANCH   1  29
ATOM     29  C   UNL A   1      34.167  30.158  27.616  1.00  0.00     0.118 C 
BRANCH  29  30
ATOM     30  N   UNL A   1      34.409  31.040  28.750  1.00  0.00    -0.352 N 
ATOM     31  C   UNL A   1      35.510  31.159  29.574  1.00  0.00     0.251 C 
ATOM     32  H   UNL A   1      33.666  31.648  28.966  1.00  0.00     0.163 HD
ATOM     33  O   UNL A   1      35.476  31.925  30.532  1.00  0.00    -0.269 OA
BRANCH  31  34
ATOM     34  C   UNL A   1      36.708  30.322  29.344  1.00  0.00     0.039 A 
ATOM     35  C   UNL A   1      37.296  29.613  30.387  1.00  0.00     0.014 A 
ATOM     36  C   UNL A   1      37.291  30.291  28.073  1.00  0.00     0.014 A 
ATOM     37  C   UNL A   1      38.583  29.116  30.235  1.00  0.00     0.010 A 
ATOM     38  C   UNL A   1      38.528  29.660  27.886  1.00  0.00     0.010 A 
ATOM     39  C   UNL A   1      39.223  29.135  28.984  1.00  0.00    -0.014 A 
BRANCH  39  40
ATOM     40  C   UNL A   1      40.614  28.610  28.881  1.00  0.00     0.031 A 
ATOM     41  C   UNL A   1      40.886  27.184  28.469  1.00  0.00     0.074 A 
ATOM     42  C   UNL A   1      41.647  29.458  29.067  1.00  0.00     0.049 A 
ATOM     43  N   UNL A   1      42.041  26.603  28.247  1.00  0.00    -0.248 NA
ATOM     44  C   UNL A   1      39.730  26.291  28.287  1.00  0.00     0.031 C 
ATOM     45  C   UNL A   1      41.521  30.860  29.471  1.00  0.00     0.029 A 
ATOM     46  N   UNL A   1      42.997  29.285  28.895  1.00  0.00    -0.354 N 
ATOM     47  C   UNL A   1      41.750  25.281  27.928  1.00  0.00     0.074 A 
ATOM     48  C   UNL A   1      40.314  25.133  28.007  1.00  0.00     0.031 C 
ATOM     49  C   UNL A   1      42.728  31.440  29.435  1.00  0.00     0.029 A 
ATOM     50  C   UNL A   1      43.726  30.436  29.084  1.00  0.00     0.049 A 
ATOM     51  H   UNL A   1      43.406  28.421  28.660  1.00  0.00     0.167 HD
ATOM     52  C   UNL A   1      42.601  24.283  27.590  1.00  0.00     0.031 A 
ATOM     53  C   UNL A   1      45.050  30.669  28.994  1.00  0.00     0.031 A 
ATOM     54  C   UNL A   1      44.029  24.434  27.481  1.00  0.00     0.049 A 
ATOM     55  C   UNL A   1      45.967  29.549  28.600  1.00  0.00     0.074 A 
ATOM     56  C   UNL A   1      44.965  23.477  27.130  1.00  0.00     0.029 A 
ATOM     57  N   UNL A   1      44.723  25.611  27.707  1.00  0.00    -0.354 N 
ATOM     58  N   UNL A   1      45.667  28.312  28.293  1.00  0.00    -0.248 NA
ATOM     59  C   UNL A   1      47.403  29.856  28.535  1.00  0.00     0.031 C 
ATOM     60  C   UNL A   1      46.231  24.061  27.191  1.00  0.00     0.029 A 
ATOM     61  C   UNL A   1      46.077  25.399  27.513  1.00  0.00     0.049 A 
ATOM     62  H   UNL A   1      44.315  26.469  27.966  1.00  0.00     0.167 HD
ATOM     63  C   UNL A   1      46.872  27.696  27.985  1.00  0.00     0.074 A 
ATOM     64  C   UNL A   1      47.904  28.701  28.114  1.00  0.00     0.031 C 
ATOM     65  C   UNL A   1      47.097  26.407  27.633  1.00  0.00     0.031 A 
BRANCH  52  66
ATOM     66  C   UNL A   1      42.032  22.921  27.303  1.00  0.00    -0.014 A 
ATOM     67  C   UNL A   1      41.590  22.613  26.005  1.00  0.00     0.009 A 
ATOM     68  C   UNL A   1      41.809  21.996  28.334  1.00  0.00     0.009 A 
ATOM     69  C   UNL A   1      40.912  21.419  25.750  1.00  0.00     0.001 A 
ATOM     70  C   UNL A   1      41.153  20.791  28.070  1.00  0.00     0.001 A 
ATOM     71  C   UNL A   1      40.695  20.509  26.784  1.00  0.00     0.000 A 
ENDBRANCH  52  66
BRANCH  53  72
ATOM     72  C   UNL A   1      45.571  32.032  29.286  1.00  0.00    -0.014 A 
ATOM     73  C   UNL A   1      45.692  32.979  28.255  1.00  0.00     0.009 A 
ATOM     74  C   UNL A   1      45.997  32.379  30.577  1.00  0.00     0.009 A 
ATOM     75  C   UNL A   1      46.251  34.233  28.503  1.00  0.00     0.001 A 
ATOM     76  C   UNL A   1      46.523  33.649  30.829  1.00  0.00     0.001 A 
ATOM     77  C   UNL A   1      46.660  34.569  29.791  1.00  0.00     0.000 A 
ENDBRANCH  53  72
BRANCH  65  78
ATOM     78  C   UNL A   1      48.511  25.996  27.333  1.00  0.00    -0.014 A 
ATOM     79  C   UNL A   1      49.317  25.483  28.363  1.00  0.00     0.009 A 
ATOM     80  C   UNL A   1      49.077  26.210  26.068  1.00  0.00     0.009 A 
ATOM     81  C   UNL A   1      50.666  25.206  28.135  1.00  0.00     0.001 A 
ATOM     82  C   UNL A   1      50.419  25.903  25.835  1.00  0.00     0.001 A 
ATOM     83  C   UNL A   1      51.214  25.411  26.871  1.00  0.00     0.000 A 
ENDBRANCH  65  78
ENDBRANCH  39  40
ENDBRANCH  31  34
ENDBRANCH  29  30
ENDBRANCH   1  29
TORSDOF 12
ENDMDL
MODEL 3
REMARK VINA RESULT:     -12.6      3.443      9.174
REMARK SMILES Cn1c(=O)c(=O)n(C)c2cc(S(=O)(=O)N3CCC[C@H]3C(=O)NCCCNC(=O)c3ccc(-c4c5nc(c(-c6ccccc6)c6ccc([nH]6)c(-c6ccccc6)c6nc(c(-c7ccccc7)c7ccc4[nH]7)C=C6)C=C5)cc3)ccc21
REMARK SMILES IDX 24 1 23 2 22 3 20 4 21 5 19 7 15 8 16 9 17 10 18 11 12 12
REMARK SMILES IDX 13 13 14 14 11 15 1 16 2 17 3 18 79 19 4 20 5 21 9 22 78 23
REMARK SMILES IDX 6 24 7 25 10 26 77 27 8 28 25 29 26 30 27 31 28 33 29 34
REMARK SMILES IDX 30 35 76 36 31 37 75 38 32 39 33 40 34 41 69 42 35 43 74 44
REMARK SMILES IDX 68 45 70 46 36 47 73 48 67 49 66 50 37 52 59 53 44 54 58 55
REMARK SMILES IDX 45 56 48 57 57 58 71 59 46 60 47 61 56 63 72 64 49 65 38 66
REMARK SMILES IDX 39 67 43 68 40 69 42 70 41 71 60 72 61 73 65 74 62 75 64 76
REMARK SMILES IDX 63 77 50 78 51 79 55 80 52 81 54 82 53 83
REMARK H PARENT 22 6 26 32 70 51 48 62
REMARK Flexibility Score: inf
ROOT
ATOM      1  C   UNL A   1      37.764  20.635  24.886  1.00  0.00     0.042 C 
ENDROOT
BRANCH   1   2
ATOM      2  C   UNL A   1      36.460  21.118  25.485  1.00  0.00     0.117 C 
BRANCH   2   3
ATOM      3  N   UNL A   1      35.332  20.246  25.239  1.00  0.00    -0.355 N 
ATOM      4  C   UNL A   1      34.048  20.598  24.937  1.00  0.00     0.238 C 
ATOM      5  O   UNL A   1      33.292  19.704  24.549  1.00  0.00    -0.273 OA
ATOM      6  H   UNL A   1      35.513  19.280  25.295  1.00  0.00     0.163 HD
BRANCH   4   7
ATOM      7  C   UNL A   1      33.585  22.053  25.118  1.00  0.00     0.162 C 
ATOM      8  N   UNL A   1      33.165  22.668  23.840  1.00  0.00    -0.185 NA
ATOM      9  C   UNL A   1      31.728  22.449  23.647  1.00  0.00     0.103 C 
ATOM     10  C   UNL A   1      31.149  22.449  25.046  1.00  0.00     0.019 C 
ATOM     11  C   UNL A   1      32.301  22.090  25.979  1.00  0.00     0.032 C 
BRANCH   8  12
ATOM     12  S   UNL A   1      33.974  23.897  23.043  1.00  0.00     0.243 S 
ATOM     13  O   UNL A   1      33.420  24.044  21.716  1.00  0.00    -0.207 OA
ATOM     14  O   UNL A   1      35.394  23.689  23.227  1.00  0.00    -0.207 OA
BRANCH  12  15
ATOM     15  C   UNL A   1      33.588  25.409  23.909  1.00  0.00     0.084 A 
ATOM     16  C   UNL A   1      33.418  29.511  27.003  1.00  0.00     0.154 C 
ATOM     17  N   UNL A   1      32.670  29.070  25.835  1.00  0.00    -0.305 N 
ATOM     18  C   UNL A   1      31.621  29.888  25.416  1.00  0.00     0.316 A 
ATOM     19  C   UNL A   1      32.961  27.838  25.191  1.00  0.00     0.068 A 
ATOM     20  O   UNL A   1      31.298  30.922  25.994  1.00  0.00    -0.263 OA
ATOM     21  C   UNL A   1      30.831  29.461  24.175  1.00  0.00     0.316 A 
ATOM     22  C   UNL A   1      32.269  27.467  24.021  1.00  0.00     0.069 A 
ATOM     23  C   UNL A   1      33.929  26.961  25.714  1.00  0.00     0.030 A 
ATOM     24  O   UNL A   1      29.903  30.172  23.801  1.00  0.00    -0.263 OA
ATOM     25  N   UNL A   1      31.214  28.286  23.528  1.00  0.00    -0.305 N 
ATOM     26  C   UNL A   1      32.619  26.268  23.369  1.00  0.00     0.050 A 
ATOM     27  C   UNL A   1      34.223  25.746  25.094  1.00  0.00     0.024 A 
ATOM     28  C   UNL A   1      30.453  27.887  22.353  1.00  0.00     0.154 C 
ENDBRANCH  12  15
ENDBRANCH   8  12
ENDBRANCH   4   7
ENDBRANCH   2   3
ENDBRANCH   1   2
BRANCH   1  29
ATOM     29  C   UNL A   1      38.977  20.796  25.780  1.00  0.00     0.118 C 
BRANCH  29  30
ATOM     30  N   UNL A   1      39.936  19.702  25.692  1.00  0.00    -0.352 N 
ATOM     31  C   UNL A   1      41.279  19.660  26.003  1.00  0.00     0.251 C 
ATOM     32  H   UNL A   1      39.565  18.855  25.355  1.00  0.00     0.163 HD
ATOM     33  O   UNL A   1      41.927  18.642  25.780  1.00  0.00    -0.269 OA
BRANCH  31  34
ATOM     34  C   UNL A   1      41.958  20.859  26.545  1.00  0.00     0.039 A 
ATOM     35  C   UNL A   1      42.138  21.021  27.915  1.00  0.00     0.014 A 
ATOM     36  C   UNL A   1      42.370  21.869  25.670  1.00  0.00     0.014 A 
ATOM     37  C   UNL A   1      42.461  22.273  28.419  1.00  0.00     0.010 A 
ATOM     38  C   UNL A   1      42.838  23.087  26.180  1.00  0.00     0.010 A 
ATOM     39  C   UNL A   1      42.812  23.329  27.561  1.00  0.00    -0.014 A 
BRANCH  39  40
ATOM     40  C   UNL A   1      43.130  24.660  28.151  1.00  0.00     0.031 A 
ATOM     41  C   UNL A   1      44.555  25.101  28.372  1.00  0.00     0.074 A 
ATOM     42  C   UNL A   1      42.120  25.520  28.402  1.00  0.00     0.049 A 
ATOM     43  N   UNL A   1      44.996  26.262  28.793  1.00  0.00    -0.248 NA
ATOM     44  C   UNL A   1      45.624  24.127  28.095  1.00  0.00     0.031 C 
ATOM     45  C   UNL A   1      40.696  25.216  28.236  1.00  0.00     0.029 A 
ATOM     46  N   UNL A   1      42.132  26.833  28.800  1.00  0.00    -0.354 N 
ATOM     47  C   UNL A   1      46.381  26.147  28.856  1.00  0.00     0.074 A 
ATOM     48  C   UNL A   1      46.712  24.799  28.454  1.00  0.00     0.031 C 
ATOM     49  C   UNL A   1      39.980  26.328  28.447  1.00  0.00     0.029 A 
ATOM     50  C   UNL A   1      40.882  27.404  28.841  1.00  0.00     0.049 A 
ATOM     51  H   UNL A   1      42.955  27.319  29.035  1.00  0.00     0.167 HD
ATOM     52  C   UNL A   1      47.294  27.084  29.206  1.00  0.00     0.031 A 
ATOM     53  C   UNL A   1      40.491  28.652  29.165  1.00  0.00     0.031 A 
ATOM     54  C   UNL A   1      46.971  28.436  29.578  1.00  0.00     0.049 A 
ATOM     55  C   UNL A   1      41.527  29.674  29.532  1.00  0.00     0.074 A 
ATOM     56  C   UNL A   1      47.838  29.455  29.935  1.00  0.00     0.029 A 
ATOM     57  N   UNL A   1      45.691  28.962  29.631  1.00  0.00    -0.354 N 
ATOM     58  N   UNL A   1      42.830  29.544  29.573  1.00  0.00    -0.248 NA
ATOM     59  C   UNL A   1      41.042  31.014  29.892  1.00  0.00     0.031 C 
ATOM     60  C   UNL A   1      47.079  30.584  30.251  1.00  0.00     0.029 A 
ATOM     61  C   UNL A   1      45.746  30.288  30.023  1.00  0.00     0.049 A 
ATOM     62  H   UNL A   1      44.866  28.467  29.419  1.00  0.00     0.167 HD
ATOM     63  C   UNL A   1      43.322  30.786  29.949  1.00  0.00     0.074 A 
ATOM     64  C   UNL A   1      42.181  31.664  30.097  1.00  0.00     0.031 C 
ATOM     65  C   UNL A   1      44.607  31.158  30.158  1.00  0.00     0.031 A 
BRANCH  52  66
ATOM     66  C   UNL A   1      48.749  26.702  29.210  1.00  0.00    -0.014 A 
ATOM     67  C   UNL A   1      49.323  26.166  30.376  1.00  0.00     0.009 A 
ATOM     68  C   UNL A   1      49.579  26.993  28.117  1.00  0.00     0.009 A 
ATOM     69  C   UNL A   1      50.700  25.956  30.457  1.00  0.00     0.001 A 
ATOM     70  C   UNL A   1      50.953  26.757  28.192  1.00  0.00     0.001 A 
ATOM     71  C   UNL A   1      51.514  26.252  29.364  1.00  0.00     0.000 A 
ENDBRANCH  52  66
BRANCH  53  72
ATOM     72  C   UNL A   1      39.042  28.989  29.148  1.00  0.00    -0.014 A 
ATOM     73  C   UNL A   1      38.443  29.482  27.977  1.00  0.00     0.009 A 
ATOM     74  C   UNL A   1      38.262  28.871  30.308  1.00  0.00     0.009 A 
ATOM     75  C   UNL A   1      37.104  29.874  27.973  1.00  0.00     0.001 A 
ATOM     76  C   UNL A   1      36.911  29.228  30.291  1.00  0.00     0.001 A 
ATOM     77  C   UNL A   1      36.337  29.740  29.127  1.00  0.00     0.000 A 
ENDBRANCH  53  72
BRANCH  65  78
ATOM     78  C   UNL A   1      44.872  32.585  30.549  1.00  0.00    -0.014 A 
ATOM     79  C   UNL A   1      45.137  33.538  29.553  1.00  0.00     0.009 A 
ATOM     80  C   UNL A   1      44.963  32.964  31.896  1.00  0.00     0.009 A 
ATOM     81  C   UNL A   1      45.501  34.841  29.897  1.00  0.00     0.001 A 
ATOM     82  C   UNL A   1      45.298  34.276  32.237  1.00  0.00     0.001 A 
ATOM     83  C   UNL A   1      45.576  35.210  31.239  1.00  0.00     0.000 A 
ENDBRANCH  65  78
ENDBRANCH  39  40
ENDBRANCH  31  34
ENDBRANCH  29  30
ENDBRANCH   1  29
TORSDOF 12
ENDMDL
