MODEL 1
REMARK VINA RESULT:     -11.6      0.000      0.000
REMARK SMILES [NH3+][C@H]1C=C[C@@H](C(=O)N2CCC(CC(=O)NCCCNC(=O)c3ccc(-c4c5nc(c(-c6ccccc6)c6ccc([nH]6)c(-c6ccccc6)c6nc(c(-c7ccccc7)c7ccc4[nH]7)C=C6)C=C5)cc3)CC2)C1
REMARK SMILES IDX 16 1 15 2 13 3 14 4 12 6 11 7 6 8 7 9 8 10 9 11 71 12 10 13
REMARK SMILES IDX 70 14 5 15 2 16 3 17 72 18 4 19 1 20 17 24 18 25 19 26 20 27
REMARK SMILES IDX 21 29 22 30 23 31 69 32 24 33 68 34 25 35 26 36 27 37 62 38
REMARK SMILES IDX 28 39 67 40 61 41 63 42 29 43 66 44 60 45 59 46 30 48 52 49
REMARK SMILES IDX 37 50 51 51 38 52 41 53 50 54 64 55 39 56 40 57 49 59 65 60
REMARK SMILES IDX 42 61 31 62 32 63 36 64 33 65 35 66 34 67 53 68 54 69 58 70
REMARK SMILES IDX 55 71 57 72 56 73 43 74 44 75 48 76 45 77 47 78 46 79
REMARK H PARENT 15 5 1 21 1 22 1 23 19 28 63 47 41 58
REMARK Flexibility Score: inf
ROOT
ATOM      1  C   UNL A   1      35.962  20.605  25.003  1.00  0.00     0.117 C 
ENDROOT
BRANCH   1   2
ATOM      2  N   UNL A   1      34.733  19.878  25.300  1.00  0.00    -0.356 N 
ATOM      3  C   UNL A   1      33.438  20.124  24.953  1.00  0.00     0.220 C 
ATOM      4  O   UNL A   1      32.570  19.353  25.365  1.00  0.00    -0.275 OA
ATOM      5  H   UNL A   1      34.862  19.069  25.845  1.00  0.00     0.163 HD
BRANCH   3   6
ATOM      6  C   UNL A   1      33.072  21.321  24.101  1.00  0.00     0.103 C 
BRANCH   6   7
ATOM      7  C   UNL A   1      32.765  22.584  24.926  1.00  0.00     0.002 C 
ATOM      8  C   UNL A   1      31.427  26.107  23.838  1.00  0.00     0.229 C 
ATOM      9  O   UNL A   1      31.859  25.864  22.708  1.00  0.00    -0.274 OA
ATOM     10  N   UNL A   1      31.794  25.337  24.933  1.00  0.00    -0.342 N 
ATOM     11  C   UNL A   1      33.208  25.084  25.126  1.00  0.00     0.120 C 
ATOM     12  C   UNL A   1      30.917  24.284  25.420  1.00  0.00     0.120 C 
ATOM     13  C   UNL A   1      33.624  23.772  24.479  1.00  0.00     0.026 C 
ATOM     14  C   UNL A   1      31.269  22.930  24.803  1.00  0.00     0.026 C 
BRANCH   8  15
ATOM     15  C   UNL A   1      30.697  27.425  24.132  1.00  0.00     0.107 C 
ATOM     16  C   UNL A   1      30.203  29.524  22.941  1.00  0.00     0.205 C 
ATOM     17  C   UNL A   1      29.102  28.534  22.795  1.00  0.00     0.033 C 
ATOM     18  C   UNL A   1      31.327  28.722  23.613  1.00  0.00     0.087 C 
ATOM     19  C   UNL A   1      29.348  27.405  23.467  1.00  0.00    -0.012 C 
BRANCH  16  20
ATOM     20  N   UNL A   1      30.626  30.050  21.655  1.00  0.00    -0.352 N 
ATOM     21  H   UNL A   1      30.625  29.299  20.964  1.00  0.00     0.345 HD
ATOM     22  H   UNL A   1      31.566  30.436  21.737  1.00  0.00     0.345 HD
ATOM     23  H   UNL A   1      29.981  30.783  21.359  1.00  0.00     0.345 HD
ENDBRANCH  16  20
ENDBRANCH   8  15
ENDBRANCH   6   7
ENDBRANCH   3   6
ENDBRANCH   1   2
BRANCH   1  24
ATOM     24  C   UNL A   1      37.194  19.698  24.981  1.00  0.00     0.042 C 
BRANCH  24  25
ATOM     25  C   UNL A   1      38.487  20.382  25.409  1.00  0.00     0.118 C 
BRANCH  25  26
ATOM     26  N   UNL A   1      39.555  19.425  25.640  1.00  0.00    -0.352 N 
ATOM     27  C   UNL A   1      40.856  19.634  26.029  1.00  0.00     0.251 C 
ATOM     28  H   UNL A   1      39.310  18.484  25.494  1.00  0.00     0.163 HD
ATOM     29  O   UNL A   1      41.665  18.716  25.927  1.00  0.00    -0.269 OA
BRANCH  27  30
ATOM     30  C   UNL A   1      41.306  20.944  26.563  1.00  0.00     0.039 A 
ATOM     31  C   UNL A   1      41.146  21.200  27.929  1.00  0.00     0.014 A 
ATOM     32  C   UNL A   1      41.801  21.952  25.730  1.00  0.00     0.014 A 
ATOM     33  C   UNL A   1      41.516  22.439  28.462  1.00  0.00     0.010 A 
ATOM     34  C   UNL A   1      42.235  23.164  26.274  1.00  0.00     0.010 A 
ATOM     35  C   UNL A   1      42.084  23.427  27.643  1.00  0.00    -0.014 A 
BRANCH  35  36
ATOM     36  C   UNL A   1      42.498  24.744  28.199  1.00  0.00     0.031 A 
ATOM     37  C   UNL A   1      41.484  25.841  28.395  1.00  0.00     0.074 A 
ATOM     38  C   UNL A   1      43.792  24.975  28.494  1.00  0.00     0.049 A 
ATOM     39  N   UNL A   1      41.666  27.070  28.813  1.00  0.00    -0.248 NA
ATOM     40  C   UNL A   1      40.086  25.523  28.062  1.00  0.00     0.031 C 
ATOM     41  C   UNL A   1      44.885  24.014  28.331  1.00  0.00     0.029 A 
ATOM     42  N   UNL A   1      44.408  26.098  28.990  1.00  0.00    -0.354 N 
ATOM     43  C   UNL A   1      40.415  27.673  28.774  1.00  0.00     0.074 A 
ATOM     44  C   UNL A   1      39.488  26.689  28.257  1.00  0.00     0.031 C 
ATOM     45  C   UNL A   1      46.033  24.580  28.738  1.00  0.00     0.029 A 
ATOM     46  C   UNL A   1      45.765  25.953  29.156  1.00  0.00     0.049 A 
ATOM     47  H   UNL A   1      43.925  26.927  29.206  1.00  0.00     0.167 HD
ATOM     48  C   UNL A   1      40.061  28.926  29.151  1.00  0.00     0.031 A 
ATOM     49  C   UNL A   1      46.693  26.828  29.589  1.00  0.00     0.031 A 
ATOM     50  C   UNL A   1      40.970  29.904  29.686  1.00  0.00     0.049 A 
ATOM     51  C   UNL A   1      46.276  28.215  29.992  1.00  0.00     0.074 A 
ATOM     52  C   UNL A   1      40.689  31.183  30.138  1.00  0.00     0.029 A 
ATOM     53  N   UNL A   1      42.332  29.713  29.843  1.00  0.00    -0.354 N 
ATOM     54  N   UNL A   1      45.080  28.750  29.994  1.00  0.00    -0.248 NA
ATOM     55  C   UNL A   1      47.340  29.116  30.460  1.00  0.00     0.031 C 
ATOM     56  C   UNL A   1      41.891  31.780  30.536  1.00  0.00     0.029 A 
ATOM     57  C   UNL A   1      42.910  30.856  30.370  1.00  0.00     0.049 A 
ATOM     58  H   UNL A   1      42.818  28.888  29.614  1.00  0.00     0.167 HD
ATOM     59  C   UNL A   1      45.243  30.040  30.482  1.00  0.00     0.074 A 
ATOM     60  C   UNL A   1      46.651  30.202  30.782  1.00  0.00     0.031 C 
ATOM     61  C   UNL A   1      44.310  31.004  30.664  1.00  0.00     0.031 A 
BRANCH  48  62
ATOM     62  C   UNL A   1      38.617  29.313  28.999  1.00  0.00    -0.014 A 
ATOM     63  C   UNL A   1      38.107  29.732  27.761  1.00  0.00     0.009 A 
ATOM     64  C   UNL A   1      37.745  29.206  30.095  1.00  0.00     0.009 A 
ATOM     65  C   UNL A   1      36.757  30.065  27.630  1.00  0.00     0.001 A 
ATOM     66  C   UNL A   1      36.391  29.516  29.953  1.00  0.00     0.001 A 
ATOM     67  C   UNL A   1      35.900  29.952  28.724  1.00  0.00     0.000 A 
ENDBRANCH  48  62
BRANCH  49  68
ATOM     68  C   UNL A   1      48.119  26.422  29.670  1.00  0.00    -0.014 A 
ATOM     69  C   UNL A   1      48.980  26.625  28.581  1.00  0.00     0.009 A 
ATOM     70  C   UNL A   1      48.622  25.813  30.830  1.00  0.00     0.009 A 
ATOM     71  C   UNL A   1      50.309  26.201  28.641  1.00  0.00     0.001 A 
ATOM     72  C   UNL A   1      49.959  25.414  30.897  1.00  0.00     0.001 A 
ATOM     73  C   UNL A   1      50.797  25.599  29.799  1.00  0.00     0.000 A 
ENDBRANCH  49  68
BRANCH  61  74
ATOM     74  C   UNL A   1      44.776  32.310  31.239  1.00  0.00    -0.014 A 
ATOM     75  C   UNL A   1      45.181  33.366  30.406  1.00  0.00     0.009 A 
ATOM     76  C   UNL A   1      44.777  32.499  32.630  1.00  0.00     0.009 A 
ATOM     77  C   UNL A   1      45.606  34.575  30.959  1.00  0.00     0.001 A 
ATOM     78  C   UNL A   1      45.180  33.717  33.177  1.00  0.00     0.001 A 
ATOM     79  C   UNL A   1      45.601  34.751  32.342  1.00  0.00     0.000 A 
ENDBRANCH  61  74
ENDBRANCH  35  36
ENDBRANCH  27  30
ENDBRANCH  25  26
ENDBRANCH  24  25
ENDBRANCH   1  24
TORSDOF 13
ENDMDL
MODEL 2
REMARK VINA RESULT:     -11.4      1.840      7.751
REMARK SMILES [NH3+][C@H]1C=C[C@@H](C(=O)N2CCC(CC(=O)NCCCNC(=O)c3ccc(-c4c5nc(c(-c6ccccc6)c6ccc([nH]6)c(-c6ccccc6)c6nc(c(-c7ccccc7)c7ccc4[nH]7)C=C6)C=C5)cc3)CC2)C1
REMARK SMILES IDX 16 1 15 2 13 3 14 4 12 6 11 7 6 8 7 9 8 10 9 11 71 12 10 13
REMARK SMILES IDX 70 14 5 15 2 16 3 17 72 18 4 19 1 20 17 24 18 25 19 26 20 27
REMARK SMILES IDX 21 29 22 30 23 31 69 32 24 33 68 34 25 35 26 36 27 37 62 38
REMARK SMILES IDX 28 39 67 40 61 41 63 42 29 43 66 44 60 45 59 46 30 48 52 49
REMARK SMILES IDX 37 50 51 51 38 52 41 53 50 54 64 55 39 56 40 57 49 59 65 60
REMARK SMILES IDX 42 61 31 62 32 63 36 64 33 65 35 66 34 67 53 68 54 69 58 70
REMARK SMILES IDX 55 71 57 72 56 73 43 74 44 75 48 76 45 77 47 78 46 79
REMARK H PARENT 15 5 1 21 1 22 1 23 19 28 63 47 41 58
REMARK Flexibility Score: inf
ROOT
ATOM      1  C   UNL A   1      31.725  29.674  25.089  1.00  0.00     0.117 C 
ENDROOT
BRANCH   1   2
ATOM      2  N   UNL A   1      31.068  29.627  23.788  1.00  0.00    -0.356 N 
ATOM      3  C   UNL A   1      30.428  28.612  23.141  1.00  0.00     0.220 C 
ATOM      4  O   UNL A   1      29.977  28.833  22.016  1.00  0.00    -0.275 OA
ATOM      5  H   UNL A   1      31.091  30.476  23.290  1.00  0.00     0.163 HD
BRANCH   3   6
ATOM      6  C   UNL A   1      30.292  27.244  23.778  1.00  0.00     0.103 C 
BRANCH   6   7
ATOM      7  C   UNL A   1      30.952  26.122  22.956  1.00  0.00     0.002 C 
ATOM      8  C   UNL A   1      34.192  24.013  23.619  1.00  0.00     0.229 C 
ATOM      9  O   UNL A   1      34.579  24.933  24.343  1.00  0.00    -0.274 OA
ATOM     10  N   UNL A   1      33.120  24.178  22.752  1.00  0.00    -0.342 N 
ATOM     11  C   UNL A   1      33.131  25.345  21.892  1.00  0.00     0.120 C 
ATOM     12  C   UNL A   1      31.793  23.711  23.125  1.00  0.00     0.120 C 
ATOM     13  C   UNL A   1      32.373  26.501  22.526  1.00  0.00     0.026 C 
ATOM     14  C   UNL A   1      30.971  24.822  23.781  1.00  0.00     0.026 C 
BRANCH   8  15
ATOM     15  C   UNL A   1      35.041  22.747  23.435  1.00  0.00     0.107 C 
ATOM     16  C   UNL A   1      37.152  21.841  24.325  1.00  0.00     0.205 C 
ATOM     17  C   UNL A   1      35.976  21.369  25.104  1.00  0.00     0.033 C 
ATOM     18  C   UNL A   1      36.564  22.909  23.391  1.00  0.00     0.087 C 
ATOM     19  C   UNL A   1      34.825  21.829  24.606  1.00  0.00    -0.012 C 
BRANCH  16  20
ATOM     20  N   UNL A   1      38.178  22.400  25.187  1.00  0.00    -0.352 N 
ATOM     21  H   UNL A   1      39.094  22.256  24.763  1.00  0.00     0.345 HD
ATOM     22  H   UNL A   1      38.147  21.937  26.096  1.00  0.00     0.345 HD
ATOM     23  H   UNL A   1      38.013  23.399  25.308  1.00  0.00     0.345 HD
ENDBRANCH  16  20
ENDBRANCH   8  15
ENDBRANCH   6   7
ENDBRANCH   3   6
ENDBRANCH   1   2
BRANCH   1  24
ATOM     24  C   UNL A   1      33.114  29.032  25.072  1.00  0.00     0.042 C 
BRANCH  24  25
ATOM     25  C   UNL A   1      33.805  28.991  26.430  1.00  0.00     0.118 C 
BRANCH  25  26
ATOM     26  N   UNL A   1      33.684  30.253  27.138  1.00  0.00    -0.352 N 
ATOM     27  C   UNL A   1      34.514  30.823  28.073  1.00  0.00     0.251 C 
ATOM     28  H   UNL A   1      32.883  30.780  26.914  1.00  0.00     0.163 HD
ATOM     29  O   UNL A   1      34.107  31.776  28.731  1.00  0.00    -0.269 OA
BRANCH  27  30
ATOM     30  C   UNL A   1      35.887  30.309  28.308  1.00  0.00     0.039 A 
ATOM     31  C   UNL A   1      36.192  29.768  29.561  1.00  0.00     0.014 A 
ATOM     32  C   UNL A   1      36.896  30.427  27.348  1.00  0.00     0.014 A 
ATOM     33  C   UNL A   1      37.486  29.313  29.837  1.00  0.00     0.010 A 
ATOM     34  C   UNL A   1      38.169  29.910  27.599  1.00  0.00     0.010 A 
ATOM     35  C   UNL A   1      38.483  29.360  28.851  1.00  0.00    -0.014 A 
BRANCH  35  36
ATOM     36  C   UNL A   1      39.859  28.865  29.123  1.00  0.00     0.031 A 
ATOM     37  C   UNL A   1      40.874  29.760  29.787  1.00  0.00     0.074 A 
ATOM     38  C   UNL A   1      40.219  27.624  28.741  1.00  0.00     0.049 A 
ATOM     39  N   UNL A   1      42.135  29.524  30.055  1.00  0.00    -0.248 NA
ATOM     40  C   UNL A   1      40.418  31.100  30.189  1.00  0.00     0.031 C 
ATOM     41  C   UNL A   1      39.348  26.660  28.065  1.00  0.00     0.029 A 
ATOM     42  N   UNL A   1      41.416  26.963  28.862  1.00  0.00    -0.354 N 
ATOM     43  C   UNL A   1      42.624  30.688  30.635  1.00  0.00     0.074 A 
ATOM     44  C   UNL A   1      41.536  31.642  30.648  1.00  0.00     0.031 C 
ATOM     45  C   UNL A   1      40.034  25.525  27.850  1.00  0.00     0.029 A 
ATOM     46  C   UNL A   1      41.400  25.693  28.339  1.00  0.00     0.049 A 
ATOM     47  H   UNL A   1      42.211  27.361  29.284  1.00  0.00     0.167 HD
ATOM     48  C   UNL A   1      43.861  30.938  31.131  1.00  0.00     0.031 A 
ATOM     49  C   UNL A   1      42.375  24.767  28.254  1.00  0.00     0.031 A 
ATOM     50  C   UNL A   1      44.942  29.990  31.143  1.00  0.00     0.049 A 
ATOM     51  C   UNL A   1      43.740  25.073  28.802  1.00  0.00     0.074 A 
ATOM     52  C   UNL A   1      46.215  30.143  31.668  1.00  0.00     0.029 A 
ATOM     53  N   UNL A   1      44.879  28.715  30.609  1.00  0.00    -0.354 N 
ATOM     54  N   UNL A   1      44.169  26.163  29.391  1.00  0.00    -0.248 NA
ATOM     55  C   UNL A   1      44.754  24.016  28.680  1.00  0.00     0.031 C 
ATOM     56  C   UNL A   1      46.935  28.969  31.419  1.00  0.00     0.029 A 
ATOM     57  C   UNL A   1      46.095  28.074  30.776  1.00  0.00     0.049 A 
ATOM     58  H   UNL A   1      44.088  28.322  30.174  1.00  0.00     0.167 HD
ATOM     59  C   UNL A   1      45.492  25.915  29.728  1.00  0.00     0.074 A 
ATOM     60  C   UNL A   1      45.793  24.567  29.294  1.00  0.00     0.031 C 
ATOM     61  C   UNL A   1      46.381  26.733  30.342  1.00  0.00     0.031 A 
BRANCH  48  62
ATOM     62  C   UNL A   1      44.111  32.303  31.709  1.00  0.00    -0.014 A 
ATOM     63  C   UNL A   1      43.816  32.585  33.051  1.00  0.00     0.009 A 
ATOM     64  C   UNL A   1      44.698  33.301  30.916  1.00  0.00     0.009 A 
ATOM     65  C   UNL A   1      44.077  33.851  33.581  1.00  0.00     0.001 A 
ATOM     66  C   UNL A   1      44.980  34.558  31.455  1.00  0.00     0.001 A 
ATOM     67  C   UNL A   1      44.662  34.834  32.784  1.00  0.00     0.000 A 
ENDBRANCH  48  62
BRANCH  49  68
ATOM     68  C   UNL A   1      42.099  23.451  27.623  1.00  0.00    -0.014 A 
ATOM     69  C   UNL A   1      42.410  23.230  26.272  1.00  0.00     0.009 A 
ATOM     70  C   UNL A   1      41.507  22.416  28.363  1.00  0.00     0.009 A 
ATOM     71  C   UNL A   1      42.108  22.008  25.669  1.00  0.00     0.001 A 
ATOM     72  C   UNL A   1      41.231  21.186  27.763  1.00  0.00     0.001 A 
ATOM     73  C   UNL A   1      41.522  20.986  26.415  1.00  0.00     0.000 A 
ENDBRANCH  49  68
BRANCH  61  74
ATOM     74  C   UNL A   1      47.752  26.182  30.604  1.00  0.00    -0.014 A 
ATOM     75  C   UNL A   1      48.738  26.184  29.605  1.00  0.00     0.009 A 
ATOM     76  C   UNL A   1      48.072  25.688  31.879  1.00  0.00     0.009 A 
ATOM     77  C   UNL A   1      50.010  25.673  29.871  1.00  0.00     0.001 A 
ATOM     78  C   UNL A   1      49.351  25.199  32.147  1.00  0.00     0.001 A 
ATOM     79  C   UNL A   1      50.316  25.185  31.141  1.00  0.00     0.000 A 
ENDBRANCH  61  74
ENDBRANCH  35  36
ENDBRANCH  27  30
ENDBRANCH  25  26
ENDBRANCH  24  25
ENDBRANCH   1  24
TORSDOF 13
ENDMDL
MODEL 3
REMARK VINA RESULT:     -11.4      3.421      9.101
REMARK SMILES [NH3+][C@H]1C=C[C@@H](C(=O)N2CCC(CC(=O)NCCCNC(=O)c3ccc(-c4c5nc(c(-c6ccccc6)c6ccc([nH]6)c(-c6ccccc6)c6nc(c(-c7ccccc7)c7ccc4[nH]7)C=C6)C=C5)cc3)CC2)C1
REMARK SMILES IDX 16 1 15 2 13 3 14 4 12 6 11 7 6 8 7 9 8 10 9 11 71 12 10 13
REMARK SMILES IDX 70 14 5 15 2 16 3 17 72 18 4 19 1 20 17 24 18 25 19 26 20 27
REMARK SMILES IDX 21 29 22 30 23 31 69 32 24 33 68 34 25 35 26 36 27 37 62 38
REMARK SMILES IDX 28 39 67 40 61 41 63 42 29 43 66 44 60 45 59 46 30 48 52 49
REMARK SMILES IDX 37 50 51 51 38 52 41 53 50 54 64 55 39 56 40 57 49 59 65 60
REMARK SMILES IDX 42 61 31 62 32 63 36 64 33 65 35 66 34 67 53 68 54 69 58 70
REMARK SMILES IDX 55 71 57 72 56 73 43 74 44 75 48 76 45 77 47 78 46 79
REMARK H PARENT 15 5 1 21 1 22 1 23 19 28 63 47 41 58
REMARK Flexibility Score: inf
ROOT
ATOM      1  C   UNL A   1      31.314  30.120  25.284  1.00  0.00     0.117 C 
ENDROOT
BRANCH   1   2
ATOM      2  N   UNL A   1      30.715  30.078  23.955  1.00  0.00    -0.356 N 
ATOM      3  C   UNL A   1      30.272  29.032  23.202  1.00  0.00     0.220 C 
ATOM      4  O   UNL A   1      29.826  29.271  22.079  1.00  0.00    -0.275 OA
ATOM      5  H   UNL A   1      30.612  30.959  23.527  1.00  0.00     0.163 HD
BRANCH   3   6
ATOM      6  C   UNL A   1      30.344  27.611  23.723  1.00  0.00     0.103 C 
BRANCH   6   7
ATOM      7  C   UNL A   1      31.230  26.692  22.862  1.00  0.00     0.002 C 
ATOM      8  C   UNL A   1      34.293  24.437  23.822  1.00  0.00     0.229 C 
ATOM      9  O   UNL A   1      34.453  25.165  24.804  1.00  0.00    -0.274 OA
ATOM     10  N   UNL A   1      33.460  24.810  22.775  1.00  0.00    -0.342 N 
ATOM     11  C   UNL A   1      33.633  26.140  22.226  1.00  0.00     0.120 C 
ATOM     12  C   UNL A   1      32.103  24.292  22.695  1.00  0.00     0.120 C 
ATOM     13  C   UNL A   1      32.697  27.135  22.892  1.00  0.00     0.026 C 
ATOM     14  C   UNL A   1      31.100  25.239  23.357  1.00  0.00     0.026 C 
BRANCH   8  15
ATOM     15  C   UNL A   1      35.213  23.232  23.578  1.00  0.00     0.107 C 
ATOM     16  C   UNL A   1      36.918  21.975  24.835  1.00  0.00     0.205 C 
ATOM     17  C   UNL A   1      35.567  21.367  24.977  1.00  0.00     0.033 C 
ATOM     18  C   UNL A   1      36.644  23.305  24.118  1.00  0.00     0.087 C 
ATOM     19  C   UNL A   1      34.643  22.025  24.270  1.00  0.00    -0.012 C 
BRANCH  16  20
ATOM     20  N   UNL A   1      37.548  22.189  26.125  1.00  0.00    -0.352 N 
ATOM     21  H   UNL A   1      36.936  21.841  26.864  1.00  0.00     0.345 HD
ATOM     22  H   UNL A   1      37.713  23.187  26.261  1.00  0.00     0.345 HD
ATOM     23  H   UNL A   1      38.436  21.690  26.157  1.00  0.00     0.345 HD
ENDBRANCH  16  20
ENDBRANCH   8  15
ENDBRANCH   6   7
ENDBRANCH   3   6
ENDBRANCH   1   2
BRANCH   1  24
ATOM     24  C   UNL A   1      31.081  31.456  25.995  1.00  0.00     0.042 C 
BRANCH  24  25
ATOM     25  C   UNL A   1      32.232  31.904  26.886  1.00  0.00     0.118 C 
BRANCH  25  26
ATOM     26  N   UNL A   1      32.153  33.319  27.202  1.00  0.00    -0.352 N 
ATOM     27  C   UNL A   1      32.902  34.071  28.075  1.00  0.00     0.251 C 
ATOM     28  H   UNL A   1      31.455  33.816  26.718  1.00  0.00     0.163 HD
ATOM     29  O   UNL A   1      32.516  35.195  28.380  1.00  0.00    -0.269 OA
BRANCH  27  30
ATOM     30  C   UNL A   1      34.164  33.551  28.661  1.00  0.00     0.039 A 
ATOM     31  C   UNL A   1      35.367  33.818  28.000  1.00  0.00     0.014 A 
ATOM     32  C   UNL A   1      34.172  32.737  29.797  1.00  0.00     0.014 A 
ATOM     33  C   UNL A   1      36.572  33.309  28.496  1.00  0.00     0.010 A 
ATOM     34  C   UNL A   1      35.382  32.286  30.331  1.00  0.00     0.010 A 
ATOM     35  C   UNL A   1      36.594  32.554  29.679  1.00  0.00    -0.014 A 
BRANCH  35  36
ATOM     36  C   UNL A   1      37.869  32.019  30.228  1.00  0.00     0.031 A 
ATOM     37  C   UNL A   1      38.463  30.749  29.677  1.00  0.00     0.074 A 
ATOM     38  C   UNL A   1      38.481  32.649  31.250  1.00  0.00     0.049 A 
ATOM     39  N   UNL A   1      39.534  30.101  30.064  1.00  0.00    -0.248 NA
ATOM     40  C   UNL A   1      37.752  30.113  28.556  1.00  0.00     0.031 C 
ATOM     41  C   UNL A   1      38.007  33.873  31.898  1.00  0.00     0.029 A 
ATOM     42  N   UNL A   1      39.636  32.340  31.926  1.00  0.00    -0.354 N 
ATOM     43  C   UNL A   1      39.613  28.977  29.250  1.00  0.00     0.074 A 
ATOM     44  C   UNL A   1      38.463  29.010  28.373  1.00  0.00     0.031 C 
ATOM     45  C   UNL A   1      38.872  34.222  32.865  1.00  0.00     0.029 A 
ATOM     46  C   UNL A   1      39.941  33.230  32.928  1.00  0.00     0.049 A 
ATOM     47  H   UNL A   1      40.192  31.557  31.714  1.00  0.00     0.167 HD
ATOM     48  C   UNL A   1      40.565  28.012  29.220  1.00  0.00     0.031 A 
ATOM     49  C   UNL A   1      40.963  33.244  33.806  1.00  0.00     0.031 A 
ATOM     50  C   UNL A   1      41.723  27.981  30.072  1.00  0.00     0.049 A 
ATOM     51  C   UNL A   1      42.000  32.157  33.757  1.00  0.00     0.074 A 
ATOM     52  C   UNL A   1      42.763  27.067  30.078  1.00  0.00     0.029 A 
ATOM     53  N   UNL A   1      41.995  28.905  31.067  1.00  0.00    -0.354 N 
ATOM     54  N   UNL A   1      42.082  31.130  32.948  1.00  0.00    -0.248 NA
ATOM     55  C   UNL A   1      43.089  32.238  34.742  1.00  0.00     0.031 C 
ATOM     56  C   UNL A   1      43.649  27.418  31.103  1.00  0.00     0.029 A 
ATOM     57  C   UNL A   1      43.179  28.573  31.705  1.00  0.00     0.049 A 
ATOM     58  H   UNL A   1      41.431  29.681  31.288  1.00  0.00     0.167 HD
ATOM     59  C   UNL A   1      43.241  30.456  33.310  1.00  0.00     0.074 A 
ATOM     60  C   UNL A   1      43.838  31.198  34.400  1.00  0.00     0.031 C 
ATOM     61  C   UNL A   1      43.762  29.320  32.786  1.00  0.00     0.031 A 
BRANCH  48  62
ATOM     62  C   UNL A   1      40.393  26.902  28.222  1.00  0.00    -0.014 A 
ATOM     63  C   UNL A   1      41.009  26.960  26.962  1.00  0.00     0.009 A 
ATOM     64  C   UNL A   1      39.649  25.762  28.565  1.00  0.00     0.009 A 
ATOM     65  C   UNL A   1      40.860  25.909  26.054  1.00  0.00     0.001 A 
ATOM     66  C   UNL A   1      39.523  24.703  27.664  1.00  0.00     0.001 A 
ATOM     67  C   UNL A   1      40.121  24.780  26.408  1.00  0.00     0.000 A 
ENDBRANCH  48  62
BRANCH  49  68
ATOM     68  C   UNL A   1      41.064  34.331  34.814  1.00  0.00    -0.014 A 
ATOM     69  C   UNL A   1      40.460  34.192  36.073  1.00  0.00     0.009 A 
ATOM     70  C   UNL A   1      41.748  35.519  34.515  1.00  0.00     0.009 A 
ATOM     71  C   UNL A   1      40.516  35.232  37.003  1.00  0.00     0.001 A 
ATOM     72  C   UNL A   1      41.825  36.547  35.457  1.00  0.00     0.001 A 
ATOM     73  C   UNL A   1      41.201  36.406  36.695  1.00  0.00     0.000 A 
ENDBRANCH  49  68
BRANCH  61  74
ATOM     74  C   UNL A   1      45.056  28.829  33.367  1.00  0.00    -0.014 A 
ATOM     75  C   UNL A   1      45.077  27.821  34.344  1.00  0.00     0.009 A 
ATOM     76  C   UNL A   1      46.272  29.356  32.905  1.00  0.00     0.009 A 
ATOM     77  C   UNL A   1      46.291  27.373  34.867  1.00  0.00     0.001 A 
ATOM     78  C   UNL A   1      47.485  28.889  33.413  1.00  0.00     0.001 A 
ATOM     79  C   UNL A   1      47.493  27.903  34.399  1.00  0.00     0.000 A 
ENDBRANCH  61  74
ENDBRANCH  35  36
ENDBRANCH  27  30
ENDBRANCH  25  26
ENDBRANCH  24  25
ENDBRANCH   1  24
TORSDOF 13
ENDMDL
