MODEL 1
REMARK VINA RESULT:     -11.8      0.000      0.000
REMARK SMILES O=C(NCCCNC(=O)c1cc(/C=C/c2cc(O)cc(O)c2)ccc1O)c1ccc(-c2c3nc(c(-c4ccccc4)c4ccc([nH]4)c(-c4ccccc4)c4nc(c(-c5ccccc5)c5ccc2[nH]5)C=C4)C=C3)cc1
REMARK SMILES IDX 5 1 4 2 3 3 1 4 2 5 27 7 28 8 74 9 29 10 73 11 30 12 31 13
REMARK SMILES IDX 32 14 67 15 33 16 72 17 66 18 68 19 34 20 71 21 65 22 64 23
REMARK SMILES IDX 35 25 57 26 42 27 56 28 43 29 46 30 55 31 69 32 44 33 45 34
REMARK SMILES IDX 54 36 70 37 47 38 36 39 37 40 41 41 38 42 40 43 39 44 58 45
REMARK SMILES IDX 59 46 63 47 60 48 62 49 61 50 48 51 49 52 53 53 50 54 52 55
REMARK SMILES IDX 51 56 6 57 7 58 8 59 9 61 10 62 11 63 25 64 12 65 24 66
REMARK SMILES IDX 23 67 26 68 13 70 14 71 15 72 16 73 22 74 17 75 20 76 19 77
REMARK SMILES IDX 18 78 21 80
REMARK H PARENT 3 6 68 24 46 35 7 60 26 69 18 79 21 81
REMARK Flexibility Score: inf
ROOT
ATOM      1  C   UNL A   1      33.954  27.912  25.890  1.00  0.00     0.042 C 
ENDROOT
BRANCH   1   2
ATOM      2  C   UNL A   1      33.666  28.277  27.338  1.00  0.00     0.118 C 
BRANCH   2   3
ATOM      3  N   UNL A   1      33.619  29.718  27.562  1.00  0.00    -0.352 N 
ATOM      4  O   UNL A   1      34.232  31.731  28.366  1.00  0.00    -0.269 OA
ATOM      5  C   UNL A   1      34.550  30.574  28.102  1.00  0.00     0.251 C 
ATOM      6  H   UNL A   1      32.781  30.150  27.280  1.00  0.00     0.163 HD
BRANCH   5   7
ATOM      7  C   UNL A   1      35.924  30.109  28.389  1.00  0.00     0.039 A 
ATOM      8  C   UNL A   1      36.924  30.199  27.423  1.00  0.00     0.014 A 
ATOM      9  C   UNL A   1      36.229  29.600  29.656  1.00  0.00     0.014 A 
ATOM     10  C   UNL A   1      38.159  29.608  27.650  1.00  0.00     0.010 A 
ATOM     11  C   UNL A   1      37.515  29.116  29.927  1.00  0.00     0.010 A 
ATOM     12  C   UNL A   1      38.481  29.081  28.912  1.00  0.00    -0.014 A 
BRANCH  12  13
ATOM     13  C   UNL A   1      39.859  28.572  29.131  1.00  0.00     0.031 A 
ATOM     14  C   UNL A   1      40.266  27.187  28.712  1.00  0.00     0.074 A 
ATOM     15  C   UNL A   1      40.775  29.419  29.640  1.00  0.00     0.049 A 
ATOM     16  N   UNL A   1      41.458  26.643  28.732  1.00  0.00    -0.248 NA
ATOM     17  C   UNL A   1      39.208  26.293  28.215  1.00  0.00     0.031 C 
ATOM     18  C   UNL A   1      40.497  30.782  30.104  1.00  0.00     0.029 A 
ATOM     19  N   UNL A   1      42.130  29.285  29.807  1.00  0.00    -0.354 N 
ATOM     20  C   UNL A   1      41.293  25.343  28.267  1.00  0.00     0.074 A 
ATOM     21  C   UNL A   1      39.882  25.171  27.997  1.00  0.00     0.031 C 
ATOM     22  C   UNL A   1      41.652  31.386  30.418  1.00  0.00     0.029 A 
ATOM     23  C   UNL A   1      42.742  30.434  30.247  1.00  0.00     0.049 A 
ATOM     24  H   UNL A   1      42.616  28.447  29.630  1.00  0.00     0.167 HD
ATOM     25  C   UNL A   1      42.232  24.386  28.078  1.00  0.00     0.031 A 
ATOM     26  C   UNL A   1      44.037  30.700  30.490  1.00  0.00     0.031 A 
ATOM     27  C   UNL A   1      43.637  24.558  28.347  1.00  0.00     0.049 A 
ATOM     28  C   UNL A   1      45.055  29.623  30.263  1.00  0.00     0.074 A 
ATOM     29  C   UNL A   1      44.666  23.646  28.185  1.00  0.00     0.029 A 
ATOM     30  N   UNL A   1      44.211  25.724  28.830  1.00  0.00    -0.354 N 
ATOM     31  N   UNL A   1      44.877  28.405  29.810  1.00  0.00    -0.248 NA
ATOM     32  C   UNL A   1      46.449  29.956  30.583  1.00  0.00     0.031 C 
ATOM     33  C   UNL A   1      45.857  24.248  28.605  1.00  0.00     0.029 A 
ATOM     34  C   UNL A   1      45.577  25.550  28.983  1.00  0.00     0.049 A 
ATOM     35  H   UNL A   1      43.720  26.552  29.034  1.00  0.00     0.167 HD
ATOM     36  C   UNL A   1      46.137  27.825  29.792  1.00  0.00     0.074 A 
ATOM     37  C   UNL A   1      47.072  28.837  30.243  1.00  0.00     0.031 C 
ATOM     38  C   UNL A   1      46.487  26.563  29.448  1.00  0.00     0.031 A 
BRANCH  25  39
ATOM     39  C   UNL A   1      41.770  23.050  27.567  1.00  0.00    -0.014 A 
ATOM     40  C   UNL A   1      41.467  22.001  28.449  1.00  0.00     0.009 A 
ATOM     41  C   UNL A   1      41.580  22.854  26.190  1.00  0.00     0.009 A 
ATOM     42  C   UNL A   1      41.006  20.776  27.960  1.00  0.00     0.001 A 
ATOM     43  C   UNL A   1      41.097  21.637  25.705  1.00  0.00     0.001 A 
ATOM     44  C   UNL A   1      40.817  20.597  26.590  1.00  0.00     0.000 A 
ENDBRANCH  25  39
BRANCH  26  45
ATOM     45  C   UNL A   1      44.435  32.039  30.990  1.00  0.00    -0.014 A 
ATOM     46  C   UNL A   1      44.494  32.306  32.366  1.00  0.00     0.009 A 
ATOM     47  C   UNL A   1      44.774  33.059  30.085  1.00  0.00     0.009 A 
ATOM     48  C   UNL A   1      44.867  33.572  32.823  1.00  0.00     0.001 A 
ATOM     49  C   UNL A   1      45.175  34.312  30.546  1.00  0.00     0.001 A 
ATOM     50  C   UNL A   1      45.213  34.571  31.915  1.00  0.00     0.000 A 
ENDBRANCH  26  45
BRANCH  38  51
ATOM     51  C   UNL A   1      47.945  26.221  29.546  1.00  0.00    -0.014 A 
ATOM     52  C   UNL A   1      48.741  26.121  28.394  1.00  0.00     0.009 A 
ATOM     53  C   UNL A   1      48.530  25.998  30.801  1.00  0.00     0.009 A 
ATOM     54  C   UNL A   1      50.086  25.763  28.495  1.00  0.00     0.001 A 
ATOM     55  C   UNL A   1      49.881  25.666  30.902  1.00  0.00     0.001 A 
ATOM     56  C   UNL A   1      50.655  25.537  29.749  1.00  0.00     0.000 A 
ENDBRANCH  38  51
ENDBRANCH  12  13
ENDBRANCH   5   7
ENDBRANCH   2   3
ENDBRANCH   1   2
BRANCH   1  57
ATOM     57  C   UNL A   1      33.536  28.984  24.896  1.00  0.00     0.118 C 
BRANCH  57  58
ATOM     58  N   UNL A   1      33.951  28.662  23.541  1.00  0.00    -0.352 N 
ATOM     59  C   UNL A   1      33.453  27.717  22.681  1.00  0.00     0.255 C 
ATOM     60  H   UNL A   1      34.697  29.200  23.190  1.00  0.00     0.163 HD
ATOM     61  O   UNL A   1      34.039  27.483  21.627  1.00  0.00    -0.269 OA
BRANCH  59  62
ATOM     62  C   UNL A   1      32.263  26.922  23.043  1.00  0.00     0.082 A 
ATOM     63  C   UNL A   1      32.467  25.563  23.330  1.00  0.00     0.025 A 
ATOM     64  C   UNL A   1      30.972  27.456  23.061  1.00  0.00     0.128 A 
ATOM     65  C   UNL A   1      31.391  24.739  23.683  1.00  0.00    -0.025 A 
ATOM     66  C   UNL A   1      29.898  26.660  23.446  1.00  0.00     0.047 A 
ATOM     67  C   UNL A   1      30.112  25.314  23.763  1.00  0.00     0.012 A 
BRANCH  64  68
ATOM     68  O   UNL A   1      30.752  28.758  22.705  1.00  0.00    -0.507 OA
ATOM     69  H   UNL A   1      29.879  29.097  22.685  1.00  0.00     0.293 HD
ENDBRANCH  64  68
BRANCH  65  70
ATOM     70  C   UNL A   1      31.530  23.301  23.978  1.00  0.00     0.009 C 
ATOM     71  C   UNL A   1      32.436  22.469  23.438  1.00  0.00     0.009 C 
BRANCH  71  72
ATOM     72  C   UNL A   1      32.477  21.032  23.743  1.00  0.00    -0.018 A 
ATOM     73  C   UNL A   1      32.708  20.571  25.048  1.00  0.00     0.054 A 
ATOM     74  C   UNL A   1      32.216  20.107  22.723  1.00  0.00     0.054 A 
ATOM     75  C   UNL A   1      32.696  19.202  25.312  1.00  0.00     0.119 A 
ATOM     76  C   UNL A   1      32.212  18.743  23.010  1.00  0.00     0.119 A 
ATOM     77  C   UNL A   1      32.454  18.283  24.299  1.00  0.00     0.092 A 
BRANCH  75  78
ATOM     78  O   UNL A   1      32.913  18.722  26.570  1.00  0.00    -0.508 OA
ATOM     79  H   UNL A   1      33.720  18.292  26.775  1.00  0.00     0.293 HD
ENDBRANCH  75  78
BRANCH  76  80
ATOM     80  O   UNL A   1      31.967  17.816  22.041  1.00  0.00    -0.508 OA
ATOM     81  H   UNL A   1      31.629  16.973  22.273  1.00  0.00     0.293 HD
ENDBRANCH  76  80
ENDBRANCH  71  72
ENDBRANCH  65  70
ENDBRANCH  59  62
ENDBRANCH  57  58
ENDBRANCH   1  57
TORSDOF 15
ENDMDL
MODEL 2
REMARK VINA RESULT:     -11.8      2.852      8.280
REMARK SMILES O=C(NCCCNC(=O)c1cc(/C=C/c2cc(O)cc(O)c2)ccc1O)c1ccc(-c2c3nc(c(-c4ccccc4)c4ccc([nH]4)c(-c4ccccc4)c4nc(c(-c5ccccc5)c5ccc2[nH]5)C=C4)C=C3)cc1
REMARK SMILES IDX 5 1 4 2 3 3 1 4 2 5 27 7 28 8 74 9 29 10 73 11 30 12 31 13
REMARK SMILES IDX 32 14 67 15 33 16 72 17 66 18 68 19 34 20 71 21 65 22 64 23
REMARK SMILES IDX 35 25 57 26 42 27 56 28 43 29 46 30 55 31 69 32 44 33 45 34
REMARK SMILES IDX 54 36 70 37 47 38 36 39 37 40 41 41 38 42 40 43 39 44 58 45
REMARK SMILES IDX 59 46 63 47 60 48 62 49 61 50 48 51 49 52 53 53 50 54 52 55
REMARK SMILES IDX 51 56 6 57 7 58 8 59 9 61 10 62 11 63 25 64 12 65 24 66
REMARK SMILES IDX 23 67 26 68 13 70 14 71 15 72 16 73 22 74 17 75 20 76 19 77
REMARK SMILES IDX 18 78 21 80
REMARK H PARENT 3 6 68 24 46 35 7 60 26 69 18 79 21 81
REMARK Flexibility Score: inf
ROOT
ATOM      1  C   UNL A   1      35.865  23.708  25.874  1.00  0.00     0.042 C 
ENDROOT
BRANCH   1   2
ATOM      2  C   UNL A   1      37.170  23.842  25.104  1.00  0.00     0.118 C 
BRANCH   2   3
ATOM      3  N   UNL A   1      38.154  22.830  25.474  1.00  0.00    -0.352 N 
ATOM      4  O   UNL A   1      40.111  21.981  26.194  1.00  0.00    -0.269 OA
ATOM      5  C   UNL A   1      39.346  22.940  26.150  1.00  0.00     0.251 C 
ATOM      6  H   UNL A   1      37.926  21.915  25.191  1.00  0.00     0.163 HD
BRANCH   5   7
ATOM      7  C   UNL A   1      39.725  24.212  26.805  1.00  0.00     0.039 A 
ATOM      8  C   UNL A   1      39.403  24.450  28.139  1.00  0.00     0.014 A 
ATOM      9  C   UNL A   1      40.442  25.172  26.082  1.00  0.00     0.014 A 
ATOM     10  C   UNL A   1      39.618  25.706  28.687  1.00  0.00     0.010 A 
ATOM     11  C   UNL A   1      40.770  26.396  26.678  1.00  0.00     0.010 A 
ATOM     12  C   UNL A   1      40.325  26.689  27.974  1.00  0.00    -0.014 A 
BRANCH  12  13
ATOM     13  C   UNL A   1      40.630  27.972  28.658  1.00  0.00     0.031 A 
ATOM     14  C   UNL A   1      39.598  29.054  28.805  1.00  0.00     0.074 A 
ATOM     15  C   UNL A   1      41.843  28.113  29.232  1.00  0.00     0.049 A 
ATOM     16  N   UNL A   1      39.680  30.178  29.474  1.00  0.00    -0.248 NA
ATOM     17  C   UNL A   1      38.316  28.863  28.109  1.00  0.00     0.031 C 
ATOM     18  C   UNL A   1      42.936  27.140  29.142  1.00  0.00     0.029 A 
ATOM     19  N   UNL A   1      42.344  29.098  30.044  1.00  0.00    -0.354 N 
ATOM     20  C   UNL A   1      38.471  30.833  29.270  1.00  0.00     0.074 A 
ATOM     21  C   UNL A   1      37.683  29.994  28.393  1.00  0.00     0.031 C 
ATOM     22  C   UNL A   1      43.941  27.532  29.937  1.00  0.00     0.029 A 
ATOM     23  C   UNL A   1      43.595  28.815  30.535  1.00  0.00     0.049 A 
ATOM     24  H   UNL A   1      41.855  29.927  30.252  1.00  0.00     0.167 HD
ATOM     25  C   UNL A   1      38.056  32.021  29.772  1.00  0.00     0.031 A 
ATOM     26  C   UNL A   1      44.384  29.507  31.375  1.00  0.00     0.031 A 
ATOM     27  C   UNL A   1      38.842  32.855  30.645  1.00  0.00     0.049 A 
ATOM     28  C   UNL A   1      43.895  30.814  31.921  1.00  0.00     0.074 A 
ATOM     29  C   UNL A   1      38.505  34.076  31.207  1.00  0.00     0.029 A 
ATOM     30  N   UNL A   1      40.120  32.552  31.087  1.00  0.00    -0.354 N 
ATOM     31  N   UNL A   1      42.742  31.407  31.726  1.00  0.00    -0.248 NA
ATOM     32  C   UNL A   1      44.814  31.545  32.802  1.00  0.00     0.031 C 
ATOM     33  C   UNL A   1      39.595  34.528  31.959  1.00  0.00     0.029 A 
ATOM     34  C   UNL A   1      40.591  33.567  31.904  1.00  0.00     0.049 A 
ATOM     35  H   UNL A   1      40.619  31.736  30.855  1.00  0.00     0.167 HD
ATOM     36  C   UNL A   1      42.799  32.585  32.457  1.00  0.00     0.074 A 
ATOM     37  C   UNL A   1      44.082  32.601  33.130  1.00  0.00     0.031 C 
ATOM     38  C   UNL A   1      41.876  33.573  32.550  1.00  0.00     0.031 A 
BRANCH  25  39
ATOM     39  C   UNL A   1      36.688  32.503  29.376  1.00  0.00    -0.014 A 
ATOM     40  C   UNL A   1      36.493  33.246  28.201  1.00  0.00     0.009 A 
ATOM     41  C   UNL A   1      35.573  32.163  30.158  1.00  0.00     0.009 A 
ATOM     42  C   UNL A   1      35.210  33.657  27.830  1.00  0.00     0.001 A 
ATOM     43  C   UNL A   1      34.290  32.556  29.772  1.00  0.00     0.001 A 
ATOM     44  C   UNL A   1      34.110  33.309  28.613  1.00  0.00     0.000 A 
ENDBRANCH  25  39
BRANCH  26  45
ATOM     45  C   UNL A   1      45.725  28.978  31.733  1.00  0.00    -0.014 A 
ATOM     46  C   UNL A   1      46.853  29.293  30.962  1.00  0.00     0.009 A 
ATOM     47  C   UNL A   1      45.882  28.163  32.867  1.00  0.00     0.009 A 
ATOM     48  C   UNL A   1      48.108  28.787  31.308  1.00  0.00     0.001 A 
ATOM     49  C   UNL A   1      47.142  27.684  33.226  1.00  0.00     0.001 A 
ATOM     50  C   UNL A   1      48.252  27.989  32.442  1.00  0.00     0.000 A 
ENDBRANCH  26  45
BRANCH  38  51
ATOM     51  C   UNL A   1      42.233  34.743  33.418  1.00  0.00    -0.014 A 
ATOM     52  C   UNL A   1      41.852  34.783  34.769  1.00  0.00     0.009 A 
ATOM     53  C   UNL A   1      42.960  35.816  32.882  1.00  0.00     0.009 A 
ATOM     54  C   UNL A   1      42.155  35.896  35.555  1.00  0.00     0.001 A 
ATOM     55  C   UNL A   1      43.285  36.916  33.677  1.00  0.00     0.001 A 
ATOM     56  C   UNL A   1      42.872  36.960  35.008  1.00  0.00     0.000 A 
ENDBRANCH  38  51
ENDBRANCH  12  13
ENDBRANCH   5   7
ENDBRANCH   2   3
ENDBRANCH   1   2
BRANCH   1  57
ATOM     57  C   UNL A   1      35.663  22.336  26.496  1.00  0.00     0.118 C 
BRANCH  57  58
ATOM     58  N   UNL A   1      34.564  22.326  27.447  1.00  0.00    -0.352 N 
ATOM     59  C   UNL A   1      33.215  22.426  27.219  1.00  0.00     0.255 C 
ATOM     60  H   UNL A   1      34.825  22.236  28.392  1.00  0.00     0.163 HD
ATOM     61  O   UNL A   1      32.444  22.558  28.167  1.00  0.00    -0.269 OA
BRANCH  59  62
ATOM     62  C   UNL A   1      32.685  22.452  25.841  1.00  0.00     0.082 A 
ATOM     63  C   UNL A   1      32.181  23.677  25.376  1.00  0.00     0.025 A 
ATOM     64  C   UNL A   1      32.628  21.317  25.029  1.00  0.00     0.128 A 
ATOM     65  C   UNL A   1      31.660  23.788  24.081  1.00  0.00    -0.025 A 
ATOM     66  C   UNL A   1      32.149  21.420  23.727  1.00  0.00     0.047 A 
ATOM     67  C   UNL A   1      31.678  22.651  23.257  1.00  0.00     0.012 A 
BRANCH  64  68
ATOM     68  O   UNL A   1      33.042  20.102  25.501  1.00  0.00    -0.507 OA
ATOM     69  H   UNL A   1      33.956  19.899  25.534  1.00  0.00     0.293 HD
ENDBRANCH  64  68
BRANCH  65  70
ATOM     70  C   UNL A   1      31.098  25.037  23.534  1.00  0.00     0.009 C 
ATOM     71  C   UNL A   1      30.177  25.814  24.129  1.00  0.00     0.009 C 
BRANCH  71  72
ATOM     72  C   UNL A   1      29.625  27.019  23.494  1.00  0.00    -0.018 A 
ATOM     73  C   UNL A   1      28.254  27.313  23.558  1.00  0.00     0.054 A 
ATOM     74  C   UNL A   1      30.494  27.925  22.871  1.00  0.00     0.054 A 
ATOM     75  C   UNL A   1      27.770  28.487  22.984  1.00  0.00     0.119 A 
ATOM     76  C   UNL A   1      29.986  29.091  22.302  1.00  0.00     0.119 A 
ATOM     77  C   UNL A   1      28.627  29.378  22.352  1.00  0.00     0.092 A 
BRANCH  75  78
ATOM     78  O   UNL A   1      26.443  28.804  23.032  1.00  0.00    -0.508 OA
ATOM     79  H   UNL A   1      26.130  29.576  22.602  1.00  0.00     0.293 HD
ENDBRANCH  75  78
BRANCH  76  80
ATOM     80  O   UNL A   1      30.802  29.992  21.684  1.00  0.00    -0.508 OA
ATOM     81  H   UNL A   1      31.727  29.841  21.650  1.00  0.00     0.293 HD
ENDBRANCH  76  80
ENDBRANCH  71  72
ENDBRANCH  65  70
ENDBRANCH  59  62
ENDBRANCH  57  58
ENDBRANCH   1  57
TORSDOF 15
ENDMDL
MODEL 3
REMARK VINA RESULT:     -11.8      1.131      1.712
REMARK SMILES O=C(NCCCNC(=O)c1cc(/C=C/c2cc(O)cc(O)c2)ccc1O)c1ccc(-c2c3nc(c(-c4ccccc4)c4ccc([nH]4)c(-c4ccccc4)c4nc(c(-c5ccccc5)c5ccc2[nH]5)C=C4)C=C3)cc1
REMARK SMILES IDX 5 1 4 2 3 3 1 4 2 5 27 7 28 8 74 9 29 10 73 11 30 12 31 13
REMARK SMILES IDX 32 14 67 15 33 16 72 17 66 18 68 19 34 20 71 21 65 22 64 23
REMARK SMILES IDX 35 25 57 26 42 27 56 28 43 29 46 30 55 31 69 32 44 33 45 34
REMARK SMILES IDX 54 36 70 37 47 38 36 39 37 40 41 41 38 42 40 43 39 44 58 45
REMARK SMILES IDX 59 46 63 47 60 48 62 49 61 50 48 51 49 52 53 53 50 54 52 55
REMARK SMILES IDX 51 56 6 57 7 58 8 59 9 61 10 62 11 63 25 64 12 65 24 66
REMARK SMILES IDX 23 67 26 68 13 70 14 71 15 72 16 73 22 74 17 75 20 76 19 77
REMARK SMILES IDX 18 78 21 80
REMARK H PARENT 3 6 68 24 46 35 7 60 26 69 18 79 21 81
REMARK Flexibility Score: inf
ROOT
ATOM      1  C   UNL A   1      32.944  28.527  25.960  1.00  0.00     0.042 C 
ENDROOT
BRANCH   1   2
ATOM      2  C   UNL A   1      33.900  28.637  27.137  1.00  0.00     0.118 C 
BRANCH   2   3
ATOM      3  N   UNL A   1      33.851  29.941  27.789  1.00  0.00    -0.352 N 
ATOM      4  O   UNL A   1      34.481  31.628  29.142  1.00  0.00    -0.269 OA
ATOM      5  C   UNL A   1      34.797  30.612  28.529  1.00  0.00     0.251 C 
ATOM      6  H   UNL A   1      32.999  30.421  27.682  1.00  0.00     0.163 HD
BRANCH   5   7
ATOM      7  C   UNL A   1      36.185  30.108  28.611  1.00  0.00     0.039 A 
ATOM      8  C   UNL A   1      37.071  30.283  27.550  1.00  0.00     0.014 A 
ATOM      9  C   UNL A   1      36.620  29.476  29.781  1.00  0.00     0.014 A 
ATOM     10  C   UNL A   1      38.312  29.662  27.577  1.00  0.00     0.010 A 
ATOM     11  C   UNL A   1      37.919  28.957  29.854  1.00  0.00     0.010 A 
ATOM     12  C   UNL A   1      38.763  29.011  28.738  1.00  0.00    -0.014 A 
BRANCH  12  13
ATOM     13  C   UNL A   1      40.147  28.471  28.748  1.00  0.00     0.031 A 
ATOM     14  C   UNL A   1      40.443  27.049  28.362  1.00  0.00     0.074 A 
ATOM     15  C   UNL A   1      41.157  29.319  29.029  1.00  0.00     0.049 A 
ATOM     16  N   UNL A   1      41.608  26.467  28.212  1.00  0.00    -0.248 NA
ATOM     17  C   UNL A   1      39.295  26.161  28.121  1.00  0.00     0.031 C 
ATOM     18  C   UNL A   1      40.995  30.717  29.437  1.00  0.00     0.029 A 
ATOM     19  N   UNL A   1      42.517  29.149  28.966  1.00  0.00    -0.354 N 
ATOM     20  C   UNL A   1      41.335  25.146  27.875  1.00  0.00     0.074 A 
ATOM     21  C   UNL A   1      39.894  25.005  27.868  1.00  0.00     0.031 C 
ATOM     22  C   UNL A   1      42.200  31.300  29.502  1.00  0.00     0.029 A 
ATOM     23  C   UNL A   1      43.222  30.303  29.211  1.00  0.00     0.049 A 
ATOM     24  H   UNL A   1      42.945  28.285  28.766  1.00  0.00     0.167 HD
ATOM     25  C   UNL A   1      42.204  24.147  27.592  1.00  0.00     0.031 A 
ATOM     26  C   UNL A   1      44.545  30.540  29.204  1.00  0.00     0.031 A 
ATOM     27  C   UNL A   1      43.638  24.289  27.600  1.00  0.00     0.049 A 
ATOM     28  C   UNL A   1      45.482  29.417  28.880  1.00  0.00     0.074 A 
ATOM     29  C   UNL A   1      44.602  23.334  27.324  1.00  0.00     0.029 A 
ATOM     30  N   UNL A   1      44.313  25.463  27.892  1.00  0.00    -0.354 N 
ATOM     31  N   UNL A   1      45.201  28.179  28.550  1.00  0.00    -0.248 NA
ATOM     32  C   UNL A   1      46.918  29.722  28.927  1.00  0.00     0.031 C 
ATOM     33  C   UNL A   1      45.861  23.921  27.487  1.00  0.00     0.029 A 
ATOM     34  C   UNL A   1      45.681  25.254  27.816  1.00  0.00     0.049 A 
ATOM     35  H   UNL A   1      43.885  26.320  28.120  1.00  0.00     0.167 HD
ATOM     36  C   UNL A   1      46.425  27.557  28.354  1.00  0.00     0.074 A 
ATOM     37  C   UNL A   1      47.447  28.563  28.563  1.00  0.00     0.031 C 
ATOM     38  C   UNL A   1      46.681  26.263  28.044  1.00  0.00     0.031 A 
BRANCH  25  39
ATOM     39  C   UNL A   1      41.630  22.798  27.264  1.00  0.00    -0.014 A 
ATOM     40  C   UNL A   1      40.832  22.606  26.125  1.00  0.00     0.009 A 
ATOM     41  C   UNL A   1      41.935  21.692  28.073  1.00  0.00     0.009 A 
ATOM     42  C   UNL A   1      40.333  21.337  25.817  1.00  0.00     0.001 A 
ATOM     43  C   UNL A   1      41.454  20.421  27.750  1.00  0.00     0.001 A 
ATOM     44  C   UNL A   1      40.648  20.247  26.626  1.00  0.00     0.000 A 
ENDBRANCH  25  39
BRANCH  26  45
ATOM     45  C   UNL A   1      45.054  31.895  29.533  1.00  0.00    -0.014 A 
ATOM     46  C   UNL A   1      45.301  32.269  30.862  1.00  0.00     0.009 A 
ATOM     47  C   UNL A   1      45.311  32.820  28.507  1.00  0.00     0.009 A 
ATOM     48  C   UNL A   1      45.777  33.549  31.157  1.00  0.00     0.001 A 
ATOM     49  C   UNL A   1      45.815  34.086  28.804  1.00  0.00     0.001 A 
ATOM     50  C   UNL A   1      46.040  34.453  30.129  1.00  0.00     0.000 A 
ENDBRANCH  26  45
BRANCH  38  51
ATOM     51  C   UNL A   1      48.125  25.879  27.909  1.00  0.00    -0.014 A 
ATOM     52  C   UNL A   1      48.881  25.504  29.031  1.00  0.00     0.009 A 
ATOM     53  C   UNL A   1      48.738  25.892  26.647  1.00  0.00     0.009 A 
ATOM     54  C   UNL A   1      50.234  25.188  28.897  1.00  0.00     0.001 A 
ATOM     55  C   UNL A   1      50.084  25.551  26.512  1.00  0.00     0.001 A 
ATOM     56  C   UNL A   1      50.833  25.211  27.639  1.00  0.00     0.000 A 
ENDBRANCH  38  51
ENDBRANCH  12  13
ENDBRANCH   5   7
ENDBRANCH   2   3
ENDBRANCH   1   2
BRANCH   1  57
ATOM     57  C   UNL A   1      31.952  27.381  26.085  1.00  0.00     0.118 C 
BRANCH  57  58
ATOM     58  N   UNL A   1      30.739  27.626  25.324  1.00  0.00    -0.352 N 
ATOM     59  C   UNL A   1      30.437  27.278  24.032  1.00  0.00     0.255 C 
ATOM     60  H   UNL A   1      30.031  28.113  25.804  1.00  0.00     0.163 HD
ATOM     61  O   UNL A   1      29.415  27.712  23.505  1.00  0.00    -0.269 OA
BRANCH  59  62
ATOM     62  C   UNL A   1      31.367  26.448  23.240  1.00  0.00     0.082 A 
ATOM     63  C   UNL A   1      31.302  25.059  23.430  1.00  0.00     0.025 A 
ATOM     64  C   UNL A   1      32.313  26.993  22.368  1.00  0.00     0.128 A 
ATOM     65  C   UNL A   1      32.148  24.201  22.718  1.00  0.00    -0.025 A 
ATOM     66  C   UNL A   1      33.135  26.151  21.625  1.00  0.00     0.047 A 
ATOM     67  C   UNL A   1      33.043  24.765  21.795  1.00  0.00     0.012 A 
BRANCH  64  68
ATOM     68  O   UNL A   1      32.439  28.347  22.235  1.00  0.00    -0.507 OA
ATOM     69  H   UNL A   1      32.616  28.877  22.988  1.00  0.00     0.293 HD
ENDBRANCH  64  68
BRANCH  65  70
ATOM     70  C   UNL A   1      32.146  22.735  22.882  1.00  0.00     0.009 C 
ATOM     71  C   UNL A   1      32.421  22.069  24.015  1.00  0.00     0.009 C 
BRANCH  71  72
ATOM     72  C   UNL A   1      32.452  20.601  24.087  1.00  0.00    -0.018 A 
ATOM     73  C   UNL A   1      32.695  19.935  25.297  1.00  0.00     0.054 A 
ATOM     74  C   UNL A   1      32.167  19.853  22.936  1.00  0.00     0.054 A 
ATOM     75  C   UNL A   1      32.674  18.542  25.339  1.00  0.00     0.119 A 
ATOM     76  C   UNL A   1      32.154  18.461  23.001  1.00  0.00     0.119 A 
ATOM     77  C   UNL A   1      32.408  17.799  24.196  1.00  0.00     0.092 A 
BRANCH  75  78
ATOM     78  O   UNL A   1      32.903  17.864  26.501  1.00  0.00    -0.508 OA
ATOM     79  H   UNL A   1      32.732  18.276  27.325  1.00  0.00     0.293 HD
ENDBRANCH  75  78
BRANCH  76  80
ATOM     80  O   UNL A   1      31.885  17.702  21.900  1.00  0.00    -0.508 OA
ATOM     81  H   UNL A   1      32.293  16.864  21.797  1.00  0.00     0.293 HD
ENDBRANCH  76  80
ENDBRANCH  71  72
ENDBRANCH  65  70
ENDBRANCH  59  62
ENDBRANCH  57  58
ENDBRANCH   1  57
TORSDOF 15
ENDMDL
