MODEL 1
REMARK VINA RESULT:     -11.6      0.000      0.000
REMARK SMILES CCc1cccc(C)c1Nc1ccccc1CC(=O)NCCCNC(=O)c1ccc(-c2c3nc(c(-c4ccccc4)c4ccc([nH]4)c(-c4ccccc4)c4nc(c(-c5ccccc5)c5ccc2[nH]5)C=C4)C=C3)cc1
REMARK SMILES IDX 21 1 20 2 18 3 19 4 17 6 16 7 11 8 12 9 13 10 15 11 14 12
REMARK SMILES IDX 10 13 9 15 3 16 4 17 5 18 7 19 6 20 8 21 2 22 1 23 22 24
REMARK SMILES IDX 23 25 24 26 25 27 26 29 27 30 28 31 74 32 29 33 73 34 30 35
REMARK SMILES IDX 31 36 32 37 67 38 33 39 72 40 66 41 68 42 34 43 71 44 65 45
REMARK SMILES IDX 64 46 35 48 57 49 42 50 56 51 43 52 46 53 55 54 69 55 44 56
REMARK SMILES IDX 45 57 54 59 70 60 47 61 36 62 37 63 41 64 38 65 40 66 39 67
REMARK SMILES IDX 58 68 59 69 63 70 60 71 62 72 61 73 48 74 49 75 53 76 50 77
REMARK SMILES IDX 52 78 51 79
REMARK H PARENT 20 5 10 14 24 28 68 47 46 58
REMARK Flexibility Score: inf
ROOT
ATOM      1  C   UNL A   1      31.976  28.956  26.739  1.00  0.00     0.117 C 
ENDROOT
BRANCH   1   2
ATOM      2  N   UNL A   1      31.562  27.568  26.662  1.00  0.00    -0.356 N 
ATOM      3  C   UNL A   1      32.295  26.432  26.462  1.00  0.00     0.224 C 
ATOM      4  O   UNL A   1      31.803  25.384  26.892  1.00  0.00    -0.275 OA
ATOM      5  H   UNL A   1      30.594  27.420  26.771  1.00  0.00     0.163 HD
BRANCH   3   6
ATOM      6  C   UNL A   1      33.695  26.451  25.882  1.00  0.00     0.137 C 
BRANCH   6   7
ATOM      7  C   UNL A   1      34.203  25.192  25.208  1.00  0.00    -0.015 A 
ATOM      8  C   UNL A   1      34.055  24.910  23.832  1.00  0.00     0.042 A 
ATOM      9  C   UNL A   1      34.517  23.672  23.339  1.00  0.00     0.026 A 
ATOM     10  C   UNL A   1      35.103  22.721  24.173  1.00  0.00     0.002 A 
ATOM     11  C   UNL A   1      34.752  24.190  26.041  1.00  0.00     0.006 A 
ATOM     12  C   UNL A   1      35.213  22.977  25.529  1.00  0.00     0.000 A 
BRANCH   8  13
ATOM     13  N   UNL A   1      33.472  25.779  22.887  1.00  0.00    -0.355 N 
ATOM     14  H   UNL A   1      33.944  25.794  22.024  1.00  0.00     0.167 HD
BRANCH  13  15
ATOM     15  C   UNL A   1      32.346  26.633  22.927  1.00  0.00     0.045 A 
ATOM     16  C   UNL A   1      31.042  26.097  23.092  1.00  0.00    -0.024 A 
ATOM     17  C   UNL A   1      29.972  26.987  23.362  1.00  0.00     0.006 A 
ATOM     18  C   UNL A   1      30.151  28.361  23.410  1.00  0.00     0.001 A 
ATOM     19  C   UNL A   1      32.484  28.043  22.834  1.00  0.00    -0.027 A 
ATOM     20  C   UNL A   1      31.394  28.887  23.113  1.00  0.00     0.005 A 
ATOM     21  C   UNL A   1      33.750  28.703  22.367  1.00  0.00     0.046 C 
BRANCH  16  22
ATOM     22  C   UNL A   1      30.594  24.646  23.006  1.00  0.00     0.034 C 
ATOM     23  C   UNL A   1      30.804  23.657  24.140  1.00  0.00     0.009 C 
ENDBRANCH  16  22
ENDBRANCH  13  15
ENDBRANCH   8  13
ENDBRANCH   6   7
ENDBRANCH   3   6
ENDBRANCH   1   2
BRANCH   1  24
ATOM     24  C   UNL A   1      33.154  29.232  27.671  1.00  0.00     0.042 C 
BRANCH  24  25
ATOM     25  C   UNL A   1      34.045  30.398  27.253  1.00  0.00     0.118 C 
BRANCH  25  26
ATOM     26  N   UNL A   1      34.466  31.249  28.363  1.00  0.00    -0.352 N 
ATOM     27  C   UNL A   1      35.616  31.169  29.131  1.00  0.00     0.251 C 
ATOM     28  H   UNL A   1      33.848  31.979  28.598  1.00  0.00     0.163 HD
ATOM     29  O   UNL A   1      35.873  32.029  29.956  1.00  0.00    -0.269 OA
BRANCH  27  30
ATOM     30  C   UNL A   1      36.588  30.086  28.853  1.00  0.00     0.039 A 
ATOM     31  C   UNL A   1      36.880  29.189  29.884  1.00  0.00     0.014 A 
ATOM     32  C   UNL A   1      37.320  30.062  27.667  1.00  0.00     0.014 A 
ATOM     33  C   UNL A   1      38.055  28.445  29.825  1.00  0.00     0.010 A 
ATOM     34  C   UNL A   1      38.518  29.371  27.632  1.00  0.00     0.010 A 
ATOM     35  C   UNL A   1      38.921  28.630  28.746  1.00  0.00    -0.014 A 
BRANCH  35  36
ATOM     36  C   UNL A   1      40.323  28.230  28.807  1.00  0.00     0.031 A 
ATOM     37  C   UNL A   1      40.778  26.932  28.283  1.00  0.00     0.074 A 
ATOM     38  C   UNL A   1      41.216  29.052  29.398  1.00  0.00     0.049 A 
ATOM     39  N   UNL A   1      41.765  26.258  28.775  1.00  0.00    -0.248 NA
ATOM     40  C   UNL A   1      40.105  26.263  27.180  1.00  0.00     0.031 C 
ATOM     41  C   UNL A   1      42.671  28.936  29.410  1.00  0.00     0.029 A 
ATOM     42  N   UNL A   1      40.943  30.056  30.319  1.00  0.00    -0.354 N 
ATOM     43  C   UNL A   1      42.046  25.245  27.890  1.00  0.00     0.074 A 
ATOM     44  C   UNL A   1      40.924  25.226  26.975  1.00  0.00     0.031 C 
ATOM     45  C   UNL A   1      43.152  29.647  30.443  1.00  0.00     0.029 A 
ATOM     46  C   UNL A   1      42.015  30.123  31.215  1.00  0.00     0.049 A 
ATOM     47  H   UNL A   1      40.137  30.621  30.337  1.00  0.00     0.167 HD
ATOM     48  C   UNL A   1      43.267  24.638  27.915  1.00  0.00     0.031 A 
ATOM     49  C   UNL A   1      41.829  29.896  32.548  1.00  0.00     0.031 A 
ATOM     50  C   UNL A   1      44.113  25.138  29.000  1.00  0.00     0.049 A 
ATOM     51  C   UNL A   1      42.610  28.715  33.080  1.00  0.00     0.074 A 
ATOM     52  C   UNL A   1      45.160  26.046  29.027  1.00  0.00     0.029 A 
ATOM     53  N   UNL A   1      43.748  24.920  30.324  1.00  0.00    -0.354 N 
ATOM     54  N   UNL A   1      43.108  27.770  32.333  1.00  0.00    -0.248 NA
ATOM     55  C   UNL A   1      42.838  28.482  34.504  1.00  0.00     0.031 C 
ATOM     56  C   UNL A   1      45.386  26.420  30.375  1.00  0.00     0.029 A 
ATOM     57  C   UNL A   1      44.491  25.724  31.169  1.00  0.00     0.049 A 
ATOM     58  H   UNL A   1      43.058  24.283  30.619  1.00  0.00     0.167 HD
ATOM     59  C   UNL A   1      43.696  26.823  33.130  1.00  0.00     0.074 A 
ATOM     60  C   UNL A   1      43.514  27.320  34.481  1.00  0.00     0.031 C 
ATOM     61  C   UNL A   1      44.272  25.701  32.608  1.00  0.00     0.031 A 
BRANCH  48  62
ATOM     62  C   UNL A   1      43.805  23.844  26.744  1.00  0.00    -0.014 A 
ATOM     63  C   UNL A   1      44.575  24.491  25.758  1.00  0.00     0.009 A 
ATOM     64  C   UNL A   1      43.531  22.486  26.513  1.00  0.00     0.009 A 
ATOM     65  C   UNL A   1      44.938  23.858  24.562  1.00  0.00     0.001 A 
ATOM     66  C   UNL A   1      43.853  21.858  25.302  1.00  0.00     0.001 A 
ATOM     67  C   UNL A   1      44.542  22.551  24.317  1.00  0.00     0.000 A 
ENDBRANCH  48  62
BRANCH  49  68
ATOM     68  C   UNL A   1      40.485  30.291  33.054  1.00  0.00    -0.014 A 
ATOM     69  C   UNL A   1      40.130  31.655  33.043  1.00  0.00     0.009 A 
ATOM     70  C   UNL A   1      39.471  29.338  33.230  1.00  0.00     0.009 A 
ATOM     71  C   UNL A   1      38.790  32.048  33.107  1.00  0.00     0.001 A 
ATOM     72  C   UNL A   1      38.132  29.736  33.307  1.00  0.00     0.001 A 
ATOM     73  C   UNL A   1      37.790  31.086  33.213  1.00  0.00     0.000 A 
ENDBRANCH  49  68
BRANCH  61  74
ATOM     74  C   UNL A   1      44.765  24.513  33.394  1.00  0.00    -0.014 A 
ATOM     75  C   UNL A   1      46.041  24.420  33.967  1.00  0.00     0.009 A 
ATOM     76  C   UNL A   1      43.862  23.467  33.690  1.00  0.00     0.009 A 
ATOM     77  C   UNL A   1      46.413  23.314  34.747  1.00  0.00     0.001 A 
ATOM     78  C   UNL A   1      44.214  22.386  34.502  1.00  0.00     0.001 A 
ATOM     79  C   UNL A   1      45.497  22.303  35.021  1.00  0.00     0.000 A 
ENDBRANCH  61  74
ENDBRANCH  35  36
ENDBRANCH  27  30
ENDBRANCH  25  26
ENDBRANCH  24  25
ENDBRANCH   1  24
TORSDOF 14
ENDMDL
MODEL 2
REMARK VINA RESULT:     -11.6      1.148      3.110
REMARK SMILES CCc1cccc(C)c1Nc1ccccc1CC(=O)NCCCNC(=O)c1ccc(-c2c3nc(c(-c4ccccc4)c4ccc([nH]4)c(-c4ccccc4)c4nc(c(-c5ccccc5)c5ccc2[nH]5)C=C4)C=C3)cc1
REMARK SMILES IDX 21 1 20 2 18 3 19 4 17 6 16 7 11 8 12 9 13 10 15 11 14 12
REMARK SMILES IDX 10 13 9 15 3 16 4 17 5 18 7 19 6 20 8 21 2 22 1 23 22 24
REMARK SMILES IDX 23 25 24 26 25 27 26 29 27 30 28 31 74 32 29 33 73 34 30 35
REMARK SMILES IDX 31 36 32 37 67 38 33 39 72 40 66 41 68 42 34 43 71 44 65 45
REMARK SMILES IDX 64 46 35 48 57 49 42 50 56 51 43 52 46 53 55 54 69 55 44 56
REMARK SMILES IDX 45 57 54 59 70 60 47 61 36 62 37 63 41 64 38 65 40 66 39 67
REMARK SMILES IDX 58 68 59 69 63 70 60 71 62 72 61 73 48 74 49 75 53 76 50 77
REMARK SMILES IDX 52 78 51 79
REMARK H PARENT 20 5 10 14 24 28 68 47 46 58
REMARK Flexibility Score: inf
ROOT
ATOM      1  C   UNL A   1      33.439  28.741  27.273  1.00  0.00     0.117 C 
ENDROOT
BRANCH   1   2
ATOM      2  N   UNL A   1      32.369  27.798  27.015  1.00  0.00    -0.356 N 
ATOM      3  C   UNL A   1      32.405  26.530  26.504  1.00  0.00     0.224 C 
ATOM      4  O   UNL A   1      31.463  25.792  26.811  1.00  0.00    -0.275 OA
ATOM      5  H   UNL A   1      31.467  28.124  27.244  1.00  0.00     0.163 HD
BRANCH   3   6
ATOM      6  C   UNL A   1      33.590  25.993  25.728  1.00  0.00     0.137 C 
BRANCH   6   7
ATOM      7  C   UNL A   1      33.359  25.542  24.299  1.00  0.00    -0.015 A 
ATOM      8  C   UNL A   1      33.359  24.194  23.879  1.00  0.00     0.042 A 
ATOM      9  C   UNL A   1      33.194  23.911  22.507  1.00  0.00     0.026 A 
ATOM     10  C   UNL A   1      33.043  24.921  21.559  1.00  0.00     0.002 A 
ATOM     11  C   UNL A   1      33.258  26.551  23.312  1.00  0.00     0.006 A 
ATOM     12  C   UNL A   1      33.084  26.246  21.963  1.00  0.00     0.000 A 
BRANCH   8  13
ATOM     13  N   UNL A   1      33.512  23.081  24.732  1.00  0.00    -0.355 N 
ATOM     14  H   UNL A   1      32.949  23.125  25.539  1.00  0.00     0.167 HD
BRANCH  13  15
ATOM     15  C   UNL A   1      34.308  21.916  24.664  1.00  0.00     0.045 A 
ATOM     16  C   UNL A   1      35.723  22.007  24.727  1.00  0.00    -0.024 A 
ATOM     17  C   UNL A   1      36.473  20.816  24.893  1.00  0.00     0.006 A 
ATOM     18  C   UNL A   1      35.873  19.567  24.935  1.00  0.00     0.001 A 
ATOM     19  C   UNL A   1      33.724  20.626  24.562  1.00  0.00    -0.027 A 
ATOM     20  C   UNL A   1      34.508  19.472  24.736  1.00  0.00     0.005 A 
ATOM     21  C   UNL A   1      32.283  20.417  24.193  1.00  0.00     0.046 C 
BRANCH  16  22
ATOM     22  C   UNL A   1      36.601  23.246  24.626  1.00  0.00     0.034 C 
ATOM     23  C   UNL A   1      37.010  24.060  25.842  1.00  0.00     0.009 C 
ENDBRANCH  16  22
ENDBRANCH  13  15
ENDBRANCH   8  13
ENDBRANCH   6   7
ENDBRANCH   3   6
ENDBRANCH   1   2
BRANCH   1  24
ATOM     24  C   UNL A   1      33.007  30.203  27.369  1.00  0.00     0.042 C 
BRANCH  24  25
ATOM     25  C   UNL A   1      34.153  31.210  27.430  1.00  0.00     0.118 C 
BRANCH  25  26
ATOM     26  N   UNL A   1      34.434  31.707  28.774  1.00  0.00    -0.352 N 
ATOM     27  C   UNL A   1      35.441  31.328  29.646  1.00  0.00     0.251 C 
ATOM     28  H   UNL A   1      33.824  32.405  29.107  1.00  0.00     0.163 HD
ATOM     29  O   UNL A   1      35.606  31.921  30.699  1.00  0.00    -0.269 OA
BRANCH  27  30
ATOM     30  C   UNL A   1      36.389  30.269  29.230  1.00  0.00     0.039 A 
ATOM     31  C   UNL A   1      36.698  29.267  30.153  1.00  0.00     0.014 A 
ATOM     32  C   UNL A   1      37.084  30.359  28.025  1.00  0.00     0.014 A 
ATOM     33  C   UNL A   1      37.861  28.521  29.982  1.00  0.00     0.010 A 
ATOM     34  C   UNL A   1      38.271  29.661  27.882  1.00  0.00     0.010 A 
ATOM     35  C   UNL A   1      38.697  28.806  28.901  1.00  0.00    -0.014 A 
BRANCH  35  36
ATOM     36  C   UNL A   1      40.094  28.386  28.876  1.00  0.00     0.031 A 
ATOM     37  C   UNL A   1      40.496  27.073  28.348  1.00  0.00     0.074 A 
ATOM     38  C   UNL A   1      41.036  29.205  29.393  1.00  0.00     0.049 A 
ATOM     39  N   UNL A   1      41.504  26.393  28.787  1.00  0.00    -0.248 NA
ATOM     40  C   UNL A   1      39.743  26.394  27.304  1.00  0.00     0.031 C 
ATOM     41  C   UNL A   1      42.486  29.068  29.311  1.00  0.00     0.029 A 
ATOM     42  N   UNL A   1      40.838  30.229  30.311  1.00  0.00    -0.354 N 
ATOM     43  C   UNL A   1      41.711  25.361  27.904  1.00  0.00     0.074 A 
ATOM     44  C   UNL A   1      40.532  25.342  27.065  1.00  0.00     0.031 C 
ATOM     45  C   UNL A   1      43.044  29.789  30.297  1.00  0.00     0.029 A 
ATOM     46  C   UNL A   1      41.967  30.296  31.133  1.00  0.00     0.049 A 
ATOM     47  H   UNL A   1      40.042  30.806  30.372  1.00  0.00     0.167 HD
ATOM     48  C   UNL A   1      42.924  24.737  27.860  1.00  0.00     0.031 A 
ATOM     49  C   UNL A   1      41.866  30.095  32.479  1.00  0.00     0.031 A 
ATOM     50  C   UNL A   1      43.846  25.243  28.876  1.00  0.00     0.049 A 
ATOM     51  C   UNL A   1      42.665  28.912  32.980  1.00  0.00     0.074 A 
ATOM     52  C   UNL A   1      44.905  26.135  28.818  1.00  0.00     0.029 A 
ATOM     53  N   UNL A   1      43.566  25.053  30.226  1.00  0.00    -0.354 N 
ATOM     54  N   UNL A   1      43.100  27.947  32.220  1.00  0.00    -0.248 NA
ATOM     55  C   UNL A   1      42.983  28.700  34.391  1.00  0.00     0.031 C 
ATOM     56  C   UNL A   1      45.224  26.529  30.141  1.00  0.00     0.029 A 
ATOM     57  C   UNL A   1      44.375  25.861  31.005  1.00  0.00     0.049 A 
ATOM     58  H   UNL A   1      42.889  24.431  30.577  1.00  0.00     0.167 HD
ATOM     59  C   UNL A   1      43.726  27.005  32.994  1.00  0.00     0.074 A 
ATOM     60  C   UNL A   1      43.640  27.528  34.344  1.00  0.00     0.031 C 
ATOM     61  C   UNL A   1      44.250  25.866  32.455  1.00  0.00     0.031 A 
BRANCH  48  62
ATOM     62  C   UNL A   1      43.372  23.914  26.670  1.00  0.00    -0.014 A 
ATOM     63  C   UNL A   1      43.240  22.513  26.702  1.00  0.00     0.009 A 
ATOM     64  C   UNL A   1      43.992  24.444  25.527  1.00  0.00     0.009 A 
ATOM     65  C   UNL A   1      43.805  21.688  25.720  1.00  0.00     0.001 A 
ATOM     66  C   UNL A   1      44.598  23.626  24.562  1.00  0.00     0.001 A 
ATOM     67  C   UNL A   1      44.519  22.245  24.669  1.00  0.00     0.000 A 
ENDBRANCH  48  62
BRANCH  49  68
ATOM     68  C   UNL A   1      40.564  30.519  33.066  1.00  0.00    -0.014 A 
ATOM     69  C   UNL A   1      40.234  31.889  33.065  1.00  0.00     0.009 A 
ATOM     70  C   UNL A   1      39.547  29.586  33.312  1.00  0.00     0.009 A 
ATOM     71  C   UNL A   1      38.908  32.307  33.211  1.00  0.00     0.001 A 
ATOM     72  C   UNL A   1      38.222  30.009  33.470  1.00  0.00     0.001 A 
ATOM     73  C   UNL A   1      37.899  31.364  33.387  1.00  0.00     0.000 A 
ENDBRANCH  49  68
BRANCH  61  74
ATOM     74  C   UNL A   1      44.779  24.684  33.229  1.00  0.00    -0.014 A 
ATOM     75  C   UNL A   1      44.059  23.502  33.454  1.00  0.00     0.009 A 
ATOM     76  C   UNL A   1      46.124  24.697  33.660  1.00  0.00     0.009 A 
ATOM     77  C   UNL A   1      44.636  22.413  34.124  1.00  0.00     0.001 A 
ATOM     78  C   UNL A   1      46.716  23.598  34.288  1.00  0.00     0.001 A 
ATOM     79  C   UNL A   1      45.965  22.458  34.532  1.00  0.00     0.000 A 
ENDBRANCH  61  74
ENDBRANCH  35  36
ENDBRANCH  27  30
ENDBRANCH  25  26
ENDBRANCH  24  25
ENDBRANCH   1  24
TORSDOF 14
ENDMDL
MODEL 3
REMARK VINA RESULT:     -11.5      1.210      2.865
REMARK SMILES CCc1cccc(C)c1Nc1ccccc1CC(=O)NCCCNC(=O)c1ccc(-c2c3nc(c(-c4ccccc4)c4ccc([nH]4)c(-c4ccccc4)c4nc(c(-c5ccccc5)c5ccc2[nH]5)C=C4)C=C3)cc1
REMARK SMILES IDX 21 1 20 2 18 3 19 4 17 6 16 7 11 8 12 9 13 10 15 11 14 12
REMARK SMILES IDX 10 13 9 15 3 16 4 17 5 18 7 19 6 20 8 21 2 22 1 23 22 24
REMARK SMILES IDX 23 25 24 26 25 27 26 29 27 30 28 31 74 32 29 33 73 34 30 35
REMARK SMILES IDX 31 36 32 37 67 38 33 39 72 40 66 41 68 42 34 43 71 44 65 45
REMARK SMILES IDX 64 46 35 48 57 49 42 50 56 51 43 52 46 53 55 54 69 55 44 56
REMARK SMILES IDX 45 57 54 59 70 60 47 61 36 62 37 63 41 64 38 65 40 66 39 67
REMARK SMILES IDX 58 68 59 69 63 70 60 71 62 72 61 73 48 74 49 75 53 76 50 77
REMARK SMILES IDX 52 78 51 79
REMARK H PARENT 20 5 10 14 24 28 68 47 46 58
REMARK Flexibility Score: inf
ROOT
ATOM      1  C   UNL A   1      32.049  30.359  25.922  1.00  0.00     0.117 C 
ENDROOT
BRANCH   1   2
ATOM      2  N   UNL A   1      32.925  29.316  25.422  1.00  0.00    -0.356 N 
ATOM      3  C   UNL A   1      33.014  28.749  24.182  1.00  0.00     0.224 C 
ATOM      4  O   UNL A   1      34.104  28.246  23.890  1.00  0.00    -0.275 OA
ATOM      5  H   UNL A   1      33.560  28.958  26.085  1.00  0.00     0.163 HD
BRANCH   3   6
ATOM      6  C   UNL A   1      31.906  28.849  23.153  1.00  0.00     0.137 C 
BRANCH   6   7
ATOM      7  C   UNL A   1      30.601  28.133  23.441  1.00  0.00    -0.015 A 
ATOM      8  C   UNL A   1      30.509  26.838  23.994  1.00  0.00     0.042 A 
ATOM      9  C   UNL A   1      29.233  26.257  24.155  1.00  0.00     0.026 A 
ATOM     10  C   UNL A   1      28.069  26.922  23.774  1.00  0.00     0.002 A 
ATOM     11  C   UNL A   1      29.410  28.765  23.013  1.00  0.00     0.006 A 
ATOM     12  C   UNL A   1      28.159  28.177  23.194  1.00  0.00     0.000 A 
BRANCH   8  13
ATOM     13  N   UNL A   1      31.607  26.056  24.409  1.00  0.00    -0.355 N 
ATOM     14  H   UNL A   1      32.136  26.472  25.128  1.00  0.00     0.167 HD
BRANCH  13  15
ATOM     15  C   UNL A   1      32.102  24.795  24.004  1.00  0.00     0.045 A 
ATOM     16  C   UNL A   1      32.872  24.673  22.818  1.00  0.00    -0.024 A 
ATOM     17  C   UNL A   1      33.545  23.451  22.569  1.00  0.00     0.006 A 
ATOM     18  C   UNL A   1      33.426  22.358  23.415  1.00  0.00     0.001 A 
ATOM     19  C   UNL A   1      31.875  23.627  24.779  1.00  0.00    -0.027 A 
ATOM     20  C   UNL A   1      32.567  22.437  24.495  1.00  0.00     0.005 A 
ATOM     21  C   UNL A   1      30.846  23.570  25.872  1.00  0.00     0.046 C 
BRANCH  16  22
ATOM     22  C   UNL A   1      33.084  25.697  21.713  1.00  0.00     0.034 C 
ATOM     23  C   UNL A   1      32.436  25.568  20.344  1.00  0.00     0.009 C 
ENDBRANCH  16  22
ENDBRANCH  13  15
ENDBRANCH   8  13
ENDBRANCH   6   7
ENDBRANCH   3   6
ENDBRANCH   1   2
BRANCH   1  24
ATOM     24  C   UNL A   1      32.527  31.052  27.196  1.00  0.00     0.042 C 
BRANCH  24  25
ATOM     25  C   UNL A   1      33.944  30.689  27.634  1.00  0.00     0.118 C 
BRANCH  25  26
ATOM     26  N   UNL A   1      34.449  31.498  28.739  1.00  0.00    -0.352 N 
ATOM     27  C   UNL A   1      35.642  31.374  29.431  1.00  0.00     0.251 C 
ATOM     28  H   UNL A   1      33.861  32.231  29.034  1.00  0.00     0.163 HD
ATOM     29  O   UNL A   1      35.967  32.204  30.264  1.00  0.00    -0.269 OA
BRANCH  27  30
ATOM     30  C   UNL A   1      36.574  30.283  29.062  1.00  0.00     0.039 A 
ATOM     31  C   UNL A   1      36.858  29.311  30.024  1.00  0.00     0.014 A 
ATOM     32  C   UNL A   1      37.281  30.316  27.861  1.00  0.00     0.014 A 
ATOM     33  C   UNL A   1      38.008  28.538  29.891  1.00  0.00     0.010 A 
ATOM     34  C   UNL A   1      38.456  29.593  27.754  1.00  0.00     0.010 A 
ATOM     35  C   UNL A   1      38.858  28.768  28.808  1.00  0.00    -0.014 A 
BRANCH  35  36
ATOM     36  C   UNL A   1      40.247  28.323  28.811  1.00  0.00     0.031 A 
ATOM     37  C   UNL A   1      40.638  27.010  28.274  1.00  0.00     0.074 A 
ATOM     38  C   UNL A   1      41.191  29.117  29.362  1.00  0.00     0.049 A 
ATOM     39  N   UNL A   1      41.622  26.305  28.726  1.00  0.00    -0.248 NA
ATOM     40  C   UNL A   1      39.898  26.360  27.202  1.00  0.00     0.031 C 
ATOM     41  C   UNL A   1      42.640  28.954  29.313  1.00  0.00     0.029 A 
ATOM     42  N   UNL A   1      40.989  30.131  30.290  1.00  0.00    -0.354 N 
ATOM     43  C   UNL A   1      41.833  25.282  27.834  1.00  0.00     0.074 A 
ATOM     44  C   UNL A   1      40.674  25.297  26.966  1.00  0.00     0.031 C 
ATOM     45  C   UNL A   1      43.187  29.651  30.322  1.00  0.00     0.029 A 
ATOM     46  C   UNL A   1      42.099  30.166  31.140  1.00  0.00     0.049 A 
ATOM     47  H   UNL A   1      40.203  30.722  30.340  1.00  0.00     0.167 HD
ATOM     48  C   UNL A   1      43.034  24.636  27.810  1.00  0.00     0.031 A 
ATOM     49  C   UNL A   1      41.961  29.947  32.480  1.00  0.00     0.031 A 
ATOM     50  C   UNL A   1      43.940  25.111  28.856  1.00  0.00     0.049 A 
ATOM     51  C   UNL A   1      42.726  28.743  32.983  1.00  0.00     0.074 A 
ATOM     52  C   UNL A   1      45.016  25.984  28.836  1.00  0.00     0.029 A 
ATOM     53  N   UNL A   1      43.624  24.907  30.195  1.00  0.00    -0.354 N 
ATOM     54  N   UNL A   1      43.162  27.781  32.220  1.00  0.00    -0.248 NA
ATOM     55  C   UNL A   1      43.006  28.505  34.398  1.00  0.00     0.031 C 
ATOM     56  C   UNL A   1      45.310  26.353  30.172  1.00  0.00     0.029 A 
ATOM     57  C   UNL A   1      44.428  25.688  31.005  1.00  0.00     0.049 A 
ATOM     58  H   UNL A   1      42.927  24.293  30.521  1.00  0.00     0.167 HD
ATOM     59  C   UNL A   1      43.751  26.817  32.994  1.00  0.00     0.074 A 
ATOM     60  C   UNL A   1      43.642  27.322  34.350  1.00  0.00     0.031 C 
ATOM     61  C   UNL A   1      44.268  25.675  32.452  1.00  0.00     0.031 A 
BRANCH  48  62
ATOM     62  C   UNL A   1      43.496  23.823  26.620  1.00  0.00    -0.014 A 
ATOM     63  C   UNL A   1      43.224  22.442  26.571  1.00  0.00     0.009 A 
ATOM     64  C   UNL A   1      44.259  24.333  25.557  1.00  0.00     0.009 A 
ATOM     65  C   UNL A   1      43.785  21.605  25.597  1.00  0.00     0.001 A 
ATOM     66  C   UNL A   1      44.859  23.498  24.603  1.00  0.00     0.001 A 
ATOM     67  C   UNL A   1      44.635  22.129  24.634  1.00  0.00     0.000 A 
ENDBRANCH  48  62
BRANCH  49  68
ATOM     68  C   UNL A   1      40.654  30.387  33.041  1.00  0.00    -0.014 A 
ATOM     69  C   UNL A   1      40.354  31.764  33.066  1.00  0.00     0.009 A 
ATOM     70  C   UNL A   1      39.609  29.472  33.236  1.00  0.00     0.009 A 
ATOM     71  C   UNL A   1      39.035  32.209  33.185  1.00  0.00     0.001 A 
ATOM     72  C   UNL A   1      38.290  29.923  33.368  1.00  0.00     0.001 A 
ATOM     73  C   UNL A   1      38.000  31.286  33.310  1.00  0.00     0.000 A 
ENDBRANCH  49  68
BRANCH  61  74
ATOM     74  C   UNL A   1      44.756  24.474  33.222  1.00  0.00    -0.014 A 
ATOM     75  C   UNL A   1      46.063  24.323  33.705  1.00  0.00     0.009 A 
ATOM     76  C   UNL A   1      43.824  23.480  33.597  1.00  0.00     0.009 A 
ATOM     77  C   UNL A   1      46.432  23.210  34.475  1.00  0.00     0.001 A 
ATOM     78  C   UNL A   1      44.177  22.392  34.400  1.00  0.00     0.001 A 
ATOM     79  C   UNL A   1      45.489  22.250  34.829  1.00  0.00     0.000 A 
ENDBRANCH  61  74
ENDBRANCH  35  36
ENDBRANCH  27  30
ENDBRANCH  25  26
ENDBRANCH  24  25
ENDBRANCH   1  24
TORSDOF 14
ENDMDL
