MODEL 1
REMARK VINA RESULT:     -11.5      0.000      0.000
REMARK SMILES CCCC[C@H](C(=O)NCCCNC(=O)c1ccc(-c2c3nc(c(-c4ccccc4)c4ccc([nH]4)c(-c4ccccc4)c4nc(c(-c5ccccc5)c5ccc2[nH]5)C=C4)C=C3)cc1)[C@](C)(O)c1ccc(Cl)c(Cl)c1
REMARK SMILES IDX 9 1 8 2 6 3 7 4 5 6 4 7 3 8 2 9 1 10 63 11 64 12 65 13 66 15
REMARK SMILES IDX 67 16 73 17 68 18 71 19 69 20 72 21 70 22 10 23 11 24 12 25
REMARK SMILES IDX 13 26 14 28 15 29 16 30 62 31 17 32 61 33 18 34 19 35 20 36
REMARK SMILES IDX 55 37 21 38 60 39 54 40 56 41 22 42 59 43 53 44 52 45 23 47
REMARK SMILES IDX 45 48 30 49 44 50 31 51 34 52 43 53 57 54 32 55 33 56 42 58
REMARK SMILES IDX 58 59 35 60 24 61 25 62 29 63 26 64 28 65 27 66 46 67 47 68
REMARK SMILES IDX 51 69 48 70 50 71 49 72 36 73 37 74 41 75 38 76 40 77 39 78
REMARK H PARENT 8 5 65 14 12 27 56 46 34 57
REMARK Flexibility Score: inf
ROOT
ATOM      1  C   UNL A   1      31.777  29.438  25.301  1.00  0.00     0.117 C 
ENDROOT
BRANCH   1   2
ATOM      2  N   UNL A   1      31.388  29.435  23.900  1.00  0.00    -0.356 N 
ATOM      3  C   UNL A   1      31.046  28.359  23.118  1.00  0.00     0.226 C 
ATOM      4  O   UNL A   1      30.553  28.552  22.007  1.00  0.00    -0.275 OA
ATOM      5  H   UNL A   1      31.367  30.314  23.456  1.00  0.00     0.163 HD
BRANCH   3   6
ATOM      6  C   UNL A   1      31.398  26.970  23.617  1.00  0.00     0.114 C 
BRANCH   6   7
ATOM      7  C   UNL A   1      30.167  26.067  24.007  1.00  0.00     0.017 C 
BRANCH   7   8
ATOM      8  C   UNL A   1      29.945  25.519  25.710  1.00  0.00     0.001 C 
BRANCH   8   9
ATOM      9  C   UNL A   1      30.561  23.702  26.752  1.00  0.00    -0.003 C 
ATOM     10  C   UNL A   1      32.075  22.950  27.033  1.00  0.00     0.004 C 
ENDBRANCH   8   9
ENDBRANCH   7   8
ENDBRANCH   6   7
BRANCH   6  11
ATOM     11  C   UNL A   1      32.238  26.130  22.666  1.00  0.00     0.098 C 
ATOM     12  C   UNL A   1      33.482  26.726  22.043  1.00  0.00     0.048 C 
BRANCH  11  13
ATOM     13  O   UNL A   1      31.413  25.621  21.614  1.00  0.00    -0.385 OA
ATOM     14  H   UNL A   1      30.531  25.419  21.964  1.00  0.00     0.211 HD
ENDBRANCH  11  13
BRANCH  11  15
ATOM     15  C   UNL A   1      32.563  24.995  23.636  1.00  0.00    -0.014 A 
ATOM     16  C   UNL A   1      32.049  23.300  23.122  1.00  0.00     0.008 A 
ATOM     17  C   UNL A   1      34.101  25.213  24.569  1.00  0.00     0.028 A 
ATOM     18  C   UNL A   1      33.082  21.885  23.545  1.00  0.00     0.022 A 
ATOM     19  C   UNL A   1      35.088  23.780  24.981  1.00  0.00     0.060 A 
ATOM     20  C   UNL A   1      34.601  22.141  24.458  1.00  0.00     0.059 A 
ATOM     21  Cl  UNL A   1      36.548  24.017  25.865  1.00  0.00    -0.083 Cl
ATOM     22  Cl  UNL A   1      35.569  20.770  24.839  1.00  0.00    -0.083 Cl
ENDBRANCH  11  15
ENDBRANCH   6  11
ENDBRANCH   3   6
ENDBRANCH   1   2
BRANCH   1  23
ATOM     23  C   UNL A   1      33.139  28.837  25.599  1.00  0.00     0.042 C 
BRANCH  23  24
ATOM     24  C   UNL A   1      33.540  28.857  27.062  1.00  0.00     0.118 C 
BRANCH  24  25
ATOM     25  N   UNL A   1      33.596  30.202  27.620  1.00  0.00    -0.352 N 
ATOM     26  C   UNL A   1      34.574  30.840  28.346  1.00  0.00     0.251 C 
ATOM     27  H   UNL A   1      32.796  30.748  27.447  1.00  0.00     0.163 HD
ATOM     28  O   UNL A   1      34.325  31.918  28.877  1.00  0.00    -0.269 OA
BRANCH  26  29
ATOM     29  C   UNL A   1      35.910  30.229  28.515  1.00  0.00     0.039 A 
ATOM     30  C   UNL A   1      36.818  30.266  27.452  1.00  0.00     0.014 A 
ATOM     31  C   UNL A   1      36.268  29.604  29.708  1.00  0.00     0.014 A 
ATOM     32  C   UNL A   1      38.106  29.753  27.620  1.00  0.00     0.010 A 
ATOM     33  C   UNL A   1      37.583  29.207  29.916  1.00  0.00     0.010 A 
ATOM     34  C   UNL A   1      38.514  29.261  28.871  1.00  0.00    -0.014 A 
BRANCH  34  35
ATOM     35  C   UNL A   1      39.896  28.774  29.110  1.00  0.00     0.031 A 
ATOM     36  C   UNL A   1      40.923  29.697  29.716  1.00  0.00     0.074 A 
ATOM     37  C   UNL A   1      40.250  27.537  28.712  1.00  0.00     0.049 A 
ATOM     38  N   UNL A   1      42.199  29.493  29.919  1.00  0.00    -0.248 NA
ATOM     39  C   UNL A   1      40.460  31.038  30.113  1.00  0.00     0.031 C 
ATOM     40  C   UNL A   1      39.364  26.561  28.073  1.00  0.00     0.029 A 
ATOM     41  N   UNL A   1      41.458  26.888  28.783  1.00  0.00    -0.354 N 
ATOM     42  C   UNL A   1      42.692  30.684  30.441  1.00  0.00     0.074 A 
ATOM     43  C   UNL A   1      41.594  31.624  30.462  1.00  0.00     0.031 C 
ATOM     44  C   UNL A   1      40.046  25.428  27.845  1.00  0.00     0.029 A 
ATOM     45  C   UNL A   1      41.428  25.611  28.274  1.00  0.00     0.049 A 
ATOM     46  H   UNL A   1      42.268  27.298  29.162  1.00  0.00     0.167 HD
ATOM     47  C   UNL A   1      43.938  30.964  30.889  1.00  0.00     0.031 A 
ATOM     48  C   UNL A   1      42.407  24.693  28.162  1.00  0.00     0.031 A 
ATOM     49  C   UNL A   1      45.023  30.021  30.884  1.00  0.00     0.049 A 
ATOM     50  C   UNL A   1      43.787  25.034  28.652  1.00  0.00     0.074 A 
ATOM     51  C   UNL A   1      46.310  30.185  31.367  1.00  0.00     0.029 A 
ATOM     52  N   UNL A   1      44.949  28.737  30.369  1.00  0.00    -0.354 N 
ATOM     53  N   UNL A   1      44.219  26.141  29.205  1.00  0.00    -0.248 NA
ATOM     54  C   UNL A   1      44.812  23.991  28.511  1.00  0.00     0.031 C 
ATOM     55  C   UNL A   1      47.029  29.018  31.094  1.00  0.00     0.029 A 
ATOM     56  C   UNL A   1      46.173  28.105  30.499  1.00  0.00     0.049 A 
ATOM     57  H   UNL A   1      44.143  28.334  29.969  1.00  0.00     0.167 HD
ATOM     58  C   UNL A   1      45.556  25.917  29.508  1.00  0.00     0.074 A 
ATOM     59  C   UNL A   1      45.858  24.563  29.092  1.00  0.00     0.031 C 
ATOM     60  C   UNL A   1      46.454  26.756  30.081  1.00  0.00     0.031 A 
BRANCH  47  61
ATOM     61  C   UNL A   1      44.189  32.350  31.419  1.00  0.00    -0.014 A 
ATOM     62  C   UNL A   1      43.973  32.664  32.772  1.00  0.00     0.009 A 
ATOM     63  C   UNL A   1      44.673  33.350  30.562  1.00  0.00     0.009 A 
ATOM     64  C   UNL A   1      44.195  33.959  33.243  1.00  0.00     0.001 A 
ATOM     65  C   UNL A   1      44.928  34.635  31.043  1.00  0.00     0.001 A 
ATOM     66  C   UNL A   1      44.677  34.942  32.380  1.00  0.00     0.000 A 
ENDBRANCH  47  61
BRANCH  48  67
ATOM     67  C   UNL A   1      42.116  23.357  27.577  1.00  0.00    -0.014 A 
ATOM     68  C   UNL A   1      42.411  23.091  26.230  1.00  0.00     0.009 A 
ATOM     69  C   UNL A   1      41.532  22.344  28.354  1.00  0.00     0.009 A 
ATOM     70  C   UNL A   1      42.098  21.852  25.667  1.00  0.00     0.001 A 
ATOM     71  C   UNL A   1      41.251  21.095  27.796  1.00  0.00     0.001 A 
ATOM     72  C   UNL A   1      41.522  20.854  26.451  1.00  0.00     0.000 A 
ENDBRANCH  48  67
BRANCH  60  73
ATOM     73  C   UNL A   1      47.835  26.218  30.330  1.00  0.00    -0.014 A 
ATOM     74  C   UNL A   1      48.807  26.201  29.319  1.00  0.00     0.009 A 
ATOM     75  C   UNL A   1      48.178  25.763  31.613  1.00  0.00     0.009 A 
ATOM     76  C   UNL A   1      50.086  25.703  29.578  1.00  0.00     0.001 A 
ATOM     77  C   UNL A   1      49.466  25.299  31.879  1.00  0.00     0.001 A 
ATOM     78  C   UNL A   1      50.415  25.259  30.859  1.00  0.00     0.000 A 
ENDBRANCH  60  73
ENDBRANCH  34  35
ENDBRANCH  26  29
ENDBRANCH  24  25
ENDBRANCH  23  24
ENDBRANCH   1  23
TORSDOF 16
ENDMDL
MODEL 2
REMARK VINA RESULT:     -11.4      2.800      7.505
REMARK SMILES CCCC[C@H](C(=O)NCCCNC(=O)c1ccc(-c2c3nc(c(-c4ccccc4)c4ccc([nH]4)c(-c4ccccc4)c4nc(c(-c5ccccc5)c5ccc2[nH]5)C=C4)C=C3)cc1)[C@](C)(O)c1ccc(Cl)c(Cl)c1
REMARK SMILES IDX 9 1 8 2 6 3 7 4 5 6 4 7 3 8 2 9 1 10 63 11 64 12 65 13 66 15
REMARK SMILES IDX 67 16 73 17 68 18 71 19 69 20 72 21 70 22 10 23 11 24 12 25
REMARK SMILES IDX 13 26 14 28 15 29 16 30 62 31 17 32 61 33 18 34 19 35 20 36
REMARK SMILES IDX 55 37 21 38 60 39 54 40 56 41 22 42 59 43 53 44 52 45 23 47
REMARK SMILES IDX 45 48 30 49 44 50 31 51 34 52 43 53 57 54 32 55 33 56 42 58
REMARK SMILES IDX 58 59 35 60 24 61 25 62 29 63 26 64 28 65 27 66 46 67 47 68
REMARK SMILES IDX 51 69 48 70 50 71 49 72 36 73 37 74 41 75 38 76 40 77 39 78
REMARK H PARENT 8 5 65 14 12 27 56 46 34 57
REMARK Flexibility Score: inf
ROOT
ATOM      1  C   UNL A   1      36.112  20.987  25.033  1.00  0.00     0.117 C 
ENDROOT
BRANCH   1   2
ATOM      2  N   UNL A   1      34.986  20.173  25.463  1.00  0.00    -0.356 N 
ATOM      3  C   UNL A   1      33.646  20.425  25.295  1.00  0.00     0.226 C 
ATOM      4  O   UNL A   1      32.830  19.539  25.545  1.00  0.00    -0.275 OA
ATOM      5  H   UNL A   1      35.212  19.338  25.934  1.00  0.00     0.163 HD
BRANCH   3   6
ATOM      6  C   UNL A   1      33.224  21.831  24.914  1.00  0.00     0.114 C 
BRANCH   6   7
ATOM      7  C   UNL A   1      32.445  21.949  23.549  1.00  0.00     0.017 C 
BRANCH   7   8
ATOM      8  C   UNL A   1      33.134  22.912  22.189  1.00  0.00     0.001 C 
BRANCH   8   9
ATOM      9  C   UNL A   1      32.810  24.973  21.549  1.00  0.00    -0.003 C 
ATOM     10  C   UNL A   1      33.275  26.500  22.177  1.00  0.00     0.004 C 
ENDBRANCH   8   9
ENDBRANCH   7   8
ENDBRANCH   6   7
BRANCH   6  11
ATOM     11  C   UNL A   1      32.363  22.553  25.941  1.00  0.00     0.098 C 
ATOM     12  C   UNL A   1      32.843  22.666  27.371  1.00  0.00     0.048 C 
BRANCH  11  13
ATOM     13  O   UNL A   1      31.050  21.984  25.956  1.00  0.00    -0.385 OA
ATOM     14  H   UNL A   1      30.393  22.690  26.057  1.00  0.00     0.211 HD
ENDBRANCH  11  13
BRANCH  11  15
ATOM     15  C   UNL A   1      32.309  23.909  25.237  1.00  0.00    -0.014 A 
ATOM     16  C   UNL A   1      30.634  24.538  24.789  1.00  0.00     0.008 A 
ATOM     17  C   UNL A   1      33.590  25.081  25.755  1.00  0.00     0.028 A 
ATOM     18  C   UNL A   1      30.289  26.304  24.877  1.00  0.00     0.022 A 
ATOM     19  C   UNL A   1      33.209  26.827  25.813  1.00  0.00     0.060 A 
ATOM     20  C   UNL A   1      31.577  27.431  25.403  1.00  0.00     0.059 A 
ATOM     21  Cl  UNL A   1      34.445  27.919  26.312  1.00  0.00    -0.083 Cl
ATOM     22  Cl  UNL A   1      31.212  29.111  25.485  1.00  0.00    -0.083 Cl
ENDBRANCH  11  15
ENDBRANCH   6  11
ENDBRANCH   3   6
ENDBRANCH   1   2
BRANCH   1  23
ATOM     23  C   UNL A   1      37.402  20.229  24.776  1.00  0.00     0.042 C 
BRANCH  23  24
ATOM     24  C   UNL A   1      38.581  20.666  25.625  1.00  0.00     0.118 C 
BRANCH  24  25
ATOM     25  N   UNL A   1      39.633  19.660  25.700  1.00  0.00    -0.352 N 
ATOM     26  C   UNL A   1      40.961  19.765  26.039  1.00  0.00     0.251 C 
ATOM     27  H   UNL A   1      39.342  18.749  25.470  1.00  0.00     0.163 HD
ATOM     28  O   UNL A   1      41.710  18.811  25.850  1.00  0.00    -0.269 OA
BRANCH  26  29
ATOM     29  C   UNL A   1      41.501  21.022  26.602  1.00  0.00     0.039 A 
ATOM     30  C   UNL A   1      42.040  21.981  25.740  1.00  0.00     0.014 A 
ATOM     31  C   UNL A   1      41.495  21.253  27.977  1.00  0.00     0.014 A 
ATOM     32  C   UNL A   1      42.493  23.199  26.252  1.00  0.00     0.010 A 
ATOM     33  C   UNL A   1      41.827  22.508  28.471  1.00  0.00     0.010 A 
ATOM     34  C   UNL A   1      42.346  23.491  27.618  1.00  0.00    -0.014 A 
BRANCH  34  35
ATOM     35  C   UNL A   1      42.747  24.802  28.188  1.00  0.00     0.031 A 
ATOM     36  C   UNL A   1      41.709  25.871  28.416  1.00  0.00     0.074 A 
ATOM     37  C   UNL A   1      44.047  25.062  28.425  1.00  0.00     0.049 A 
ATOM     38  N   UNL A   1      41.869  27.106  28.816  1.00  0.00    -0.248 NA
ATOM     39  C   UNL A   1      40.311  25.514  28.121  1.00  0.00     0.031 C 
ATOM     40  C   UNL A   1      45.156  24.129  28.206  1.00  0.00     0.029 A 
ATOM     41  N   UNL A   1      44.660  26.195  28.901  1.00  0.00    -0.354 N 
ATOM     42  C   UNL A   1      40.601  27.676  28.795  1.00  0.00     0.074 A 
ATOM     43  C   UNL A   1      39.694  26.674  28.282  1.00  0.00     0.031 C 
ATOM     44  C   UNL A   1      46.304  24.713  28.581  1.00  0.00     0.029 A 
ATOM     45  C   UNL A   1      46.024  26.076  29.019  1.00  0.00     0.049 A 
ATOM     46  H   UNL A   1      44.168  27.014  29.135  1.00  0.00     0.167 HD
ATOM     47  C   UNL A   1      40.217  28.912  29.193  1.00  0.00     0.031 A 
ATOM     48  C   UNL A   1      46.945  26.968  29.430  1.00  0.00     0.031 A 
ATOM     49  C   UNL A   1      41.118  29.900  29.721  1.00  0.00     0.049 A 
ATOM     50  C   UNL A   1      46.497  28.339  29.851  1.00  0.00     0.074 A 
ATOM     51  C   UNL A   1      40.824  31.162  30.206  1.00  0.00     0.029 A 
ATOM     52  N   UNL A   1      42.490  29.736  29.832  1.00  0.00    -0.354 N 
ATOM     53  N   UNL A   1      45.285  28.838  29.889  1.00  0.00    -0.248 NA
ATOM     54  C   UNL A   1      47.545  29.267  30.297  1.00  0.00     0.031 C 
ATOM     55  C   UNL A   1      42.026  31.783  30.559  1.00  0.00     0.029 A 
ATOM     56  C   UNL A   1      43.060  30.884  30.355  1.00  0.00     0.049 A 
ATOM     57  H   UNL A   1      42.984  28.924  29.577  1.00  0.00     0.167 HD
ATOM     58  C   UNL A   1      45.421  30.126  30.393  1.00  0.00     0.074 A 
ATOM     59  C   UNL A   1      46.831  30.323  30.662  1.00  0.00     0.031 C 
ATOM     60  C   UNL A   1      44.465  31.061  30.616  1.00  0.00     0.031 A 
BRANCH  47  61
ATOM     61  C   UNL A   1      38.759  29.259  29.068  1.00  0.00    -0.014 A 
ATOM     62  C   UNL A   1      37.871  29.083  30.144  1.00  0.00     0.009 A 
ATOM     63  C   UNL A   1      38.268  29.794  27.867  1.00  0.00     0.009 A 
ATOM     64  C   UNL A   1      36.518  29.395  30.004  1.00  0.00     0.001 A 
ATOM     65  C   UNL A   1      36.921  30.138  27.742  1.00  0.00     0.001 A 
ATOM     66  C   UNL A   1      36.044  29.927  28.805  1.00  0.00     0.000 A 
ENDBRANCH  47  61
BRANCH  48  67
ATOM     67  C   UNL A   1      48.383  26.589  29.480  1.00  0.00    -0.014 A 
ATOM     68  C   UNL A   1      49.221  26.831  28.380  1.00  0.00     0.009 A 
ATOM     69  C   UNL A   1      48.924  25.974  30.620  1.00  0.00     0.009 A 
ATOM     70  C   UNL A   1      50.561  26.435  28.408  1.00  0.00     0.001 A 
ATOM     71  C   UNL A   1      50.272  25.610  30.657  1.00  0.00     0.001 A 
ATOM     72  C   UNL A   1      51.086  25.829  29.548  1.00  0.00     0.000 A 
ENDBRANCH  48  67
BRANCH  60  73
ATOM     73  C   UNL A   1      44.907  32.365  31.218  1.00  0.00    -0.014 A 
ATOM     74  C   UNL A   1      44.982  32.543  32.607  1.00  0.00     0.009 A 
ATOM     75  C   UNL A   1      45.296  33.418  30.374  1.00  0.00     0.009 A 
ATOM     76  C   UNL A   1      45.404  33.763  33.140  1.00  0.00     0.001 A 
ATOM     77  C   UNL A   1      45.750  34.624  30.909  1.00  0.00     0.001 A 
ATOM     78  C   UNL A   1      45.793  34.798  32.291  1.00  0.00     0.000 A 
ENDBRANCH  60  73
ENDBRANCH  34  35
ENDBRANCH  26  29
ENDBRANCH  24  25
ENDBRANCH  23  24
ENDBRANCH   1  23
TORSDOF 16
ENDMDL
MODEL 3
REMARK VINA RESULT:     -11.3      2.293      6.829
REMARK SMILES CCCC[C@H](C(=O)NCCCNC(=O)c1ccc(-c2c3nc(c(-c4ccccc4)c4ccc([nH]4)c(-c4ccccc4)c4nc(c(-c5ccccc5)c5ccc2[nH]5)C=C4)C=C3)cc1)[C@](C)(O)c1ccc(Cl)c(Cl)c1
REMARK SMILES IDX 9 1 8 2 6 3 7 4 5 6 4 7 3 8 2 9 1 10 63 11 64 12 65 13 66 15
REMARK SMILES IDX 67 16 73 17 68 18 71 19 69 20 72 21 70 22 10 23 11 24 12 25
REMARK SMILES IDX 13 26 14 28 15 29 16 30 62 31 17 32 61 33 18 34 19 35 20 36
REMARK SMILES IDX 55 37 21 38 60 39 54 40 56 41 22 42 59 43 53 44 52 45 23 47
REMARK SMILES IDX 45 48 30 49 44 50 31 51 34 52 43 53 57 54 32 55 33 56 42 58
REMARK SMILES IDX 58 59 35 60 24 61 25 62 29 63 26 64 28 65 27 66 46 67 47 68
REMARK SMILES IDX 51 69 48 70 50 71 49 72 36 73 37 74 41 75 38 76 40 77 39 78
REMARK H PARENT 8 5 65 14 12 27 56 46 34 57
REMARK Flexibility Score: inf
ROOT
ATOM      1  C   UNL A   1      31.786  29.675  25.395  1.00  0.00     0.117 C 
ENDROOT
BRANCH   1   2
ATOM      2  N   UNL A   1      31.368  29.706  24.002  1.00  0.00    -0.356 N 
ATOM      3  C   UNL A   1      31.010  28.649  23.201  1.00  0.00     0.226 C 
ATOM      4  O   UNL A   1      30.495  28.868  22.106  1.00  0.00    -0.275 OA
ATOM      5  H   UNL A   1      31.339  30.596  23.580  1.00  0.00     0.163 HD
BRANCH   3   6
ATOM      6  C   UNL A   1      31.373  27.249  23.659  1.00  0.00     0.114 C 
BRANCH   6   7
ATOM      7  C   UNL A   1      30.147  26.312  23.980  1.00  0.00     0.017 C 
BRANCH   7   8
ATOM      8  C   UNL A   1      29.885  25.700  25.656  1.00  0.00     0.001 C 
BRANCH   8   9
ATOM      9  C   UNL A   1      30.411  23.814  26.621  1.00  0.00    -0.003 C 
ATOM     10  C   UNL A   1      31.896  23.031  26.968  1.00  0.00     0.004 C 
ENDBRANCH   8   9
ENDBRANCH   7   8
ENDBRANCH   6   7
BRANCH   6  11
ATOM     11  C   UNL A   1      32.254  26.458  22.703  1.00  0.00     0.098 C 
ATOM     12  C   UNL A   1      33.534  27.075  22.183  1.00  0.00     0.048 C 
BRANCH  11  13
ATOM     13  O   UNL A   1      31.481  26.026  21.579  1.00  0.00    -0.385 OA
ATOM     14  H   UNL A   1      31.202  25.107  21.713  1.00  0.00     0.211 HD
ENDBRANCH  11  13
BRANCH  11  15
ATOM     15  C   UNL A   1      32.515  25.261  23.616  1.00  0.00    -0.014 A 
ATOM     16  C   UNL A   1      31.991  23.611  22.980  1.00  0.00     0.008 A 
ATOM     17  C   UNL A   1      34.016  25.391  24.622  1.00  0.00     0.028 A 
ATOM     18  C   UNL A   1      32.979  22.151  23.360  1.00  0.00     0.022 A 
ATOM     19  C   UNL A   1      34.958  23.915  24.988  1.00  0.00     0.060 A 
ATOM     20  C   UNL A   1      34.462  22.320  24.348  1.00  0.00     0.059 A 
ATOM     21  Cl  UNL A   1      36.383  24.067  25.943  1.00  0.00    -0.083 Cl
ATOM     22  Cl  UNL A   1      35.387  20.908  24.685  1.00  0.00    -0.083 Cl
ENDBRANCH  11  15
ENDBRANCH   6  11
ENDBRANCH   3   6
ENDBRANCH   1   2
BRANCH   1  23
ATOM     23  C   UNL A   1      31.441  30.911  26.205  1.00  0.00     0.042 C 
BRANCH  23  24
ATOM     24  C   UNL A   1      32.613  31.555  26.920  1.00  0.00     0.118 C 
BRANCH  24  25
ATOM     25  N   UNL A   1      32.358  32.938  27.304  1.00  0.00    -0.352 N 
ATOM     26  C   UNL A   1      33.041  33.783  28.145  1.00  0.00     0.251 C 
ATOM     27  H   UNL A   1      31.560  33.335  26.887  1.00  0.00     0.163 HD
ATOM     28  O   UNL A   1      32.534  34.854  28.467  1.00  0.00    -0.269 OA
BRANCH  26  29
ATOM     29  C   UNL A   1      34.365  33.406  28.686  1.00  0.00     0.039 A 
ATOM     30  C   UNL A   1      34.434  32.690  29.884  1.00  0.00     0.014 A 
ATOM     31  C   UNL A   1      35.540  33.768  28.028  1.00  0.00     0.014 A 
ATOM     32  C   UNL A   1      35.674  32.269  30.372  1.00  0.00     0.010 A 
ATOM     33  C   UNL A   1      36.757  33.246  28.443  1.00  0.00     0.010 A 
ATOM     34  C   UNL A   1      36.843  32.504  29.629  1.00  0.00    -0.014 A 
BRANCH  34  35
ATOM     35  C   UNL A   1      38.170  32.009  30.077  1.00  0.00     0.031 A 
ATOM     36  C   UNL A   1      38.702  30.704  29.545  1.00  0.00     0.074 A 
ATOM     37  C   UNL A   1      38.858  32.689  31.014  1.00  0.00     0.049 A 
ATOM     38  N   UNL A   1      39.790  30.058  29.879  1.00  0.00    -0.248 NA
ATOM     39  C   UNL A   1      37.886  30.015  28.531  1.00  0.00     0.031 C 
ATOM     40  C   UNL A   1      38.432  33.943  31.642  1.00  0.00     0.029 A 
ATOM     41  N   UNL A   1      40.064  32.415  31.610  1.00  0.00    -0.354 N 
ATOM     42  C   UNL A   1      39.773  28.883  29.137  1.00  0.00     0.074 A 
ATOM     43  C   UNL A   1      38.538  28.873  28.386  1.00  0.00     0.031 C 
ATOM     44  C   UNL A   1      39.378  34.347  32.504  1.00  0.00     0.029 A 
ATOM     45  C   UNL A   1      40.452  33.360  32.530  1.00  0.00     0.049 A 
ATOM     46  H   UNL A   1      40.600  31.617  31.399  1.00  0.00     0.167 HD
ATOM     47  C   UNL A   1      40.713  27.910  29.063  1.00  0.00     0.031 A 
ATOM     48  C   UNL A   1      41.548  33.421  33.309  1.00  0.00     0.031 A 
ATOM     49  C   UNL A   1      41.949  27.932  29.795  1.00  0.00     0.049 A 
ATOM     50  C   UNL A   1      42.569  32.321  33.221  1.00  0.00     0.074 A 
ATOM     51  C   UNL A   1      42.994  27.026  29.750  1.00  0.00     0.029 A 
ATOM     52  N   UNL A   1      42.307  28.911  30.709  1.00  0.00    -0.354 N 
ATOM     53  N   UNL A   1      42.568  31.251  32.464  1.00  0.00    -0.248 NA
ATOM     54  C   UNL A   1      43.747  32.445  34.090  1.00  0.00     0.031 C 
ATOM     55  C   UNL A   1      43.959  27.428  30.677  1.00  0.00     0.029 A 
ATOM     56  C   UNL A   1      43.545  28.619  31.252  1.00  0.00     0.049 A 
ATOM     57  H   UNL A   1      41.760  29.698  30.936  1.00  0.00     0.167 HD
ATOM     58  C   UNL A   1      43.759  30.591  32.740  1.00  0.00     0.074 A 
ATOM     59  C   UNL A   1      44.463  31.391  33.721  1.00  0.00     0.031 C 
ATOM     60  C   UNL A   1      44.230  29.428  32.226  1.00  0.00     0.031 A 
BRANCH  47  61
ATOM     61  C   UNL A   1      40.431  26.742  28.157  1.00  0.00    -0.014 A 
ATOM     62  C   UNL A   1      39.669  25.646  28.596  1.00  0.00     0.009 A 
ATOM     63  C   UNL A   1      40.911  26.747  26.839  1.00  0.00     0.009 A 
ATOM     64  C   UNL A   1      39.433  24.562  27.747  1.00  0.00     0.001 A 
ATOM     65  C   UNL A   1      40.643  25.679  25.981  1.00  0.00     0.001 A 
ATOM     66  C   UNL A   1      39.915  24.582  26.440  1.00  0.00     0.000 A 
ENDBRANCH  47  61
BRANCH  48  67
ATOM     67  C   UNL A   1      41.748  34.572  34.230  1.00  0.00    -0.014 A 
ATOM     68  C   UNL A   1      41.281  34.515  35.552  1.00  0.00     0.009 A 
ATOM     69  C   UNL A   1      42.395  35.739  33.791  1.00  0.00     0.009 A 
ATOM     70  C   UNL A   1      41.428  35.612  36.405  1.00  0.00     0.001 A 
ATOM     71  C   UNL A   1      42.571  36.821  34.657  1.00  0.00     0.001 A 
ATOM     72  C   UNL A   1      42.077  36.762  35.958  1.00  0.00     0.000 A 
ENDBRANCH  48  67
BRANCH  60  73
ATOM     73  C   UNL A   1      45.588  28.974  32.684  1.00  0.00    -0.014 A 
ATOM     74  C   UNL A   1      45.741  28.119  33.785  1.00  0.00     0.009 A 
ATOM     75  C   UNL A   1      46.728  29.377  31.971  1.00  0.00     0.009 A 
ATOM     76  C   UNL A   1      47.014  27.705  34.186  1.00  0.00     0.001 A 
ATOM     77  C   UNL A   1      47.995  28.935  32.351  1.00  0.00     0.001 A 
ATOM     78  C   UNL A   1      48.137  28.108  33.465  1.00  0.00     0.000 A 
ENDBRANCH  60  73
ENDBRANCH  34  35
ENDBRANCH  26  29
ENDBRANCH  24  25
ENDBRANCH  23  24
ENDBRANCH   1  23
TORSDOF 16
ENDMDL
