MODEL 1
REMARK VINA RESULT:     -11.4      0.000      0.000
REMARK SMILES CC(=O)N/C(=C/c1c[nH]c(-c2ccccc2)n1)C(=O)NCCCNC(=O)c1ccc(-c2c3nc(c(-c4ccccc4)c4ccc([nH]4)c(-c4ccccc4)c4nc(c(-c5ccccc5)c5ccc2[nH]5)C=C4)C=C3)cc1
REMARK SMILES IDX 22 1 21 2 20 3 18 4 19 5 5 7 6 8 4 9 1 10 2 11 3 12 7 14
REMARK SMILES IDX 8 15 17 16 9 17 10 18 11 20 12 21 16 22 13 23 15 24 14 25
REMARK SMILES IDX 23 26 24 27 25 28 26 30 27 31 28 32 74 33 29 34 73 35 30 36
REMARK SMILES IDX 31 37 32 38 67 39 33 40 72 41 66 42 68 43 34 44 71 45 65 46
REMARK SMILES IDX 64 47 35 49 57 50 42 51 56 52 43 53 46 54 55 55 69 56 44 57
REMARK SMILES IDX 45 58 54 60 70 61 47 62 36 63 37 64 41 65 38 66 40 67 39 68
REMARK SMILES IDX 58 69 59 70 63 71 60 72 62 73 61 74 48 75 49 76 53 77 50 78
REMARK SMILES IDX 52 79 51 80
REMARK H PARENT 20 6 4 13 9 19 24 29 68 48 46 59
REMARK Flexibility Score: inf
ROOT
ATOM      1  C   UNL A   1      32.244  28.306  26.919  1.00  0.00     0.042 C 
ENDROOT
BRANCH   1   2
ATOM      2  C   UNL A   1      32.331  26.885  26.379  1.00  0.00     0.118 C 
BRANCH   2   3
ATOM      3  N   UNL A   1      31.327  25.949  26.845  1.00  0.00    -0.351 N 
ATOM      4  C   UNL A   1      30.692  24.952  26.148  1.00  0.00     0.267 C 
ATOM      5  O   UNL A   1      30.239  24.007  26.794  1.00  0.00    -0.268 OA
ATOM      6  H   UNL A   1      31.064  26.042  27.790  1.00  0.00     0.163 HD
BRANCH   4   7
ATOM      7  C   UNL A   1      30.400  25.071  24.673  1.00  0.00     0.109 C 
ATOM      8  C   UNL A   1      31.064  24.357  23.736  1.00  0.00     0.062 C 
BRANCH   7   9
ATOM      9  N   UNL A   1      29.353  25.866  24.221  1.00  0.00    -0.322 N 
ATOM     10  C   UNL A   1      30.409  28.023  23.460  1.00  0.00     0.114 C 
ATOM     11  C   UNL A   1      29.238  27.124  23.713  1.00  0.00     0.221 C 
ATOM     12  O   UNL A   1      28.094  27.515  23.450  1.00  0.00    -0.275 OA
ATOM     13  H   UNL A   1      28.483  25.407  24.283  1.00  0.00     0.170 HD
ENDBRANCH   7   9
BRANCH   8  14
ATOM     14  C   UNL A   1      32.107  23.416  23.909  1.00  0.00     0.084 A 
ATOM     15  C   UNL A   1      32.174  22.162  23.354  1.00  0.00     0.112 A 
ATOM     16  N   UNL A   1      33.240  23.716  24.598  1.00  0.00    -0.229 NA
ATOM     17  N   UNL A   1      33.431  21.717  23.671  1.00  0.00    -0.344 N 
ATOM     18  C   UNL A   1      34.061  22.701  24.399  1.00  0.00     0.138 A 
ATOM     19  H   UNL A   1      33.815  20.845  23.422  1.00  0.00     0.168 HD
BRANCH  18  20
ATOM     20  C   UNL A   1      35.462  22.658  24.795  1.00  0.00     0.017 A 
ATOM     21  C   UNL A   1      36.112  23.797  25.288  1.00  0.00     0.012 A 
ATOM     22  C   UNL A   1      36.145  21.436  24.780  1.00  0.00     0.012 A 
ATOM     23  C   UNL A   1      37.423  23.708  25.759  1.00  0.00     0.001 A 
ATOM     24  C   UNL A   1      37.458  21.352  25.242  1.00  0.00     0.001 A 
ATOM     25  C   UNL A   1      38.094  22.487  25.737  1.00  0.00     0.000 A 
ENDBRANCH  18  20
ENDBRANCH   8  14
ENDBRANCH   4   7
ENDBRANCH   2   3
ENDBRANCH   1   2
BRANCH   1  26
ATOM     26  C   UNL A   1      33.496  29.155  26.745  1.00  0.00     0.118 C 
BRANCH  26  27
ATOM     27  N   UNL A   1      33.600  30.297  27.643  1.00  0.00    -0.352 N 
ATOM     28  C   UNL A   1      34.628  30.840  28.368  1.00  0.00     0.251 C 
ATOM     29  H   UNL A   1      32.751  30.783  27.751  1.00  0.00     0.163 HD
ATOM     30  O   UNL A   1      34.421  31.870  29.008  1.00  0.00    -0.269 OA
BRANCH  28  31
ATOM     31  C   UNL A   1      35.973  30.228  28.465  1.00  0.00     0.039 A 
ATOM     32  C   UNL A   1      36.327  29.632  29.687  1.00  0.00     0.014 A 
ATOM     33  C   UNL A   1      36.925  30.315  27.453  1.00  0.00     0.014 A 
ATOM     34  C   UNL A   1      37.607  29.106  29.879  1.00  0.00     0.010 A 
ATOM     35  C   UNL A   1      38.172  29.712  27.609  1.00  0.00     0.010 A 
ATOM     36  C   UNL A   1      38.536  29.129  28.832  1.00  0.00    -0.014 A 
BRANCH  36  37
ATOM     37  C   UNL A   1      39.923  28.635  29.009  1.00  0.00     0.031 A 
ATOM     38  C   UNL A   1      40.973  29.564  29.559  1.00  0.00     0.074 A 
ATOM     39  C   UNL A   1      40.252  27.391  28.621  1.00  0.00     0.049 A 
ATOM     40  N   UNL A   1      42.268  29.394  29.648  1.00  0.00    -0.248 NA
ATOM     41  C   UNL A   1      40.505  30.876  30.034  1.00  0.00     0.031 C 
ATOM     42  C   UNL A   1      39.326  26.402  28.065  1.00  0.00     0.029 A 
ATOM     43  N   UNL A   1      41.462  26.746  28.629  1.00  0.00    -0.354 N 
ATOM     44  C   UNL A   1      42.771  30.596  30.132  1.00  0.00     0.074 A 
ATOM     45  C   UNL A   1      41.648  31.493  30.291  1.00  0.00     0.031 C 
ATOM     46  C   UNL A   1      39.995  25.265  27.817  1.00  0.00     0.029 A 
ATOM     47  C   UNL A   1      41.402  25.461  28.151  1.00  0.00     0.049 A 
ATOM     48  H   UNL A   1      42.295  27.165  28.948  1.00  0.00     0.167 HD
ATOM     49  C   UNL A   1      44.054  30.923  30.425  1.00  0.00     0.031 A 
ATOM     50  C   UNL A   1      42.376  24.545  27.994  1.00  0.00     0.031 A 
ATOM     51  C   UNL A   1      45.158  30.010  30.304  1.00  0.00     0.049 A 
ATOM     52  C   UNL A   1      43.784  24.910  28.371  1.00  0.00     0.074 A 
ATOM     53  C   UNL A   1      46.491  30.215  30.615  1.00  0.00     0.029 A 
ATOM     54  N   UNL A   1      45.050  28.706  29.843  1.00  0.00    -0.354 N 
ATOM     55  N   UNL A   1      44.246  26.048  28.830  1.00  0.00    -0.248 NA
ATOM     56  C   UNL A   1      44.801  23.863  28.211  1.00  0.00     0.031 C 
ATOM     57  C   UNL A   1      47.194  29.040  30.315  1.00  0.00     0.029 A 
ATOM     58  C   UNL A   1      46.290  28.093  29.857  1.00  0.00     0.049 A 
ATOM     59  H   UNL A   1      44.213  28.278  29.552  1.00  0.00     0.167 HD
ATOM     60  C   UNL A   1      45.605  25.852  29.027  1.00  0.00     0.074 A 
ATOM     61  C   UNL A   1      45.886  24.479  28.659  1.00  0.00     0.031 C 
ATOM     62  C   UNL A   1      46.541  26.729  29.469  1.00  0.00     0.031 A 
BRANCH  49  63
ATOM     63  C   UNL A   1      44.316  32.335  30.874  1.00  0.00    -0.014 A 
ATOM     64  C   UNL A   1      44.609  33.357  29.955  1.00  0.00     0.009 A 
ATOM     65  C   UNL A   1      44.293  32.644  32.243  1.00  0.00     0.009 A 
ATOM     66  C   UNL A   1      44.928  34.642  30.401  1.00  0.00     0.001 A 
ATOM     67  C   UNL A   1      44.581  33.938  32.684  1.00  0.00     0.001 A 
ATOM     68  C   UNL A   1      44.913  34.931  31.765  1.00  0.00     0.000 A 
ENDBRANCH  49  63
BRANCH  50  69
ATOM     69  C   UNL A   1      42.037  23.189  27.494  1.00  0.00    -0.014 A 
ATOM     70  C   UNL A   1      41.518  22.224  28.371  1.00  0.00     0.009 A 
ATOM     71  C   UNL A   1      42.187  22.862  26.136  1.00  0.00     0.009 A 
ATOM     72  C   UNL A   1      41.163  20.958  27.902  1.00  0.00     0.001 A 
ATOM     73  C   UNL A   1      41.808  21.602  25.666  1.00  0.00     0.001 A 
ATOM     74  C   UNL A   1      41.301  20.650  26.549  1.00  0.00     0.000 A 
ENDBRANCH  50  69
BRANCH  62  75
ATOM     75  C   UNL A   1      47.945  26.211  29.584  1.00  0.00    -0.014 A 
ATOM     76  C   UNL A   1      48.789  26.155  28.465  1.00  0.00     0.009 A 
ATOM     77  C   UNL A   1      48.430  25.785  30.829  1.00  0.00     0.009 A 
ATOM     78  C   UNL A   1      50.082  25.644  28.584  1.00  0.00     0.001 A 
ATOM     79  C   UNL A   1      49.731  25.297  30.951  1.00  0.00     0.001 A 
ATOM     80  C   UNL A   1      50.552  25.217  29.826  1.00  0.00     0.000 A 
ENDBRANCH  62  75
ENDBRANCH  36  37
ENDBRANCH  28  31
ENDBRANCH  26  27
ENDBRANCH   1  26
TORSDOF 13
ENDMDL
MODEL 2
REMARK VINA RESULT:     -11.3      1.090      1.440
REMARK SMILES CC(=O)N/C(=C/c1c[nH]c(-c2ccccc2)n1)C(=O)NCCCNC(=O)c1ccc(-c2c3nc(c(-c4ccccc4)c4ccc([nH]4)c(-c4ccccc4)c4nc(c(-c5ccccc5)c5ccc2[nH]5)C=C4)C=C3)cc1
REMARK SMILES IDX 22 1 21 2 20 3 18 4 19 5 5 7 6 8 4 9 1 10 2 11 3 12 7 14
REMARK SMILES IDX 8 15 17 16 9 17 10 18 11 20 12 21 16 22 13 23 15 24 14 25
REMARK SMILES IDX 23 26 24 27 25 28 26 30 27 31 28 32 74 33 29 34 73 35 30 36
REMARK SMILES IDX 31 37 32 38 67 39 33 40 72 41 66 42 68 43 34 44 71 45 65 46
REMARK SMILES IDX 64 47 35 49 57 50 42 51 56 52 43 53 46 54 55 55 69 56 44 57
REMARK SMILES IDX 45 58 54 60 70 61 47 62 36 63 37 64 41 65 38 66 40 67 39 68
REMARK SMILES IDX 58 69 59 70 63 71 60 72 62 73 61 74 48 75 49 76 53 77 50 78
REMARK SMILES IDX 52 79 51 80
REMARK H PARENT 20 6 4 13 9 19 24 29 68 48 46 59
REMARK Flexibility Score: inf
ROOT
ATOM      1  C   UNL A   1      32.120  27.648  26.896  1.00  0.00     0.042 C 
ENDROOT
BRANCH   1   2
ATOM      2  C   UNL A   1      32.142  26.604  25.788  1.00  0.00     0.118 C 
BRANCH   2   3
ATOM      3  N   UNL A   1      30.867  26.270  25.185  1.00  0.00    -0.351 N 
ATOM      4  C   UNL A   1      30.585  25.988  23.871  1.00  0.00     0.267 C 
ATOM      5  O   UNL A   1      29.588  25.304  23.638  1.00  0.00    -0.268 OA
ATOM      6  H   UNL A   1      30.098  26.240  25.801  1.00  0.00     0.163 HD
BRANCH   4   7
ATOM      7  C   UNL A   1      31.352  26.621  22.738  1.00  0.00     0.109 C 
ATOM      8  C   UNL A   1      32.494  26.094  22.242  1.00  0.00     0.062 C 
BRANCH   7   9
ATOM      9  N   UNL A   1      30.852  27.742  22.084  1.00  0.00    -0.322 N 
ATOM     10  C   UNL A   1      30.597  29.512  23.859  1.00  0.00     0.114 C 
ATOM     11  C   UNL A   1      30.479  28.997  22.457  1.00  0.00     0.221 C 
ATOM     12  O   UNL A   1      30.029  29.731  21.568  1.00  0.00    -0.275 OA
ATOM     13  H   UNL A   1      30.740  27.591  21.117  1.00  0.00     0.170 HD
ENDBRANCH   7   9
BRANCH   8  14
ATOM     14  C   UNL A   1      33.182  24.924  22.647  1.00  0.00     0.084 A 
ATOM     15  C   UNL A   1      33.059  23.673  22.094  1.00  0.00     0.112 A 
ATOM     16  N   UNL A   1      34.145  24.952  23.606  1.00  0.00    -0.229 NA
ATOM     17  N   UNL A   1      34.039  22.935  22.704  1.00  0.00    -0.344 N 
ATOM     18  C   UNL A   1      34.699  23.753  23.593  1.00  0.00     0.138 A 
ATOM     19  H   UNL A   1      34.235  21.985  22.537  1.00  0.00     0.168 HD
BRANCH  18  20
ATOM     20  C   UNL A   1      35.898  23.369  24.327  1.00  0.00     0.017 A 
ATOM     21  C   UNL A   1      36.343  24.111  25.428  1.00  0.00     0.012 A 
ATOM     22  C   UNL A   1      36.559  22.182  23.991  1.00  0.00     0.012 A 
ATOM     23  C   UNL A   1      37.432  23.666  26.180  1.00  0.00     0.001 A 
ATOM     24  C   UNL A   1      37.653  21.745  24.738  1.00  0.00     0.001 A 
ATOM     25  C   UNL A   1      38.085  22.485  25.836  1.00  0.00     0.000 A 
ENDBRANCH  18  20
ENDBRANCH   8  14
ENDBRANCH   4   7
ENDBRANCH   2   3
ENDBRANCH   1   2
BRANCH   1  26
ATOM     26  C   UNL A   1      33.468  28.258  27.254  1.00  0.00     0.118 C 
BRANCH  26  27
ATOM     27  N   UNL A   1      33.439  29.676  27.584  1.00  0.00    -0.352 N 
ATOM     28  C   UNL A   1      34.386  30.566  28.018  1.00  0.00     0.251 C 
ATOM     29  H   UNL A   1      32.550  30.081  27.471  1.00  0.00     0.163 HD
ATOM     30  O   UNL A   1      34.068  31.746  28.161  1.00  0.00    -0.269 OA
BRANCH  28  31
ATOM     31  C   UNL A   1      35.770  30.179  28.374  1.00  0.00     0.039 A 
ATOM     32  C   UNL A   1      36.755  30.307  27.378  1.00  0.00     0.014 A 
ATOM     33  C   UNL A   1      36.111  29.599  29.592  1.00  0.00     0.014 A 
ATOM     34  C   UNL A   1      38.066  29.887  27.615  1.00  0.00     0.010 A 
ATOM     35  C   UNL A   1      37.437  29.260  29.862  1.00  0.00     0.010 A 
ATOM     36  C   UNL A   1      38.419  29.373  28.868  1.00  0.00    -0.014 A 
BRANCH  36  37
ATOM     37  C   UNL A   1      39.784  28.860  29.143  1.00  0.00     0.031 A 
ATOM     38  C   UNL A   1      40.791  29.759  29.810  1.00  0.00     0.074 A 
ATOM     39  C   UNL A   1      40.135  27.626  28.740  1.00  0.00     0.049 A 
ATOM     40  N   UNL A   1      42.073  29.574  30.000  1.00  0.00    -0.248 NA
ATOM     41  C   UNL A   1      40.294  31.059  30.290  1.00  0.00     0.031 C 
ATOM     42  C   UNL A   1      39.251  26.666  28.076  1.00  0.00     0.029 A 
ATOM     43  N   UNL A   1      41.336  26.970  28.827  1.00  0.00    -0.354 N 
ATOM     44  C   UNL A   1      42.542  30.754  30.565  1.00  0.00     0.074 A 
ATOM     45  C   UNL A   1      41.416  31.656  30.661  1.00  0.00     0.031 C 
ATOM     46  C   UNL A   1      39.931  25.532  27.844  1.00  0.00     0.029 A 
ATOM     47  C   UNL A   1      41.306  25.702  28.301  1.00  0.00     0.049 A 
ATOM     48  H   UNL A   1      42.142  27.369  29.228  1.00  0.00     0.167 HD
ATOM     49  C   UNL A   1      43.798  31.057  30.975  1.00  0.00     0.031 A 
ATOM     50  C   UNL A   1      42.284  24.782  28.194  1.00  0.00     0.031 A 
ATOM     51  C   UNL A   1      44.903  30.138  30.915  1.00  0.00     0.049 A 
ATOM     52  C   UNL A   1      43.658  25.121  28.698  1.00  0.00     0.074 A 
ATOM     53  C   UNL A   1      46.206  30.319  31.342  1.00  0.00     0.029 A 
ATOM     54  N   UNL A   1      44.823  28.851  30.402  1.00  0.00    -0.354 N 
ATOM     55  N   UNL A   1      44.088  26.238  29.234  1.00  0.00    -0.248 NA
ATOM     56  C   UNL A   1      44.677  24.069  28.587  1.00  0.00     0.031 C 
ATOM     57  C   UNL A   1      46.923  29.148  31.060  1.00  0.00     0.029 A 
ATOM     58  C   UNL A   1      46.054  28.226  30.497  1.00  0.00     0.049 A 
ATOM     59  H   UNL A   1      44.011  28.442  30.027  1.00  0.00     0.167 HD
ATOM     60  C   UNL A   1      45.425  26.022  29.535  1.00  0.00     0.074 A 
ATOM     61  C   UNL A   1      45.726  24.659  29.144  1.00  0.00     0.031 C 
ATOM     62  C   UNL A   1      46.327  26.873  30.084  1.00  0.00     0.031 A 
BRANCH  49  63
ATOM     63  C   UNL A   1      44.032  32.451  31.493  1.00  0.00    -0.014 A 
ATOM     64  C   UNL A   1      43.956  32.749  32.864  1.00  0.00     0.009 A 
ATOM     65  C   UNL A   1      44.311  33.489  30.590  1.00  0.00     0.009 A 
ATOM     66  C   UNL A   1      44.098  34.064  33.313  1.00  0.00     0.001 A 
ATOM     67  C   UNL A   1      44.483  34.799  31.045  1.00  0.00     0.001 A 
ATOM     68  C   UNL A   1      44.362  35.088  32.403  1.00  0.00     0.000 A 
ENDBRANCH  49  63
BRANCH  50  69
ATOM     69  C   UNL A   1      41.978  23.448  27.620  1.00  0.00    -0.014 A 
ATOM     70  C   UNL A   1      41.419  22.446  28.428  1.00  0.00     0.009 A 
ATOM     71  C   UNL A   1      42.200  23.179  26.260  1.00  0.00     0.009 A 
ATOM     72  C   UNL A   1      41.096  21.199  27.889  1.00  0.00     0.001 A 
ATOM     73  C   UNL A   1      41.852  21.939  25.718  1.00  0.00     0.001 A 
ATOM     74  C   UNL A   1      41.305  20.949  26.533  1.00  0.00     0.000 A 
ENDBRANCH  50  69
BRANCH  62  75
ATOM     75  C   UNL A   1      47.712  26.339  30.297  1.00  0.00    -0.014 A 
ATOM     76  C   UNL A   1      48.660  26.351  29.262  1.00  0.00     0.009 A 
ATOM     77  C   UNL A   1      48.076  25.827  31.551  1.00  0.00     0.009 A 
ATOM     78  C   UNL A   1      49.935  25.823  29.469  1.00  0.00     0.001 A 
ATOM     79  C   UNL A   1      49.358  25.321  31.763  1.00  0.00     0.001 A 
ATOM     80  C   UNL A   1      50.283  25.310  30.719  1.00  0.00     0.000 A 
ENDBRANCH  62  75
ENDBRANCH  36  37
ENDBRANCH  28  31
ENDBRANCH  26  27
ENDBRANCH   1  26
TORSDOF 13
ENDMDL
MODEL 3
REMARK VINA RESULT:     -11.3      1.505      2.106
REMARK SMILES CC(=O)N/C(=C/c1c[nH]c(-c2ccccc2)n1)C(=O)NCCCNC(=O)c1ccc(-c2c3nc(c(-c4ccccc4)c4ccc([nH]4)c(-c4ccccc4)c4nc(c(-c5ccccc5)c5ccc2[nH]5)C=C4)C=C3)cc1
REMARK SMILES IDX 22 1 21 2 20 3 18 4 19 5 5 7 6 8 4 9 1 10 2 11 3 12 7 14
REMARK SMILES IDX 8 15 17 16 9 17 10 18 11 20 12 21 16 22 13 23 15 24 14 25
REMARK SMILES IDX 23 26 24 27 25 28 26 30 27 31 28 32 74 33 29 34 73 35 30 36
REMARK SMILES IDX 31 37 32 38 67 39 33 40 72 41 66 42 68 43 34 44 71 45 65 46
REMARK SMILES IDX 64 47 35 49 57 50 42 51 56 52 43 53 46 54 55 55 69 56 44 57
REMARK SMILES IDX 45 58 54 60 70 61 47 62 36 63 37 64 41 65 38 66 40 67 39 68
REMARK SMILES IDX 58 69 59 70 63 71 60 72 62 73 61 74 48 75 49 76 53 77 50 78
REMARK SMILES IDX 52 79 51 80
REMARK H PARENT 20 6 4 13 9 19 24 29 68 48 46 59
REMARK Flexibility Score: inf
ROOT
ATOM      1  C   UNL A   1      32.000  28.106  27.377  1.00  0.00     0.042 C 
ENDROOT
BRANCH   1   2
ATOM      2  C   UNL A   1      31.687  26.904  26.496  1.00  0.00     0.118 C 
BRANCH   2   3
ATOM      3  N   UNL A   1      32.818  26.122  26.038  1.00  0.00    -0.351 N 
ATOM      4  C   UNL A   1      33.147  25.755  24.757  1.00  0.00     0.267 C 
ATOM      5  O   UNL A   1      34.330  25.506  24.524  1.00  0.00    -0.268 OA
ATOM      6  H   UNL A   1      33.434  25.811  26.741  1.00  0.00     0.163 HD
BRANCH   4   7
ATOM      7  C   UNL A   1      32.097  25.498  23.706  1.00  0.00     0.109 C 
ATOM      8  C   UNL A   1      31.549  24.278  23.503  1.00  0.00     0.062 C 
BRANCH   7   9
ATOM      9  N   UNL A   1      31.575  26.545  22.956  1.00  0.00    -0.322 N 
ATOM     10  C   UNL A   1      29.216  26.868  23.781  1.00  0.00     0.114 C 
ATOM     11  C   UNL A   1      30.376  27.186  22.887  1.00  0.00     0.221 C 
ATOM     12  O   UNL A   1      30.270  28.079  22.037  1.00  0.00    -0.275 OA
ATOM     13  H   UNL A   1      32.231  26.912  22.320  1.00  0.00     0.170 HD
ENDBRANCH   7   9
BRANCH   8  14
ATOM     14  C   UNL A   1      31.820  23.060  24.171  1.00  0.00     0.084 A 
ATOM     15  C   UNL A   1      31.324  22.671  25.392  1.00  0.00     0.112 A 
ATOM     16  N   UNL A   1      32.555  22.072  23.595  1.00  0.00    -0.229 NA
ATOM     17  N   UNL A   1      31.728  21.369  25.522  1.00  0.00    -0.344 N 
ATOM     18  C   UNL A   1      32.446  21.029  24.398  1.00  0.00     0.138 A 
ATOM     19  H   UNL A   1      31.538  20.779  26.288  1.00  0.00     0.168 HD
BRANCH  18  20
ATOM     20  C   UNL A   1      32.919  19.683  24.102  1.00  0.00     0.017 A 
ATOM     21  C   UNL A   1      32.261  18.871  23.170  1.00  0.00     0.012 A 
ATOM     22  C   UNL A   1      34.109  19.229  24.683  1.00  0.00     0.012 A 
ATOM     23  C   UNL A   1      32.792  17.627  22.824  1.00  0.00     0.001 A 
ATOM     24  C   UNL A   1      34.632  17.981  24.344  1.00  0.00     0.001 A 
ATOM     25  C   UNL A   1      33.976  17.183  23.410  1.00  0.00     0.000 A 
ENDBRANCH  18  20
ENDBRANCH   8  14
ENDBRANCH   4   7
ENDBRANCH   2   3
ENDBRANCH   1   2
BRANCH   1  26
ATOM     26  C   UNL A   1      33.315  28.815  27.082  1.00  0.00     0.118 C 
BRANCH  26  27
ATOM     27  N   UNL A   1      33.465  30.126  27.698  1.00  0.00    -0.352 N 
ATOM     28  C   UNL A   1      34.526  30.799  28.246  1.00  0.00     0.251 C 
ATOM     29  H   UNL A   1      32.625  30.638  27.727  1.00  0.00     0.163 HD
ATOM     30  O   UNL A   1      34.353  31.948  28.648  1.00  0.00    -0.269 OA
BRANCH  28  31
ATOM     31  C   UNL A   1      35.868  30.201  28.425  1.00  0.00     0.039 A 
ATOM     32  C   UNL A   1      36.158  29.623  29.674  1.00  0.00     0.014 A 
ATOM     33  C   UNL A   1      36.874  30.284  27.468  1.00  0.00     0.014 A 
ATOM     34  C   UNL A   1      37.430  29.111  29.943  1.00  0.00     0.010 A 
ATOM     35  C   UNL A   1      38.117  29.695  27.701  1.00  0.00     0.010 A 
ATOM     36  C   UNL A   1      38.416  29.130  28.950  1.00  0.00    -0.014 A 
BRANCH  36  37
ATOM     37  C   UNL A   1      39.795  28.652  29.211  1.00  0.00     0.031 A 
ATOM     38  C   UNL A   1      40.775  29.564  29.900  1.00  0.00     0.074 A 
ATOM     39  C   UNL A   1      40.183  27.439  28.778  1.00  0.00     0.049 A 
ATOM     40  N   UNL A   1      42.063  29.413  30.085  1.00  0.00    -0.248 NA
ATOM     41  C   UNL A   1      40.240  30.836  30.412  1.00  0.00     0.031 C 
ATOM     42  C   UNL A   1      39.328  26.471  28.090  1.00  0.00     0.029 A 
ATOM     43  N   UNL A   1      41.403  26.818  28.847  1.00  0.00    -0.354 N 
ATOM     44  C   UNL A   1      42.497  30.591  30.680  1.00  0.00     0.074 A 
ATOM     45  C   UNL A   1      41.344  31.457  30.799  1.00  0.00     0.031 C 
ATOM     46  C   UNL A   1      40.041  25.363  27.829  1.00  0.00     0.029 A 
ATOM     47  C   UNL A   1      41.412  25.564  28.289  1.00  0.00     0.049 A 
ATOM     48  H   UNL A   1      42.197  27.231  29.258  1.00  0.00     0.167 HD
ATOM     49  C   UNL A   1      43.743  30.923  31.097  1.00  0.00     0.031 A 
ATOM     50  C   UNL A   1      42.417  24.676  28.159  1.00  0.00     0.031 A 
ATOM     51  C   UNL A   1      44.875  30.039  31.013  1.00  0.00     0.049 A 
ATOM     52  C   UNL A   1      43.780  25.044  28.671  1.00  0.00     0.074 A 
ATOM     53  C   UNL A   1      46.173  30.249  31.445  1.00  0.00     0.029 A 
ATOM     54  N   UNL A   1      44.834  28.764  30.468  1.00  0.00    -0.354 N 
ATOM     55  N   UNL A   1      44.176  26.159  29.235  1.00  0.00    -0.248 NA
ATOM     56  C   UNL A   1      44.830  24.027  28.534  1.00  0.00     0.031 C 
ATOM     57  C   UNL A   1      46.924  29.107  31.133  1.00  0.00     0.029 A 
ATOM     58  C   UNL A   1      46.083  28.174  30.547  1.00  0.00     0.049 A 
ATOM     59  H   UNL A   1      44.034  28.340  30.083  1.00  0.00     0.167 HD
ATOM     60  C   UNL A   1      45.520  25.976  29.531  1.00  0.00     0.074 A 
ATOM     61  C   UNL A   1      45.862  24.633  29.105  1.00  0.00     0.031 C 
ATOM     62  C   UNL A   1      46.396  26.841  30.100  1.00  0.00     0.031 A 
BRANCH  49  63
ATOM     63  C   UNL A   1      43.936  32.309  31.649  1.00  0.00    -0.014 A 
ATOM     64  C   UNL A   1      44.114  33.419  30.807  1.00  0.00     0.009 A 
ATOM     65  C   UNL A   1      43.962  32.505  33.039  1.00  0.00     0.009 A 
ATOM     66  C   UNL A   1      44.371  34.683  31.343  1.00  0.00     0.001 A 
ATOM     67  C   UNL A   1      44.188  33.776  33.573  1.00  0.00     0.001 A 
ATOM     68  C   UNL A   1      44.407  34.860  32.726  1.00  0.00     0.000 A 
ENDBRANCH  49  63
BRANCH  50  69
ATOM     69  C   UNL A   1      42.151  23.348  27.552  1.00  0.00    -0.014 A 
ATOM     70  C   UNL A   1      42.506  23.101  26.217  1.00  0.00     0.009 A 
ATOM     71  C   UNL A   1      41.584  22.309  28.308  1.00  0.00     0.009 A 
ATOM     72  C   UNL A   1      42.292  21.844  25.648  1.00  0.00     0.001 A 
ATOM     73  C   UNL A   1      41.394  21.046  27.743  1.00  0.00     0.001 A 
ATOM     74  C   UNL A   1      41.744  20.815  26.413  1.00  0.00     0.000 A 
ENDBRANCH  50  69
BRANCH  62  75
ATOM     75  C   UNL A   1      47.797  26.343  30.299  1.00  0.00    -0.014 A 
ATOM     76  C   UNL A   1      48.741  26.403  29.263  1.00  0.00     0.009 A 
ATOM     77  C   UNL A   1      48.179  25.817  31.542  1.00  0.00     0.009 A 
ATOM     78  C   UNL A   1      50.032  25.909  29.456  1.00  0.00     0.001 A 
ATOM     79  C   UNL A   1      49.477  25.346  31.741  1.00  0.00     0.001 A 
ATOM     80  C   UNL A   1      50.399  25.382  30.695  1.00  0.00     0.000 A 
ENDBRANCH  62  75
ENDBRANCH  36  37
ENDBRANCH  28  31
ENDBRANCH  26  27
ENDBRANCH   1  26
TORSDOF 13
ENDMDL
