MODEL 1
REMARK VINA RESULT:     -11.6      0.000      0.000
REMARK SMILES C[C@@H](C(=O)NCCCNC(=O)c1ccc(-c2c3nc(c(-c4ccccc4)c4ccc([nH]4)c(-c4ccccc4)c4nc(c(-c5ccccc5)c5ccc2[nH]5)C=C4)C=C3)cc1)c1ccc(C[C@H]2CCCC2=O)cc1
REMARK SMILES IDX 6 1 5 2 3 3 4 4 2 6 1 7 60 8 61 9 72 10 62 11 71 12 63 13
REMARK SMILES IDX 64 14 65 15 66 16 69 17 67 18 68 19 70 20 7 21 8 22 9 23
REMARK SMILES IDX 10 24 11 26 12 27 13 28 59 29 14 30 58 31 15 32 16 33 17 34
REMARK SMILES IDX 52 35 18 36 57 37 51 38 53 39 19 40 56 41 50 42 49 43 20 45
REMARK SMILES IDX 42 46 27 47 41 48 28 49 31 50 40 51 54 52 29 53 30 54 39 56
REMARK SMILES IDX 55 57 32 58 21 59 22 60 26 61 23 62 25 63 24 64 43 65 44 66
REMARK SMILES IDX 48 67 45 68 47 69 46 70 33 71 34 72 38 73 35 74 37 75 36 76
REMARK H PARENT 5 5 9 25 53 44 31 55
REMARK Flexibility Score: inf
ROOT
ATOM      1  C   UNL A   1      32.003  27.451  26.297  1.00  0.00     0.117 C 
ENDROOT
BRANCH   1   2
ATOM      2  N   UNL A   1      31.049  26.440  26.711  1.00  0.00    -0.356 N 
ATOM      3  C   UNL A   1      30.244  25.623  25.970  1.00  0.00     0.227 C 
ATOM      4  O   UNL A   1      29.406  24.967  26.590  1.00  0.00    -0.274 OA
ATOM      5  H   UNL A   1      30.969  26.324  27.686  1.00  0.00     0.163 HD
BRANCH   3   6
ATOM      6  C   UNL A   1      30.423  25.538  24.446  1.00  0.00     0.105 C 
ATOM      7  C   UNL A   1      31.886  25.265  24.080  1.00  0.00     0.023 C 
BRANCH   6   8
ATOM      8  C   UNL A   1      29.847  26.766  23.743  1.00  0.00    -0.036 A 
ATOM      9  C   UNL A   1      28.462  26.985  23.780  1.00  0.00     0.005 A 
ATOM     10  C   UNL A   1      30.648  27.706  23.078  1.00  0.00     0.005 A 
ATOM     11  C   UNL A   1      27.892  28.088  23.140  1.00  0.00     0.004 A 
ATOM     12  C   UNL A   1      30.076  28.794  22.415  1.00  0.00     0.004 A 
ATOM     13  C   UNL A   1      28.691  28.985  22.421  1.00  0.00    -0.047 A 
BRANCH  13  14
ATOM     14  C   UNL A   1      28.076  30.131  21.656  1.00  0.00     0.047 C 
BRANCH  14  15
ATOM     15  C   UNL A   1      27.584  31.316  22.496  1.00  0.00     0.060 C 
ATOM     16  C   UNL A   1      28.047  31.364  23.957  1.00  0.00     0.012 C 
ATOM     17  C   UNL A   1      28.078  32.643  21.965  1.00  0.00     0.136 C 
ATOM     18  C   UNL A   1      29.247  32.305  23.993  1.00  0.00     0.009 C 
ATOM     19  C   UNL A   1      28.953  33.373  22.950  1.00  0.00     0.076 C 
ATOM     20  O   UNL A   1      27.781  33.091  20.864  1.00  0.00    -0.299 OA
ENDBRANCH  14  15
ENDBRANCH  13  14
ENDBRANCH   6   8
ENDBRANCH   3   6
ENDBRANCH   1   2
BRANCH   1  21
ATOM     21  C   UNL A   1      32.439  28.324  27.473  1.00  0.00     0.042 C 
BRANCH  21  22
ATOM     22  C   UNL A   1      33.762  29.055  27.256  1.00  0.00     0.118 C 
BRANCH  22  23
ATOM     23  N   UNL A   1      33.766  30.391  27.829  1.00  0.00    -0.352 N 
ATOM     24  C   UNL A   1      34.726  31.029  28.574  1.00  0.00     0.251 C 
ATOM     25  H   UNL A   1      32.955  30.921  27.655  1.00  0.00     0.163 HD
ATOM     26  O   UNL A   1      34.459  32.101  29.113  1.00  0.00    -0.269 OA
BRANCH  24  27
ATOM     27  C   UNL A   1      36.069  30.434  28.756  1.00  0.00     0.039 A 
ATOM     28  C   UNL A   1      37.008  30.578  27.730  1.00  0.00     0.014 A 
ATOM     29  C   UNL A   1      36.397  29.705  29.903  1.00  0.00     0.014 A 
ATOM     30  C   UNL A   1      38.292  30.046  27.880  1.00  0.00     0.010 A 
ATOM     31  C   UNL A   1      37.696  29.230  30.079  1.00  0.00     0.010 A 
ATOM     32  C   UNL A   1      38.657  29.396  29.069  1.00  0.00    -0.014 A 
BRANCH  32  33
ATOM     33  C   UNL A   1      40.040  28.897  29.276  1.00  0.00     0.031 A 
ATOM     34  C   UNL A   1      41.091  29.788  29.879  1.00  0.00     0.074 A 
ATOM     35  C   UNL A   1      40.368  27.657  28.865  1.00  0.00     0.049 A 
ATOM     36  N   UNL A   1      42.363  29.546  30.077  1.00  0.00    -0.248 NA
ATOM     37  C   UNL A   1      40.663  31.134  30.295  1.00  0.00     0.031 C 
ATOM     38  C   UNL A   1      39.454  26.702  28.235  1.00  0.00     0.029 A 
ATOM     39  N   UNL A   1      41.567  26.989  28.910  1.00  0.00    -0.354 N 
ATOM     40  C   UNL A   1      42.889  30.711  30.622  1.00  0.00     0.074 A 
ATOM     41  C   UNL A   1      41.808  31.672  30.689  1.00  0.00     0.031 C 
ATOM     42  C   UNL A   1      40.118  25.566  27.970  1.00  0.00     0.029 A 
ATOM     43  C   UNL A   1      41.512  25.724  28.376  1.00  0.00     0.049 A 
ATOM     44  H   UNL A   1      42.388  27.379  29.286  1.00  0.00     0.167 HD
ATOM     45  C   UNL A   1      44.153  30.956  31.040  1.00  0.00     0.031 A 
ATOM     46  C   UNL A   1      42.475  24.796  28.222  1.00  0.00     0.031 A 
ATOM     47  C   UNL A   1      45.227  30.000  30.991  1.00  0.00     0.049 A 
ATOM     48  C   UNL A   1      43.871  25.097  28.689  1.00  0.00     0.074 A 
ATOM     49  C   UNL A   1      46.528  30.140  31.446  1.00  0.00     0.029 A 
ATOM     50  N   UNL A   1      45.126  28.727  30.453  1.00  0.00    -0.354 N 
ATOM     51  N   UNL A   1      44.336  26.182  29.258  1.00  0.00    -0.248 NA
ATOM     52  C   UNL A   1      44.873  24.038  28.500  1.00  0.00     0.031 C 
ATOM     53  C   UNL A   1      47.224  28.965  31.147  1.00  0.00     0.029 A 
ATOM     54  C   UNL A   1      46.346  28.078  30.548  1.00  0.00     0.049 A 
ATOM     55  H   UNL A   1      44.309  28.341  30.063  1.00  0.00     0.167 HD
ATOM     56  C   UNL A   1      45.675  25.927  29.518  1.00  0.00     0.074 A 
ATOM     57  C   UNL A   1      45.945  24.581  29.059  1.00  0.00     0.031 C 
ATOM     58  C   UNL A   1      46.599  26.738  30.088  1.00  0.00     0.031 A 
BRANCH  45  59
ATOM     59  C   UNL A   1      44.450  32.323  31.589  1.00  0.00    -0.014 A 
ATOM     60  C   UNL A   1      44.877  33.364  30.749  1.00  0.00     0.009 A 
ATOM     61  C   UNL A   1      44.254  32.587  32.953  1.00  0.00     0.009 A 
ATOM     62  C   UNL A   1      45.129  34.635  31.271  1.00  0.00     0.001 A 
ATOM     63  C   UNL A   1      44.481  33.864  33.467  1.00  0.00     0.001 A 
ATOM     64  C   UNL A   1      44.927  34.885  32.628  1.00  0.00     0.000 A 
ENDBRANCH  45  59
BRANCH  46  65
ATOM     65  C   UNL A   1      42.153  23.484  27.604  1.00  0.00    -0.014 A 
ATOM     66  C   UNL A   1      41.623  22.444  28.382  1.00  0.00     0.009 A 
ATOM     67  C   UNL A   1      42.390  23.261  26.239  1.00  0.00     0.009 A 
ATOM     68  C   UNL A   1      41.360  21.197  27.810  1.00  0.00     0.001 A 
ATOM     69  C   UNL A   1      42.101  22.021  25.665  1.00  0.00     0.001 A 
ATOM     70  C   UNL A   1      41.595  20.988  26.452  1.00  0.00     0.000 A 
ENDBRANCH  46  65
BRANCH  58  71
ATOM     71  C   UNL A   1      47.979  26.177  30.279  1.00  0.00    -0.014 A 
ATOM     72  C   UNL A   1      48.888  26.107  29.212  1.00  0.00     0.009 A 
ATOM     73  C   UNL A   1      48.384  25.746  31.551  1.00  0.00     0.009 A 
ATOM     74  C   UNL A   1      50.169  25.586  29.413  1.00  0.00     0.001 A 
ATOM     75  C   UNL A   1      49.672  25.250  31.753  1.00  0.00     0.001 A 
ATOM     76  C   UNL A   1      50.560  25.162  30.683  1.00  0.00     0.000 A 
ENDBRANCH  58  71
ENDBRANCH  32  33
ENDBRANCH  24  27
ENDBRANCH  22  23
ENDBRANCH  21  22
ENDBRANCH   1  21
TORSDOF 13
ENDMDL
MODEL 2
REMARK VINA RESULT:     -11.5      1.231      1.748
REMARK SMILES C[C@@H](C(=O)NCCCNC(=O)c1ccc(-c2c3nc(c(-c4ccccc4)c4ccc([nH]4)c(-c4ccccc4)c4nc(c(-c5ccccc5)c5ccc2[nH]5)C=C4)C=C3)cc1)c1ccc(C[C@H]2CCCC2=O)cc1
REMARK SMILES IDX 6 1 5 2 3 3 4 4 2 6 1 7 60 8 61 9 72 10 62 11 71 12 63 13
REMARK SMILES IDX 64 14 65 15 66 16 69 17 67 18 68 19 70 20 7 21 8 22 9 23
REMARK SMILES IDX 10 24 11 26 12 27 13 28 59 29 14 30 58 31 15 32 16 33 17 34
REMARK SMILES IDX 52 35 18 36 57 37 51 38 53 39 19 40 56 41 50 42 49 43 20 45
REMARK SMILES IDX 42 46 27 47 41 48 28 49 31 50 40 51 54 52 29 53 30 54 39 56
REMARK SMILES IDX 55 57 32 58 21 59 22 60 26 61 23 62 25 63 24 64 43 65 44 66
REMARK SMILES IDX 48 67 45 68 47 69 46 70 33 71 34 72 38 73 35 74 37 75 36 76
REMARK H PARENT 5 5 9 25 53 44 31 55
REMARK Flexibility Score: inf
ROOT
ATOM      1  C   UNL A   1      31.774  27.888  26.408  1.00  0.00     0.117 C 
ENDROOT
BRANCH   1   2
ATOM      2  N   UNL A   1      31.036  26.691  26.764  1.00  0.00    -0.356 N 
ATOM      3  C   UNL A   1      30.473  25.729  25.975  1.00  0.00     0.227 C 
ATOM      4  O   UNL A   1      29.758  24.902  26.542  1.00  0.00    -0.274 OA
ATOM      5  H   UNL A   1      30.922  26.550  27.731  1.00  0.00     0.163 HD
BRANCH   3   6
ATOM      6  C   UNL A   1      30.761  25.701  24.466  1.00  0.00     0.105 C 
ATOM      7  C   UNL A   1      32.264  25.573  24.196  1.00  0.00     0.023 C 
BRANCH   6   8
ATOM      8  C   UNL A   1      30.122  26.890  23.749  1.00  0.00    -0.036 A 
ATOM      9  C   UNL A   1      28.726  27.032  23.778  1.00  0.00     0.005 A 
ATOM     10  C   UNL A   1      30.873  27.868  23.081  1.00  0.00     0.005 A 
ATOM     11  C   UNL A   1      28.100  28.097  23.126  1.00  0.00     0.004 A 
ATOM     12  C   UNL A   1      30.246  28.917  22.406  1.00  0.00     0.004 A 
ATOM     13  C   UNL A   1      28.853  29.031  22.403  1.00  0.00    -0.047 A 
BRANCH  13  14
ATOM     14  C   UNL A   1      28.180  30.135  21.625  1.00  0.00     0.047 C 
BRANCH  14  15
ATOM     15  C   UNL A   1      27.618  31.298  22.453  1.00  0.00     0.060 C 
ATOM     16  C   UNL A   1      28.039  31.360  23.926  1.00  0.00     0.012 C 
ATOM     17  C   UNL A   1      28.075  32.645  21.939  1.00  0.00     0.136 C 
ATOM     18  C   UNL A   1      29.199  32.347  23.998  1.00  0.00     0.009 C 
ATOM     19  C   UNL A   1      28.893  33.406  22.948  1.00  0.00     0.076 C 
ATOM     20  O   UNL A   1      27.791  33.083  20.830  1.00  0.00    -0.299 OA
ENDBRANCH  14  15
ENDBRANCH  13  14
ENDBRANCH   6   8
ENDBRANCH   3   6
ENDBRANCH   1   2
BRANCH   1  21
ATOM     21  C   UNL A   1      33.282  27.679  26.550  1.00  0.00     0.042 C 
BRANCH  21  22
ATOM     22  C   UNL A   1      34.129  28.813  25.979  1.00  0.00     0.118 C 
BRANCH  22  23
ATOM     23  N   UNL A   1      33.809  30.104  26.566  1.00  0.00    -0.352 N 
ATOM     24  C   UNL A   1      34.447  30.805  27.557  1.00  0.00     0.251 C 
ATOM     25  H   UNL A   1      33.011  30.543  26.193  1.00  0.00     0.163 HD
ATOM     26  O   UNL A   1      33.911  31.805  28.032  1.00  0.00    -0.269 OA
BRANCH  24  27
ATOM     27  C   UNL A   1      35.760  30.363  28.080  1.00  0.00     0.039 A 
ATOM     28  C   UNL A   1      35.804  29.735  29.328  1.00  0.00     0.014 A 
ATOM     29  C   UNL A   1      36.944  30.596  27.375  1.00  0.00     0.014 A 
ATOM     30  C   UNL A   1      37.024  29.287  29.840  1.00  0.00     0.010 A 
ATOM     31  C   UNL A   1      38.152  30.093  27.857  1.00  0.00     0.010 A 
ATOM     32  C   UNL A   1      38.204  29.433  29.094  1.00  0.00    -0.014 A 
BRANCH  32  33
ATOM     33  C   UNL A   1      39.496  28.890  29.588  1.00  0.00     0.031 A 
ATOM     34  C   UNL A   1      40.312  29.656  30.592  1.00  0.00     0.074 A 
ATOM     35  C   UNL A   1      39.965  27.731  29.086  1.00  0.00     0.049 A 
ATOM     36  N   UNL A   1      41.489  29.369  31.089  1.00  0.00    -0.248 NA
ATOM     37  C   UNL A   1      39.742  30.918  31.089  1.00  0.00     0.031 C 
ATOM     38  C   UNL A   1      39.289  26.906  28.082  1.00  0.00     0.029 A 
ATOM     39  N   UNL A   1      41.128  27.051  29.347  1.00  0.00    -0.354 N 
ATOM     40  C   UNL A   1      41.808  30.421  31.939  1.00  0.00     0.074 A 
ATOM     41  C   UNL A   1      40.718  31.369  31.864  1.00  0.00     0.031 C 
ATOM     42  C   UNL A   1      40.039  25.821  27.828  1.00  0.00     0.029 A 
ATOM     43  C   UNL A   1      41.263  25.893  28.619  1.00  0.00     0.049 A 
ATOM     44  H   UNL A   1      41.802  27.363  29.992  1.00  0.00     0.167 HD
ATOM     45  C   UNL A   1      42.902  30.577  32.722  1.00  0.00     0.031 A 
ATOM     46  C   UNL A   1      42.263  24.992  28.586  1.00  0.00     0.031 A 
ATOM     47  C   UNL A   1      43.981  29.629  32.813  1.00  0.00     0.049 A 
ATOM     48  C   UNL A   1      43.468  25.193  29.460  1.00  0.00     0.074 A 
ATOM     49  C   UNL A   1      45.103  29.675  33.623  1.00  0.00     0.029 A 
ATOM     50  N   UNL A   1      44.073  28.464  32.068  1.00  0.00    -0.354 N 
ATOM     51  N   UNL A   1      43.724  26.163  30.303  1.00  0.00    -0.248 NA
ATOM     52  C   UNL A   1      44.519  24.168  29.382  1.00  0.00     0.031 C 
ATOM     53  C   UNL A   1      45.894  28.558  33.338  1.00  0.00     0.029 A 
ATOM     54  C   UNL A   1      45.242  27.794  32.385  1.00  0.00     0.049 A 
ATOM     55  H   UNL A   1      43.406  28.159  31.412  1.00  0.00     0.167 HD
ATOM     56  C   UNL A   1      44.950  25.853  30.875  1.00  0.00     0.074 A 
ATOM     57  C   UNL A   1      45.380  24.599  30.294  1.00  0.00     0.031 C 
ATOM     58  C   UNL A   1      45.656  26.546  31.801  1.00  0.00     0.031 A 
BRANCH  45  59
ATOM     59  C   UNL A   1      42.992  31.830  33.546  1.00  0.00    -0.014 A 
ATOM     60  C   UNL A   1      42.475  31.879  34.850  1.00  0.00     0.009 A 
ATOM     61  C   UNL A   1      43.646  32.960  33.031  1.00  0.00     0.009 A 
ATOM     62  C   UNL A   1      42.585  33.045  35.611  1.00  0.00     0.001 A 
ATOM     63  C   UNL A   1      43.777  34.115  33.803  1.00  0.00     0.001 A 
ATOM     64  C   UNL A   1      43.240  34.160  35.089  1.00  0.00     0.000 A 
ENDBRANCH  45  59
BRANCH  46  65
ATOM     65  C   UNL A   1      42.166  23.805  27.698  1.00  0.00    -0.014 A 
ATOM     66  C   UNL A   1      41.600  22.611  28.169  1.00  0.00     0.009 A 
ATOM     67  C   UNL A   1      42.654  23.855  26.384  1.00  0.00     0.009 A 
ATOM     68  C   UNL A   1      41.546  21.482  27.347  1.00  0.00     0.001 A 
ATOM     69  C   UNL A   1      42.576  22.732  25.556  1.00  0.00     0.001 A 
ATOM     70  C   UNL A   1      42.031  21.544  26.042  1.00  0.00     0.000 A 
ENDBRANCH  46  65
BRANCH  58  71
ATOM     71  C   UNL A   1      46.951  25.945  32.267  1.00  0.00    -0.014 A 
ATOM     72  C   UNL A   1      47.000  25.111  33.395  1.00  0.00     0.009 A 
ATOM     73  C   UNL A   1      48.130  26.189  31.546  1.00  0.00     0.009 A 
ATOM     74  C   UNL A   1      48.214  24.557  33.808  1.00  0.00     0.001 A 
ATOM     75  C   UNL A   1      49.336  25.615  31.947  1.00  0.00     0.001 A 
ATOM     76  C   UNL A   1      49.379  24.807  33.082  1.00  0.00     0.000 A 
ENDBRANCH  58  71
ENDBRANCH  32  33
ENDBRANCH  24  27
ENDBRANCH  22  23
ENDBRANCH  21  22
ENDBRANCH   1  21
TORSDOF 13
ENDMDL
MODEL 3
REMARK VINA RESULT:     -11.5      5.416     11.236
REMARK SMILES C[C@@H](C(=O)NCCCNC(=O)c1ccc(-c2c3nc(c(-c4ccccc4)c4ccc([nH]4)c(-c4ccccc4)c4nc(c(-c5ccccc5)c5ccc2[nH]5)C=C4)C=C3)cc1)c1ccc(C[C@H]2CCCC2=O)cc1
REMARK SMILES IDX 6 1 5 2 3 3 4 4 2 6 1 7 60 8 61 9 72 10 62 11 71 12 63 13
REMARK SMILES IDX 64 14 65 15 66 16 69 17 67 18 68 19 70 20 7 21 8 22 9 23
REMARK SMILES IDX 10 24 11 26 12 27 13 28 59 29 14 30 58 31 15 32 16 33 17 34
REMARK SMILES IDX 52 35 18 36 57 37 51 38 53 39 19 40 56 41 50 42 49 43 20 45
REMARK SMILES IDX 42 46 27 47 41 48 28 49 31 50 40 51 54 52 29 53 30 54 39 56
REMARK SMILES IDX 55 57 32 58 21 59 22 60 26 61 23 62 25 63 24 64 43 65 44 66
REMARK SMILES IDX 48 67 45 68 47 69 46 70 33 71 34 72 38 73 35 74 37 75 36 76
REMARK H PARENT 5 5 9 25 53 44 31 55
REMARK Flexibility Score: inf
ROOT
ATOM      1  C   UNL A   1      44.885  20.914  24.290  1.00  0.00     0.117 C 
ENDROOT
BRANCH   1   2
ATOM      2  N   UNL A   1      45.351  21.412  25.570  1.00  0.00    -0.356 N 
ATOM      3  C   UNL A   1      45.876  22.625  25.912  1.00  0.00     0.227 C 
ATOM      4  O   UNL A   1      46.344  22.723  27.047  1.00  0.00    -0.274 OA
ATOM      5  H   UNL A   1      45.278  20.770  26.313  1.00  0.00     0.163 HD
BRANCH   3   6
ATOM      6  C   UNL A   1      45.843  23.791  24.910  1.00  0.00     0.105 C 
ATOM      7  C   UNL A   1      46.953  23.646  23.862  1.00  0.00     0.023 C 
BRANCH   6   8
ATOM      8  C   UNL A   1      45.861  25.143  25.620  1.00  0.00    -0.036 A 
ATOM      9  C   UNL A   1      44.692  25.919  25.637  1.00  0.00     0.005 A 
ATOM     10  C   UNL A   1      46.993  25.637  26.285  1.00  0.00     0.005 A 
ATOM     11  C   UNL A   1      44.668  27.167  26.264  1.00  0.00     0.004 A 
ATOM     12  C   UNL A   1      46.978  26.897  26.888  1.00  0.00     0.004 A 
ATOM     13  C   UNL A   1      45.822  27.684  26.866  1.00  0.00    -0.047 A 
BRANCH  13  14
ATOM     14  C   UNL A   1      45.830  29.066  27.471  1.00  0.00     0.047 C 
BRANCH  14  15
ATOM     15  C   UNL A   1      45.032  30.137  26.715  1.00  0.00     0.060 C 
ATOM     16  C   UNL A   1      43.689  30.553  27.325  1.00  0.00     0.012 C 
ATOM     17  C   UNL A   1      45.767  31.457  26.641  1.00  0.00     0.136 C 
ATOM     18  C   UNL A   1      43.956  31.830  28.115  1.00  0.00     0.009 C 
ATOM     19  C   UNL A   1      45.028  32.573  27.331  1.00  0.00     0.076 C 
ATOM     20  O   UNL A   1      46.836  31.611  26.062  1.00  0.00    -0.299 OA
ENDBRANCH  14  15
ENDBRANCH  13  14
ENDBRANCH   6   8
ENDBRANCH   3   6
ENDBRANCH   1   2
BRANCH   1  21
ATOM     21  C   UNL A   1      44.484  19.441  24.375  1.00  0.00     0.042 C 
BRANCH  21  22
ATOM     22  C   UNL A   1      43.750  19.063  25.659  1.00  0.00     0.118 C 
BRANCH  22  23
ATOM     23  N   UNL A   1      42.309  18.980  25.480  1.00  0.00    -0.352 N 
ATOM     24  C   UNL A   1      41.313  19.803  25.943  1.00  0.00     0.251 C 
ATOM     25  H   UNL A   1      42.001  18.216  24.942  1.00  0.00     0.163 HD
ATOM     26  O   UNL A   1      40.139  19.456  25.825  1.00  0.00    -0.269 OA
BRANCH  24  27
ATOM     27  C   UNL A   1      41.632  21.089  26.602  1.00  0.00     0.039 A 
ATOM     28  C   UNL A   1      41.947  22.191  25.800  1.00  0.00     0.014 A 
ATOM     29  C   UNL A   1      41.664  21.209  27.994  1.00  0.00     0.014 A 
ATOM     30  C   UNL A   1      42.232  23.424  26.390  1.00  0.00     0.010 A 
ATOM     31  C   UNL A   1      41.887  22.456  28.580  1.00  0.00     0.010 A 
ATOM     32  C   UNL A   1      42.172  23.575  27.784  1.00  0.00    -0.014 A 
BRANCH  32  33
ATOM     33  C   UNL A   1      42.393  24.898  28.422  1.00  0.00     0.031 A 
ATOM     34  C   UNL A   1      43.710  25.223  29.071  1.00  0.00     0.074 A 
ATOM     35  C   UNL A   1      41.384  25.789  28.471  1.00  0.00     0.049 A 
ATOM     36  N   UNL A   1      44.062  26.300  29.729  1.00  0.00    -0.248 NA
ATOM     37  C   UNL A   1      44.763  24.198  28.988  1.00  0.00     0.031 C 
ATOM     38  C   UNL A   1      40.046  25.587  27.910  1.00  0.00     0.029 A 
ATOM     39  N   UNL A   1      41.325  27.043  29.026  1.00  0.00    -0.354 N 
ATOM     40  C   UNL A   1      45.366  26.074  30.153  1.00  0.00     0.074 A 
ATOM     41  C   UNL A   1      45.730  24.746  29.710  1.00  0.00     0.031 C 
ATOM     42  C   UNL A   1      39.305  26.686  28.132  1.00  0.00     0.029 A 
ATOM     43  C   UNL A   1      40.101  27.652  28.882  1.00  0.00     0.049 A 
ATOM     44  H   UNL A   1      42.086  27.466  29.485  1.00  0.00     0.167 HD
ATOM     45  C   UNL A   1      46.190  26.903  30.837  1.00  0.00     0.031 A 
ATOM     46  C   UNL A   1      39.665  28.851  29.311  1.00  0.00     0.031 A 
ATOM     47  C   UNL A   1      45.839  28.231  31.265  1.00  0.00     0.049 A 
ATOM     48  C   UNL A   1      40.598  29.747  30.074  1.00  0.00     0.074 A 
ATOM     49  C   UNL A   1      46.629  29.165  31.913  1.00  0.00     0.029 A 
ATOM     50  N   UNL A   1      44.594  28.813  31.089  1.00  0.00    -0.354 N 
ATOM     51  N   UNL A   1      41.848  29.542  30.413  1.00  0.00    -0.248 NA
ATOM     52  C   UNL A   1      40.062  31.046  30.505  1.00  0.00     0.031 C 
ATOM     53  C   UNL A   1      45.849  30.298  32.166  1.00  0.00     0.029 A 
ATOM     54  C   UNL A   1      44.589  30.086  31.634  1.00  0.00     0.049 A 
ATOM     55  H   UNL A   1      43.828  28.385  30.643  1.00  0.00     0.167 HD
ATOM     56  C   UNL A   1      42.254  30.694  31.072  1.00  0.00     0.074 A 
ATOM     57  C   UNL A   1      41.124  31.599  31.075  1.00  0.00     0.031 C 
ATOM     58  C   UNL A   1      43.458  30.976  31.627  1.00  0.00     0.031 A 
BRANCH  45  59
ATOM     59  C   UNL A   1      47.563  26.393  31.173  1.00  0.00    -0.014 A 
ATOM     60  C   UNL A   1      48.634  26.551  30.279  1.00  0.00     0.009 A 
ATOM     61  C   UNL A   1      47.800  25.792  32.418  1.00  0.00     0.009 A 
ATOM     62  C   UNL A   1      49.909  26.090  30.616  1.00  0.00     0.001 A 
ATOM     63  C   UNL A   1      49.080  25.355  32.763  1.00  0.00     0.001 A 
ATOM     64  C   UNL A   1      50.132  25.498  31.858  1.00  0.00     0.000 A 
ENDBRANCH  45  59
BRANCH  46  65
ATOM     65  C   UNL A   1      38.273  29.284  29.022  1.00  0.00    -0.014 A 
ATOM     66  C   UNL A   1      37.925  29.747  27.744  1.00  0.00     0.009 A 
ATOM     67  C   UNL A   1      37.293  29.252  30.025  1.00  0.00     0.009 A 
ATOM     68  C   UNL A   1      36.627  30.193  27.483  1.00  0.00     0.001 A 
ATOM     69  C   UNL A   1      35.989  29.674  29.754  1.00  0.00     0.001 A 
ATOM     70  C   UNL A   1      35.660  30.153  28.487  1.00  0.00     0.000 A 
ENDBRANCH  46  65
BRANCH  58  71
ATOM     71  C   UNL A   1      43.624  32.332  32.251  1.00  0.00    -0.014 A 
ATOM     72  C   UNL A   1      43.372  32.539  33.615  1.00  0.00     0.009 A 
ATOM     73  C   UNL A   1      44.073  33.407  31.468  1.00  0.00     0.009 A 
ATOM     74  C   UNL A   1      43.539  33.808  34.177  1.00  0.00     0.001 A 
ATOM     75  C   UNL A   1      44.261  34.666  32.036  1.00  0.00     0.001 A 
ATOM     76  C   UNL A   1      43.986  34.868  33.388  1.00  0.00     0.000 A 
ENDBRANCH  58  71
ENDBRANCH  32  33
ENDBRANCH  24  27
ENDBRANCH  22  23
ENDBRANCH  21  22
ENDBRANCH   1  21
TORSDOF 13
ENDMDL
