MODEL 1
REMARK VINA RESULT:     -10.6      0.000      0.000
REMARK SMILES CCC[NH2+][C@]1(C(=O)NCCCNC(=O)c2ccc(-c3c4nc(c(-c5ccccc5)c5ccc([nH]5)c(-c5ccccc5)c5nc(c(-c6ccccc6)c6ccc3[nH]6)C=C5)C=C4)cc2)CC[C@H](n2nc(C)c(CC)c2C)C1
REMARK SMILES IDX 9 1 8 2 6 3 7 4 5 6 63 7 75 8 64 9 65 10 4 11 3 14 2 15 1 16
REMARK SMILES IDX 66 17 67 18 73 19 68 20 70 21 74 22 69 23 71 24 72 25 10 26
REMARK SMILES IDX 11 27 12 28 13 29 14 31 15 32 16 33 62 34 17 35 61 36 18 37
REMARK SMILES IDX 19 38 20 39 55 40 21 41 60 42 54 43 56 44 22 45 59 46 53 47
REMARK SMILES IDX 52 48 23 50 45 51 30 52 44 53 31 54 34 55 43 56 57 57 32 58
REMARK SMILES IDX 33 59 42 61 58 62 35 63 24 64 25 65 29 66 26 67 28 68 27 69
REMARK SMILES IDX 46 70 47 71 51 72 48 73 50 74 49 75 36 76 37 77 41 78 38 79
REMARK SMILES IDX 40 80 39 81
REMARK H PARENT 8 5 4 12 4 13 12 30 56 49 34 60
REMARK Flexibility Score: inf
ROOT
ATOM      1  C   UNL A   1      36.265  20.293  24.987  1.00  0.00     0.118 C 
ENDROOT
BRANCH   1   2
ATOM      2  N   UNL A   1      35.950  21.139  26.119  1.00  0.00    -0.351 N 
ATOM      3  C   UNL A   1      34.763  21.789  26.381  1.00  0.00     0.281 C 
ATOM      4  O   UNL A   1      34.562  22.117  27.554  1.00  0.00    -0.268 OA
ATOM      5  H   UNL A   1      36.669  21.266  26.779  1.00  0.00     0.163 HD
BRANCH   3   6
ATOM      6  C   UNL A   1      33.817  22.254  25.237  1.00  0.00     0.177 C 
ATOM      7  C   UNL A   1      33.281  21.155  24.305  1.00  0.00     0.081 C 
ATOM      8  C   UNL A   1      32.472  22.599  25.921  1.00  0.00     0.106 C 
ATOM      9  C   UNL A   1      32.005  21.786  23.708  1.00  0.00     0.034 C 
ATOM     10  C   UNL A   1      31.471  22.785  24.785  1.00  0.00     0.114 C 
BRANCH   6  11
ATOM     11  N   UNL A   1      34.341  23.322  24.367  1.00  0.00    -0.334 N 
ATOM     12  H   UNL A   1      34.987  22.884  23.711  1.00  0.00     0.347 HD
ATOM     13  H   UNL A   1      33.505  23.745  23.965  1.00  0.00     0.347 HD
BRANCH  11  14
ATOM     14  C   UNL A   1      35.042  24.438  24.976  1.00  0.00     0.261 C 
BRANCH  14  15
ATOM     15  C   UNL A   1      34.329  25.776  24.707  1.00  0.00     0.058 C 
ATOM     16  C   UNL A   1      33.813  26.504  25.944  1.00  0.00     0.010 C 
ENDBRANCH  14  15
ENDBRANCH  11  14
ENDBRANCH   6  11
BRANCH  10  17
ATOM     17  N   UNL A   1      31.241  24.137  24.275  1.00  0.00    -0.266 N 
ATOM     18  N   UNL A   1      31.646  24.342  22.997  1.00  0.00    -0.178 NA
ATOM     19  C   UNL A   1      30.566  25.241  24.775  1.00  0.00     0.039 A 
ATOM     20  C   UNL A   1      31.324  25.605  22.718  1.00  0.00     0.063 A 
ATOM     21  C   UNL A   1      30.667  26.227  23.801  1.00  0.00    -0.004 A 
ATOM     22  C   UNL A   1      29.827  25.378  26.057  1.00  0.00     0.066 C 
ATOM     23  C   UNL A   1      31.645  26.167  21.384  1.00  0.00     0.069 C 
BRANCH  21  24
ATOM     24  C   UNL A   1      30.151  27.628  23.873  1.00  0.00     0.036 C 
ATOM     25  C   UNL A   1      31.191  28.595  24.422  1.00  0.00     0.009 C 
ENDBRANCH  21  24
ENDBRANCH  10  17
ENDBRANCH   3   6
ENDBRANCH   1   2
BRANCH   1  26
ATOM     26  C   UNL A   1      37.732  20.110  24.663  1.00  0.00     0.042 C 
BRANCH  26  27
ATOM     27  C   UNL A   1      38.656  20.298  25.852  1.00  0.00     0.118 C 
BRANCH  27  28
ATOM     28  N   UNL A   1      39.825  19.422  25.831  1.00  0.00    -0.352 N 
ATOM     29  C   UNL A   1      41.159  19.632  26.099  1.00  0.00     0.251 C 
ATOM     30  H   UNL A   1      39.616  18.494  25.576  1.00  0.00     0.163 HD
ATOM     31  O   UNL A   1      41.957  18.731  25.879  1.00  0.00    -0.269 OA
BRANCH  29  32
ATOM     32  C   UNL A   1      41.655  20.934  26.606  1.00  0.00     0.039 A 
ATOM     33  C   UNL A   1      42.029  21.924  25.688  1.00  0.00     0.014 A 
ATOM     34  C   UNL A   1      41.776  21.193  27.968  1.00  0.00     0.014 A 
ATOM     35  C   UNL A   1      42.415  23.190  26.140  1.00  0.00     0.010 A 
ATOM     36  C   UNL A   1      42.022  22.487  28.413  1.00  0.00     0.010 A 
ATOM     37  C   UNL A   1      42.354  23.502  27.506  1.00  0.00    -0.014 A 
BRANCH  37  38
ATOM     38  C   UNL A   1      42.641  24.867  28.022  1.00  0.00     0.031 A 
ATOM     39  C   UNL A   1      44.035  25.231  28.465  1.00  0.00     0.074 A 
ATOM     40  C   UNL A   1      41.633  25.746  28.191  1.00  0.00     0.049 A 
ATOM     41  N   UNL A   1      44.457  26.317  29.064  1.00  0.00    -0.248 NA
ATOM     42  C   UNL A   1      45.088  24.223  28.245  1.00  0.00     0.031 C 
ATOM     43  C   UNL A   1      40.226  25.505  27.862  1.00  0.00     0.029 A 
ATOM     44  N   UNL A   1      41.639  27.023  28.696  1.00  0.00    -0.354 N 
ATOM     45  C   UNL A   1      45.805  26.102  29.328  1.00  0.00     0.074 A 
ATOM     46  C   UNL A   1      46.118  24.765  28.877  1.00  0.00     0.031 C 
ATOM     47  C   UNL A   1      39.514  26.610  28.135  1.00  0.00     0.029 A 
ATOM     48  C   UNL A   1      40.400  27.618  28.704  1.00  0.00     0.049 A 
ATOM     49  H   UNL A   1      42.453  27.470  29.022  1.00  0.00     0.167 HD
ATOM     50  C   UNL A   1      46.711  26.949  29.871  1.00  0.00     0.031 A 
ATOM     51  C   UNL A   1      40.018  28.838  29.126  1.00  0.00     0.031 A 
ATOM     52  C   UNL A   1      46.414  28.295  30.277  1.00  0.00     0.049 A 
ATOM     53  C   UNL A   1      41.047  29.771  29.701  1.00  0.00     0.074 A 
ATOM     54  C   UNL A   1      47.278  29.261  30.763  1.00  0.00     0.029 A 
ATOM     55  N   UNL A   1      45.153  28.870  30.234  1.00  0.00    -0.354 N 
ATOM     56  N   UNL A   1      42.330  29.575  29.882  1.00  0.00    -0.248 NA
ATOM     57  C   UNL A   1      40.573  31.097  30.119  1.00  0.00     0.031 C 
ATOM     58  C   UNL A   1      46.531  30.407  31.055  1.00  0.00     0.029 A 
ATOM     59  C   UNL A   1      45.212  30.171  30.703  1.00  0.00     0.049 A 
ATOM     60  H   UNL A   1      44.337  28.419  29.918  1.00  0.00     0.167 HD
ATOM     61  C   UNL A   1      42.821  30.760  30.412  1.00  0.00     0.074 A 
ATOM     62  C   UNL A   1      41.702  31.674  30.505  1.00  0.00     0.031 C 
ATOM     63  C   UNL A   1      44.087  31.064  30.789  1.00  0.00     0.031 A 
BRANCH  50  64
ATOM     64  C   UNL A   1      48.116  26.439  30.048  1.00  0.00    -0.014 A 
ATOM     65  C   UNL A   1      48.514  25.797  31.232  1.00  0.00     0.009 A 
ATOM     66  C   UNL A   1      49.048  26.584  29.008  1.00  0.00     0.009 A 
ATOM     67  C   UNL A   1      49.828  25.352  31.389  1.00  0.00     0.001 A 
ATOM     68  C   UNL A   1      50.353  26.109  29.156  1.00  0.00     0.001 A 
ATOM     69  C   UNL A   1      50.745  25.504  30.350  1.00  0.00     0.000 A 
ENDBRANCH  50  64
BRANCH  51  70
ATOM     70  C   UNL A   1      38.599  29.261  28.999  1.00  0.00    -0.014 A 
ATOM     71  C   UNL A   1      37.736  29.183  30.103  1.00  0.00     0.009 A 
ATOM     72  C   UNL A   1      38.099  29.741  27.778  1.00  0.00     0.009 A 
ATOM     73  C   UNL A   1      36.394  29.551  29.980  1.00  0.00     0.001 A 
ATOM     74  C   UNL A   1      36.763  30.135  27.667  1.00  0.00     0.001 A 
ATOM     75  C   UNL A   1      35.910  30.031  28.764  1.00  0.00     0.000 A 
ENDBRANCH  51  70
BRANCH  63  76
ATOM     76  C   UNL A   1      44.331  32.452  31.308  1.00  0.00    -0.014 A 
ATOM     77  C   UNL A   1      44.653  33.507  30.442  1.00  0.00     0.009 A 
ATOM     78  C   UNL A   1      44.199  32.712  32.681  1.00  0.00     0.009 A 
ATOM     79  C   UNL A   1      44.872  34.791  30.945  1.00  0.00     0.001 A 
ATOM     80  C   UNL A   1      44.389  34.002  33.177  1.00  0.00     0.001 A 
ATOM     81  C   UNL A   1      44.734  35.038  32.310  1.00  0.00     0.000 A 
ENDBRANCH  63  76
ENDBRANCH  37  38
ENDBRANCH  29  32
ENDBRANCH  27  28
ENDBRANCH  26  27
ENDBRANCH   1  26
TORSDOF 15
ENDMDL
MODEL 2
REMARK VINA RESULT:     -10.4      2.514      7.526
REMARK SMILES CCC[NH2+][C@]1(C(=O)NCCCNC(=O)c2ccc(-c3c4nc(c(-c5ccccc5)c5ccc([nH]5)c(-c5ccccc5)c5nc(c(-c6ccccc6)c6ccc3[nH]6)C=C5)C=C4)cc2)CC[C@H](n2nc(C)c(CC)c2C)C1
REMARK SMILES IDX 9 1 8 2 6 3 7 4 5 6 63 7 75 8 64 9 65 10 4 11 3 14 2 15 1 16
REMARK SMILES IDX 66 17 67 18 73 19 68 20 70 21 74 22 69 23 71 24 72 25 10 26
REMARK SMILES IDX 11 27 12 28 13 29 14 31 15 32 16 33 62 34 17 35 61 36 18 37
REMARK SMILES IDX 19 38 20 39 55 40 21 41 60 42 54 43 56 44 22 45 59 46 53 47
REMARK SMILES IDX 52 48 23 50 45 51 30 52 44 53 31 54 34 55 43 56 57 57 32 58
REMARK SMILES IDX 33 59 42 61 58 62 35 63 24 64 25 65 29 66 26 67 28 68 27 69
REMARK SMILES IDX 46 70 47 71 51 72 48 73 50 74 49 75 36 76 37 77 41 78 38 79
REMARK SMILES IDX 40 80 39 81
REMARK H PARENT 8 5 4 12 4 13 12 30 56 49 34 60
REMARK Flexibility Score: inf
ROOT
ATOM      1  C   UNL A   1      32.233  28.133  25.071  1.00  0.00     0.118 C 
ENDROOT
BRANCH   1   2
ATOM      2  N   UNL A   1      31.611  28.511  23.820  1.00  0.00    -0.351 N 
ATOM      3  C   UNL A   1      31.105  27.678  22.846  1.00  0.00     0.281 C 
ATOM      4  O   UNL A   1      30.280  28.173  22.071  1.00  0.00    -0.268 OA
ATOM      5  H   UNL A   1      31.542  29.477  23.643  1.00  0.00     0.163 HD
BRANCH   3   6
ATOM      6  C   UNL A   1      31.678  26.251  22.612  1.00  0.00     0.177 C 
ATOM      7  C   UNL A   1      32.012  25.879  21.157  1.00  0.00     0.081 C 
ATOM      8  C   UNL A   1      33.133  26.292  23.139  1.00  0.00     0.106 C 
ATOM      9  C   UNL A   1      33.039  24.736  21.309  1.00  0.00     0.034 C 
ATOM     10  C   UNL A   1      33.778  24.995  22.662  1.00  0.00     0.114 C 
BRANCH   6  11
ATOM     11  N   UNL A   1      30.873  25.140  23.153  1.00  0.00    -0.334 N 
ATOM     12  H   UNL A   1      30.143  24.939  22.471  1.00  0.00     0.347 HD
ATOM     13  H   UNL A   1      31.554  24.400  23.319  1.00  0.00     0.347 HD
BRANCH  11  14
ATOM     14  C   UNL A   1      30.221  25.313  24.439  1.00  0.00     0.261 C 
BRANCH  14  15
ATOM     15  C   UNL A   1      30.731  24.300  25.479  1.00  0.00     0.058 C 
ATOM     16  C   UNL A   1      31.699  24.857  26.517  1.00  0.00     0.010 C 
ENDBRANCH  14  15
ENDBRANCH  11  14
ENDBRANCH   6  11
BRANCH  10  17
ATOM     17  N   UNL A   1      33.777  23.844  23.566  1.00  0.00    -0.266 N 
ATOM     18  N   UNL A   1      33.030  22.792  23.150  1.00  0.00    -0.178 NA
ATOM     19  C   UNL A   1      34.492  23.536  24.714  1.00  0.00     0.039 A 
ATOM     20  C   UNL A   1      33.186  21.853  24.083  1.00  0.00     0.063 A 
ATOM     21  C   UNL A   1      34.070  22.269  25.101  1.00  0.00    -0.004 A 
ATOM     22  C   UNL A   1      35.540  24.334  25.401  1.00  0.00     0.066 C 
ATOM     23  C   UNL A   1      32.481  20.555  23.943  1.00  0.00     0.069 C 
BRANCH  21  24
ATOM     24  C   UNL A   1      34.499  21.501  26.309  1.00  0.00     0.036 C 
ATOM     25  C   UNL A   1      33.748  21.936  27.560  1.00  0.00     0.009 C 
ENDBRANCH  21  24
ENDBRANCH  10  17
ENDBRANCH   3   6
ENDBRANCH   1   2
BRANCH   1  26
ATOM     26  C   UNL A   1      33.226  29.112  25.659  1.00  0.00     0.042 C 
BRANCH  26  27
ATOM     27  C   UNL A   1      33.321  29.063  27.172  1.00  0.00     0.118 C 
BRANCH  27  28
ATOM     28  N   UNL A   1      33.496  30.375  27.793  1.00  0.00    -0.352 N 
ATOM     29  C   UNL A   1      34.542  30.959  28.472  1.00  0.00     0.251 C 
ATOM     30  H   UNL A   1      32.707  30.958  27.707  1.00  0.00     0.163 HD
ATOM     31  O   UNL A   1      34.368  32.048  29.004  1.00  0.00    -0.269 OA
BRANCH  29  32
ATOM     32  C   UNL A   1      35.854  30.283  28.611  1.00  0.00     0.039 A 
ATOM     33  C   UNL A   1      36.739  30.288  27.525  1.00  0.00     0.014 A 
ATOM     34  C   UNL A   1      36.222  29.627  29.782  1.00  0.00     0.014 A 
ATOM     35  C   UNL A   1      38.016  29.734  27.660  1.00  0.00     0.010 A 
ATOM     36  C   UNL A   1      37.533  29.205  29.963  1.00  0.00     0.010 A 
ATOM     37  C   UNL A   1      38.447  29.243  28.902  1.00  0.00    -0.014 A 
BRANCH  37  38
ATOM     38  C   UNL A   1      39.834  28.754  29.124  1.00  0.00     0.031 A 
ATOM     39  C   UNL A   1      40.879  29.678  29.698  1.00  0.00     0.074 A 
ATOM     40  C   UNL A   1      40.183  27.517  28.719  1.00  0.00     0.049 A 
ATOM     41  N   UNL A   1      42.166  29.484  29.842  1.00  0.00    -0.248 NA
ATOM     42  C   UNL A   1      40.425  31.013  30.124  1.00  0.00     0.031 C 
ATOM     43  C   UNL A   1      39.288  26.540  28.094  1.00  0.00     0.029 A 
ATOM     44  N   UNL A   1      41.395  26.873  28.763  1.00  0.00    -0.354 N 
ATOM     45  C   UNL A   1      42.675  30.681  30.332  1.00  0.00     0.074 A 
ATOM     46  C   UNL A   1      41.572  31.612  30.407  1.00  0.00     0.031 C 
ATOM     47  C   UNL A   1      39.971  25.409  27.851  1.00  0.00     0.029 A 
ATOM     48  C   UNL A   1      41.359  25.597  28.255  1.00  0.00     0.049 A 
ATOM     49  H   UNL A   1      42.212  27.287  29.124  1.00  0.00     0.167 HD
ATOM     50  C   UNL A   1      43.941  30.975  30.714  1.00  0.00     0.031 A 
ATOM     51  C   UNL A   1      42.336  24.679  28.124  1.00  0.00     0.031 A 
ATOM     52  C   UNL A   1      45.029  30.038  30.684  1.00  0.00     0.049 A 
ATOM     53  C   UNL A   1      43.728  25.019  28.579  1.00  0.00     0.074 A 
ATOM     54  C   UNL A   1      46.330  30.212  31.124  1.00  0.00     0.029 A 
ATOM     55  N   UNL A   1      44.941  28.744  30.195  1.00  0.00    -0.354 N 
ATOM     56  N   UNL A   1      44.176  26.135  29.101  1.00  0.00    -0.248 NA
ATOM     57  C   UNL A   1      44.743  23.968  28.434  1.00  0.00     0.031 C 
ATOM     58  C   UNL A   1      47.040  29.036  30.861  1.00  0.00     0.029 A 
ATOM     59  C   UNL A   1      46.169  28.114  30.304  1.00  0.00     0.049 A 
ATOM     60  H   UNL A   1      44.126  28.335  29.825  1.00  0.00     0.167 HD
ATOM     61  C   UNL A   1      45.519  25.911  29.370  1.00  0.00     0.074 A 
ATOM     62  C   UNL A   1      45.807  24.549  28.971  1.00  0.00     0.031 C 
ATOM     63  C   UNL A   1      46.435  26.759  29.900  1.00  0.00     0.031 A 
BRANCH  50  64
ATOM     64  C   UNL A   1      44.208  32.372  31.204  1.00  0.00    -0.014 A 
ATOM     65  C   UNL A   1      44.086  32.704  32.563  1.00  0.00     0.009 A 
ATOM     66  C   UNL A   1      44.609  33.366  30.296  1.00  0.00     0.009 A 
ATOM     67  C   UNL A   1      44.315  34.012  32.996  1.00  0.00     0.001 A 
ATOM     68  C   UNL A   1      44.866  34.666  30.738  1.00  0.00     0.001 A 
ATOM     69  C   UNL A   1      44.709  34.990  32.084  1.00  0.00     0.000 A 
ENDBRANCH  50  64
BRANCH  51  70
ATOM     70  C   UNL A   1      42.030  23.339  27.559  1.00  0.00    -0.014 A 
ATOM     71  C   UNL A   1      42.296  23.063  26.209  1.00  0.00     0.009 A 
ATOM     72  C   UNL A   1      41.470  22.332  28.361  1.00  0.00     0.009 A 
ATOM     73  C   UNL A   1      41.983  21.815  25.666  1.00  0.00     0.001 A 
ATOM     74  C   UNL A   1      41.185  21.075  27.822  1.00  0.00     0.001 A 
ATOM     75  C   UNL A   1      41.432  20.820  26.474  1.00  0.00     0.000 A 
ENDBRANCH  51  70
BRANCH  63  76
ATOM     76  C   UNL A   1      47.824  26.225  30.105  1.00  0.00    -0.014 A 
ATOM     77  C   UNL A   1      48.277  25.845  31.376  1.00  0.00     0.009 A 
ATOM     78  C   UNL A   1      48.675  26.067  29.000  1.00  0.00     0.009 A 
ATOM     79  C   UNL A   1      49.570  25.346  31.544  1.00  0.00     0.001 A 
ATOM     80  C   UNL A   1      49.957  25.542  29.166  1.00  0.00     0.001 A 
ATOM     81  C   UNL A   1      50.406  25.190  30.438  1.00  0.00     0.000 A 
ENDBRANCH  63  76
ENDBRANCH  37  38
ENDBRANCH  29  32
ENDBRANCH  27  28
ENDBRANCH  26  27
ENDBRANCH   1  26
TORSDOF 15
ENDMDL
MODEL 3
REMARK VINA RESULT:     -10.2      2.347      7.487
REMARK SMILES CCC[NH2+][C@]1(C(=O)NCCCNC(=O)c2ccc(-c3c4nc(c(-c5ccccc5)c5ccc([nH]5)c(-c5ccccc5)c5nc(c(-c6ccccc6)c6ccc3[nH]6)C=C5)C=C4)cc2)CC[C@H](n2nc(C)c(CC)c2C)C1
REMARK SMILES IDX 9 1 8 2 6 3 7 4 5 6 63 7 75 8 64 9 65 10 4 11 3 14 2 15 1 16
REMARK SMILES IDX 66 17 67 18 73 19 68 20 70 21 74 22 69 23 71 24 72 25 10 26
REMARK SMILES IDX 11 27 12 28 13 29 14 31 15 32 16 33 62 34 17 35 61 36 18 37
REMARK SMILES IDX 19 38 20 39 55 40 21 41 60 42 54 43 56 44 22 45 59 46 53 47
REMARK SMILES IDX 52 48 23 50 45 51 30 52 44 53 31 54 34 55 43 56 57 57 32 58
REMARK SMILES IDX 33 59 42 61 58 62 35 63 24 64 25 65 29 66 26 67 28 68 27 69
REMARK SMILES IDX 46 70 47 71 51 72 48 73 50 74 49 75 36 76 37 77 41 78 38 79
REMARK SMILES IDX 40 80 39 81
REMARK H PARENT 8 5 4 12 4 13 12 30 56 49 34 60
REMARK Flexibility Score: inf
ROOT
ATOM      1  C   UNL A   1      33.034  27.931  24.903  1.00  0.00     0.118 C 
ENDROOT
BRANCH   1   2
ATOM      2  N   UNL A   1      32.164  27.826  23.751  1.00  0.00    -0.351 N 
ATOM      3  C   UNL A   1      31.398  26.745  23.369  1.00  0.00     0.281 C 
ATOM      4  O   UNL A   1      30.448  26.981  22.617  1.00  0.00    -0.268 OA
ATOM      5  H   UNL A   1      32.113  28.620  23.171  1.00  0.00     0.163 HD
BRANCH   3   6
ATOM      6  C   UNL A   1      31.817  25.286  23.709  1.00  0.00     0.177 C 
ATOM      7  C   UNL A   1      30.924  24.170  23.141  1.00  0.00     0.081 C 
ATOM      8  C   UNL A   1      33.065  24.996  22.840  1.00  0.00     0.106 C 
ATOM      9  C   UNL A   1      31.856  22.939  23.135  1.00  0.00     0.034 C 
ATOM     10  C   UNL A   1      33.307  23.495  22.961  1.00  0.00     0.114 C 
BRANCH   6  11
ATOM     11  N   UNL A   1      31.998  24.989  25.142  1.00  0.00    -0.334 N 
ATOM     12  H   UNL A   1      32.545  24.131  25.202  1.00  0.00     0.347 HD
ATOM     13  H   UNL A   1      32.434  25.831  25.515  1.00  0.00     0.347 HD
BRANCH  11  14
ATOM     14  C   UNL A   1      30.820  24.805  25.970  1.00  0.00     0.261 C 
BRANCH  14  15
ATOM     15  C   UNL A   1      30.863  23.470  26.735  1.00  0.00     0.058 C 
ATOM     16  C   UNL A   1      29.508  22.919  27.170  1.00  0.00     0.010 C 
ENDBRANCH  14  15
ENDBRANCH  11  14
ENDBRANCH   6  11
BRANCH  10  17
ATOM     17  N   UNL A   1      34.246  23.021  23.978  1.00  0.00    -0.266 N 
ATOM     18  N   UNL A   1      33.674  22.603  25.134  1.00  0.00    -0.178 NA
ATOM     19  C   UNL A   1      35.612  22.777  23.972  1.00  0.00     0.039 A 
ATOM     20  C   UNL A   1      34.682  22.189  25.903  1.00  0.00     0.063 A 
ATOM     21  C   UNL A   1      35.923  22.297  25.239  1.00  0.00    -0.004 A 
ATOM     22  C   UNL A   1      36.580  22.929  22.855  1.00  0.00     0.066 C 
ATOM     23  C   UNL A   1      34.403  21.673  27.265  1.00  0.00     0.069 C 
BRANCH  21  24
ATOM     24  C   UNL A   1      37.274  21.933  25.764  1.00  0.00     0.036 C 
ATOM     25  C   UNL A   1      38.113  23.161  26.087  1.00  0.00     0.009 C 
ENDBRANCH  21  24
ENDBRANCH  10  17
ENDBRANCH   3   6
ENDBRANCH   1   2
BRANCH   1  26
ATOM     26  C   UNL A   1      32.414  28.466  26.176  1.00  0.00     0.042 C 
BRANCH  26  27
ATOM     27  C   UNL A   1      33.402  28.659  27.311  1.00  0.00     0.118 C 
BRANCH  27  28
ATOM     28  N   UNL A   1      33.524  30.046  27.754  1.00  0.00    -0.352 N 
ATOM     29  C   UNL A   1      34.562  30.769  28.300  1.00  0.00     0.251 C 
ATOM     30  H   UNL A   1      32.698  30.569  27.639  1.00  0.00     0.163 HD
ATOM     31  O   UNL A   1      34.346  31.905  28.701  1.00  0.00    -0.269 OA
BRANCH  29  32
ATOM     32  C   UNL A   1      35.918  30.189  28.450  1.00  0.00     0.039 A 
ATOM     33  C   UNL A   1      36.808  30.253  27.371  1.00  0.00     0.014 A 
ATOM     34  C   UNL A   1      36.324  29.567  29.627  1.00  0.00     0.014 A 
ATOM     35  C   UNL A   1      38.121  29.793  27.518  1.00  0.00     0.010 A 
ATOM     36  C   UNL A   1      37.661  29.242  29.820  1.00  0.00     0.010 A 
ATOM     37  C   UNL A   1      38.578  29.341  28.765  1.00  0.00    -0.014 A 
BRANCH  37  38
ATOM     38  C   UNL A   1      39.994  28.954  28.999  1.00  0.00     0.031 A 
ATOM     39  C   UNL A   1      40.484  27.589  28.587  1.00  0.00     0.074 A 
ATOM     40  C   UNL A   1      40.814  29.784  29.674  1.00  0.00     0.049 A 
ATOM     41  N   UNL A   1      41.638  27.017  28.823  1.00  0.00    -0.248 NA
ATOM     42  C   UNL A   1      39.536  26.736  27.849  1.00  0.00     0.031 C 
ATOM     43  C   UNL A   1      40.454  31.109  30.185  1.00  0.00     0.029 A 
ATOM     44  N   UNL A   1      42.123  29.628  30.057  1.00  0.00    -0.354 N 
ATOM     45  C   UNL A   1      41.535  25.732  28.303  1.00  0.00     0.074 A 
ATOM     46  C   UNL A   1      40.192  25.588  27.790  1.00  0.00     0.031 C 
ATOM     47  C   UNL A   1      41.527  31.660  30.777  1.00  0.00     0.029 A 
ATOM     48  C   UNL A   1      42.633  30.711  30.733  1.00  0.00     0.049 A 
ATOM     49  H   UNL A   1      42.648  28.817  29.866  1.00  0.00     0.167 HD
ATOM     50  C   UNL A   1      42.481  24.765  28.231  1.00  0.00     0.031 A 
ATOM     51  C   UNL A   1      43.853  30.917  31.263  1.00  0.00     0.031 A 
ATOM     52  C   UNL A   1      43.831  24.922  28.697  1.00  0.00     0.049 A 
ATOM     53  C   UNL A   1      44.894  29.839  31.147  1.00  0.00     0.074 A 
ATOM     54  C   UNL A   1      44.887  24.032  28.598  1.00  0.00     0.029 A 
ATOM     55  N   UNL A   1      44.314  26.049  29.344  1.00  0.00    -0.354 N 
ATOM     56  N   UNL A   1      44.799  28.655  30.593  1.00  0.00    -0.248 NA
ATOM     57  C   UNL A   1      46.214  30.133  31.722  1.00  0.00     0.031 C 
ATOM     58  C   UNL A   1      45.999  24.604  29.224  1.00  0.00     0.029 A 
ATOM     59  C   UNL A   1      45.648  25.870  29.667  1.00  0.00     0.049 A 
ATOM     60  H   UNL A   1      43.787  26.855  29.544  1.00  0.00     0.167 HD
ATOM     61  C   UNL A   1      46.052  28.073  30.731  1.00  0.00     0.074 A 
ATOM     62  C   UNL A   1      46.893  29.041  31.403  1.00  0.00     0.031 C 
ATOM     63  C   UNL A   1      46.468  26.844  30.337  1.00  0.00     0.031 A 
BRANCH  50  64
ATOM     64  C   UNL A   1      42.081  23.451  27.615  1.00  0.00    -0.014 A 
ATOM     65  C   UNL A   1      41.438  22.457  28.371  1.00  0.00     0.009 A 
ATOM     66  C   UNL A   1      42.332  23.212  26.255  1.00  0.00     0.009 A 
ATOM     67  C   UNL A   1      41.096  21.235  27.789  1.00  0.00     0.001 A 
ATOM     68  C   UNL A   1      41.961  22.001  25.668  1.00  0.00     0.001 A 
ATOM     69  C   UNL A   1      41.354  21.009  26.438  1.00  0.00     0.000 A 
ENDBRANCH  50  64
BRANCH  51  70
ATOM     70  C   UNL A   1      44.169  32.206  31.931  1.00  0.00    -0.014 A 
ATOM     71  C   UNL A   1      44.687  33.279  31.188  1.00  0.00     0.009 A 
ATOM     72  C   UNL A   1      43.958  32.373  33.308  1.00  0.00     0.009 A 
ATOM     73  C   UNL A   1      45.013  34.483  31.816  1.00  0.00     0.001 A 
ATOM     74  C   UNL A   1      44.259  33.589  33.928  1.00  0.00     0.001 A 
ATOM     75  C   UNL A   1      44.795  34.638  33.184  1.00  0.00     0.000 A 
ENDBRANCH  51  70
BRANCH  63  76
ATOM     76  C   UNL A   1      47.905  26.493  30.597  1.00  0.00    -0.014 A 
ATOM     77  C   UNL A   1      48.288  25.813  31.762  1.00  0.00     0.009 A 
ATOM     78  C   UNL A   1      48.882  26.815  29.641  1.00  0.00     0.009 A 
ATOM     79  C   UNL A   1      49.629  25.492  31.982  1.00  0.00     0.001 A 
ATOM     80  C   UNL A   1      50.216  26.467  29.851  1.00  0.00     0.001 A 
ATOM     81  C   UNL A   1      50.590  25.814  31.024  1.00  0.00     0.000 A 
ENDBRANCH  63  76
ENDBRANCH  37  38
ENDBRANCH  29  32
ENDBRANCH  27  28
ENDBRANCH  26  27
ENDBRANCH   1  26
TORSDOF 15
ENDMDL
