MODEL 1
REMARK VINA RESULT:     -10.5      0.000      0.000
REMARK SMILES O=C(NCCCNC(=O)c1ccc(O)c(Br)n1)c1ccc(-c2c3nc(c(-c4ccccc4)c4ccc([nH]4)c(-c4ccccc4)c4nc(c(-c5ccccc5)c5ccc2[nH]5)C=C4)C=C3)cc1
REMARK SMILES IDX 4 1 3 2 1 3 2 4 18 6 19 7 65 8 20 9 64 10 21 11 22 12 23 13
REMARK SMILES IDX 58 14 24 15 63 16 57 17 59 18 25 19 62 20 56 21 55 22 26 24
REMARK SMILES IDX 48 25 33 26 47 27 34 28 37 29 46 30 60 31 35 32 36 33 45 35
REMARK SMILES IDX 61 36 38 37 27 38 28 39 32 40 29 41 31 42 30 43 49 44 50 45
REMARK SMILES IDX 54 46 51 47 53 48 52 49 39 50 40 51 44 52 41 53 43 54 42 55
REMARK SMILES IDX 5 56 6 57 7 58 8 59 9 61 10 62 11 63 17 64 12 65 15 66 13 67
REMARK SMILES IDX 16 68 14 69
REMARK H PARENT 3 5 59 23 37 34 7 60 14 70
REMARK Flexibility Score: inf
ROOT
ATOM      1  C   UNL A   1      38.826  20.127  25.933  1.00  0.00     0.118 C 
ENDROOT
BRANCH   1   2
ATOM      2  N   UNL A   1      40.033  19.318  25.838  1.00  0.00    -0.352 N 
ATOM      3  O   UNL A   1      42.235  18.887  25.667  1.00  0.00    -0.269 OA
ATOM      4  C   UNL A   1      41.348  19.671  25.999  1.00  0.00     0.251 C 
ATOM      5  H   UNL A   1      39.881  18.368  25.624  1.00  0.00     0.163 HD
BRANCH   4   6
ATOM      6  C   UNL A   1      41.712  20.989  26.558  1.00  0.00     0.039 A 
ATOM      7  C   UNL A   1      41.733  21.205  27.938  1.00  0.00     0.014 A 
ATOM      8  C   UNL A   1      42.100  22.009  25.682  1.00  0.00     0.014 A 
ATOM      9  C   UNL A   1      42.039  22.469  28.438  1.00  0.00     0.010 A 
ATOM     10  C   UNL A   1      42.454  23.262  26.186  1.00  0.00     0.010 A 
ATOM     11  C   UNL A   1      42.399  23.509  27.565  1.00  0.00    -0.014 A 
BRANCH  11  12
ATOM     12  C   UNL A   1      42.755  24.837  28.117  1.00  0.00     0.031 A 
ATOM     13  C   UNL A   1      44.186  25.198  28.388  1.00  0.00     0.074 A 
ATOM     14  C   UNL A   1      41.777  25.732  28.348  1.00  0.00     0.049 A 
ATOM     15  N   UNL A   1      44.677  26.339  28.801  1.00  0.00    -0.248 NA
ATOM     16  C   UNL A   1      45.195  24.150  28.170  1.00  0.00     0.031 C 
ATOM     17  C   UNL A   1      40.350  25.496  28.131  1.00  0.00     0.029 A 
ATOM     18  N   UNL A   1      41.840  27.025  28.800  1.00  0.00    -0.354 N 
ATOM     19  C   UNL A   1      46.049  26.147  28.894  1.00  0.00     0.074 A 
ATOM     20  C   UNL A   1      46.311  24.774  28.520  1.00  0.00     0.031 C 
ATOM     21  C   UNL A   1      39.674  26.618  28.420  1.00  0.00     0.029 A 
ATOM     22  C   UNL A   1      40.615  27.640  28.868  1.00  0.00     0.049 A 
ATOM     23  H   UNL A   1      42.681  27.469  29.053  1.00  0.00     0.167 HD
ATOM     24  C   UNL A   1      47.002  27.039  29.249  1.00  0.00     0.031 A 
ATOM     25  C   UNL A   1      40.281  28.889  29.245  1.00  0.00     0.031 A 
ATOM     26  C   UNL A   1      46.745  28.405  29.616  1.00  0.00     0.049 A 
ATOM     27  C   UNL A   1      41.353  29.847  29.669  1.00  0.00     0.074 A 
ATOM     28  C   UNL A   1      47.660  29.394  29.936  1.00  0.00     0.029 A 
ATOM     29  N   UNL A   1      45.486  28.972  29.724  1.00  0.00    -0.354 N 
ATOM     30  N   UNL A   1      42.650  29.665  29.703  1.00  0.00    -0.248 NA
ATOM     31  C   UNL A   1      40.918  31.182  30.108  1.00  0.00     0.031 C 
ATOM     32  C   UNL A   1      46.951  30.548  30.280  1.00  0.00     0.029 A 
ATOM     33  C   UNL A   1      45.597  30.288  30.135  1.00  0.00     0.049 A 
ATOM     34  H   UNL A   1      44.639  28.507  29.534  1.00  0.00     0.167 HD
ATOM     35  C   UNL A   1      43.188  30.860  30.158  1.00  0.00     0.074 A 
ATOM     36  C   UNL A   1      42.079  31.765  30.380  1.00  0.00     0.031 C 
ATOM     37  C   UNL A   1      44.488  31.175  30.368  1.00  0.00     0.031 A 
BRANCH  24  38
ATOM     38  C   UNL A   1      48.426  26.570  29.265  1.00  0.00    -0.014 A 
ATOM     39  C   UNL A   1      48.971  25.957  30.403  1.00  0.00     0.009 A 
ATOM     40  C   UNL A   1      49.206  26.666  28.101  1.00  0.00     0.009 A 
ATOM     41  C   UNL A   1      50.275  25.460  30.380  1.00  0.00     0.001 A 
ATOM     42  C   UNL A   1      50.502  26.153  28.076  1.00  0.00     0.001 A 
ATOM     43  C   UNL A   1      51.037  25.553  29.216  1.00  0.00     0.000 A 
ENDBRANCH  24  38
BRANCH  25  44
ATOM     44  C   UNL A   1      38.855  29.290  29.215  1.00  0.00    -0.014 A 
ATOM     45  C   UNL A   1      38.290  29.809  28.042  1.00  0.00     0.009 A 
ATOM     46  C   UNL A   1      38.036  29.079  30.336  1.00  0.00     0.009 A 
ATOM     47  C   UNL A   1      36.926  30.108  27.991  1.00  0.00     0.001 A 
ATOM     48  C   UNL A   1      36.670  29.365  30.276  1.00  0.00     0.001 A 
ATOM     49  C   UNL A   1      36.118  29.879  29.104  1.00  0.00     0.000 A 
ENDBRANCH  25  44
BRANCH  37  50
ATOM     50  C   UNL A   1      44.802  32.552  30.871  1.00  0.00    -0.014 A 
ATOM     51  C   UNL A   1      44.954  32.794  32.243  1.00  0.00     0.009 A 
ATOM     52  C   UNL A   1      45.054  33.588  29.958  1.00  0.00     0.009 A 
ATOM     53  C   UNL A   1      45.349  34.055  32.694  1.00  0.00     0.001 A 
ATOM     54  C   UNL A   1      45.466  34.842  30.412  1.00  0.00     0.001 A 
ATOM     55  C   UNL A   1      45.613  35.074  31.779  1.00  0.00     0.000 A 
ENDBRANCH  37  50
ENDBRANCH  11  12
ENDBRANCH   4   6
ENDBRANCH   1   2
BRANCH   1  56
ATOM     56  C   UNL A   1      37.810  19.781  24.849  1.00  0.00     0.042 C 
BRANCH  56  57
ATOM     57  C   UNL A   1      36.878  20.932  24.479  1.00  0.00     0.118 C 
BRANCH  57  58
ATOM     58  N   UNL A   1      36.009  21.299  25.587  1.00  0.00    -0.351 N 
ATOM     59  C   UNL A   1      34.651  21.123  25.722  1.00  0.00     0.269 C 
ATOM     60  H   UNL A   1      36.457  21.733  26.348  1.00  0.00     0.163 HD
ATOM     61  O   UNL A   1      34.057  21.702  26.629  1.00  0.00    -0.268 OA
BRANCH  59  62
ATOM     62  C   UNL A   1      33.892  20.268  24.764  1.00  0.00     0.129 A 
ATOM     63  C   UNL A   1      32.904  20.854  23.981  1.00  0.00     0.038 A 
ATOM     64  N   UNL A   1      34.199  18.945  24.732  1.00  0.00    -0.232 NA
ATOM     65  C   UNL A   1      32.217  20.049  23.076  1.00  0.00     0.051 A 
ATOM     66  C   UNL A   1      33.510  18.190  23.853  1.00  0.00     0.148 A 
ATOM     67  C   UNL A   1      32.526  18.697  23.004  1.00  0.00     0.148 A 
ATOM     68  Br  UNL A   1      33.952  16.343  23.782  1.00  0.00    -0.025 Br
BRANCH  67  69
ATOM     69  O   UNL A   1      31.844  17.944  22.094  1.00  0.00    -0.505 OA
ATOM     70  H   UNL A   1      31.971  18.088  21.177  1.00  0.00     0.293 HD
ENDBRANCH  67  69
ENDBRANCH  59  62
ENDBRANCH  57  58
ENDBRANCH  56  57
ENDBRANCH   1  56
TORSDOF 11
ENDMDL
MODEL 2
REMARK VINA RESULT:     -10.4      0.376      6.326
REMARK SMILES O=C(NCCCNC(=O)c1ccc(O)c(Br)n1)c1ccc(-c2c3nc(c(-c4ccccc4)c4ccc([nH]4)c(-c4ccccc4)c4nc(c(-c5ccccc5)c5ccc2[nH]5)C=C4)C=C3)cc1
REMARK SMILES IDX 4 1 3 2 1 3 2 4 18 6 19 7 65 8 20 9 64 10 21 11 22 12 23 13
REMARK SMILES IDX 58 14 24 15 63 16 57 17 59 18 25 19 62 20 56 21 55 22 26 24
REMARK SMILES IDX 48 25 33 26 47 27 34 28 37 29 46 30 60 31 35 32 36 33 45 35
REMARK SMILES IDX 61 36 38 37 27 38 28 39 32 40 29 41 31 42 30 43 49 44 50 45
REMARK SMILES IDX 54 46 51 47 53 48 52 49 39 50 40 51 44 52 41 53 43 54 42 55
REMARK SMILES IDX 5 56 6 57 7 58 8 59 9 61 10 62 11 63 17 64 12 65 15 66 13 67
REMARK SMILES IDX 16 68 14 69
REMARK H PARENT 3 5 59 23 37 34 7 60 14 70
REMARK Flexibility Score: inf
ROOT
ATOM      1  C   UNL A   1      38.861  20.236  25.912  1.00  0.00     0.118 C 
ENDROOT
BRANCH   1   2
ATOM      2  N   UNL A   1      40.052  19.400  25.856  1.00  0.00    -0.352 N 
ATOM      3  O   UNL A   1      42.247  18.919  25.732  1.00  0.00    -0.269 OA
ATOM      4  C   UNL A   1      41.371  19.730  26.031  1.00  0.00     0.251 C 
ATOM      5  H   UNL A   1      39.883  18.450  25.661  1.00  0.00     0.163 HD
BRANCH   4   6
ATOM      6  C   UNL A   1      41.754  21.052  26.565  1.00  0.00     0.039 A 
ATOM      7  C   UNL A   1      41.758  21.300  27.940  1.00  0.00     0.014 A 
ATOM      8  C   UNL A   1      42.176  22.044  25.673  1.00  0.00     0.014 A 
ATOM      9  C   UNL A   1      42.083  22.569  28.415  1.00  0.00     0.010 A 
ATOM     10  C   UNL A   1      42.548  23.301  26.153  1.00  0.00     0.010 A 
ATOM     11  C   UNL A   1      42.478  23.580  27.526  1.00  0.00    -0.014 A 
BRANCH  11  12
ATOM     12  C   UNL A   1      42.852  24.913  28.052  1.00  0.00     0.031 A 
ATOM     13  C   UNL A   1      41.810  25.966  28.289  1.00  0.00     0.074 A 
ATOM     14  C   UNL A   1      44.142  25.162  28.346  1.00  0.00     0.049 A 
ATOM     15  N   UNL A   1      41.954  27.157  28.811  1.00  0.00    -0.248 NA
ATOM     16  C   UNL A   1      40.431  25.646  27.888  1.00  0.00     0.031 C 
ATOM     17  C   UNL A   1      45.246  24.222  28.153  1.00  0.00     0.029 A 
ATOM     18  N   UNL A   1      44.736  26.275  28.882  1.00  0.00    -0.354 N 
ATOM     19  C   UNL A   1      40.689  27.730  28.802  1.00  0.00     0.074 A 
ATOM     20  C   UNL A   1      39.793  26.767  28.198  1.00  0.00     0.031 C 
ATOM     21  C   UNL A   1      46.380  24.786  28.596  1.00  0.00     0.029 A 
ATOM     22  C   UNL A   1      46.088  26.133  29.076  1.00  0.00     0.049 A 
ATOM     23  H   UNL A   1      44.242  27.096  29.107  1.00  0.00     0.167 HD
ATOM     24  C   UNL A   1      40.311  28.943  29.264  1.00  0.00     0.031 A 
ATOM     25  C   UNL A   1      46.994  26.989  29.584  1.00  0.00     0.031 A 
ATOM     26  C   UNL A   1      41.197  29.900  29.869  1.00  0.00     0.049 A 
ATOM     27  C   UNL A   1      46.555  28.342  30.056  1.00  0.00     0.074 A 
ATOM     28  C   UNL A   1      40.886  31.133  30.416  1.00  0.00     0.029 A 
ATOM     29  N   UNL A   1      42.567  29.738  29.995  1.00  0.00    -0.354 N 
ATOM     30  N   UNL A   1      45.347  28.847  30.086  1.00  0.00    -0.248 NA
ATOM     31  C   UNL A   1      47.600  29.243  30.563  1.00  0.00     0.031 C 
ATOM     32  C   UNL A   1      42.075  31.736  30.835  1.00  0.00     0.029 A 
ATOM     33  C   UNL A   1      43.120  30.862  30.584  1.00  0.00     0.049 A 
ATOM     34  H   UNL A   1      43.071  28.942  29.710  1.00  0.00     0.167 HD
ATOM     35  C   UNL A   1      45.483  30.121  30.621  1.00  0.00     0.074 A 
ATOM     36  C   UNL A   1      46.890  30.309  30.909  1.00  0.00     0.031 C 
ATOM     37  C   UNL A   1      44.521  31.046  30.852  1.00  0.00     0.031 A 
BRANCH  24  38
ATOM     38  C   UNL A   1      38.865  29.320  29.134  1.00  0.00    -0.014 A 
ATOM     39  C   UNL A   1      38.348  29.785  27.916  1.00  0.00     0.009 A 
ATOM     40  C   UNL A   1      37.994  29.127  30.218  1.00  0.00     0.009 A 
ATOM     41  C   UNL A   1      36.986  30.063  27.789  1.00  0.00     0.001 A 
ATOM     42  C   UNL A   1      36.631  29.390  30.083  1.00  0.00     0.001 A 
ATOM     43  C   UNL A   1      36.128  29.859  28.870  1.00  0.00     0.000 A 
ENDBRANCH  24  38
BRANCH  25  44
ATOM     44  C   UNL A   1      48.410  26.561  29.678  1.00  0.00    -0.014 A 
ATOM     45  C   UNL A   1      49.315  26.881  28.657  1.00  0.00     0.009 A 
ATOM     46  C   UNL A   1      48.876  25.900  30.826  1.00  0.00     0.009 A 
ATOM     47  C   UNL A   1      50.666  26.549  28.786  1.00  0.00     0.001 A 
ATOM     48  C   UNL A   1      50.230  25.584  30.957  1.00  0.00     0.001 A 
ATOM     49  C   UNL A   1      51.122  25.908  29.937  1.00  0.00     0.000 A 
ENDBRANCH  25  44
BRANCH  37  50
ATOM     50  C   UNL A   1      44.943  32.359  31.442  1.00  0.00    -0.014 A 
ATOM     51  C   UNL A   1      45.046  32.517  32.831  1.00  0.00     0.009 A 
ATOM     52  C   UNL A   1      45.344  33.407  30.599  1.00  0.00     0.009 A 
ATOM     53  C   UNL A   1      45.541  33.708  33.367  1.00  0.00     0.001 A 
ATOM     54  C   UNL A   1      45.854  34.589  31.139  1.00  0.00     0.001 A 
ATOM     55  C   UNL A   1      45.952  34.739  32.521  1.00  0.00     0.000 A 
ENDBRANCH  37  50
ENDBRANCH  11  12
ENDBRANCH   4   6
ENDBRANCH   1   2
BRANCH   1  56
ATOM     56  C   UNL A   1      37.808  19.814  24.891  1.00  0.00     0.042 C 
BRANCH  56  57
ATOM     57  C   UNL A   1      36.841  20.927  24.496  1.00  0.00     0.118 C 
BRANCH  57  58
ATOM     58  N   UNL A   1      35.964  21.294  25.597  1.00  0.00    -0.351 N 
ATOM     59  C   UNL A   1      34.608  21.097  25.730  1.00  0.00     0.269 C 
ATOM     60  H   UNL A   1      36.401  21.745  26.354  1.00  0.00     0.163 HD
ATOM     61  O   UNL A   1      34.002  21.678  26.628  1.00  0.00    -0.268 OA
BRANCH  59  62
ATOM     62  C   UNL A   1      33.867  20.217  24.782  1.00  0.00     0.129 A 
ATOM     63  C   UNL A   1      32.885  20.779  23.975  1.00  0.00     0.038 A 
ATOM     64  N   UNL A   1      34.182  18.896  24.782  1.00  0.00    -0.232 NA
ATOM     65  C   UNL A   1      32.214  19.951  23.079  1.00  0.00     0.051 A 
ATOM     66  C   UNL A   1      33.509  18.117  23.911  1.00  0.00     0.148 A 
ATOM     67  C   UNL A   1      32.533  18.600  23.040  1.00  0.00     0.148 A 
ATOM     68  Br  UNL A   1      33.963  16.272  23.886  1.00  0.00    -0.025 Br
BRANCH  67  69
ATOM     69  O   UNL A   1      31.867  17.822  22.137  1.00  0.00    -0.505 OA
ATOM     70  H   UNL A   1      32.259  17.034  21.820  1.00  0.00     0.293 HD
ENDBRANCH  67  69
ENDBRANCH  59  62
ENDBRANCH  57  58
ENDBRANCH  56  57
ENDBRANCH   1  56
TORSDOF 11
ENDMDL
MODEL 3
REMARK VINA RESULT:     -10.3      4.398      8.340
REMARK SMILES O=C(NCCCNC(=O)c1ccc(O)c(Br)n1)c1ccc(-c2c3nc(c(-c4ccccc4)c4ccc([nH]4)c(-c4ccccc4)c4nc(c(-c5ccccc5)c5ccc2[nH]5)C=C4)C=C3)cc1
REMARK SMILES IDX 4 1 3 2 1 3 2 4 18 6 19 7 65 8 20 9 64 10 21 11 22 12 23 13
REMARK SMILES IDX 58 14 24 15 63 16 57 17 59 18 25 19 62 20 56 21 55 22 26 24
REMARK SMILES IDX 48 25 33 26 47 27 34 28 37 29 46 30 60 31 35 32 36 33 45 35
REMARK SMILES IDX 61 36 38 37 27 38 28 39 32 40 29 41 31 42 30 43 49 44 50 45
REMARK SMILES IDX 54 46 51 47 53 48 52 49 39 50 40 51 44 52 41 53 43 54 42 55
REMARK SMILES IDX 5 56 6 57 7 58 8 59 9 61 10 62 11 63 17 64 12 65 15 66 13 67
REMARK SMILES IDX 16 68 14 69
REMARK H PARENT 3 5 59 23 37 34 7 60 14 70
REMARK Flexibility Score: inf
ROOT
ATOM      1  C   UNL A   1      33.720  28.410  27.227  1.00  0.00     0.118 C 
ENDROOT
BRANCH   1   2
ATOM      2  N   UNL A   1      33.649  29.834  27.520  1.00  0.00    -0.352 N 
ATOM      3  O   UNL A   1      34.217  31.786  28.487  1.00  0.00    -0.269 OA
ATOM      4  C   UNL A   1      34.554  30.653  28.144  1.00  0.00     0.251 C 
ATOM      5  H   UNL A   1      32.822  30.279  27.224  1.00  0.00     0.163 HD
BRANCH   4   6
ATOM      6  C   UNL A   1      35.928  30.187  28.421  1.00  0.00     0.039 A 
ATOM      7  C   UNL A   1      36.264  29.629  29.657  1.00  0.00     0.014 A 
ATOM      8  C   UNL A   1      36.882  30.254  27.399  1.00  0.00     0.014 A 
ATOM      9  C   UNL A   1      37.577  29.235  29.907  1.00  0.00     0.010 A 
ATOM     10  C   UNL A   1      38.186  29.815  27.634  1.00  0.00     0.010 A 
ATOM     11  C   UNL A   1      38.549  29.327  28.898  1.00  0.00    -0.014 A 
BRANCH  11  12
ATOM     12  C   UNL A   1      39.932  28.873  29.172  1.00  0.00     0.031 A 
ATOM     13  C   UNL A   1      40.382  27.498  28.772  1.00  0.00     0.074 A 
ATOM     14  C   UNL A   1      40.795  29.720  29.761  1.00  0.00     0.049 A 
ATOM     15  N   UNL A   1      41.574  26.966  28.871  1.00  0.00    -0.248 NA
ATOM     16  C   UNL A   1      39.369  26.604  28.189  1.00  0.00     0.031 C 
ATOM     17  C   UNL A   1      40.474  31.078  30.202  1.00  0.00     0.029 A 
ATOM     18  N   UNL A   1      42.121  29.569  30.075  1.00  0.00    -0.354 N 
ATOM     19  C   UNL A   1      41.456  25.678  28.365  1.00  0.00     0.074 A 
ATOM     20  C   UNL A   1      40.071  25.498  27.984  1.00  0.00     0.031 C 
ATOM     21  C   UNL A   1      41.583  31.648  30.699  1.00  0.00     0.029 A 
ATOM     22  C   UNL A   1      42.681  30.688  30.639  1.00  0.00     0.049 A 
ATOM     23  H   UNL A   1      42.624  28.738  29.912  1.00  0.00     0.167 HD
ATOM     24  C   UNL A   1      42.418  24.738  28.223  1.00  0.00     0.031 A 
ATOM     25  C   UNL A   1      43.938  30.921  31.061  1.00  0.00     0.031 A 
ATOM     26  C   UNL A   1      43.794  24.916  28.596  1.00  0.00     0.049 A 
ATOM     27  C   UNL A   1      44.977  29.849  30.926  1.00  0.00     0.074 A 
ATOM     28  C   UNL A   1      44.848  24.033  28.434  1.00  0.00     0.029 A 
ATOM     29  N   UNL A   1      44.307  26.045  29.214  1.00  0.00    -0.354 N 
ATOM     30  N   UNL A   1      44.860  28.655  30.399  1.00  0.00    -0.248 NA
ATOM     31  C   UNL A   1      46.320  30.153  31.442  1.00  0.00     0.031 C 
ATOM     32  C   UNL A   1      45.991  24.611  28.994  1.00  0.00     0.029 A 
ATOM     33  C   UNL A   1      45.655  25.869  29.468  1.00  0.00     0.049 A 
ATOM     34  H   UNL A   1      43.789  26.851  29.437  1.00  0.00     0.167 HD
ATOM     35  C   UNL A   1      46.112  28.068  30.512  1.00  0.00     0.074 A 
ATOM     36  C   UNL A   1      46.977  29.038  31.150  1.00  0.00     0.031 C 
ATOM     37  C   UNL A   1      46.504  26.833  30.117  1.00  0.00     0.031 A 
BRANCH  24  38
ATOM     38  C   UNL A   1      42.020  23.416  27.639  1.00  0.00    -0.014 A 
ATOM     39  C   UNL A   1      41.442  22.419  28.439  1.00  0.00     0.009 A 
ATOM     40  C   UNL A   1      42.147  23.196  26.258  1.00  0.00     0.009 A 
ATOM     41  C   UNL A   1      41.010  21.220  27.869  1.00  0.00     0.001 A 
ATOM     42  C   UNL A   1      41.700  22.004  25.689  1.00  0.00     0.001 A 
ATOM     43  C   UNL A   1      41.133  21.016  26.494  1.00  0.00     0.000 A 
ENDBRANCH  24  38
BRANCH  25  44
ATOM     44  C   UNL A   1      44.266  32.246  31.637  1.00  0.00    -0.014 A 
ATOM     45  C   UNL A   1      44.687  33.294  30.807  1.00  0.00     0.009 A 
ATOM     46  C   UNL A   1      44.084  32.488  33.008  1.00  0.00     0.009 A 
ATOM     47  C   UNL A   1      44.916  34.565  31.340  1.00  0.00     0.001 A 
ATOM     48  C   UNL A   1      44.299  33.764  33.534  1.00  0.00     0.001 A 
ATOM     49  C   UNL A   1      44.715  34.800  32.699  1.00  0.00     0.000 A 
ENDBRANCH  25  44
BRANCH  37  50
ATOM     50  C   UNL A   1      47.930  26.441  30.362  1.00  0.00    -0.014 A 
ATOM     51  C   UNL A   1      48.302  25.807  31.556  1.00  0.00     0.009 A 
ATOM     52  C   UNL A   1      48.885  26.608  29.347  1.00  0.00     0.009 A 
ATOM     53  C   UNL A   1      49.609  25.350  31.732  1.00  0.00     0.001 A 
ATOM     54  C   UNL A   1      50.187  26.135  29.520  1.00  0.00     0.001 A 
ATOM     55  C   UNL A   1      50.548  25.507  30.711  1.00  0.00     0.000 A 
ENDBRANCH  37  50
ENDBRANCH  11  12
ENDBRANCH   4   6
ENDBRANCH   1   2
BRANCH   1  56
ATOM     56  C   UNL A   1      32.651  27.970  26.231  1.00  0.00     0.042 C 
BRANCH  56  57
ATOM     57  C   UNL A   1      32.530  28.873  25.007  1.00  0.00     0.118 C 
BRANCH  57  58
ATOM     58  N   UNL A   1      32.847  28.161  23.778  1.00  0.00    -0.351 N 
ATOM     59  C   UNL A   1      31.995  27.614  22.846  1.00  0.00     0.269 C 
ATOM     60  H   UNL A   1      33.807  28.058  23.586  1.00  0.00     0.163 HD
ATOM     61  O   UNL A   1      32.448  26.854  21.992  1.00  0.00    -0.268 OA
BRANCH  59  62
ATOM     62  C   UNL A   1      30.534  27.906  22.882  1.00  0.00     0.129 A 
ATOM     63  C   UNL A   1      29.695  27.039  23.572  1.00  0.00     0.038 A 
ATOM     64  N   UNL A   1      30.101  29.002  22.207  1.00  0.00    -0.232 NA
ATOM     65  C   UNL A   1      28.335  27.334  23.616  1.00  0.00     0.051 A 
ATOM     66  C   UNL A   1      28.778  29.256  22.259  1.00  0.00     0.148 A 
ATOM     67  C   UNL A   1      27.867  28.462  22.955  1.00  0.00     0.148 A 
ATOM     68  Br  UNL A   1      28.167  30.803  21.340  1.00  0.00    -0.025 Br
BRANCH  67  69
ATOM     69  O   UNL A   1      26.531  28.728  23.034  1.00  0.00    -0.505 OA
ATOM     70  H   UNL A   1      25.932  28.051  23.278  1.00  0.00     0.293 HD
ENDBRANCH  67  69
ENDBRANCH  59  62
ENDBRANCH  57  58
ENDBRANCH  56  57
ENDBRANCH   1  56
TORSDOF 11
ENDMDL
