MODEL 1
REMARK VINA RESULT:     -11.6      0.000      0.000
REMARK SMILES Cc1cc(Br)cc2c1O[C@H](C(F)(F)F)C(C(=O)NCCCNC(=O)c1ccc(-c3c4nc(c(-c5ccccc5)c5ccc([nH]5)c(-c5ccccc5)c5nc(c(-c6ccccc6)c6ccc3[nH]6)C=C5)C=C4)cc1)=C2
REMARK SMILES IDX 20 1 19 2 18 3 16 4 17 5 15 7 1 8 2 9 3 10 8 11 4 12 7 13
REMARK SMILES IDX 9 14 5 15 6 16 73 17 10 18 11 19 12 20 13 21 14 22 21 23
REMARK SMILES IDX 22 24 23 25 24 27 25 28 26 29 72 30 27 31 71 32 28 33 29 34
REMARK SMILES IDX 30 35 65 36 31 37 70 38 64 39 66 40 32 41 69 42 63 43 62 44
REMARK SMILES IDX 33 46 55 47 40 48 54 49 41 50 44 51 53 52 67 53 42 54 43 55
REMARK SMILES IDX 52 57 68 58 45 59 34 60 35 61 39 62 36 63 38 64 37 65 56 66
REMARK SMILES IDX 57 67 61 68 58 69 60 70 59 71 46 72 47 73 51 74 48 75 50 76
REMARK SMILES IDX 49 77
REMARK H PARENT 18 6 22 26 66 45 44 56
REMARK Flexibility Score: inf
ROOT
ATOM      1  C   UNL A   1      35.534  23.510  26.113  1.00  0.00     0.042 C 
ENDROOT
BRANCH   1   2
ATOM      2  C   UNL A   1      34.301  22.851  25.514  1.00  0.00     0.118 C 
BRANCH   2   3
ATOM      3  N   UNL A   1      34.279  22.967  24.064  1.00  0.00    -0.352 N 
ATOM      4  C   UNL A   1      33.833  23.855  23.145  1.00  0.00     0.251 C 
ATOM      5  O   UNL A   1      34.026  23.534  21.968  1.00  0.00    -0.270 OA
ATOM      6  H   UNL A   1      34.702  22.188  23.635  1.00  0.00     0.163 HD
BRANCH   4   7
ATOM      7  C   UNL A   1      33.150  25.141  23.461  1.00  0.00     0.067 C 
ATOM      8  C   UNL A   1      30.172  29.328  23.519  1.00  0.00     0.048 C 
ATOM      9  C   UNL A   1      31.398  28.874  24.257  1.00  0.00    -0.007 A 
ATOM     10  C   UNL A   1      31.958  29.690  25.248  1.00  0.00     0.023 A 
ATOM     11  C   UNL A   1      32.032  27.664  23.949  1.00  0.00     0.130 A 
ATOM     12  C   UNL A   1      33.112  29.287  25.921  1.00  0.00     0.019 A 
ATOM     13  C   UNL A   1      33.187  27.253  24.627  1.00  0.00     0.019 A 
ATOM     14  O   UNL A   1      31.505  26.925  22.927  1.00  0.00    -0.475 OA
ATOM     15  Br  UNL A   1      33.855  30.407  27.252  1.00  0.00    -0.051 Br
ATOM     16  C   UNL A   1      33.729  28.073  25.618  1.00  0.00     0.027 A 
ATOM     17  C   UNL A   1      33.820  25.991  24.261  1.00  0.00     0.025 C 
ATOM     18  C   UNL A   1      31.781  25.503  22.965  1.00  0.00     0.314 C 
BRANCH  18  19
ATOM     19  C   UNL A   1      30.656  24.778  23.727  1.00  0.00     0.429 C 
ATOM     20  F   UNL A   1      29.547  25.559  23.782  1.00  0.00    -0.167 F 
ATOM     21  F   UNL A   1      30.279  23.624  23.126  1.00  0.00    -0.167 F 
ATOM     22  F   UNL A   1      30.995  24.464  24.997  1.00  0.00    -0.167 F 
ENDBRANCH  18  19
ENDBRANCH   4   7
ENDBRANCH   2   3
ENDBRANCH   1   2
BRANCH   1  23
ATOM     23  C   UNL A   1      36.713  23.485  25.152  1.00  0.00     0.118 C 
BRANCH  23  24
ATOM     24  N   UNL A   1      37.726  22.515  25.566  1.00  0.00    -0.352 N 
ATOM     25  C   UNL A   1      38.961  22.711  26.126  1.00  0.00     0.251 C 
ATOM     26  H   UNL A   1      37.481  21.573  25.421  1.00  0.00     0.163 HD
ATOM     27  O   UNL A   1      39.783  21.796  26.137  1.00  0.00    -0.269 OA
BRANCH  25  28
ATOM     28  C   UNL A   1      39.305  24.019  26.711  1.00  0.00     0.039 A 
ATOM     29  C   UNL A   1      38.921  24.309  28.022  1.00  0.00     0.014 A 
ATOM     30  C   UNL A   1      39.987  24.971  25.950  1.00  0.00     0.014 A 
ATOM     31  C   UNL A   1      39.280  25.532  28.586  1.00  0.00     0.010 A 
ATOM     32  C   UNL A   1      40.438  26.138  26.546  1.00  0.00     0.010 A 
ATOM     33  C   UNL A   1      40.070  26.441  27.862  1.00  0.00    -0.014 A 
BRANCH  33  34
ATOM     34  C   UNL A   1      40.488  27.735  28.447  1.00  0.00     0.031 A 
ATOM     35  C   UNL A   1      41.926  27.949  28.834  1.00  0.00     0.074 A 
ATOM     36  C   UNL A   1      39.569  28.694  28.669  1.00  0.00     0.049 A 
ATOM     37  N   UNL A   1      42.482  28.998  29.384  1.00  0.00    -0.248 NA
ATOM     38  C   UNL A   1      42.857  26.831  28.600  1.00  0.00     0.031 C 
ATOM     39  C   UNL A   1      38.139  28.583  28.370  1.00  0.00     0.029 A 
ATOM     40  N   UNL A   1      39.703  29.955  29.189  1.00  0.00    -0.354 N 
ATOM     41  C   UNL A   1      43.817  28.661  29.565  1.00  0.00     0.074 A 
ATOM     42  C   UNL A   1      43.976  27.292  29.136  1.00  0.00     0.031 C 
ATOM     43  C   UNL A   1      37.538  29.747  28.664  1.00  0.00     0.029 A 
ATOM     44  C   UNL A   1      38.529  30.668  29.212  1.00  0.00     0.049 A 
ATOM     45  H   UNL A   1      40.559  30.315  29.516  1.00  0.00     0.167 HD
ATOM     46  C   UNL A   1      44.830  29.437  30.013  1.00  0.00     0.031 A 
ATOM     47  C   UNL A   1      38.281  31.927  29.621  1.00  0.00     0.031 A 
ATOM     48  C   UNL A   1      44.672  30.805  30.419  1.00  0.00     0.049 A 
ATOM     49  C   UNL A   1      39.418  32.758  30.146  1.00  0.00     0.074 A 
ATOM     50  C   UNL A   1      45.642  31.694  30.843  1.00  0.00     0.029 A 
ATOM     51  N   UNL A   1      43.462  31.482  30.447  1.00  0.00    -0.354 N 
ATOM     52  N   UNL A   1      40.688  32.447  30.250  1.00  0.00    -0.248 NA
ATOM     53  C   UNL A   1      39.090  34.115  30.606  1.00  0.00     0.031 C 
ATOM     54  C   UNL A   1      45.012  32.894  31.181  1.00  0.00     0.029 A 
ATOM     55  C   UNL A   1      43.657  32.770  30.910  1.00  0.00     0.049 A 
ATOM     56  H   UNL A   1      42.594  31.103  30.178  1.00  0.00     0.167 HD
ATOM     57  C   UNL A   1      41.313  33.574  30.766  1.00  0.00     0.074 A 
ATOM     58  C   UNL A   1      40.288  34.581  30.938  1.00  0.00     0.031 C 
ATOM     59  C   UNL A   1      42.621  33.757  31.074  1.00  0.00     0.031 A 
BRANCH  46  60
ATOM     60  C   UNL A   1      46.202  28.827  30.074  1.00  0.00    -0.014 A 
ATOM     61  C   UNL A   1      47.078  28.909  28.979  1.00  0.00     0.009 A 
ATOM     62  C   UNL A   1      46.646  28.210  31.253  1.00  0.00     0.009 A 
ATOM     63  C   UNL A   1      48.359  28.360  29.054  1.00  0.00     0.001 A 
ATOM     64  C   UNL A   1      47.939  27.689  31.336  1.00  0.00     0.001 A 
ATOM     65  C   UNL A   1      48.791  27.758  30.235  1.00  0.00     0.000 A 
ENDBRANCH  46  60
BRANCH  47  66
ATOM     66  C   UNL A   1      36.907  32.483  29.515  1.00  0.00    -0.014 A 
ATOM     67  C   UNL A   1      35.994  32.321  30.568  1.00  0.00     0.009 A 
ATOM     68  C   UNL A   1      36.507  33.199  28.376  1.00  0.00     0.009 A 
ATOM     69  C   UNL A   1      34.704  32.850  30.476  1.00  0.00     0.001 A 
ATOM     70  C   UNL A   1      35.226  33.752  28.298  1.00  0.00     0.001 A 
ATOM     71  C   UNL A   1      34.324  33.571  29.345  1.00  0.00     0.000 A 
ENDBRANCH  47  66
BRANCH  59  72
ATOM     72  C   UNL A   1      43.028  35.094  31.620  1.00  0.00    -0.014 A 
ATOM     73  C   UNL A   1      42.995  35.351  32.998  1.00  0.00     0.009 A 
ATOM     74  C   UNL A   1      43.548  36.071  30.754  1.00  0.00     0.009 A 
ATOM     75  C   UNL A   1      43.464  36.566  33.499  1.00  0.00     0.001 A 
ATOM     76  C   UNL A   1      44.044  37.271  31.261  1.00  0.00     0.001 A 
ATOM     77  C   UNL A   1      43.998  37.520  32.632  1.00  0.00     0.000 A 
ENDBRANCH  59  72
ENDBRANCH  33  34
ENDBRANCH  25  28
ENDBRANCH  23  24
ENDBRANCH   1  23
TORSDOF 11
ENDMDL
MODEL 2
REMARK VINA RESULT:     -11.6      2.285      3.602
REMARK SMILES Cc1cc(Br)cc2c1O[C@H](C(F)(F)F)C(C(=O)NCCCNC(=O)c1ccc(-c3c4nc(c(-c5ccccc5)c5ccc([nH]5)c(-c5ccccc5)c5nc(c(-c6ccccc6)c6ccc3[nH]6)C=C5)C=C4)cc1)=C2
REMARK SMILES IDX 20 1 19 2 18 3 16 4 17 5 15 7 1 8 2 9 3 10 8 11 4 12 7 13
REMARK SMILES IDX 9 14 5 15 6 16 73 17 10 18 11 19 12 20 13 21 14 22 21 23
REMARK SMILES IDX 22 24 23 25 24 27 25 28 26 29 72 30 27 31 71 32 28 33 29 34
REMARK SMILES IDX 30 35 65 36 31 37 70 38 64 39 66 40 32 41 69 42 63 43 62 44
REMARK SMILES IDX 33 46 55 47 40 48 54 49 41 50 44 51 53 52 67 53 42 54 43 55
REMARK SMILES IDX 52 57 68 58 45 59 34 60 35 61 39 62 36 63 38 64 37 65 56 66
REMARK SMILES IDX 57 67 61 68 58 69 60 70 59 71 46 72 47 73 51 74 48 75 50 76
REMARK SMILES IDX 49 77
REMARK H PARENT 18 6 22 26 66 45 44 56
REMARK Flexibility Score: inf
ROOT
ATOM      1  C   UNL A   1      37.717  19.529  24.950  1.00  0.00     0.042 C 
ENDROOT
BRANCH   1   2
ATOM      2  C   UNL A   1      36.608  20.518  24.627  1.00  0.00     0.118 C 
BRANCH   2   3
ATOM      3  N   UNL A   1      35.714  20.714  25.758  1.00  0.00    -0.352 N 
ATOM      4  C   UNL A   1      34.759  21.598  26.127  1.00  0.00     0.251 C 
ATOM      5  O   UNL A   1      34.234  21.378  27.223  1.00  0.00    -0.270 OA
ATOM      6  H   UNL A   1      35.837  20.013  26.439  1.00  0.00     0.163 HD
BRANCH   4   7
ATOM      7  C   UNL A   1      34.325  22.774  25.321  1.00  0.00     0.067 C 
ATOM      8  C   UNL A   1      33.014  26.063  21.596  1.00  0.00     0.048 C 
ATOM      9  C   UNL A   1      33.312  26.169  23.064  1.00  0.00    -0.007 A 
ATOM     10  C   UNL A   1      33.227  27.410  23.705  1.00  0.00     0.023 A 
ATOM     11  C   UNL A   1      33.721  25.056  23.811  1.00  0.00     0.130 A 
ATOM     12  C   UNL A   1      33.527  27.521  25.064  1.00  0.00     0.019 A 
ATOM     13  C   UNL A   1      34.017  25.163  25.175  1.00  0.00     0.019 A 
ATOM     14  O   UNL A   1      33.866  23.874  23.140  1.00  0.00    -0.475 OA
ATOM     15  Br  UNL A   1      33.411  29.210  25.910  1.00  0.00    -0.051 Br
ATOM     16  C   UNL A   1      33.920  26.405  25.803  1.00  0.00     0.027 A 
ATOM     17  C   UNL A   1      34.453  23.979  25.908  1.00  0.00     0.025 C 
ATOM     18  C   UNL A   1      33.745  22.671  23.941  1.00  0.00     0.314 C 
BRANCH  18  19
ATOM     19  C   UNL A   1      32.280  22.197  23.940  1.00  0.00     0.429 C 
ATOM     20  F   UNL A   1      32.224  20.843  23.868  1.00  0.00    -0.167 F 
ATOM     21  F   UNL A   1      31.618  22.545  25.070  1.00  0.00    -0.167 F 
ATOM     22  F   UNL A   1      31.566  22.688  22.903  1.00  0.00    -0.167 F 
ENDBRANCH  18  19
ENDBRANCH   4   7
ENDBRANCH   2   3
ENDBRANCH   1   2
BRANCH   1  23
ATOM     23  C   UNL A   1      38.847  20.181  25.733  1.00  0.00     0.118 C 
BRANCH  23  24
ATOM     24  N   UNL A   1      40.012  19.303  25.832  1.00  0.00    -0.352 N 
ATOM     25  C   UNL A   1      41.329  19.603  26.063  1.00  0.00     0.251 C 
ATOM     26  H   UNL A   1      39.819  18.345  25.714  1.00  0.00     0.163 HD
ATOM     27  O   UNL A   1      42.200  18.769  25.823  1.00  0.00    -0.269 OA
BRANCH  25  28
ATOM     28  C   UNL A   1      41.699  20.926  26.594  1.00  0.00     0.039 A 
ATOM     29  C   UNL A   1      42.194  21.902  25.727  1.00  0.00     0.014 A 
ATOM     30  C   UNL A   1      41.580  21.192  27.960  1.00  0.00     0.014 A 
ATOM     31  C   UNL A   1      42.508  23.166  26.225  1.00  0.00     0.010 A 
ATOM     32  C   UNL A   1      41.786  22.478  28.434  1.00  0.00     0.010 A 
ATOM     33  C   UNL A   1      42.274  23.472  27.577  1.00  0.00    -0.014 A 
BRANCH  33  34
ATOM     34  C   UNL A   1      42.572  24.814  28.126  1.00  0.00     0.031 A 
ATOM     35  C   UNL A   1      43.982  25.163  28.518  1.00  0.00     0.074 A 
ATOM     36  C   UNL A   1      41.572  25.697  28.310  1.00  0.00     0.049 A 
ATOM     37  N   UNL A   1      44.440  26.272  29.040  1.00  0.00    -0.248 NA
ATOM     38  C   UNL A   1      45.009  24.123  28.326  1.00  0.00     0.031 C 
ATOM     39  C   UNL A   1      40.160  25.454  28.003  1.00  0.00     0.029 A 
ATOM     40  N   UNL A   1      41.592  26.980  28.792  1.00  0.00    -0.354 N 
ATOM     41  C   UNL A   1      45.797  26.057  29.242  1.00  0.00     0.074 A 
ATOM     42  C   UNL A   1      46.078  24.694  28.858  1.00  0.00     0.031 C 
ATOM     43  C   UNL A   1      39.459  26.570  28.256  1.00  0.00     0.029 A 
ATOM     44  C   UNL A   1      40.360  27.589  28.783  1.00  0.00     0.049 A 
ATOM     45  H   UNL A   1      42.409  27.422  29.115  1.00  0.00     0.167 HD
ATOM     46  C   UNL A   1      46.735  26.930  29.675  1.00  0.00     0.031 A 
ATOM     47  C   UNL A   1      40.001  28.833  29.152  1.00  0.00     0.031 A 
ATOM     48  C   UNL A   1      46.454  28.291  30.038  1.00  0.00     0.049 A 
ATOM     49  C   UNL A   1      41.056  29.775  29.660  1.00  0.00     0.074 A 
ATOM     50  C   UNL A   1      47.340  29.273  30.443  1.00  0.00     0.029 A 
ATOM     51  N   UNL A   1      45.191  28.862  30.034  1.00  0.00    -0.354 N 
ATOM     52  N   UNL A   1      42.347  29.578  29.784  1.00  0.00    -0.248 NA
ATOM     53  C   UNL A   1      40.607  31.112  30.075  1.00  0.00     0.031 C 
ATOM     54  C   UNL A   1      46.605  30.424  30.738  1.00  0.00     0.029 A 
ATOM     55  C   UNL A   1      45.270  30.175  30.460  1.00  0.00     0.049 A 
ATOM     56  H   UNL A   1      44.362  28.401  29.770  1.00  0.00     0.167 HD
ATOM     57  C   UNL A   1      42.867  30.770  30.271  1.00  0.00     0.074 A 
ATOM     58  C   UNL A   1      41.756  31.689  30.403  1.00  0.00     0.031 C 
ATOM     59  C   UNL A   1      44.150  31.073  30.584  1.00  0.00     0.031 A 
BRANCH  46  60
ATOM     60  C   UNL A   1      48.153  26.443  29.766  1.00  0.00    -0.014 A 
ATOM     61  C   UNL A   1      48.630  25.825  30.934  1.00  0.00     0.009 A 
ATOM     62  C   UNL A   1      49.008  26.554  28.660  1.00  0.00     0.009 A 
ATOM     63  C   UNL A   1      49.943  25.354  31.000  1.00  0.00     0.001 A 
ATOM     64  C   UNL A   1      50.310  26.054  28.717  1.00  0.00     0.001 A 
ATOM     65  C   UNL A   1      50.779  25.462  29.889  1.00  0.00     0.000 A 
ENDBRANCH  46  60
BRANCH  47  66
ATOM     66  C   UNL A   1      38.585  29.265  29.017  1.00  0.00    -0.014 A 
ATOM     67  C   UNL A   1      38.097  29.715  27.781  1.00  0.00     0.009 A 
ATOM     68  C   UNL A   1      37.708  29.208  30.112  1.00  0.00     0.009 A 
ATOM     69  C   UNL A   1      36.764  30.114  27.648  1.00  0.00     0.001 A 
ATOM     70  C   UNL A   1      36.369  29.580  29.968  1.00  0.00     0.001 A 
ATOM     71  C   UNL A   1      35.900  30.039  28.739  1.00  0.00     0.000 A 
ENDBRANCH  47  66
BRANCH  59  72
ATOM     72  C   UNL A   1      44.435  32.456  31.092  1.00  0.00    -0.014 A 
ATOM     73  C   UNL A   1      44.469  32.727  32.468  1.00  0.00     0.009 A 
ATOM     74  C   UNL A   1      44.775  33.475  30.186  1.00  0.00     0.009 A 
ATOM     75  C   UNL A   1      44.826  33.995  32.927  1.00  0.00     0.001 A 
ATOM     76  C   UNL A   1      45.160  34.732  30.650  1.00  0.00     0.001 A 
ATOM     77  C   UNL A   1      45.182  34.993  32.018  1.00  0.00     0.000 A 
ENDBRANCH  59  72
ENDBRANCH  33  34
ENDBRANCH  25  28
ENDBRANCH  23  24
ENDBRANCH   1  23
TORSDOF 11
ENDMDL
MODEL 3
REMARK VINA RESULT:     -11.5      2.305      6.995
REMARK SMILES Cc1cc(Br)cc2c1O[C@H](C(F)(F)F)C(C(=O)NCCCNC(=O)c1ccc(-c3c4nc(c(-c5ccccc5)c5ccc([nH]5)c(-c5ccccc5)c5nc(c(-c6ccccc6)c6ccc3[nH]6)C=C5)C=C4)cc1)=C2
REMARK SMILES IDX 20 1 19 2 18 3 16 4 17 5 15 7 1 8 2 9 3 10 8 11 4 12 7 13
REMARK SMILES IDX 9 14 5 15 6 16 73 17 10 18 11 19 12 20 13 21 14 22 21 23
REMARK SMILES IDX 22 24 23 25 24 27 25 28 26 29 72 30 27 31 71 32 28 33 29 34
REMARK SMILES IDX 30 35 65 36 31 37 70 38 64 39 66 40 32 41 69 42 63 43 62 44
REMARK SMILES IDX 33 46 55 47 40 48 54 49 41 50 44 51 53 52 67 53 42 54 43 55
REMARK SMILES IDX 52 57 68 58 45 59 34 60 35 61 39 62 36 63 38 64 37 65 56 66
REMARK SMILES IDX 57 67 61 68 58 69 60 70 59 71 46 72 47 73 51 74 48 75 50 76
REMARK SMILES IDX 49 77
REMARK H PARENT 18 6 22 26 66 45 44 56
REMARK Flexibility Score: inf
ROOT
ATOM      1  C   UNL A   1      37.802  19.673  25.002  1.00  0.00     0.042 C 
ENDROOT
BRANCH   1   2
ATOM      2  C   UNL A   1      36.730  20.700  24.675  1.00  0.00     0.118 C 
BRANCH   2   3
ATOM      3  N   UNL A   1      35.724  20.782  25.723  1.00  0.00    -0.352 N 
ATOM      4  C   UNL A   1      34.691  21.594  26.047  1.00  0.00     0.251 C 
ATOM      5  O   UNL A   1      34.079  21.282  27.073  1.00  0.00    -0.270 OA
ATOM      6  H   UNL A   1      35.822  20.049  26.374  1.00  0.00     0.163 HD
BRANCH   4   7
ATOM      7  C   UNL A   1      34.270  22.793  25.269  1.00  0.00     0.067 C 
ATOM      8  C   UNL A   1      32.981  26.179  21.624  1.00  0.00     0.048 C 
ATOM      9  C   UNL A   1      33.295  26.249  23.091  1.00  0.00    -0.007 A 
ATOM     10  C   UNL A   1      33.238  27.479  23.758  1.00  0.00     0.023 A 
ATOM     11  C   UNL A   1      33.691  25.115  23.811  1.00  0.00     0.130 A 
ATOM     12  C   UNL A   1      33.553  27.558  25.116  1.00  0.00     0.019 A 
ATOM     13  C   UNL A   1      34.002  25.189  25.174  1.00  0.00     0.019 A 
ATOM     14  O   UNL A   1      33.809  23.944  23.115  1.00  0.00    -0.475 OA
ATOM     15  Br  UNL A   1      33.474  29.230  25.996  1.00  0.00    -0.051 Br
ATOM     16  C   UNL A   1      33.933  26.420  25.828  1.00  0.00     0.027 A 
ATOM     17  C   UNL A   1      34.425  23.983  25.878  1.00  0.00     0.025 C 
ATOM     18  C   UNL A   1      33.675  22.728  23.893  1.00  0.00     0.314 C 
BRANCH  18  19
ATOM     19  C   UNL A   1      32.202  22.279  23.897  1.00  0.00     0.429 C 
ATOM     20  F   UNL A   1      32.122  20.928  23.799  1.00  0.00    -0.167 F 
ATOM     21  F   UNL A   1      31.557  22.617  25.040  1.00  0.00    -0.167 F 
ATOM     22  F   UNL A   1      31.487  22.803  22.877  1.00  0.00    -0.167 F 
ENDBRANCH  18  19
ENDBRANCH   4   7
ENDBRANCH   2   3
ENDBRANCH   1   2
BRANCH   1  23
ATOM     23  C   UNL A   1      38.966  20.292  25.762  1.00  0.00     0.118 C 
BRANCH  23  24
ATOM     24  N   UNL A   1      40.085  19.359  25.887  1.00  0.00    -0.352 N 
ATOM     25  C   UNL A   1      41.416  19.600  26.109  1.00  0.00     0.251 C 
ATOM     26  H   UNL A   1      39.844  18.409  25.800  1.00  0.00     0.163 HD
ATOM     27  O   UNL A   1      42.244  18.715  25.895  1.00  0.00    -0.269 OA
BRANCH  25  28
ATOM     28  C   UNL A   1      41.854  20.918  26.599  1.00  0.00     0.039 A 
ATOM     29  C   UNL A   1      42.281  21.885  25.687  1.00  0.00     0.014 A 
ATOM     30  C   UNL A   1      41.865  21.189  27.969  1.00  0.00     0.014 A 
ATOM     31  C   UNL A   1      42.658  23.145  26.150  1.00  0.00     0.010 A 
ATOM     32  C   UNL A   1      42.133  22.473  28.418  1.00  0.00     0.010 A 
ATOM     33  C   UNL A   1      42.554  23.457  27.516  1.00  0.00    -0.014 A 
BRANCH  33  34
ATOM     34  C   UNL A   1      42.923  24.796  28.030  1.00  0.00     0.031 A 
ATOM     35  C   UNL A   1      41.854  25.834  28.242  1.00  0.00     0.074 A 
ATOM     36  C   UNL A   1      44.217  25.087  28.264  1.00  0.00     0.049 A 
ATOM     37  N   UNL A   1      41.978  27.068  28.658  1.00  0.00    -0.248 NA
ATOM     38  C   UNL A   1      40.470  25.446  27.918  1.00  0.00     0.031 C 
ATOM     39  C   UNL A   1      45.342  24.172  28.058  1.00  0.00     0.029 A 
ATOM     40  N   UNL A   1      44.802  26.234  28.735  1.00  0.00    -0.354 N 
ATOM     41  C   UNL A   1      40.695  27.599  28.637  1.00  0.00     0.074 A 
ATOM     42  C   UNL A   1      39.819  26.584  28.101  1.00  0.00     0.031 C 
ATOM     43  C   UNL A   1      46.475  24.776  28.449  1.00  0.00     0.029 A 
ATOM     44  C   UNL A   1      46.163  26.132  28.890  1.00  0.00     0.049 A 
ATOM     45  H   UNL A   1      44.295  27.052  28.941  1.00  0.00     0.167 HD
ATOM     46  C   UNL A   1      40.277  28.813  29.061  1.00  0.00     0.031 A 
ATOM     47  C   UNL A   1      47.058  27.029  29.346  1.00  0.00     0.031 A 
ATOM     48  C   UNL A   1      41.149  29.813  29.612  1.00  0.00     0.049 A 
ATOM     49  C   UNL A   1      46.573  28.383  29.782  1.00  0.00     0.074 A 
ATOM     50  C   UNL A   1      40.820  31.057  30.117  1.00  0.00     0.029 A 
ATOM     51  N   UNL A   1      42.524  29.676  29.732  1.00  0.00    -0.354 N 
ATOM     52  N   UNL A   1      45.347  28.848  29.818  1.00  0.00    -0.248 NA
ATOM     53  C   UNL A   1      47.592  29.335  30.245  1.00  0.00     0.031 C 
ATOM     54  C   UNL A   1      42.003  31.698  30.493  1.00  0.00     0.029 A 
ATOM     55  C   UNL A   1      43.061  30.828  30.276  1.00  0.00     0.049 A 
ATOM     56  H   UNL A   1      43.040  28.881  29.469  1.00  0.00     0.167 HD
ATOM     57  C   UNL A   1      45.445  30.137  30.325  1.00  0.00     0.074 A 
ATOM     58  C   UNL A   1      46.846  30.374  30.600  1.00  0.00     0.031 C 
ATOM     59  C   UNL A   1      44.461  31.044  30.541  1.00  0.00     0.031 A 
BRANCH  46  60
ATOM     60  C   UNL A   1      38.810  29.121  28.960  1.00  0.00    -0.014 A 
ATOM     61  C   UNL A   1      37.964  28.980  30.073  1.00  0.00     0.009 A 
ATOM     62  C   UNL A   1      38.274  29.606  27.758  1.00  0.00     0.009 A 
ATOM     63  C   UNL A   1      36.607  29.292  29.974  1.00  0.00     0.001 A 
ATOM     64  C   UNL A   1      36.923  29.947  27.671  1.00  0.00     0.001 A 
ATOM     65  C   UNL A   1      36.089  29.783  28.776  1.00  0.00     0.000 A 
ENDBRANCH  46  60
BRANCH  47  66
ATOM     66  C   UNL A   1      48.494  26.658  29.445  1.00  0.00    -0.014 A 
ATOM     67  C   UNL A   1      48.981  26.011  30.590  1.00  0.00     0.009 A 
ATOM     68  C   UNL A   1      49.380  26.925  28.389  1.00  0.00     0.009 A 
ATOM     69  C   UNL A   1      50.328  25.653  30.684  1.00  0.00     0.001 A 
ATOM     70  C   UNL A   1      50.720  26.540  28.473  1.00  0.00     0.001 A 
ATOM     71  C   UNL A   1      51.194  25.911  29.622  1.00  0.00     0.000 A 
ENDBRANCH  47  66
BRANCH  59  72
ATOM     72  C   UNL A   1      44.854  32.376  31.109  1.00  0.00    -0.014 A 
ATOM     73  C   UNL A   1      45.085  33.478  30.272  1.00  0.00     0.009 A 
ATOM     74  C   UNL A   1      44.891  32.556  32.502  1.00  0.00     0.009 A 
ATOM     75  C   UNL A   1      45.358  34.732  30.819  1.00  0.00     0.001 A 
ATOM     76  C   UNL A   1      45.135  33.817  33.045  1.00  0.00     0.001 A 
ATOM     77  C   UNL A   1      45.372  34.902  32.204  1.00  0.00     0.000 A 
ENDBRANCH  59  72
ENDBRANCH  33  34
ENDBRANCH  25  28
ENDBRANCH  23  24
ENDBRANCH   1  23
TORSDOF 11
ENDMDL
