MODEL 1
REMARK VINA RESULT:     -11.5      0.000      0.000
REMARK SMILES Cc1cc(O[C@@H]2C[C@H](C)C[C@H](C)C2)cc(C(=O)NCCCNC(=O)c2ccc(-c3c4nc(c(-c5ccccc5)c5ccc([nH]5)c(-c5ccccc5)c5nc(c(-c6ccccc6)c6ccc3[nH]6)C=C5)C=C4)cc2)c1N
REMARK SMILES IDX 20 1 19 2 18 3 16 4 17 5 15 7 1 8 2 9 3 10 73 11 4 12 14 13
REMARK SMILES IDX 74 14 5 17 6 18 13 19 7 20 11 21 8 22 12 23 10 24 9 25 21 26
REMARK SMILES IDX 22 27 23 28 24 30 25 31 26 32 72 33 27 34 71 35 28 36 29 37
REMARK SMILES IDX 30 38 65 39 31 40 70 41 64 42 66 43 32 44 69 45 63 46 62 47
REMARK SMILES IDX 33 49 55 50 40 51 54 52 41 53 44 54 53 55 67 56 42 57 43 58
REMARK SMILES IDX 52 60 68 61 45 62 34 63 35 64 39 65 36 66 38 67 37 68 56 69
REMARK SMILES IDX 57 70 61 71 58 72 60 73 59 74 46 75 47 76 51 77 48 78 50 79
REMARK SMILES IDX 49 80
REMARK H PARENT 18 6 74 15 74 16 22 29 66 48 44 59
REMARK Flexibility Score: inf
ROOT
ATOM      1  C   UNL A   1      37.967  19.936  24.932  1.00  0.00     0.042 C 
ENDROOT
BRANCH   1   2
ATOM      2  C   UNL A   1      37.008  21.098  24.683  1.00  0.00     0.118 C 
BRANCH   2   3
ATOM      3  N   UNL A   1      37.450  22.253  25.432  1.00  0.00    -0.352 N 
ATOM      4  C   UNL A   1      36.870  23.433  25.803  1.00  0.00     0.253 C 
ATOM      5  O   UNL A   1      37.626  24.214  26.390  1.00  0.00    -0.269 OA
ATOM      6  H   UNL A   1      38.379  22.171  25.746  1.00  0.00     0.163 HD
BRANCH   4   7
ATOM      7  C   UNL A   1      35.418  23.762  25.616  1.00  0.00     0.066 A 
ATOM      8  C   UNL A   1      32.067  23.010  27.282  1.00  0.00     0.047 C 
ATOM      9  C   UNL A   1      33.102  23.345  26.235  1.00  0.00    -0.024 A 
ATOM     10  C   UNL A   1      32.689  24.033  25.087  1.00  0.00     0.052 A 
ATOM     11  C   UNL A   1      34.475  23.160  26.488  1.00  0.00     0.048 A 
ATOM     12  C   UNL A   1      33.580  24.919  24.513  1.00  0.00     0.120 A 
ATOM     13  C   UNL A   1      34.949  24.721  24.703  1.00  0.00     0.062 A 
BRANCH  11  14
ATOM     14  N   UNL A   1      34.866  22.578  27.697  1.00  0.00    -0.398 N 
ATOM     15  H   UNL A   1      34.258  21.964  28.169  1.00  0.00     0.156 HD
ATOM     16  H   UNL A   1      35.751  22.783  28.078  1.00  0.00     0.156 HD
ENDBRANCH  11  14
BRANCH  12  17
ATOM     17  O   UNL A   1      33.207  26.103  23.915  1.00  0.00    -0.490 OA
BRANCH  17  18
ATOM     18  C   UNL A   1      33.710  27.372  24.447  1.00  0.00     0.173 C 
ATOM     19  C   UNL A   1      33.226  28.672  23.816  1.00  0.00     0.048 C 
ATOM     20  C   UNL A   1      33.422  27.457  25.987  1.00  0.00     0.048 C 
ATOM     21  C   UNL A   1      31.789  29.036  24.196  1.00  0.00    -0.010 C 
ATOM     22  C   UNL A   1      32.619  28.701  26.559  1.00  0.00    -0.010 C 
ATOM     23  C   UNL A   1      30.721  27.938  24.278  1.00  0.00     0.008 C 
ATOM     24  C   UNL A   1      31.942  29.666  25.560  1.00  0.00     0.007 C 
ATOM     25  C   UNL A   1      31.592  28.272  27.620  1.00  0.00     0.008 C 
ENDBRANCH  17  18
ENDBRANCH  12  17
ENDBRANCH   4   7
ENDBRANCH   2   3
ENDBRANCH   1   2
BRANCH   1  26
ATOM     26  C   UNL A   1      38.985  20.271  26.020  1.00  0.00     0.118 C 
BRANCH  26  27
ATOM     27  N   UNL A   1      40.142  19.379  25.951  1.00  0.00    -0.352 N 
ATOM     28  C   UNL A   1      41.472  19.684  25.976  1.00  0.00     0.251 C 
ATOM     29  H   UNL A   1      39.930  18.420  25.877  1.00  0.00     0.163 HD
ATOM     30  O   UNL A   1      42.304  18.866  25.568  1.00  0.00    -0.269 OA
BRANCH  28  31
ATOM     31  C   UNL A   1      41.910  20.982  26.507  1.00  0.00     0.039 A 
ATOM     32  C   UNL A   1      42.257  22.008  25.626  1.00  0.00     0.014 A 
ATOM     33  C   UNL A   1      41.998  21.171  27.889  1.00  0.00     0.014 A 
ATOM     34  C   UNL A   1      42.644  23.245  26.137  1.00  0.00     0.010 A 
ATOM     35  C   UNL A   1      42.290  22.428  28.393  1.00  0.00     0.010 A 
ATOM     36  C   UNL A   1      42.632  23.472  27.523  1.00  0.00    -0.014 A 
BRANCH  36  37
ATOM     37  C   UNL A   1      42.988  24.789  28.096  1.00  0.00     0.031 A 
ATOM     38  C   UNL A   1      41.915  25.816  28.327  1.00  0.00     0.074 A 
ATOM     39  C   UNL A   1      44.281  25.081  28.327  1.00  0.00     0.049 A 
ATOM     40  N   UNL A   1      42.033  27.054  28.729  1.00  0.00    -0.248 NA
ATOM     41  C   UNL A   1      40.530  25.409  28.033  1.00  0.00     0.031 C 
ATOM     42  C   UNL A   1      45.411  24.178  28.096  1.00  0.00     0.029 A 
ATOM     43  N   UNL A   1      44.864  26.229  28.798  1.00  0.00    -0.354 N 
ATOM     44  C   UNL A   1      40.747  27.577  28.714  1.00  0.00     0.074 A 
ATOM     45  C   UNL A   1      39.871  26.544  28.209  1.00  0.00     0.031 C 
ATOM     46  C   UNL A   1      46.548  24.796  28.454  1.00  0.00     0.029 A 
ATOM     47  C   UNL A   1      46.233  26.151  28.891  1.00  0.00     0.049 A 
ATOM     48  H   UNL A   1      44.352  27.032  29.045  1.00  0.00     0.167 HD
ATOM     49  C   UNL A   1      40.329  28.804  29.106  1.00  0.00     0.031 A 
ATOM     50  C   UNL A   1      47.132  27.075  29.275  1.00  0.00     0.031 A 
ATOM     51  C   UNL A   1      41.205  29.820  29.620  1.00  0.00     0.049 A 
ATOM     52  C   UNL A   1      46.644  28.433  29.695  1.00  0.00     0.074 A 
ATOM     53  C   UNL A   1      40.880  31.075  30.103  1.00  0.00     0.029 A 
ATOM     54  N   UNL A   1      42.583  29.698  29.714  1.00  0.00    -0.354 N 
ATOM     55  N   UNL A   1      45.415  28.890  29.744  1.00  0.00    -0.248 NA
ATOM     56  C   UNL A   1      47.665  29.398  30.123  1.00  0.00     0.031 C 
ATOM     57  C   UNL A   1      42.066  31.734  30.436  1.00  0.00     0.029 A 
ATOM     58  C   UNL A   1      43.126  30.865  30.222  1.00  0.00     0.049 A 
ATOM     59  H   UNL A   1      43.099  28.900  29.457  1.00  0.00     0.167 HD
ATOM     60  C   UNL A   1      45.513  30.185  30.235  1.00  0.00     0.074 A 
ATOM     61  C   UNL A   1      46.918  30.433  30.484  1.00  0.00     0.031 C 
ATOM     62  C   UNL A   1      44.528  31.088  30.462  1.00  0.00     0.031 A 
BRANCH  49  63
ATOM     63  C   UNL A   1      38.861  29.111  28.985  1.00  0.00    -0.014 A 
ATOM     64  C   UNL A   1      37.992  28.967  30.080  1.00  0.00     0.009 A 
ATOM     65  C   UNL A   1      38.345  29.580  27.768  1.00  0.00     0.009 A 
ATOM     66  C   UNL A   1      36.632  29.251  29.946  1.00  0.00     0.001 A 
ATOM     67  C   UNL A   1      36.990  29.895  27.647  1.00  0.00     0.001 A 
ATOM     68  C   UNL A   1      36.132  29.721  28.733  1.00  0.00     0.000 A 
ENDBRANCH  49  63
BRANCH  50  69
ATOM     69  C   UNL A   1      48.580  26.743  29.289  1.00  0.00    -0.014 A 
ATOM     70  C   UNL A   1      49.381  26.997  28.164  1.00  0.00     0.009 A 
ATOM     71  C   UNL A   1      49.174  26.174  30.427  1.00  0.00     0.009 A 
ATOM     72  C   UNL A   1      50.736  26.659  28.168  1.00  0.00     0.001 A 
ATOM     73  C   UNL A   1      50.535  25.867  30.439  1.00  0.00     0.001 A 
ATOM     74  C   UNL A   1      51.313  26.099  29.307  1.00  0.00     0.000 A 
ENDBRANCH  50  69
BRANCH  62  75
ATOM     75  C   UNL A   1      44.932  32.413  31.043  1.00  0.00    -0.014 A 
ATOM     76  C   UNL A   1      45.233  33.511  30.222  1.00  0.00     0.009 A 
ATOM     77  C   UNL A   1      44.955  32.578  32.438  1.00  0.00     0.009 A 
ATOM     78  C   UNL A   1      45.583  34.738  30.788  1.00  0.00     0.001 A 
ATOM     79  C   UNL A   1      45.272  33.814  33.000  1.00  0.00     0.001 A 
ATOM     80  C   UNL A   1      45.595  34.891  32.176  1.00  0.00     0.000 A 
ENDBRANCH  62  75
ENDBRANCH  36  37
ENDBRANCH  28  31
ENDBRANCH  26  27
ENDBRANCH   1  26
TORSDOF 13
ENDMDL
MODEL 2
REMARK VINA RESULT:     -11.5      0.479      5.964
REMARK SMILES Cc1cc(O[C@@H]2C[C@H](C)C[C@H](C)C2)cc(C(=O)NCCCNC(=O)c2ccc(-c3c4nc(c(-c5ccccc5)c5ccc([nH]5)c(-c5ccccc5)c5nc(c(-c6ccccc6)c6ccc3[nH]6)C=C5)C=C4)cc2)c1N
REMARK SMILES IDX 20 1 19 2 18 3 16 4 17 5 15 7 1 8 2 9 3 10 73 11 4 12 14 13
REMARK SMILES IDX 74 14 5 17 6 18 13 19 7 20 11 21 8 22 12 23 10 24 9 25 21 26
REMARK SMILES IDX 22 27 23 28 24 30 25 31 26 32 72 33 27 34 71 35 28 36 29 37
REMARK SMILES IDX 30 38 65 39 31 40 70 41 64 42 66 43 32 44 69 45 63 46 62 47
REMARK SMILES IDX 33 49 55 50 40 51 54 52 41 53 44 54 53 55 67 56 42 57 43 58
REMARK SMILES IDX 52 60 68 61 45 62 34 63 35 64 39 65 36 66 38 67 37 68 56 69
REMARK SMILES IDX 57 70 61 71 58 72 60 73 59 74 46 75 47 76 51 77 48 78 50 79
REMARK SMILES IDX 49 80
REMARK H PARENT 18 6 74 15 74 16 22 29 66 48 44 59
REMARK Flexibility Score: inf
ROOT
ATOM      1  C   UNL A   1      38.083  19.870  24.829  1.00  0.00     0.042 C 
ENDROOT
BRANCH   1   2
ATOM      2  C   UNL A   1      37.081  21.009  24.653  1.00  0.00     0.118 C 
BRANCH   2   3
ATOM      3  N   UNL A   1      37.498  22.142  25.449  1.00  0.00    -0.352 N 
ATOM      4  C   UNL A   1      36.904  23.308  25.840  1.00  0.00     0.253 C 
ATOM      5  O   UNL A   1      37.641  24.072  26.473  1.00  0.00    -0.269 OA
ATOM      6  H   UNL A   1      38.419  22.052  25.787  1.00  0.00     0.163 HD
BRANCH   4   7
ATOM      7  C   UNL A   1      35.457  23.639  25.624  1.00  0.00     0.066 A 
ATOM      8  C   UNL A   1      32.065  22.850  27.187  1.00  0.00     0.047 C 
ATOM      9  C   UNL A   1      33.126  23.207  26.175  1.00  0.00    -0.024 A 
ATOM     10  C   UNL A   1      32.742  23.917  25.030  1.00  0.00     0.052 A 
ATOM     11  C   UNL A   1      34.492  23.018  26.459  1.00  0.00     0.048 A 
ATOM     12  C   UNL A   1      33.645  24.816  24.497  1.00  0.00     0.120 A 
ATOM     13  C   UNL A   1      35.010  24.616  24.718  1.00  0.00     0.062 A 
BRANCH  11  14
ATOM     14  N   UNL A   1      34.854  22.413  27.665  1.00  0.00    -0.398 N 
ATOM     15  H   UNL A   1      35.326  21.548  27.661  1.00  0.00     0.156 HD
ATOM     16  H   UNL A   1      34.637  22.850  28.520  1.00  0.00     0.156 HD
ENDBRANCH  11  14
BRANCH  12  17
ATOM     17  O   UNL A   1      33.287  26.011  23.914  1.00  0.00    -0.490 OA
BRANCH  17  18
ATOM     18  C   UNL A   1      33.821  27.266  24.448  1.00  0.00     0.173 C 
ATOM     19  C   UNL A   1      33.397  28.577  23.796  1.00  0.00     0.048 C 
ATOM     20  C   UNL A   1      33.498  27.374  25.980  1.00  0.00     0.048 C 
ATOM     21  C   UNL A   1      31.965  28.994  24.138  1.00  0.00    -0.010 C 
ATOM     22  C   UNL A   1      32.726  28.650  26.523  1.00  0.00    -0.010 C 
ATOM     23  C   UNL A   1      30.858  27.934  24.203  1.00  0.00     0.008 C 
ATOM     24  C   UNL A   1      32.107  29.629  25.500  1.00  0.00     0.007 C 
ATOM     25  C   UNL A   1      31.660  28.266  27.562  1.00  0.00     0.008 C 
ENDBRANCH  17  18
ENDBRANCH  12  17
ENDBRANCH   4   7
ENDBRANCH   2   3
ENDBRANCH   1   2
BRANCH   1  26
ATOM     26  C   UNL A   1      38.978  20.091  26.047  1.00  0.00     0.118 C 
BRANCH  26  27
ATOM     27  N   UNL A   1      40.188  19.276  25.967  1.00  0.00    -0.352 N 
ATOM     28  C   UNL A   1      41.496  19.666  25.971  1.00  0.00     0.251 C 
ATOM     29  H   UNL A   1      40.038  18.305  25.900  1.00  0.00     0.163 HD
ATOM     30  O   UNL A   1      42.373  18.901  25.555  1.00  0.00    -0.269 OA
BRANCH  28  31
ATOM     31  C   UNL A   1      41.857  20.993  26.488  1.00  0.00     0.039 A 
ATOM     32  C   UNL A   1      42.343  21.967  25.614  1.00  0.00     0.014 A 
ATOM     33  C   UNL A   1      41.732  21.261  27.854  1.00  0.00     0.014 A 
ATOM     34  C   UNL A   1      42.656  23.232  26.107  1.00  0.00     0.010 A 
ATOM     35  C   UNL A   1      41.952  22.545  28.325  1.00  0.00     0.010 A 
ATOM     36  C   UNL A   1      42.432  23.538  27.460  1.00  0.00    -0.014 A 
BRANCH  36  37
ATOM     37  C   UNL A   1      42.705  24.886  28.005  1.00  0.00     0.031 A 
ATOM     38  C   UNL A   1      44.089  25.232  28.477  1.00  0.00     0.074 A 
ATOM     39  C   UNL A   1      41.691  25.759  28.148  1.00  0.00     0.049 A 
ATOM     40  N   UNL A   1      44.509  26.320  29.070  1.00  0.00    -0.248 NA
ATOM     41  C   UNL A   1      45.132  24.208  28.292  1.00  0.00     0.031 C 
ATOM     42  C   UNL A   1      40.298  25.513  27.766  1.00  0.00     0.029 A 
ATOM     43  N   UNL A   1      41.675  27.028  28.665  1.00  0.00    -0.354 N 
ATOM     44  C   UNL A   1      45.853  26.100  29.347  1.00  0.00     0.074 A 
ATOM     45  C   UNL A   1      46.164  24.758  28.912  1.00  0.00     0.031 C 
ATOM     46  C   UNL A   1      39.569  26.608  28.036  1.00  0.00     0.029 A 
ATOM     47  C   UNL A   1      40.430  27.611  28.652  1.00  0.00     0.049 A 
ATOM     48  H   UNL A   1      42.477  27.479  29.012  1.00  0.00     0.167 HD
ATOM     49  C   UNL A   1      46.751  26.950  29.897  1.00  0.00     0.031 A 
ATOM     50  C   UNL A   1      40.029  28.815  29.098  1.00  0.00     0.031 A 
ATOM     51  C   UNL A   1      46.434  28.288  30.314  1.00  0.00     0.049 A 
ATOM     52  C   UNL A   1      41.045  29.736  29.714  1.00  0.00     0.074 A 
ATOM     53  C   UNL A   1      47.282  29.254  30.826  1.00  0.00     0.029 A 
ATOM     54  N   UNL A   1      45.167  28.847  30.270  1.00  0.00    -0.354 N 
ATOM     55  N   UNL A   1      42.328  29.542  29.904  1.00  0.00    -0.248 NA
ATOM     56  C   UNL A   1      40.558  31.045  30.168  1.00  0.00     0.031 C 
ATOM     57  C   UNL A   1      46.516  30.379  31.145  1.00  0.00     0.029 A 
ATOM     58  C   UNL A   1      45.203  30.137  30.770  1.00  0.00     0.049 A 
ATOM     59  H   UNL A   1      44.360  28.394  29.932  1.00  0.00     0.167 HD
ATOM     60  C   UNL A   1      42.808  30.715  30.472  1.00  0.00     0.074 A 
ATOM     61  C   UNL A   1      41.681  31.619  30.579  1.00  0.00     0.031 C 
ATOM     62  C   UNL A   1      44.069  31.018  30.867  1.00  0.00     0.031 A 
BRANCH  49  63
ATOM     63  C   UNL A   1      48.158  26.451  30.082  1.00  0.00    -0.014 A 
ATOM     64  C   UNL A   1      48.562  25.829  31.275  1.00  0.00     0.009 A 
ATOM     65  C   UNL A   1      49.086  26.577  29.037  1.00  0.00     0.009 A 
ATOM     66  C   UNL A   1      49.874  25.378  31.430  1.00  0.00     0.001 A 
ATOM     67  C   UNL A   1      50.388  26.095  29.183  1.00  0.00     0.001 A 
ATOM     68  C   UNL A   1      50.785  25.506  30.382  1.00  0.00     0.000 A 
ENDBRANCH  49  63
BRANCH  50  69
ATOM     69  C   UNL A   1      38.606  29.220  28.969  1.00  0.00    -0.014 A 
ATOM     70  C   UNL A   1      37.728  29.100  30.059  1.00  0.00     0.009 A 
ATOM     71  C   UNL A   1      38.113  29.731  27.758  1.00  0.00     0.009 A 
ATOM     72  C   UNL A   1      36.384  29.455  29.928  1.00  0.00     0.001 A 
ATOM     73  C   UNL A   1      36.777  30.115  27.640  1.00  0.00     0.001 A 
ATOM     74  C   UNL A   1      35.910  29.967  28.721  1.00  0.00     0.000 A 
ENDBRANCH  50  69
BRANCH  62  75
ATOM     75  C   UNL A   1      44.303  32.397  31.416  1.00  0.00    -0.014 A 
ATOM     76  C   UNL A   1      44.604  33.478  30.573  1.00  0.00     0.009 A 
ATOM     77  C   UNL A   1      44.164  32.625  32.794  1.00  0.00     0.009 A 
ATOM     78  C   UNL A   1      44.793  34.754  31.106  1.00  0.00     0.001 A 
ATOM     79  C   UNL A   1      44.320  33.907  33.319  1.00  0.00     0.001 A 
ATOM     80  C   UNL A   1      44.644  34.970  32.477  1.00  0.00     0.000 A 
ENDBRANCH  62  75
ENDBRANCH  36  37
ENDBRANCH  28  31
ENDBRANCH  26  27
ENDBRANCH   1  26
TORSDOF 13
ENDMDL
MODEL 3
REMARK VINA RESULT:     -11.5      3.647      8.914
REMARK SMILES Cc1cc(O[C@@H]2C[C@H](C)C[C@H](C)C2)cc(C(=O)NCCCNC(=O)c2ccc(-c3c4nc(c(-c5ccccc5)c5ccc([nH]5)c(-c5ccccc5)c5nc(c(-c6ccccc6)c6ccc3[nH]6)C=C5)C=C4)cc2)c1N
REMARK SMILES IDX 20 1 19 2 18 3 16 4 17 5 15 7 1 8 2 9 3 10 73 11 4 12 14 13
REMARK SMILES IDX 74 14 5 17 6 18 13 19 7 20 11 21 8 22 12 23 10 24 9 25 21 26
REMARK SMILES IDX 22 27 23 28 24 30 25 31 26 32 72 33 27 34 71 35 28 36 29 37
REMARK SMILES IDX 30 38 65 39 31 40 70 41 64 42 66 43 32 44 69 45 63 46 62 47
REMARK SMILES IDX 33 49 55 50 40 51 54 52 41 53 44 54 53 55 67 56 42 57 43 58
REMARK SMILES IDX 52 60 68 61 45 62 34 63 35 64 39 65 36 66 38 67 37 68 56 69
REMARK SMILES IDX 57 70 61 71 58 72 60 73 59 74 46 75 47 76 51 77 48 78 50 79
REMARK SMILES IDX 49 80
REMARK H PARENT 18 6 74 15 74 16 22 29 66 48 44 59
REMARK Flexibility Score: inf
ROOT
ATOM      1  C   UNL A   1      31.601  31.772  26.794  1.00  0.00     0.042 C 
ENDROOT
BRANCH   1   2
ATOM      2  C   UNL A   1      31.858  30.302  26.474  1.00  0.00     0.118 C 
BRANCH   2   3
ATOM      3  N   UNL A   1      33.234  29.978  26.778  1.00  0.00    -0.352 N 
ATOM      4  C   UNL A   1      34.038  28.899  26.545  1.00  0.00     0.253 C 
ATOM      5  O   UNL A   1      35.165  28.981  27.045  1.00  0.00    -0.269 OA
ATOM      6  H   UNL A   1      33.696  30.699  27.263  1.00  0.00     0.163 HD
BRANCH   4   7
ATOM      7  C   UNL A   1      33.661  27.729  25.685  1.00  0.00     0.066 A 
ATOM      8  C   UNL A   1      33.483  26.829  21.980  1.00  0.00     0.047 C 
ATOM      9  C   UNL A   1      33.197  26.855  23.462  1.00  0.00    -0.024 A 
ATOM     10  C   UNL A   1      32.615  25.723  24.047  1.00  0.00     0.052 A 
ATOM     11  C   UNL A   1      33.685  27.895  24.276  1.00  0.00     0.048 A 
ATOM     12  C   UNL A   1      32.966  25.418  25.348  1.00  0.00     0.120 A 
ATOM     13  C   UNL A   1      33.398  26.445  26.191  1.00  0.00     0.062 A 
BRANCH  11  14
ATOM     14  N   UNL A   1      34.369  28.956  23.678  1.00  0.00    -0.398 N 
ATOM     15  H   UNL A   1      34.625  28.906  22.728  1.00  0.00     0.156 HD
ATOM     16  H   UNL A   1      34.597  29.755  24.207  1.00  0.00     0.156 HD
ENDBRANCH  11  14
BRANCH  12  17
ATOM     17  O   UNL A   1      33.102  24.133  25.825  1.00  0.00    -0.490 OA
BRANCH  17  18
ATOM     18  C   UNL A   1      34.403  23.679  26.322  1.00  0.00     0.173 C 
ATOM     19  C   UNL A   1      34.556  22.223  26.746  1.00  0.00     0.048 C 
ATOM     20  C   UNL A   1      35.515  23.980  25.256  1.00  0.00     0.048 C 
ATOM     21  C   UNL A   1      34.619  21.248  25.567  1.00  0.00    -0.010 C 
ATOM     22  C   UNL A   1      36.436  22.796  24.738  1.00  0.00    -0.010 C 
ATOM     23  C   UNL A   1      33.706  21.460  24.354  1.00  0.00     0.008 C 
ATOM     24  C   UNL A   1      36.056  21.346  25.116  1.00  0.00     0.007 C 
ATOM     25  C   UNL A   1      36.662  22.878  23.219  1.00  0.00     0.008 C 
ENDBRANCH  17  18
ENDBRANCH  12  17
ENDBRANCH   4   7
ENDBRANCH   2   3
ENDBRANCH   1   2
BRANCH   1  26
ATOM     26  C   UNL A   1      32.903  32.527  27.054  1.00  0.00     0.118 C 
BRANCH  26  27
ATOM     27  N   UNL A   1      32.645  33.824  27.677  1.00  0.00    -0.352 N 
ATOM     28  C   UNL A   1      33.211  34.378  28.789  1.00  0.00     0.251 C 
ATOM     29  H   UNL A   1      31.964  34.378  27.231  1.00  0.00     0.163 HD
ATOM     30  O   UNL A   1      32.649  35.311  29.372  1.00  0.00    -0.269 OA
BRANCH  28  31
ATOM     31  C   UNL A   1      34.501  33.871  29.277  1.00  0.00     0.039 A 
ATOM     32  C   UNL A   1      34.535  33.025  30.387  1.00  0.00     0.014 A 
ATOM     33  C   UNL A   1      35.683  34.257  28.640  1.00  0.00     0.014 A 
ATOM     34  C   UNL A   1      35.759  32.525  30.827  1.00  0.00     0.010 A 
ATOM     35  C   UNL A   1      36.886  33.684  29.018  1.00  0.00     0.010 A 
ATOM     36  C   UNL A   1      36.938  32.826  30.125  1.00  0.00    -0.014 A 
BRANCH  36  37
ATOM     37  C   UNL A   1      38.247  32.271  30.535  1.00  0.00     0.031 A 
ATOM     38  C   UNL A   1      38.730  30.981  29.932  1.00  0.00     0.074 A 
ATOM     39  C   UNL A   1      38.951  32.884  31.503  1.00  0.00     0.049 A 
ATOM     40  N   UNL A   1      39.798  30.285  30.225  1.00  0.00    -0.248 NA
ATOM     41  C   UNL A   1      37.886  30.376  28.888  1.00  0.00     0.031 C 
ATOM     42  C   UNL A   1      38.556  34.116  32.192  1.00  0.00     0.029 A 
ATOM     43  N   UNL A   1      40.145  32.547  32.086  1.00  0.00    -0.354 N 
ATOM     44  C   UNL A   1      39.739  29.154  29.421  1.00  0.00     0.074 A 
ATOM     45  C   UNL A   1      38.505  29.227  28.671  1.00  0.00     0.031 C 
ATOM     46  C   UNL A   1      39.505  34.445  33.082  1.00  0.00     0.029 A 
ATOM     47  C   UNL A   1      40.548  33.426  33.062  1.00  0.00     0.049 A 
ATOM     48  H   UNL A   1      40.664  31.751  31.830  1.00  0.00     0.167 HD
ATOM     49  C   UNL A   1      40.644  28.154  29.303  1.00  0.00     0.031 A 
ATOM     50  C   UNL A   1      41.632  33.404  33.859  1.00  0.00     0.031 A 
ATOM     51  C   UNL A   1      41.874  28.098  30.043  1.00  0.00     0.049 A 
ATOM     52  C   UNL A   1      42.616  32.277  33.715  1.00  0.00     0.074 A 
ATOM     53  C   UNL A   1      42.890  27.163  29.955  1.00  0.00     0.029 A 
ATOM     54  N   UNL A   1      42.254  29.015  31.010  1.00  0.00    -0.354 N 
ATOM     55  N   UNL A   1      42.583  31.251  32.898  1.00  0.00    -0.248 NA
ATOM     56  C   UNL A   1      43.790  32.311  34.595  1.00  0.00     0.031 C 
ATOM     57  C   UNL A   1      43.858  27.483  30.911  1.00  0.00     0.029 A 
ATOM     58  C   UNL A   1      43.477  28.654  31.547  1.00  0.00     0.049 A 
ATOM     59  H   UNL A   1      41.731  29.806  31.276  1.00  0.00     0.167 HD
ATOM     60  C   UNL A   1      43.745  30.533  33.146  1.00  0.00     0.074 A 
ATOM     61  C   UNL A   1      44.468  31.251  34.176  1.00  0.00     0.031 C 
ATOM     62  C   UNL A   1      44.177  29.384  32.571  1.00  0.00     0.031 A 
BRANCH  49  63
ATOM     63  C   UNL A   1      40.328  27.039  28.343  1.00  0.00    -0.014 A 
ATOM     64  C   UNL A   1      40.844  27.032  27.036  1.00  0.00     0.009 A 
ATOM     65  C   UNL A   1      39.527  25.965  28.761  1.00  0.00     0.009 A 
ATOM     66  C   UNL A   1      40.534  25.991  26.158  1.00  0.00     0.001 A 
ATOM     67  C   UNL A   1      39.247  24.910  27.891  1.00  0.00     0.001 A 
ATOM     68  C   UNL A   1      39.741  24.928  26.587  1.00  0.00     0.000 A 
ENDBRANCH  49  63
BRANCH  50  69
ATOM     69  C   UNL A   1      41.847  34.487  34.853  1.00  0.00    -0.014 A 
ATOM     70  C   UNL A   1      42.522  35.664  34.490  1.00  0.00     0.009 A 
ATOM     71  C   UNL A   1      41.378  34.355  36.169  1.00  0.00     0.009 A 
ATOM     72  C   UNL A   1      42.748  36.670  35.432  1.00  0.00     0.001 A 
ATOM     73  C   UNL A   1      41.578  35.375  37.100  1.00  0.00     0.001 A 
ATOM     74  C   UNL A   1      42.271  36.527  36.735  1.00  0.00     0.000 A 
ENDBRANCH  50  69
BRANCH  62  75
ATOM     75  C   UNL A   1      45.511  28.853  33.016  1.00  0.00    -0.014 A 
ATOM     76  C   UNL A   1      45.616  27.927  34.065  1.00  0.00     0.009 A 
ATOM     77  C   UNL A   1      46.674  29.247  32.334  1.00  0.00     0.009 A 
ATOM     78  C   UNL A   1      46.865  27.431  34.442  1.00  0.00     0.001 A 
ATOM     79  C   UNL A   1      47.916  28.724  32.692  1.00  0.00     0.001 A 
ATOM     80  C   UNL A   1      48.013  27.823  33.752  1.00  0.00     0.000 A 
ENDBRANCH  62  75
ENDBRANCH  36  37
ENDBRANCH  28  31
ENDBRANCH  26  27
ENDBRANCH   1  26
TORSDOF 13
ENDMDL
