MODEL 1
REMARK VINA RESULT:     -12.7      0.000      0.000
REMARK SMILES O=C(CC1(NC(=O)C2(c3ccccc3)CC2)CCC1)NCCCNC(=O)c1ccc(-c2c3nc(c(-c4ccccc4)c4ccc([nH]4)c(-c4ccccc4)c4nc(c(-c5ccccc5)c5ccc2[nH]5)C=C4)C=C3)cc1
REMARK SMILES IDX 21 1 20 2 1 3 2 4 3 6 4 7 17 8 19 9 18 10 5 11 6 12 7 14
REMARK SMILES IDX 8 15 15 16 16 17 9 18 10 19 14 20 11 21 13 22 12 23 22 24
REMARK SMILES IDX 23 25 24 26 25 27 26 29 27 30 28 31 74 32 29 33 73 34 30 35
REMARK SMILES IDX 31 36 32 37 67 38 33 39 72 40 66 41 68 42 34 43 71 44 65 45
REMARK SMILES IDX 64 46 35 48 57 49 42 50 56 51 43 52 46 53 55 54 69 55 44 56
REMARK SMILES IDX 45 57 54 59 70 60 47 61 36 62 37 63 41 64 38 65 40 66 39 67
REMARK SMILES IDX 58 68 59 69 63 70 60 71 62 72 61 73 48 74 49 75 53 76 50 77
REMARK SMILES IDX 52 78 51 79
REMARK H PARENT 20 5 5 13 24 28 68 47 46 58
REMARK Flexibility Score: inf
ROOT
ATOM      1  C   UNL A   1      32.125  30.357  27.119  1.00  0.00     0.117 C 
ENDROOT
BRANCH   1   2
ATOM      2  N   UNL A   1      32.675  29.678  25.974  1.00  0.00    -0.356 N 
ATOM      3  O   UNL A   1      34.673  29.020  26.887  1.00  0.00    -0.275 OA
ATOM      4  C   UNL A   1      33.800  28.877  26.034  1.00  0.00     0.222 C 
ATOM      5  H   UNL A   1      32.227  29.790  25.105  1.00  0.00     0.163 HD
BRANCH   4   6
ATOM      6  C   UNL A   1      33.840  27.745  24.782  1.00  0.00     0.128 C 
BRANCH   6   7
ATOM      7  C   UNL A   1      33.684  25.575  24.743  1.00  0.00     0.049 C 
ATOM      8  C   UNL A   1      34.912  24.273  24.235  1.00  0.00     0.029 C 
ATOM      9  C   UNL A   1      33.626  24.328  26.104  1.00  0.00     0.029 C 
ATOM     10  C   UNL A   1      34.695  23.449  25.484  1.00  0.00     0.005 C 
BRANCH   7  11
ATOM     11  N   UNL A   1      32.378  24.618  23.848  1.00  0.00    -0.349 N 
ATOM     12  C   UNL A   1      30.993  24.716  23.804  1.00  0.00     0.231 C 
ATOM     13  H   UNL A   1      32.738  23.891  23.291  1.00  0.00     0.164 HD
ATOM     14  O   UNL A   1      30.275  23.995  23.127  1.00  0.00    -0.274 OA
BRANCH  12  15
ATOM     15  C   UNL A   1      30.505  25.781  24.670  1.00  0.00     0.074 C 
ATOM     16  C   UNL A   1      29.910  25.573  26.029  1.00  0.00     0.023 C 
ATOM     17  C   UNL A   1      31.234  26.278  25.883  1.00  0.00     0.023 C 
BRANCH  15  18
ATOM     18  C   UNL A   1      29.918  26.687  23.693  1.00  0.00    -0.032 A 
ATOM     19  C   UNL A   1      31.011  27.950  22.990  1.00  0.00     0.005 A 
ATOM     20  C   UNL A   1      28.140  27.018  23.847  1.00  0.00     0.005 A 
ATOM     21  C   UNL A   1      30.296  29.429  22.269  1.00  0.00     0.000 A 
ATOM     22  C   UNL A   1      27.457  28.491  23.127  1.00  0.00     0.000 A 
ATOM     23  C   UNL A   1      28.537  29.721  22.379  1.00  0.00     0.000 A 
ENDBRANCH  15  18
ENDBRANCH  12  15
ENDBRANCH   7  11
ENDBRANCH   6   7
ENDBRANCH   4   6
ENDBRANCH   1   2
BRANCH   1  24
ATOM     24  C   UNL A   1      31.845  31.821  26.835  1.00  0.00     0.042 C 
BRANCH  24  25
ATOM     25  C   UNL A   1      32.894  32.794  27.354  1.00  0.00     0.118 C 
BRANCH  25  26
ATOM     26  N   UNL A   1      32.403  34.139  27.627  1.00  0.00    -0.352 N 
ATOM     27  C   UNL A   1      32.932  35.031  28.536  1.00  0.00     0.251 C 
ATOM     28  H   UNL A   1      31.619  34.439  27.112  1.00  0.00     0.163 HD
ATOM     29  O   UNL A   1      32.403  36.111  28.761  1.00  0.00    -0.269 OA
BRANCH  27  30
ATOM     30  C   UNL A   1      34.146  34.616  29.269  1.00  0.00     0.039 A 
ATOM     31  C   UNL A   1      34.007  33.890  30.451  1.00  0.00     0.014 A 
ATOM     32  C   UNL A   1      35.401  34.800  28.681  1.00  0.00     0.014 A 
ATOM     33  C   UNL A   1      35.133  33.289  31.015  1.00  0.00     0.010 A 
ATOM     34  C   UNL A   1      36.499  34.119  29.193  1.00  0.00     0.010 A 
ATOM     35  C   UNL A   1      36.381  33.363  30.370  1.00  0.00    -0.014 A 
BRANCH  35  36
ATOM     36  C   UNL A   1      37.566  32.662  30.928  1.00  0.00     0.031 A 
ATOM     37  C   UNL A   1      38.178  33.128  32.223  1.00  0.00     0.074 A 
ATOM     38  C   UNL A   1      38.109  31.621  30.265  1.00  0.00     0.049 A 
ATOM     39  N   UNL A   1      39.188  32.624  32.886  1.00  0.00    -0.248 NA
ATOM     40  C   UNL A   1      37.598  34.332  32.840  1.00  0.00     0.031 C 
ATOM     41  C   UNL A   1      37.649  31.102  28.974  1.00  0.00     0.029 A 
ATOM     42  N   UNL A   1      39.162  30.802  30.591  1.00  0.00    -0.354 N 
ATOM     43  C   UNL A   1      39.363  33.451  33.989  1.00  0.00     0.074 A 
ATOM     44  C   UNL A   1      38.407  34.527  33.869  1.00  0.00     0.031 C 
ATOM     45  C   UNL A   1      38.380  30.025  28.646  1.00  0.00     0.029 A 
ATOM     46  C   UNL A   1      39.386  29.799  29.679  1.00  0.00     0.049 A 
ATOM     47  H   UNL A   1      39.706  30.923  31.404  1.00  0.00     0.167 HD
ATOM     48  C   UNL A   1      40.221  33.313  35.027  1.00  0.00     0.031 A 
ATOM     49  C   UNL A   1      40.295  28.805  29.677  1.00  0.00     0.031 A 
ATOM     50  C   UNL A   1      41.172  32.242  35.150  1.00  0.00     0.049 A 
ATOM     51  C   UNL A   1      41.251  28.684  30.833  1.00  0.00     0.074 A 
ATOM     52  C   UNL A   1      42.050  31.984  36.188  1.00  0.00     0.029 A 
ATOM     53  N   UNL A   1      41.375  31.255  34.198  1.00  0.00    -0.354 N 
ATOM     54  N   UNL A   1      41.344  29.425  31.911  1.00  0.00    -0.248 NA
ATOM     55  C   UNL A   1      42.217  27.577  30.777  1.00  0.00     0.031 C 
ATOM     56  C   UNL A   1      42.828  30.878  35.835  1.00  0.00     0.029 A 
ATOM     57  C   UNL A   1      42.385  30.403  34.611  1.00  0.00     0.049 A 
ATOM     58  H   UNL A   1      40.875  31.171  33.354  1.00  0.00     0.167 HD
ATOM     59  C   UNL A   1      42.355  28.856  32.675  1.00  0.00     0.074 A 
ATOM     60  C   UNL A   1      42.829  27.697  31.946  1.00  0.00     0.031 C 
ATOM     61  C   UNL A   1      42.849  29.256  33.873  1.00  0.00     0.031 A 
BRANCH  48  62
ATOM     62  C   UNL A   1      40.168  34.356  36.110  1.00  0.00    -0.014 A 
ATOM     63  C   UNL A   1      39.320  34.214  37.221  1.00  0.00     0.009 A 
ATOM     64  C   UNL A   1      40.999  35.485  36.034  1.00  0.00     0.009 A 
ATOM     65  C   UNL A   1      39.275  35.198  38.210  1.00  0.00     0.001 A 
ATOM     66  C   UNL A   1      40.977  36.451  37.042  1.00  0.00     0.001 A 
ATOM     67  C   UNL A   1      40.108  36.313  38.123  1.00  0.00     0.000 A 
ENDBRANCH  48  62
BRANCH  49  68
ATOM     68  C   UNL A   1      40.336  27.827  28.556  1.00  0.00    -0.014 A 
ATOM     69  C   UNL A   1      39.643  26.610  28.640  1.00  0.00     0.009 A 
ATOM     70  C   UNL A   1      41.088  28.096  27.401  1.00  0.00     0.009 A 
ATOM     71  C   UNL A   1      39.728  25.670  27.608  1.00  0.00     0.001 A 
ATOM     72  C   UNL A   1      41.144  27.171  26.356  1.00  0.00     0.001 A 
ATOM     73  C   UNL A   1      40.476  25.953  26.467  1.00  0.00     0.000 A 
ENDBRANCH  49  68
BRANCH  61  74
ATOM     74  C   UNL A   1      43.930  28.411  34.489  1.00  0.00    -0.014 A 
ATOM     75  C   UNL A   1      45.290  28.681  34.270  1.00  0.00     0.009 A 
ATOM     76  C   UNL A   1      43.578  27.343  35.330  1.00  0.00     0.009 A 
ATOM     77  C   UNL A   1      46.273  27.872  34.843  1.00  0.00     0.001 A 
ATOM     78  C   UNL A   1      44.563  26.559  35.932  1.00  0.00     0.001 A 
ATOM     79  C   UNL A   1      45.909  26.815  35.677  1.00  0.00     0.000 A 
ENDBRANCH  61  74
ENDBRANCH  35  36
ENDBRANCH  27  30
ENDBRANCH  25  26
ENDBRANCH  24  25
ENDBRANCH   1  24
TORSDOF 14
ENDMDL
MODEL 2
REMARK VINA RESULT:     -12.3      3.133      7.846
REMARK SMILES O=C(CC1(NC(=O)C2(c3ccccc3)CC2)CCC1)NCCCNC(=O)c1ccc(-c2c3nc(c(-c4ccccc4)c4ccc([nH]4)c(-c4ccccc4)c4nc(c(-c5ccccc5)c5ccc2[nH]5)C=C4)C=C3)cc1
REMARK SMILES IDX 21 1 20 2 1 3 2 4 3 6 4 7 17 8 19 9 18 10 5 11 6 12 7 14
REMARK SMILES IDX 8 15 15 16 16 17 9 18 10 19 14 20 11 21 13 22 12 23 22 24
REMARK SMILES IDX 23 25 24 26 25 27 26 29 27 30 28 31 74 32 29 33 73 34 30 35
REMARK SMILES IDX 31 36 32 37 67 38 33 39 72 40 66 41 68 42 34 43 71 44 65 45
REMARK SMILES IDX 64 46 35 48 57 49 42 50 56 51 43 52 46 53 55 54 69 55 44 56
REMARK SMILES IDX 45 57 54 59 70 60 47 61 36 62 37 63 41 64 38 65 40 66 39 67
REMARK SMILES IDX 58 68 59 69 63 70 60 71 62 72 61 73 48 74 49 75 53 76 50 77
REMARK SMILES IDX 52 78 51 79
REMARK H PARENT 20 5 5 13 24 28 68 47 46 58
REMARK Flexibility Score: inf
ROOT
ATOM      1  C   UNL A   1      34.680  22.630  25.929  1.00  0.00     0.117 C 
ENDROOT
BRANCH   1   2
ATOM      2  N   UNL A   1      33.577  23.486  25.573  1.00  0.00    -0.356 N 
ATOM      3  O   UNL A   1      32.248  23.120  27.405  1.00  0.00    -0.275 OA
ATOM      4  C   UNL A   1      32.565  23.826  26.453  1.00  0.00     0.222 C 
ATOM      5  H   UNL A   1      33.543  23.847  24.658  1.00  0.00     0.163 HD
BRANCH   4   6
ATOM      6  C   UNL A   1      31.811  25.275  26.021  1.00  0.00     0.128 C 
BRANCH   6   7
ATOM      7  C   UNL A   1      32.528  27.321  25.843  1.00  0.00     0.049 C 
ATOM      8  C   UNL A   1      31.642  28.945  26.037  1.00  0.00     0.029 C 
ATOM      9  C   UNL A   1      33.637  28.327  26.925  1.00  0.00     0.029 C 
ATOM     10  C   UNL A   1      32.700  29.520  26.951  1.00  0.00     0.005 C 
BRANCH   7  11
ATOM     11  N   UNL A   1      33.383  28.024  24.361  1.00  0.00    -0.349 N 
ATOM     12  C   UNL A   1      33.202  27.857  22.994  1.00  0.00     0.231 C 
ATOM     13  H   UNL A   1      34.116  28.640  24.588  1.00  0.00     0.164 HD
ATOM     14  O   UNL A   1      33.861  28.430  22.139  1.00  0.00    -0.274 OA
BRANCH  12  15
ATOM     15  C   UNL A   1      32.131  26.912  22.709  1.00  0.00     0.074 C 
ATOM     16  C   UNL A   1      32.115  25.962  21.550  1.00  0.00     0.023 C 
ATOM     17  C   UNL A   1      32.225  25.436  22.958  1.00  0.00     0.023 C 
BRANCH  15  18
ATOM     18  C   UNL A   1      30.962  27.691  23.092  1.00  0.00    -0.032 A 
ATOM     19  C   UNL A   1      29.539  26.767  23.729  1.00  0.00     0.005 A 
ATOM     20  C   UNL A   1      30.701  29.261  22.219  1.00  0.00     0.005 A 
ATOM     21  C   UNL A   1      27.908  27.514  23.670  1.00  0.00     0.000 A 
ATOM     22  C   UNL A   1      29.077  29.977  22.173  1.00  0.00     0.000 A 
ATOM     23  C   UNL A   1      27.670  29.086  22.855  1.00  0.00     0.000 A 
ENDBRANCH  15  18
ENDBRANCH  12  15
ENDBRANCH   7  11
ENDBRANCH   6   7
ENDBRANCH   4   6
ENDBRANCH   1   2
BRANCH   1  24
ATOM     24  C   UNL A   1      35.951  23.416  26.191  1.00  0.00     0.042 C 
BRANCH  24  25
ATOM     25  C   UNL A   1      37.030  23.274  25.126  1.00  0.00     0.118 C 
BRANCH  25  26
ATOM     26  N   UNL A   1      38.113  22.361  25.466  1.00  0.00    -0.352 N 
ATOM     27  C   UNL A   1      39.246  22.675  26.189  1.00  0.00     0.251 C 
ATOM     28  H   UNL A   1      38.028  21.433  25.150  1.00  0.00     0.163 HD
ATOM     29  O   UNL A   1      40.148  21.864  26.355  1.00  0.00    -0.269 OA
BRANCH  27  30
ATOM     30  C   UNL A   1      39.356  24.048  26.721  1.00  0.00     0.039 A 
ATOM     31  C   UNL A   1      38.940  24.302  28.027  1.00  0.00     0.014 A 
ATOM     32  C   UNL A   1      40.032  25.022  25.979  1.00  0.00     0.014 A 
ATOM     33  C   UNL A   1      39.262  25.526  28.616  1.00  0.00     0.010 A 
ATOM     34  C   UNL A   1      40.433  26.197  26.602  1.00  0.00     0.010 A 
ATOM     35  C   UNL A   1      40.046  26.467  27.924  1.00  0.00    -0.014 A 
BRANCH  35  36
ATOM     36  C   UNL A   1      40.454  27.739  28.575  1.00  0.00     0.031 A 
ATOM     37  C   UNL A   1      41.871  27.923  29.050  1.00  0.00     0.074 A 
ATOM     38  C   UNL A   1      39.551  28.722  28.762  1.00  0.00     0.049 A 
ATOM     39  N   UNL A   1      42.426  28.971  29.605  1.00  0.00    -0.248 NA
ATOM     40  C   UNL A   1      42.778  26.771  28.906  1.00  0.00     0.031 C 
ATOM     41  C   UNL A   1      38.133  28.653  28.400  1.00  0.00     0.029 A 
ATOM     42  N   UNL A   1      39.693  29.980  29.294  1.00  0.00    -0.354 N 
ATOM     43  C   UNL A   1      43.737  28.601  29.879  1.00  0.00     0.074 A 
ATOM     44  C   UNL A   1      43.876  27.214  29.498  1.00  0.00     0.031 C 
ATOM     45  C   UNL A   1      37.551  29.832  28.671  1.00  0.00     0.029 A 
ATOM     46  C   UNL A   1      38.540  30.727  29.263  1.00  0.00     0.049 A 
ATOM     47  H   UNL A   1      40.543  30.315  29.662  1.00  0.00     0.167 HD
ATOM     48  C   UNL A   1      44.747  29.354  30.375  1.00  0.00     0.031 A 
ATOM     49  C   UNL A   1      38.307  31.993  29.661  1.00  0.00     0.031 A 
ATOM     50  C   UNL A   1      44.612  30.735  30.753  1.00  0.00     0.049 A 
ATOM     51  C   UNL A   1      39.441  32.804  30.227  1.00  0.00     0.074 A 
ATOM     52  C   UNL A   1      45.587  31.600  31.217  1.00  0.00     0.029 A 
ATOM     53  N   UNL A   1      43.425  31.449  30.718  1.00  0.00    -0.354 N 
ATOM     54  N   UNL A   1      40.696  32.465  30.398  1.00  0.00    -0.248 NA
ATOM     55  C   UNL A   1      39.127  34.179  30.639  1.00  0.00     0.031 C 
ATOM     56  C   UNL A   1      44.977  32.820  31.523  1.00  0.00     0.029 A 
ATOM     57  C   UNL A   1      43.636  32.737  31.181  1.00  0.00     0.049 A 
ATOM     58  H   UNL A   1      42.560  31.094  30.410  1.00  0.00     0.167 HD
ATOM     59  C   UNL A   1      41.327  33.594  30.907  1.00  0.00     0.074 A 
ATOM     60  C   UNL A   1      40.320  34.631  30.996  1.00  0.00     0.031 C 
ATOM     61  C   UNL A   1      42.624  33.758  31.269  1.00  0.00     0.031 A 
BRANCH  48  62
ATOM     62  C   UNL A   1      46.087  28.691  30.539  1.00  0.00    -0.014 A 
ATOM     63  C   UNL A   1      46.428  28.015  31.723  1.00  0.00     0.009 A 
ATOM     64  C   UNL A   1      47.014  28.717  29.485  1.00  0.00     0.009 A 
ATOM     65  C   UNL A   1      47.682  27.418  31.863  1.00  0.00     0.001 A 
ATOM     66  C   UNL A   1      48.254  28.089  29.616  1.00  0.00     0.001 A 
ATOM     67  C   UNL A   1      48.592  27.450  30.807  1.00  0.00     0.000 A 
ENDBRANCH  48  62
BRANCH  49  68
ATOM     68  C   UNL A   1      36.949  32.586  29.520  1.00  0.00    -0.014 A 
ATOM     69  C   UNL A   1      36.011  32.487  30.560  1.00  0.00     0.009 A 
ATOM     70  C   UNL A   1      36.573  33.236  28.334  1.00  0.00     0.009 A 
ATOM     71  C   UNL A   1      34.719  32.997  30.403  1.00  0.00     0.001 A 
ATOM     72  C   UNL A   1      35.293  33.775  28.192  1.00  0.00     0.001 A 
ATOM     73  C   UNL A   1      34.363  33.643  29.221  1.00  0.00     0.000 A 
ENDBRANCH  49  68
BRANCH  61  74
ATOM     74  C   UNL A   1      43.035  35.120  31.756  1.00  0.00    -0.014 A 
ATOM     75  C   UNL A   1      43.547  36.090  30.881  1.00  0.00     0.009 A 
ATOM     76  C   UNL A   1      42.876  35.446  33.112  1.00  0.00     0.009 A 
ATOM     77  C   UNL A   1      43.933  37.343  31.362  1.00  0.00     0.001 A 
ATOM     78  C   UNL A   1      43.228  36.711  33.584  1.00  0.00     0.001 A 
ATOM     79  C   UNL A   1      43.769  37.653  32.712  1.00  0.00     0.000 A 
ENDBRANCH  61  74
ENDBRANCH  35  36
ENDBRANCH  27  30
ENDBRANCH  25  26
ENDBRANCH  24  25
ENDBRANCH   1  24
TORSDOF 14
ENDMDL
MODEL 3
REMARK VINA RESULT:     -12.3      4.149      9.270
REMARK SMILES O=C(CC1(NC(=O)C2(c3ccccc3)CC2)CCC1)NCCCNC(=O)c1ccc(-c2c3nc(c(-c4ccccc4)c4ccc([nH]4)c(-c4ccccc4)c4nc(c(-c5ccccc5)c5ccc2[nH]5)C=C4)C=C3)cc1
REMARK SMILES IDX 21 1 20 2 1 3 2 4 3 6 4 7 17 8 19 9 18 10 5 11 6 12 7 14
REMARK SMILES IDX 8 15 15 16 16 17 9 18 10 19 14 20 11 21 13 22 12 23 22 24
REMARK SMILES IDX 23 25 24 26 25 27 26 29 27 30 28 31 74 32 29 33 73 34 30 35
REMARK SMILES IDX 31 36 32 37 67 38 33 39 72 40 66 41 68 42 34 43 71 44 65 45
REMARK SMILES IDX 64 46 35 48 57 49 42 50 56 51 43 52 46 53 55 54 69 55 44 56
REMARK SMILES IDX 45 57 54 59 70 60 47 61 36 62 37 63 41 64 38 65 40 66 39 67
REMARK SMILES IDX 58 68 59 69 63 70 60 71 62 72 61 73 48 74 49 75 53 76 50 77
REMARK SMILES IDX 52 78 51 79
REMARK H PARENT 20 5 5 13 24 28 68 47 46 58
REMARK Flexibility Score: inf
ROOT
ATOM      1  C   UNL A   1      36.178  21.250  25.704  1.00  0.00     0.117 C 
ENDROOT
BRANCH   1   2
ATOM      2  N   UNL A   1      35.519  22.372  25.086  1.00  0.00    -0.356 N 
ATOM      3  O   UNL A   1      34.447  23.205  26.934  1.00  0.00    -0.275 OA
ATOM      4  C   UNL A   1      34.897  23.377  25.804  1.00  0.00     0.222 C 
ATOM      5  H   UNL A   1      35.511  22.426  24.103  1.00  0.00     0.163 HD
BRANCH   4   6
ATOM      6  C   UNL A   1      34.793  24.814  24.924  1.00  0.00     0.128 C 
BRANCH   6   7
ATOM      7  C   UNL A   1      33.606  26.621  25.173  1.00  0.00     0.049 C 
ATOM      8  C   UNL A   1      33.269  27.661  26.678  1.00  0.00     0.029 C 
ATOM      9  C   UNL A   1      33.887  28.356  24.608  1.00  0.00     0.029 C 
ATOM     10  C   UNL A   1      33.599  28.956  25.971  1.00  0.00     0.005 C 
BRANCH   7  11
ATOM     11  N   UNL A   1      31.822  26.791  24.719  1.00  0.00    -0.349 N 
ATOM     12  C   UNL A   1      31.052  26.275  23.684  1.00  0.00     0.231 C 
ATOM     13  H   UNL A   1      31.314  27.366  25.336  1.00  0.00     0.164 HD
ATOM     14  O   UNL A   1      29.855  26.482  23.549  1.00  0.00    -0.274 OA
BRANCH  12  15
ATOM     15  C   UNL A   1      31.853  25.461  22.779  1.00  0.00     0.074 C 
ATOM     16  C   UNL A   1      32.054  25.749  21.322  1.00  0.00     0.023 C 
ATOM     17  C   UNL A   1      33.213  25.849  22.281  1.00  0.00     0.023 C 
BRANCH  15  18
ATOM     18  C   UNL A   1      31.559  24.124  23.275  1.00  0.00    -0.032 A 
ATOM     19  C   UNL A   1      31.015  23.994  24.998  1.00  0.00     0.005 A 
ATOM     20  C   UNL A   1      32.464  22.749  22.509  1.00  0.00     0.005 A 
ATOM     21  C   UNL A   1      31.195  22.432  25.862  1.00  0.00     0.000 A 
ATOM     22  C   UNL A   1      32.631  21.214  23.386  1.00  0.00     0.000 A 
ATOM     23  C   UNL A   1      32.040  21.065  25.080  1.00  0.00     0.000 A 
ENDBRANCH  15  18
ENDBRANCH  12  15
ENDBRANCH   7  11
ENDBRANCH   6   7
ENDBRANCH   4   6
ENDBRANCH   1   2
BRANCH   1  24
ATOM     24  C   UNL A   1      37.420  20.827  24.942  1.00  0.00     0.042 C 
BRANCH  24  25
ATOM     25  C   UNL A   1      38.722  20.918  25.725  1.00  0.00     0.118 C 
BRANCH  25  26
ATOM     26  N   UNL A   1      39.591  19.754  25.609  1.00  0.00    -0.352 N 
ATOM     27  C   UNL A   1      40.925  19.695  25.958  1.00  0.00     0.251 C 
ATOM     28  H   UNL A   1      39.188  18.932  25.248  1.00  0.00     0.163 HD
ATOM     29  O   UNL A   1      41.602  18.697  25.748  1.00  0.00    -0.269 OA
BRANCH  27  30
ATOM     30  C   UNL A   1      41.526  20.904  26.559  1.00  0.00     0.039 A 
ATOM     31  C   UNL A   1      42.025  21.899  25.721  1.00  0.00     0.014 A 
ATOM     32  C   UNL A   1      41.424  21.109  27.939  1.00  0.00     0.014 A 
ATOM     33  C   UNL A   1      42.367  23.137  26.266  1.00  0.00     0.010 A 
ATOM     34  C   UNL A   1      41.674  22.373  28.459  1.00  0.00     0.010 A 
ATOM     35  C   UNL A   1      42.156  23.399  27.632  1.00  0.00    -0.014 A 
BRANCH  35  36
ATOM     36  C   UNL A   1      42.449  24.740  28.201  1.00  0.00     0.031 A 
ATOM     37  C   UNL A   1      43.852  25.092  28.620  1.00  0.00     0.074 A 
ATOM     38  C   UNL A   1      41.454  25.636  28.364  1.00  0.00     0.049 A 
ATOM     39  N   UNL A   1      44.311  26.220  29.101  1.00  0.00    -0.248 NA
ATOM     40  C   UNL A   1      44.867  24.031  28.509  1.00  0.00     0.031 C 
ATOM     41  C   UNL A   1      40.042  25.405  28.051  1.00  0.00     0.029 A 
ATOM     42  N   UNL A   1      41.482  26.930  28.824  1.00  0.00    -0.354 N 
ATOM     43  C   UNL A   1      45.660  26.000  29.352  1.00  0.00     0.074 A 
ATOM     44  C   UNL A   1      45.929  24.615  29.041  1.00  0.00     0.031 C 
ATOM     45  C   UNL A   1      39.350  26.532  28.279  1.00  0.00     0.029 A 
ATOM     46  C   UNL A   1      40.258  27.554  28.790  1.00  0.00     0.049 A 
ATOM     47  H   UNL A   1      42.302  27.369  29.147  1.00  0.00     0.167 HD
ATOM     48  C   UNL A   1      46.599  26.877  29.775  1.00  0.00     0.031 A 
ATOM     49  C   UNL A   1      39.906  28.811  29.128  1.00  0.00     0.031 A 
ATOM     50  C   UNL A   1      46.334  28.256  30.083  1.00  0.00     0.049 A 
ATOM     51  C   UNL A   1      40.966  29.762  29.614  1.00  0.00     0.074 A 
ATOM     52  C   UNL A   1      47.227  29.240  30.470  1.00  0.00     0.029 A 
ATOM     53  N   UNL A   1      45.080  28.844  30.048  1.00  0.00    -0.354 N 
ATOM     54  N   UNL A   1      42.254  29.561  29.762  1.00  0.00    -0.248 NA
ATOM     55  C   UNL A   1      40.524  31.120  29.962  1.00  0.00     0.031 C 
ATOM     56  C   UNL A   1      46.504  30.407  30.730  1.00  0.00     0.029 A 
ATOM     57  C   UNL A   1      45.170  30.171  30.435  1.00  0.00     0.049 A 
ATOM     58  H   UNL A   1      44.248  28.388  29.787  1.00  0.00     0.167 HD
ATOM     59  C   UNL A   1      42.779  30.774  30.190  1.00  0.00     0.074 A 
ATOM     60  C   UNL A   1      41.674  31.708  30.257  1.00  0.00     0.031 C 
ATOM     61  C   UNL A   1      44.061  31.088  30.501  1.00  0.00     0.031 A 
BRANCH  48  62
ATOM     62  C   UNL A   1      48.005  26.363  29.932  1.00  0.00    -0.014 A 
ATOM     63  C   UNL A   1      48.927  26.421  28.874  1.00  0.00     0.009 A 
ATOM     64  C   UNL A   1      48.422  25.837  31.165  1.00  0.00     0.009 A 
ATOM     65  C   UNL A   1      50.223  25.927  29.034  1.00  0.00     0.001 A 
ATOM     66  C   UNL A   1      49.729  25.375  31.332  1.00  0.00     0.001 A 
ATOM     67  C   UNL A   1      50.624  25.409  30.264  1.00  0.00     0.000 A 
ENDBRANCH  48  62
BRANCH  49  68
ATOM     68  C   UNL A   1      38.492  29.255  28.999  1.00  0.00    -0.014 A 
ATOM     69  C   UNL A   1      37.995  29.720  27.772  1.00  0.00     0.009 A 
ATOM     70  C   UNL A   1      37.634  29.237  30.111  1.00  0.00     0.009 A 
ATOM     71  C   UNL A   1      36.682  30.189  27.668  1.00  0.00     0.001 A 
ATOM     72  C   UNL A   1      36.312  29.673  29.996  1.00  0.00     0.001 A 
ATOM     73  C   UNL A   1      35.841  30.161  28.779  1.00  0.00     0.000 A 
ENDBRANCH  49  68
BRANCH  61  74
ATOM     74  C   UNL A   1      44.344  32.510  30.902  1.00  0.00    -0.014 A 
ATOM     75  C   UNL A   1      44.316  32.914  32.246  1.00  0.00     0.009 A 
ATOM     76  C   UNL A   1      44.676  33.453  29.917  1.00  0.00     0.009 A 
ATOM     77  C   UNL A   1      44.569  34.244  32.589  1.00  0.00     0.001 A 
ATOM     78  C   UNL A   1      44.965  34.773  30.266  1.00  0.00     0.001 A 
ATOM     79  C   UNL A   1      44.898  35.170  31.600  1.00  0.00     0.000 A 
ENDBRANCH  61  74
ENDBRANCH  35  36
ENDBRANCH  27  30
ENDBRANCH  25  26
ENDBRANCH  24  25
ENDBRANCH   1  24
TORSDOF 14
ENDMDL
