MODEL 1
REMARK VINA RESULT:     -12.4      0.000      0.000
REMARK SMILES O=C(NCCCNC(=O)c1ccc(-n2cnc3ccccc32)nc1)c1ccc(-c2c3nc(c(-c4ccccc4)c4ccc([nH]4)c(-c4ccccc4)c4nc(c(-c5ccccc5)c5ccc2[nH]5)C=C4)C=C3)cc1
REMARK SMILES IDX 4 1 3 2 1 3 2 4 25 6 26 7 72 8 27 9 71 10 28 11 29 12 30 13
REMARK SMILES IDX 65 14 31 15 70 16 64 17 66 18 32 19 69 20 63 21 62 22 33 24
REMARK SMILES IDX 55 25 40 26 54 27 41 28 44 29 53 30 67 31 42 32 43 33 52 35
REMARK SMILES IDX 68 36 45 37 34 38 35 39 39 40 36 41 38 42 37 43 56 44 57 45
REMARK SMILES IDX 61 46 58 47 60 48 59 49 46 50 47 51 51 52 48 53 50 54 49 55
REMARK SMILES IDX 5 56 6 57 7 58 8 59 9 61 10 62 11 63 24 64 12 65 23 66 13 67
REMARK SMILES IDX 14 68 15 69 22 70 16 71 17 72 21 73 18 74 20 75 19 76
REMARK H PARENT 3 5 66 23 44 34 7 60
REMARK Flexibility Score: inf
ROOT
ATOM      1  C   UNL A   1      39.045  20.319  25.695  1.00  0.00     0.118 C 
ENDROOT
BRANCH   1   2
ATOM      2  N   UNL A   1      40.060  19.253  25.804  1.00  0.00    -0.352 N 
ATOM      3  O   UNL A   1      42.215  18.472  25.750  1.00  0.00    -0.269 OA
ATOM      4  C   UNL A   1      41.433  19.399  25.973  1.00  0.00     0.251 C 
ATOM      5  H   UNL A   1      39.727  18.328  25.750  1.00  0.00     0.163 HD
BRANCH   4   6
ATOM      6  C   UNL A   1      41.926  20.695  26.461  1.00  0.00     0.039 A 
ATOM      7  C   UNL A   1      42.433  21.726  25.667  1.00  0.00     0.014 A 
ATOM      8  C   UNL A   1      41.697  20.905  27.803  1.00  0.00     0.014 A 
ATOM      9  C   UNL A   1      42.654  22.959  26.283  1.00  0.00     0.010 A 
ATOM     10  C   UNL A   1      41.389  22.171  28.163  1.00  0.00     0.010 A 
ATOM     11  C   UNL A   1      42.128  23.157  27.569  1.00  0.00    -0.014 A 
BRANCH  11  12
ATOM     12  C   UNL A   1      42.263  24.362  28.366  1.00  0.00     0.031 A 
ATOM     13  C   UNL A   1      41.181  25.338  28.163  1.00  0.00     0.074 A 
ATOM     14  C   UNL A   1      43.178  24.493  29.359  1.00  0.00     0.049 A 
ATOM     15  N   UNL A   1      41.268  26.459  27.538  1.00  0.00    -0.248 NA
ATOM     16  C   UNL A   1      39.814  24.955  28.542  1.00  0.00     0.031 C 
ATOM     17  C   UNL A   1      44.117  23.501  29.918  1.00  0.00     0.029 A 
ATOM     18  N   UNL A   1      43.399  25.566  30.162  1.00  0.00    -0.354 N 
ATOM     19  C   UNL A   1      40.005  27.027  27.598  1.00  0.00     0.074 A 
ATOM     20  C   UNL A   1      39.118  25.987  28.059  1.00  0.00     0.031 C 
ATOM     21  C   UNL A   1      44.623  23.949  31.092  1.00  0.00     0.029 A 
ATOM     22  C   UNL A   1      44.208  25.325  31.266  1.00  0.00     0.049 A 
ATOM     23  H   UNL A   1      43.013  26.452  29.974  1.00  0.00     0.167 HD
ATOM     24  C   UNL A   1      39.840  28.371  27.471  1.00  0.00     0.031 A 
ATOM     25  C   UNL A   1      44.517  26.209  32.248  1.00  0.00     0.031 A 
ATOM     26  C   UNL A   1      41.042  29.000  26.977  1.00  0.00     0.049 A 
ATOM     27  C   UNL A   1      44.280  27.561  31.690  1.00  0.00     0.074 A 
ATOM     28  C   UNL A   1      41.760  28.900  25.801  1.00  0.00     0.029 A 
ATOM     29  N   UNL A   1      41.913  29.512  27.912  1.00  0.00    -0.354 N 
ATOM     30  N   UNL A   1      44.975  28.061  30.708  1.00  0.00    -0.248 NA
ATOM     31  C   UNL A   1      42.965  28.150  31.892  1.00  0.00     0.031 C 
ATOM     32  C   UNL A   1      43.126  28.894  26.207  1.00  0.00     0.029 A 
ATOM     33  C   UNL A   1      43.180  29.091  27.589  1.00  0.00     0.049 A 
ATOM     34  H   UNL A   1      41.670  30.082  28.677  1.00  0.00     0.167 HD
ATOM     35  C   UNL A   1      44.040  28.698  29.903  1.00  0.00     0.074 A 
ATOM     36  C   UNL A   1      42.836  28.795  30.730  1.00  0.00     0.031 C 
ATOM     37  C   UNL A   1      44.231  28.822  28.555  1.00  0.00     0.031 A 
BRANCH  24  38
ATOM     38  C   UNL A   1      38.728  29.146  28.119  1.00  0.00    -0.014 A 
ATOM     39  C   UNL A   1      37.667  29.735  27.404  1.00  0.00     0.009 A 
ATOM     40  C   UNL A   1      38.596  29.097  29.516  1.00  0.00     0.009 A 
ATOM     41  C   UNL A   1      36.532  30.241  28.041  1.00  0.00     0.001 A 
ATOM     42  C   UNL A   1      37.442  29.567  30.156  1.00  0.00     0.001 A 
ATOM     43  C   UNL A   1      36.410  30.137  29.418  1.00  0.00     0.000 A 
ENDBRANCH  24  38
BRANCH  25  44
ATOM     44  C   UNL A   1      44.584  25.967  33.707  1.00  0.00    -0.014 A 
ATOM     45  C   UNL A   1      43.674  25.084  34.317  1.00  0.00     0.009 A 
ATOM     46  C   UNL A   1      45.309  26.835  34.543  1.00  0.00     0.009 A 
ATOM     47  C   UNL A   1      43.447  25.112  35.698  1.00  0.00     0.001 A 
ATOM     48  C   UNL A   1      45.084  26.861  35.927  1.00  0.00     0.001 A 
ATOM     49  C   UNL A   1      44.137  26.014  36.500  1.00  0.00     0.000 A 
ENDBRANCH  25  44
BRANCH  37  50
ATOM     50  C   UNL A   1      45.576  28.421  27.978  1.00  0.00    -0.014 A 
ATOM     51  C   UNL A   1      46.482  29.442  27.649  1.00  0.00     0.009 A 
ATOM     52  C   UNL A   1      45.890  27.109  27.574  1.00  0.00     0.009 A 
ATOM     53  C   UNL A   1      47.643  29.173  26.919  1.00  0.00     0.001 A 
ATOM     54  C   UNL A   1      47.067  26.834  26.865  1.00  0.00     0.001 A 
ATOM     55  C   UNL A   1      47.936  27.869  26.527  1.00  0.00     0.000 A 
ENDBRANCH  37  50
ENDBRANCH  11  12
ENDBRANCH   4   6
ENDBRANCH   1   2
BRANCH   1  56
ATOM     56  C   UNL A   1      37.984  20.074  24.648  1.00  0.00     0.042 C 
BRANCH  56  57
ATOM     57  C   UNL A   1      36.594  20.469  25.142  1.00  0.00     0.118 C 
BRANCH  57  58
ATOM     58  N   UNL A   1      35.559  19.475  24.841  1.00  0.00    -0.352 N 
ATOM     59  C   UNL A   1      34.192  19.585  24.939  1.00  0.00     0.252 C 
ATOM     60  H   UNL A   1      35.890  18.604  24.525  1.00  0.00     0.163 HD
ATOM     61  O   UNL A   1      33.462  18.609  24.801  1.00  0.00    -0.269 OA
BRANCH  59  62
ATOM     62  C   UNL A   1      33.610  20.900  25.211  1.00  0.00     0.058 A 
ATOM     63  C   UNL A   1      33.464  21.345  26.521  1.00  0.00     0.019 A 
ATOM     64  C   UNL A   1      33.145  21.694  24.173  1.00  0.00     0.127 A 
ATOM     65  C   UNL A   1      32.783  22.523  26.752  1.00  0.00     0.048 A 
ATOM     66  N   UNL A   1      32.469  22.856  24.371  1.00  0.00    -0.238 NA
ATOM     67  C   UNL A   1      32.335  23.264  25.659  1.00  0.00     0.138 A 
BRANCH  67  68
ATOM     68  N   UNL A   1      31.746  24.520  25.920  1.00  0.00    -0.283 N 
ATOM     69  C   UNL A   1      30.408  24.777  26.079  1.00  0.00     0.206 A 
ATOM     70  C   UNL A   1      32.413  25.725  26.056  1.00  0.00     0.074 A 
ATOM     71  N   UNL A   1      30.189  26.019  26.460  1.00  0.00    -0.236 NA
ATOM     72  C   UNL A   1      31.422  26.625  26.430  1.00  0.00     0.089 A 
ATOM     73  C   UNL A   1      33.745  26.113  25.834  1.00  0.00     0.029 A 
ATOM     74  C   UNL A   1      31.779  27.959  26.680  1.00  0.00     0.030 A 
ATOM     75  C   UNL A   1      34.077  27.446  26.067  1.00  0.00     0.002 A 
ATOM     76  C   UNL A   1      33.113  28.355  26.497  1.00  0.00     0.002 A 
ENDBRANCH  67  68
ENDBRANCH  59  62
ENDBRANCH  57  58
ENDBRANCH  56  57
ENDBRANCH   1  56
TORSDOF 11
ENDMDL
MODEL 2
REMARK VINA RESULT:     -12.2      4.558      9.286
REMARK SMILES O=C(NCCCNC(=O)c1ccc(-n2cnc3ccccc32)nc1)c1ccc(-c2c3nc(c(-c4ccccc4)c4ccc([nH]4)c(-c4ccccc4)c4nc(c(-c5ccccc5)c5ccc2[nH]5)C=C4)C=C3)cc1
REMARK SMILES IDX 4 1 3 2 1 3 2 4 25 6 26 7 72 8 27 9 71 10 28 11 29 12 30 13
REMARK SMILES IDX 65 14 31 15 70 16 64 17 66 18 32 19 69 20 63 21 62 22 33 24
REMARK SMILES IDX 55 25 40 26 54 27 41 28 44 29 53 30 67 31 42 32 43 33 52 35
REMARK SMILES IDX 68 36 45 37 34 38 35 39 39 40 36 41 38 42 37 43 56 44 57 45
REMARK SMILES IDX 61 46 58 47 60 48 59 49 46 50 47 51 51 52 48 53 50 54 49 55
REMARK SMILES IDX 5 56 6 57 7 58 8 59 9 61 10 62 11 63 24 64 12 65 23 66 13 67
REMARK SMILES IDX 14 68 15 69 22 70 16 71 17 72 21 73 18 74 20 75 19 76
REMARK H PARENT 3 5 66 23 44 34 7 60
REMARK Flexibility Score: inf
ROOT
ATOM      1  C   UNL A   1      32.694  32.472  27.229  1.00  0.00     0.118 C 
ENDROOT
BRANCH   1   2
ATOM      2  N   UNL A   1      32.448  33.882  27.595  1.00  0.00    -0.352 N 
ATOM      3  O   UNL A   1      32.561  35.670  29.025  1.00  0.00    -0.269 OA
ATOM      4  C   UNL A   1      33.047  34.613  28.615  1.00  0.00     0.251 C 
ATOM      5  H   UNL A   1      31.781  34.361  27.053  1.00  0.00     0.163 HD
BRANCH   4   6
ATOM      6  C   UNL A   1      34.306  34.100  29.174  1.00  0.00     0.039 A 
ATOM      7  C   UNL A   1      34.430  33.316  30.322  1.00  0.00     0.014 A 
ATOM      8  C   UNL A   1      35.401  34.317  28.364  1.00  0.00     0.014 A 
ATOM      9  C   UNL A   1      35.679  32.747  30.579  1.00  0.00     0.010 A 
ATOM     10  C   UNL A   1      36.331  33.337  28.346  1.00  0.00     0.010 A 
ATOM     11  C   UNL A   1      36.643  32.788  29.560  1.00  0.00    -0.014 A 
BRANCH  11  12
ATOM     12  C   UNL A   1      37.993  32.261  29.645  1.00  0.00     0.031 A 
ATOM     13  C   UNL A   1      38.110  30.851  29.244  1.00  0.00     0.074 A 
ATOM     14  C   UNL A   1      39.079  33.042  29.868  1.00  0.00     0.049 A 
ATOM     15  N   UNL A   1      38.309  29.847  30.023  1.00  0.00    -0.248 NA
ATOM     16  C   UNL A   1      37.803  30.492  27.852  1.00  0.00     0.031 C 
ATOM     17  C   UNL A   1      39.185  34.511  29.963  1.00  0.00     0.029 A 
ATOM     18  N   UNL A   1      40.379  32.664  29.973  1.00  0.00    -0.354 N 
ATOM     19  C   UNL A   1      38.341  28.729  29.202  1.00  0.00     0.074 A 
ATOM     20  C   UNL A   1      37.845  29.159  27.918  1.00  0.00     0.031 C 
ATOM     21  C   UNL A   1      40.482  34.891  29.880  1.00  0.00     0.029 A 
ATOM     22  C   UNL A   1      41.304  33.700  29.929  1.00  0.00     0.049 A 
ATOM     23  H   UNL A   1      40.646  31.722  30.073  1.00  0.00     0.167 HD
ATOM     24  C   UNL A   1      38.981  27.596  29.596  1.00  0.00     0.031 A 
ATOM     25  C   UNL A   1      42.656  33.576  29.943  1.00  0.00     0.031 A 
ATOM     26  C   UNL A   1      39.299  27.638  31.003  1.00  0.00     0.049 A 
ATOM     27  C   UNL A   1      42.952  32.239  30.513  1.00  0.00     0.074 A 
ATOM     28  C   UNL A   1      38.537  27.697  32.154  1.00  0.00     0.029 A 
ATOM     29  N   UNL A   1      40.551  28.091  31.352  1.00  0.00    -0.354 N 
ATOM     30  N   UNL A   1      42.682  31.913  31.745  1.00  0.00    -0.248 NA
ATOM     31  C   UNL A   1      43.091  31.129  29.584  1.00  0.00     0.031 C 
ATOM     32  C   UNL A   1      39.218  28.625  32.996  1.00  0.00     0.029 A 
ATOM     33  C   UNL A   1      40.405  29.008  32.365  1.00  0.00     0.049 A 
ATOM     34  H   UNL A   1      41.402  27.807  30.947  1.00  0.00     0.167 HD
ATOM     35  C   UNL A   1      42.181  30.620  31.664  1.00  0.00     0.074 A 
ATOM     36  C   UNL A   1      42.541  30.160  30.322  1.00  0.00     0.031 C 
ATOM     37  C   UNL A   1      41.275  30.152  32.574  1.00  0.00     0.031 A 
BRANCH  24  38
ATOM     38  C   UNL A   1      39.625  26.623  28.649  1.00  0.00    -0.014 A 
ATOM     39  C   UNL A   1      39.110  25.341  28.379  1.00  0.00     0.009 A 
ATOM     40  C   UNL A   1      40.657  27.078  27.811  1.00  0.00     0.009 A 
ATOM     41  C   UNL A   1      39.588  24.555  27.328  1.00  0.00     0.001 A 
ATOM     42  C   UNL A   1      41.112  26.310  26.733  1.00  0.00     0.001 A 
ATOM     43  C   UNL A   1      40.576  25.050  26.490  1.00  0.00     0.000 A 
ENDBRANCH  24  38
BRANCH  25  44
ATOM     44  C   UNL A   1      43.650  34.318  29.134  1.00  0.00    -0.014 A 
ATOM     45  C   UNL A   1      43.425  34.527  27.761  1.00  0.00     0.009 A 
ATOM     46  C   UNL A   1      44.951  34.530  29.621  1.00  0.00     0.009 A 
ATOM     47  C   UNL A   1      44.471  34.869  26.896  1.00  0.00     0.001 A 
ATOM     48  C   UNL A   1      45.999  34.876  28.754  1.00  0.00     0.001 A 
ATOM     49  C   UNL A   1      45.762  35.024  27.389  1.00  0.00     0.000 A 
ENDBRANCH  25  44
BRANCH  37  50
ATOM     50  C   UNL A   1      40.968  31.006  33.789  1.00  0.00    -0.014 A 
ATOM     51  C   UNL A   1      41.581  30.667  35.005  1.00  0.00     0.009 A 
ATOM     52  C   UNL A   1      39.960  31.990  33.815  1.00  0.00     0.009 A 
ATOM     53  C   UNL A   1      41.188  31.262  36.208  1.00  0.00     0.001 A 
ATOM     54  C   UNL A   1      39.584  32.608  35.016  1.00  0.00     0.001 A 
ATOM     55  C   UNL A   1      40.189  32.233  36.213  1.00  0.00     0.000 A 
ENDBRANCH  37  50
ENDBRANCH  11  12
ENDBRANCH   4   6
ENDBRANCH   1   2
BRANCH   1  56
ATOM     56  C   UNL A   1      31.447  31.667  26.949  1.00  0.00     0.042 C 
BRANCH  56  57
ATOM     57  C   UNL A   1      31.637  30.714  25.772  1.00  0.00     0.118 C 
BRANCH  57  58
ATOM     58  N   UNL A   1      30.547  30.764  24.793  1.00  0.00    -0.352 N 
ATOM     59  C   UNL A   1      30.294  29.931  23.729  1.00  0.00     0.252 C 
ATOM     60  H   UNL A   1      29.905  31.500  24.914  1.00  0.00     0.163 HD
ATOM     61  O   UNL A   1      29.427  30.197  22.903  1.00  0.00    -0.269 OA
BRANCH  59  62
ATOM     62  C   UNL A   1      31.080  28.704  23.594  1.00  0.00     0.058 A 
ATOM     63  C   UNL A   1      32.269  28.710  22.871  1.00  0.00     0.019 A 
ATOM     64  C   UNL A   1      30.624  27.511  24.133  1.00  0.00     0.127 A 
ATOM     65  C   UNL A   1      32.913  27.510  22.640  1.00  0.00     0.048 A 
ATOM     66  N   UNL A   1      31.236  26.316  23.920  1.00  0.00    -0.238 NA
ATOM     67  C   UNL A   1      32.390  26.348  23.206  1.00  0.00     0.138 A 
BRANCH  67  68
ATOM     68  N   UNL A   1      33.131  25.157  23.052  1.00  0.00    -0.283 N 
ATOM     69  C   UNL A   1      33.002  24.240  22.040  1.00  0.00     0.206 A 
ATOM     70  C   UNL A   1      34.122  24.694  23.900  1.00  0.00     0.074 A 
ATOM     71  N   UNL A   1      33.937  23.314  22.095  1.00  0.00    -0.236 NA
ATOM     72  C   UNL A   1      34.626  23.570  23.255  1.00  0.00     0.089 A 
ATOM     73  C   UNL A   1      34.570  25.106  25.167  1.00  0.00     0.029 A 
ATOM     74  C   UNL A   1      35.686  22.867  23.851  1.00  0.00     0.030 A 
ATOM     75  C   UNL A   1      35.607  24.384  25.752  1.00  0.00     0.002 A 
ATOM     76  C   UNL A   1      36.168  23.288  25.099  1.00  0.00     0.002 A 
ENDBRANCH  67  68
ENDBRANCH  59  62
ENDBRANCH  57  58
ENDBRANCH  56  57
ENDBRANCH   1  56
TORSDOF 11
ENDMDL
MODEL 3
REMARK VINA RESULT:     -12.1      5.148     10.127
REMARK SMILES O=C(NCCCNC(=O)c1ccc(-n2cnc3ccccc32)nc1)c1ccc(-c2c3nc(c(-c4ccccc4)c4ccc([nH]4)c(-c4ccccc4)c4nc(c(-c5ccccc5)c5ccc2[nH]5)C=C4)C=C3)cc1
REMARK SMILES IDX 4 1 3 2 1 3 2 4 25 6 26 7 72 8 27 9 71 10 28 11 29 12 30 13
REMARK SMILES IDX 65 14 31 15 70 16 64 17 66 18 32 19 69 20 63 21 62 22 33 24
REMARK SMILES IDX 55 25 40 26 54 27 41 28 44 29 53 30 67 31 42 32 43 33 52 35
REMARK SMILES IDX 68 36 45 37 34 38 35 39 39 40 36 41 38 42 37 43 56 44 57 45
REMARK SMILES IDX 61 46 58 47 60 48 59 49 46 50 47 51 51 52 48 53 50 54 49 55
REMARK SMILES IDX 5 56 6 57 7 58 8 59 9 61 10 62 11 63 24 64 12 65 23 66 13 67
REMARK SMILES IDX 14 68 15 69 22 70 16 71 17 72 21 73 18 74 20 75 19 76
REMARK H PARENT 3 5 66 23 44 34 7 60
REMARK Flexibility Score: inf
ROOT
ATOM      1  C   UNL A   1      35.414  33.801  28.025  1.00  0.00     0.118 C 
ENDROOT
BRANCH   1   2
ATOM      2  N   UNL A   1      34.594  32.573  28.034  1.00  0.00    -0.352 N 
ATOM      3  O   UNL A   1      34.260  30.338  27.645  1.00  0.00    -0.269 OA
ATOM      4  C   UNL A   1      35.033  31.257  27.929  1.00  0.00     0.251 C 
ATOM      5  H   UNL A   1      33.623  32.700  28.124  1.00  0.00     0.163 HD
BRANCH   4   6
ATOM      6  C   UNL A   1      36.451  30.986  28.201  1.00  0.00     0.039 A 
ATOM      7  C   UNL A   1      37.239  31.639  29.151  1.00  0.00     0.014 A 
ATOM      8  C   UNL A   1      36.942  29.881  27.539  1.00  0.00     0.014 A 
ATOM      9  C   UNL A   1      38.502  31.105  29.414  1.00  0.00     0.010 A 
ATOM     10  C   UNL A   1      37.842  29.134  28.214  1.00  0.00     0.010 A 
ATOM     11  C   UNL A   1      38.795  29.830  28.907  1.00  0.00    -0.014 A 
BRANCH  11  12
ATOM     12  C   UNL A   1      40.050  29.119  29.069  1.00  0.00     0.031 A 
ATOM     13  C   UNL A   1      40.303  28.656  30.442  1.00  0.00     0.074 A 
ATOM     14  C   UNL A   1      40.821  28.731  28.022  1.00  0.00     0.049 A 
ATOM     15  N   UNL A   1      41.160  29.141  31.269  1.00  0.00    -0.248 NA
ATOM     16  C   UNL A   1      39.391  27.660  31.023  1.00  0.00     0.031 C 
ATOM     17  C   UNL A   1      40.561  28.819  26.572  1.00  0.00     0.029 A 
ATOM     18  N   UNL A   1      42.007  28.072  28.051  1.00  0.00    -0.354 N 
ATOM     19  C   UNL A   1      41.035  28.393  32.430  1.00  0.00     0.074 A 
ATOM     20  C   UNL A   1      39.820  27.630  32.286  1.00  0.00     0.031 C 
ATOM     21  C   UNL A   1      41.437  28.041  25.894  1.00  0.00     0.029 A 
ATOM     22  C   UNL A   1      42.435  27.565  26.829  1.00  0.00     0.049 A 
ATOM     23  H   UNL A   1      42.528  27.961  28.879  1.00  0.00     0.167 HD
ATOM     24  C   UNL A   1      42.063  28.307  33.316  1.00  0.00     0.031 A 
ATOM     25  C   UNL A   1      43.543  26.814  26.610  1.00  0.00     0.031 A 
ATOM     26  C   UNL A   1      43.077  29.295  33.035  1.00  0.00     0.049 A 
ATOM     27  C   UNL A   1      44.452  27.056  27.757  1.00  0.00     0.074 A 
ATOM     28  C   UNL A   1      43.093  30.676  33.036  1.00  0.00     0.029 A 
ATOM     29  N   UNL A   1      44.137  28.903  32.248  1.00  0.00    -0.354 N 
ATOM     30  N   UNL A   1      45.005  28.211  27.997  1.00  0.00    -0.248 NA
ATOM     31  C   UNL A   1      44.350  26.159  28.897  1.00  0.00     0.031 C 
ATOM     32  C   UNL A   1      43.844  31.034  31.878  1.00  0.00     0.029 A 
ATOM     33  C   UNL A   1      44.332  29.865  31.287  1.00  0.00     0.049 A 
ATOM     34  H   UNL A   1      44.663  28.078  32.356  1.00  0.00     0.167 HD
ATOM     35  C   UNL A   1      44.914  28.365  29.374  1.00  0.00     0.074 A 
ATOM     36  C   UNL A   1      44.583  27.032  29.881  1.00  0.00     0.031 C 
ATOM     37  C   UNL A   1      44.825  29.603  29.946  1.00  0.00     0.031 A 
BRANCH  24  38
ATOM     38  C   UNL A   1      42.313  27.118  34.199  1.00  0.00    -0.014 A 
ATOM     39  C   UNL A   1      41.449  26.723  35.239  1.00  0.00     0.009 A 
ATOM     40  C   UNL A   1      43.325  26.212  33.842  1.00  0.00     0.009 A 
ATOM     41  C   UNL A   1      41.577  25.492  35.884  1.00  0.00     0.001 A 
ATOM     42  C   UNL A   1      43.434  24.960  34.460  1.00  0.00     0.001 A 
ATOM     43  C   UNL A   1      42.558  24.599  35.479  1.00  0.00     0.000 A 
ENDBRANCH  24  38
BRANCH  25  44
ATOM     44  C   UNL A   1      43.683  25.622  25.742  1.00  0.00    -0.014 A 
ATOM     45  C   UNL A   1      42.683  24.633  25.739  1.00  0.00     0.009 A 
ATOM     46  C   UNL A   1      44.927  25.294  25.175  1.00  0.00     0.009 A 
ATOM     47  C   UNL A   1      42.935  23.346  25.249  1.00  0.00     0.001 A 
ATOM     48  C   UNL A   1      45.178  24.005  24.682  1.00  0.00     0.001 A 
ATOM     49  C   UNL A   1      44.188  23.026  24.740  1.00  0.00     0.000 A 
ENDBRANCH  25  44
BRANCH  37  50
ATOM     50  C   UNL A   1      45.021  30.821  29.062  1.00  0.00    -0.014 A 
ATOM     51  C   UNL A   1      43.968  31.193  28.212  1.00  0.00     0.009 A 
ATOM     52  C   UNL A   1      46.257  31.476  28.902  1.00  0.00     0.009 A 
ATOM     53  C   UNL A   1      44.146  32.161  27.219  1.00  0.00     0.001 A 
ATOM     54  C   UNL A   1      46.428  32.466  27.925  1.00  0.00     0.001 A 
ATOM     55  C   UNL A   1      45.376  32.798  27.075  1.00  0.00     0.000 A 
ENDBRANCH  37  50
ENDBRANCH  11  12
ENDBRANCH   4   6
ENDBRANCH   1   2
BRANCH   1  56
ATOM     56  C   UNL A   1      34.765  34.996  28.683  1.00  0.00     0.042 C 
BRANCH  56  57
ATOM     57  C   UNL A   1      33.414  34.643  29.299  1.00  0.00     0.118 C 
BRANCH  57  58
ATOM     58  N   UNL A   1      32.781  35.760  30.008  1.00  0.00    -0.352 N 
ATOM     59  C   UNL A   1      32.841  36.089  31.341  1.00  0.00     0.252 C 
ATOM     60  H   UNL A   1      32.236  36.359  29.450  1.00  0.00     0.163 HD
ATOM     61  O   UNL A   1      32.126  36.966  31.814  1.00  0.00    -0.269 OA
BRANCH  59  62
ATOM     62  C   UNL A   1      33.782  35.370  32.202  1.00  0.00     0.058 A 
ATOM     63  C   UNL A   1      33.469  34.100  32.675  1.00  0.00     0.019 A 
ATOM     64  C   UNL A   1      34.967  35.968  32.603  1.00  0.00     0.127 A 
ATOM     65  C   UNL A   1      34.309  33.508  33.598  1.00  0.00     0.048 A 
ATOM     66  N   UNL A   1      35.811  35.410  33.511  1.00  0.00    -0.238 NA
ATOM     67  C   UNL A   1      35.480  34.173  33.962  1.00  0.00     0.138 A 
BRANCH  67  68
ATOM     68  N   UNL A   1      36.376  33.494  34.816  1.00  0.00    -0.283 N 
ATOM     69  C   UNL A   1      36.519  33.685  36.167  1.00  0.00     0.206 A 
ATOM     70  C   UNL A   1      37.280  32.515  34.443  1.00  0.00     0.074 A 
ATOM     71  N   UNL A   1      37.329  32.797  36.705  1.00  0.00    -0.236 NA
ATOM     72  C   UNL A   1      37.825  32.078  35.644  1.00  0.00     0.089 A 
ATOM     73  C   UNL A   1      37.704  32.028  33.195  1.00  0.00     0.029 A 
ATOM     74  C   UNL A   1      38.776  31.045  35.619  1.00  0.00     0.030 A 
ATOM     75  C   UNL A   1      38.664  31.018  33.188  1.00  0.00     0.002 A 
ATOM     76  C   UNL A   1      39.184  30.523  34.382  1.00  0.00     0.002 A 
ENDBRANCH  67  68
ENDBRANCH  59  62
ENDBRANCH  57  58
ENDBRANCH  56  57
ENDBRANCH   1  56
TORSDOF 11
ENDMDL
