MODEL 1
REMARK VINA RESULT:     -11.4      0.000      0.000
REMARK SMILES Cc1nsc(NC(=O)c2ccc(N)cc2)c1C(=O)NCCCNC(=O)c1ccc(-c2c3nc(c(-c4ccccc4)c4ccc([nH]4)c(-c4ccccc4)c4nc(c(-c5ccccc5)c5ccc2[nH]5)C=C4)C=C3)cc1
REMARK SMILES IDX 20 1 19 2 17 3 18 4 16 6 1 7 2 8 3 9 4 10 5 11 6 12 7 13
REMARK SMILES IDX 8 15 9 16 10 17 15 18 11 19 14 20 12 21 13 22 21 25 22 26
REMARK SMILES IDX 23 27 24 28 25 30 26 31 27 32 73 33 28 34 72 35 29 36 30 37
REMARK SMILES IDX 31 38 66 39 32 40 71 41 65 42 67 43 33 44 70 45 64 46 63 47
REMARK SMILES IDX 34 49 56 50 41 51 55 52 42 53 45 54 54 55 68 56 43 57 44 58
REMARK SMILES IDX 53 60 69 61 46 62 35 63 36 64 40 65 37 66 39 67 38 68 57 69
REMARK SMILES IDX 58 70 62 71 59 72 61 73 60 74 47 75 48 76 52 77 49 78 51 79
REMARK SMILES IDX 50 80
REMARK H PARENT 19 5 6 14 13 23 13 24 23 29 67 48 45 59
REMARK Flexibility Score: inf
ROOT
ATOM      1  C   UNL A   1      33.763  27.659  26.009  1.00  0.00     0.118 C 
ENDROOT
BRANCH   1   2
ATOM      2  N   UNL A   1      32.620  26.782  26.065  1.00  0.00    -0.352 N 
ATOM      3  C   UNL A   1      32.256  25.629  25.430  1.00  0.00     0.256 C 
ATOM      4  O   UNL A   1      31.275  25.086  25.958  1.00  0.00    -0.269 OA
ATOM      5  H   UNL A   1      31.944  27.085  26.713  1.00  0.00     0.163 HD
BRANCH   3   6
ATOM      6  C   UNL A   1      32.847  25.048  24.211  1.00  0.00     0.097 A 
ATOM      7  C   UNL A   1      33.548  26.932  22.399  1.00  0.00     0.069 C 
ATOM      8  C   UNL A   1      33.315  25.561  22.919  1.00  0.00     0.066 A 
ATOM      9  N   UNL A   1      33.579  24.641  21.988  1.00  0.00    -0.195 NA
ATOM     10  S   UNL A   1      33.333  23.156  22.597  1.00  0.00    -0.017 S 
ATOM     11  C   UNL A   1      33.073  23.658  24.196  1.00  0.00     0.129 A 
BRANCH  11  12
ATOM     12  N   UNL A   1      32.971  22.748  25.244  1.00  0.00    -0.312 N 
ATOM     13  C   UNL A   1      33.923  21.963  25.863  1.00  0.00     0.256 C 
ATOM     14  H   UNL A   1      32.060  22.646  25.605  1.00  0.00     0.171 HD
ATOM     15  O   UNL A   1      33.596  21.080  26.654  1.00  0.00    -0.269 OA
BRANCH  13  16
ATOM     16  C   UNL A   1      35.362  22.192  25.636  1.00  0.00     0.040 A 
ATOM     17  C   UNL A   1      36.164  21.183  25.089  1.00  0.00     0.016 A 
ATOM     18  C   UNL A   1      35.930  23.386  26.082  1.00  0.00     0.016 A 
ATOM     19  C   UNL A   1      37.553  21.320  25.129  1.00  0.00     0.026 A 
ATOM     20  C   UNL A   1      37.321  23.512  26.106  1.00  0.00     0.026 A 
ATOM     21  C   UNL A   1      38.141  22.453  25.703  1.00  0.00     0.031 A 
BRANCH  21  22
ATOM     22  N   UNL A   1      39.521  22.569  25.769  1.00  0.00    -0.399 N 
ATOM     23  H   UNL A   1      40.060  21.832  26.136  1.00  0.00     0.156 HD
ATOM     24  H   UNL A   1      39.961  23.389  25.447  1.00  0.00     0.156 HD
ENDBRANCH  21  22
ENDBRANCH  13  16
ENDBRANCH  11  12
ENDBRANCH   3   6
ENDBRANCH   1   2
BRANCH   1  25
ATOM     25  C   UNL A   1      33.860  28.599  27.210  1.00  0.00     0.042 C 
BRANCH  25  26
ATOM     26  C   UNL A   1      35.192  29.320  27.297  1.00  0.00     0.118 C 
BRANCH  26  27
ATOM     27  N   UNL A   1      35.371  29.968  28.593  1.00  0.00    -0.352 N 
ATOM     28  C   UNL A   1      36.380  29.793  29.518  1.00  0.00     0.251 C 
ATOM     29  H   UNL A   1      34.676  30.619  28.842  1.00  0.00     0.163 HD
ATOM     30  O   UNL A   1      36.223  30.129  30.679  1.00  0.00    -0.269 OA
BRANCH  28  31
ATOM     31  C   UNL A   1      37.639  29.165  29.081  1.00  0.00     0.039 A 
ATOM     32  C   UNL A   1      38.344  29.693  28.000  1.00  0.00     0.014 A 
ATOM     33  C   UNL A   1      38.140  28.079  29.797  1.00  0.00     0.014 A 
ATOM     34  C   UNL A   1      39.608  29.187  27.719  1.00  0.00     0.010 A 
ATOM     35  C   UNL A   1      39.445  27.682  29.615  1.00  0.00     0.010 A 
ATOM     36  C   UNL A   1      40.179  28.213  28.563  1.00  0.00    -0.014 A 
BRANCH  36  37
ATOM     37  C   UNL A   1      41.601  27.895  28.436  1.00  0.00     0.031 A 
ATOM     38  C   UNL A   1      41.864  26.694  27.602  1.00  0.00     0.074 A 
ATOM     39  C   UNL A   1      42.623  28.660  28.874  1.00  0.00     0.049 A 
ATOM     40  N   UNL A   1      42.180  25.520  28.034  1.00  0.00    -0.248 NA
ATOM     41  C   UNL A   1      41.570  26.744  26.160  1.00  0.00     0.031 C 
ATOM     42  C   UNL A   1      42.568  30.003  29.459  1.00  0.00     0.029 A 
ATOM     43  N   UNL A   1      43.966  28.423  28.802  1.00  0.00    -0.354 N 
ATOM     44  C   UNL A   1      42.374  24.741  26.901  1.00  0.00     0.074 A 
ATOM     45  C   UNL A   1      41.788  25.474  25.806  1.00  0.00     0.031 C 
ATOM     46  C   UNL A   1      43.805  30.549  29.466  1.00  0.00     0.029 A 
ATOM     47  C   UNL A   1      44.760  29.536  29.059  1.00  0.00     0.049 A 
ATOM     48  H   UNL A   1      44.341  27.539  28.586  1.00  0.00     0.167 HD
ATOM     49  C   UNL A   1      43.282  23.727  26.917  1.00  0.00     0.031 A 
ATOM     50  C   UNL A   1      46.109  29.625  28.944  1.00  0.00     0.031 A 
ATOM     51  C   UNL A   1      43.665  23.387  28.269  1.00  0.00     0.049 A 
ATOM     52  C   UNL A   1      46.648  28.251  29.021  1.00  0.00     0.074 A 
ATOM     53  C   UNL A   1      43.002  23.001  29.417  1.00  0.00     0.029 A 
ATOM     54  N   UNL A   1      44.899  23.835  28.678  1.00  0.00    -0.354 N 
ATOM     55  N   UNL A   1      46.635  27.536  30.106  1.00  0.00    -0.248 NA
ATOM     56  C   UNL A   1      46.850  27.513  27.788  1.00  0.00     0.031 C 
ATOM     57  C   UNL A   1      43.695  23.649  30.485  1.00  0.00     0.029 A 
ATOM     58  C   UNL A   1      44.791  24.327  29.948  1.00  0.00     0.049 A 
ATOM     59  H   UNL A   1      45.724  23.807  28.143  1.00  0.00     0.167 HD
ATOM     60  C   UNL A   1      46.338  26.256  29.669  1.00  0.00     0.074 A 
ATOM     61  C   UNL A   1      46.628  26.275  28.237  1.00  0.00     0.031 C 
ATOM     62  C   UNL A   1      45.611  25.406  30.455  1.00  0.00     0.031 A 
BRANCH  49  63
ATOM     63  C   UNL A   1      44.203  23.435  25.747  1.00  0.00    -0.014 A 
ATOM     64  C   UNL A   1      44.291  22.107  25.288  1.00  0.00     0.009 A 
ATOM     65  C   UNL A   1      45.211  24.318  25.315  1.00  0.00     0.009 A 
ATOM     66  C   UNL A   1      45.392  21.666  24.543  1.00  0.00     0.001 A 
ATOM     67  C   UNL A   1      46.286  23.891  24.533  1.00  0.00     0.001 A 
ATOM     68  C   UNL A   1      46.396  22.556  24.178  1.00  0.00     0.000 A 
ENDBRANCH  49  63
BRANCH  50  69
ATOM     69  C   UNL A   1      46.972  30.771  28.592  1.00  0.00    -0.014 A 
ATOM     70  C   UNL A   1      48.065  31.115  29.407  1.00  0.00     0.009 A 
ATOM     71  C   UNL A   1      46.915  31.331  27.304  1.00  0.00     0.009 A 
ATOM     72  C   UNL A   1      49.094  31.936  28.928  1.00  0.00     0.001 A 
ATOM     73  C   UNL A   1      47.940  32.157  26.827  1.00  0.00     0.001 A 
ATOM     74  C   UNL A   1      49.040  32.441  27.632  1.00  0.00     0.000 A 
ENDBRANCH  50  69
BRANCH  62  75
ATOM     75  C   UNL A   1      45.477  25.737  31.922  1.00  0.00    -0.014 A 
ATOM     76  C   UNL A   1      44.378  26.409  32.484  1.00  0.00     0.009 A 
ATOM     77  C   UNL A   1      46.474  25.259  32.786  1.00  0.00     0.009 A 
ATOM     78  C   UNL A   1      44.310  26.639  33.863  1.00  0.00     0.001 A 
ATOM     79  C   UNL A   1      46.392  25.463  34.164  1.00  0.00     0.001 A 
ATOM     80  C   UNL A   1      45.316  26.164  34.702  1.00  0.00     0.000 A 
ENDBRANCH  62  75
ENDBRANCH  36  37
ENDBRANCH  28  31
ENDBRANCH  26  27
ENDBRANCH  25  26
ENDBRANCH   1  25
TORSDOF 13
ENDMDL
MODEL 2
REMARK VINA RESULT:     -11.4      2.312      6.334
REMARK SMILES Cc1nsc(NC(=O)c2ccc(N)cc2)c1C(=O)NCCCNC(=O)c1ccc(-c2c3nc(c(-c4ccccc4)c4ccc([nH]4)c(-c4ccccc4)c4nc(c(-c5ccccc5)c5ccc2[nH]5)C=C4)C=C3)cc1
REMARK SMILES IDX 20 1 19 2 17 3 18 4 16 6 1 7 2 8 3 9 4 10 5 11 6 12 7 13
REMARK SMILES IDX 8 15 9 16 10 17 15 18 11 19 14 20 12 21 13 22 21 25 22 26
REMARK SMILES IDX 23 27 24 28 25 30 26 31 27 32 73 33 28 34 72 35 29 36 30 37
REMARK SMILES IDX 31 38 66 39 32 40 71 41 65 42 67 43 33 44 70 45 64 46 63 47
REMARK SMILES IDX 34 49 56 50 41 51 55 52 42 53 45 54 54 55 68 56 43 57 44 58
REMARK SMILES IDX 53 60 69 61 46 62 35 63 36 64 40 65 37 66 39 67 38 68 57 69
REMARK SMILES IDX 58 70 62 71 59 72 61 73 60 74 47 75 48 76 52 77 49 78 51 79
REMARK SMILES IDX 50 80
REMARK H PARENT 19 5 6 14 13 23 13 24 23 29 67 48 45 59
REMARK Flexibility Score: inf
ROOT
ATOM      1  C   UNL A   1      34.610  29.198  26.991  1.00  0.00     0.118 C 
ENDROOT
BRANCH   1   2
ATOM      2  N   UNL A   1      34.378  28.941  25.591  1.00  0.00    -0.352 N 
ATOM      3  C   UNL A   1      33.409  28.297  24.875  1.00  0.00     0.256 C 
ATOM      4  O   UNL A   1      33.493  28.517  23.658  1.00  0.00    -0.269 OA
ATOM      5  H   UNL A   1      35.083  29.318  25.017  1.00  0.00     0.163 HD
BRANCH   3   6
ATOM      6  C   UNL A   1      32.381  27.370  25.383  1.00  0.00     0.097 A 
ATOM      7  C   UNL A   1      31.281  28.216  27.707  1.00  0.00     0.069 C 
ATOM      8  C   UNL A   1      31.547  27.279  26.586  1.00  0.00     0.066 A 
ATOM      9  N   UNL A   1      30.892  26.128  26.754  1.00  0.00    -0.195 NA
ATOM     10  S   UNL A   1      31.191  25.137  25.502  1.00  0.00    -0.017 S 
ATOM     11  C   UNL A   1      32.033  26.275  24.569  1.00  0.00     0.129 A 
BRANCH  11  12
ATOM     12  N   UNL A   1      32.404  26.016  23.253  1.00  0.00    -0.312 N 
ATOM     13  C   UNL A   1      33.364  25.173  22.728  1.00  0.00     0.256 C 
ATOM     14  H   UNL A   1      31.894  26.522  22.580  1.00  0.00     0.171 HD
ATOM     15  O   UNL A   1      33.666  25.225  21.537  1.00  0.00    -0.269 OA
BRANCH  13  16
ATOM     16  C   UNL A   1      34.019  24.151  23.567  1.00  0.00     0.040 A 
ATOM     17  C   UNL A   1      33.616  22.813  23.502  1.00  0.00     0.016 A 
ATOM     18  C   UNL A   1      34.965  24.562  24.507  1.00  0.00     0.016 A 
ATOM     19  C   UNL A   1      34.056  21.920  24.481  1.00  0.00     0.026 A 
ATOM     20  C   UNL A   1      35.404  23.655  25.473  1.00  0.00     0.026 A 
ATOM     21  C   UNL A   1      34.895  22.352  25.514  1.00  0.00     0.031 A 
BRANCH  21  22
ATOM     22  N   UNL A   1      35.302  21.469  26.501  1.00  0.00    -0.399 N 
ATOM     23  H   UNL A   1      36.239  21.168  26.537  1.00  0.00     0.156 HD
ATOM     24  H   UNL A   1      34.654  21.143  27.167  1.00  0.00     0.156 HD
ENDBRANCH  21  22
ENDBRANCH  13  16
ENDBRANCH  11  12
ENDBRANCH   3   6
ENDBRANCH   1   2
BRANCH   1  25
ATOM     25  C   UNL A   1      34.078  30.554  27.450  1.00  0.00     0.042 C 
BRANCH  25  26
ATOM     26  C   UNL A   1      35.178  31.545  27.782  1.00  0.00     0.118 C 
BRANCH  26  27
ATOM     27  N   UNL A   1      34.832  32.368  28.937  1.00  0.00    -0.352 N 
ATOM     28  C   UNL A   1      35.215  32.218  30.255  1.00  0.00     0.251 C 
ATOM     29  H   UNL A   1      34.246  33.137  28.751  1.00  0.00     0.163 HD
ATOM     30  O   UNL A   1      34.586  32.758  31.148  1.00  0.00    -0.269 OA
BRANCH  28  31
ATOM     31  C   UNL A   1      36.378  31.367  30.562  1.00  0.00     0.039 A 
ATOM     32  C   UNL A   1      36.222  29.986  30.670  1.00  0.00     0.014 A 
ATOM     33  C   UNL A   1      37.635  31.955  30.684  1.00  0.00     0.014 A 
ATOM     34  C   UNL A   1      37.360  29.196  30.791  1.00  0.00     0.010 A 
ATOM     35  C   UNL A   1      38.764  31.169  30.652  1.00  0.00     0.010 A 
ATOM     36  C   UNL A   1      38.637  29.789  30.730  1.00  0.00    -0.014 A 
BRANCH  36  37
ATOM     37  C   UNL A   1      39.817  28.940  30.570  1.00  0.00     0.031 A 
ATOM     38  C   UNL A   1      40.525  28.667  31.848  1.00  0.00     0.074 A 
ATOM     39  C   UNL A   1      40.190  28.311  29.435  1.00  0.00     0.049 A 
ATOM     40  N   UNL A   1      41.623  29.216  32.244  1.00  0.00    -0.248 NA
ATOM     41  C   UNL A   1      39.860  27.845  32.873  1.00  0.00     0.031 C 
ATOM     42  C   UNL A   1      39.468  28.230  28.161  1.00  0.00     0.029 A 
ATOM     43  N   UNL A   1      41.278  27.518  29.210  1.00  0.00    -0.354 N 
ATOM     44  C   UNL A   1      41.924  28.620  33.461  1.00  0.00     0.074 A 
ATOM     45  C   UNL A   1      40.719  27.956  33.891  1.00  0.00     0.031 C 
ATOM     46  C   UNL A   1      40.006  27.257  27.393  1.00  0.00     0.029 A 
ATOM     47  C   UNL A   1      41.213  26.774  28.036  1.00  0.00     0.049 A 
ATOM     48  H   UNL A   1      42.045  27.477  29.826  1.00  0.00     0.167 HD
ATOM     49  C   UNL A   1      43.223  28.456  33.837  1.00  0.00     0.031 A 
ATOM     50  C   UNL A   1      42.086  25.823  27.619  1.00  0.00     0.031 A 
ATOM     51  C   UNL A   1      44.109  29.272  33.037  1.00  0.00     0.049 A 
ATOM     52  C   UNL A   1      43.366  26.067  28.315  1.00  0.00     0.074 A 
ATOM     53  C   UNL A   1      44.217  30.616  32.742  1.00  0.00     0.029 A 
ATOM     54  N   UNL A   1      44.824  28.612  32.066  1.00  0.00    -0.354 N 
ATOM     55  N   UNL A   1      44.130  27.091  28.072  1.00  0.00    -0.248 NA
ATOM     56  C   UNL A   1      43.619  25.381  29.569  1.00  0.00     0.031 C 
ATOM     57  C   UNL A   1      44.612  30.666  31.370  1.00  0.00     0.029 A 
ATOM     58  C   UNL A   1      44.806  29.359  30.922  1.00  0.00     0.049 A 
ATOM     59  H   UNL A   1      45.275  27.745  32.177  1.00  0.00     0.167 HD
ATOM     60  C   UNL A   1      44.604  27.467  29.317  1.00  0.00     0.074 A 
ATOM     61  C   UNL A   1      44.379  26.301  30.169  1.00  0.00     0.031 C 
ATOM     62  C   UNL A   1      44.855  28.782  29.595  1.00  0.00     0.031 A 
BRANCH  49  63
ATOM     63  C   UNL A   1      43.723  27.196  34.519  1.00  0.00    -0.014 A 
ATOM     64  C   UNL A   1      43.665  25.986  33.802  1.00  0.00     0.009 A 
ATOM     65  C   UNL A   1      43.923  27.093  35.909  1.00  0.00     0.009 A 
ATOM     66  C   UNL A   1      43.681  24.749  34.458  1.00  0.00     0.001 A 
ATOM     67  C   UNL A   1      43.986  25.861  36.560  1.00  0.00     0.001 A 
ATOM     68  C   UNL A   1      43.828  24.688  35.839  1.00  0.00     0.000 A 
ENDBRANCH  49  63
BRANCH  50  69
ATOM     69  C   UNL A   1      41.871  24.606  26.809  1.00  0.00    -0.014 A 
ATOM     70  C   UNL A   1      42.805  24.231  25.828  1.00  0.00     0.009 A 
ATOM     71  C   UNL A   1      40.919  23.651  27.205  1.00  0.00     0.009 A 
ATOM     72  C   UNL A   1      42.827  22.929  25.310  1.00  0.00     0.001 A 
ATOM     73  C   UNL A   1      40.936  22.352  26.683  1.00  0.00     0.001 A 
ATOM     74  C   UNL A   1      41.905  21.985  25.753  1.00  0.00     0.000 A 
ENDBRANCH  50  69
BRANCH  62  75
ATOM     75  C   UNL A   1      44.979  29.741  28.436  1.00  0.00    -0.014 A 
ATOM     76  C   UNL A   1      43.904  30.459  27.886  1.00  0.00     0.009 A 
ATOM     77  C   UNL A   1      46.267  29.994  27.941  1.00  0.00     0.009 A 
ATOM     78  C   UNL A   1      44.110  31.363  26.837  1.00  0.00     0.001 A 
ATOM     79  C   UNL A   1      46.477  30.915  26.915  1.00  0.00     0.001 A 
ATOM     80  C   UNL A   1      45.397  31.592  26.355  1.00  0.00     0.000 A 
ENDBRANCH  62  75
ENDBRANCH  36  37
ENDBRANCH  28  31
ENDBRANCH  26  27
ENDBRANCH  25  26
ENDBRANCH   1  25
TORSDOF 13
ENDMDL
MODEL 3
REMARK VINA RESULT:     -11.3      1.435      2.315
REMARK SMILES Cc1nsc(NC(=O)c2ccc(N)cc2)c1C(=O)NCCCNC(=O)c1ccc(-c2c3nc(c(-c4ccccc4)c4ccc([nH]4)c(-c4ccccc4)c4nc(c(-c5ccccc5)c5ccc2[nH]5)C=C4)C=C3)cc1
REMARK SMILES IDX 20 1 19 2 17 3 18 4 16 6 1 7 2 8 3 9 4 10 5 11 6 12 7 13
REMARK SMILES IDX 8 15 9 16 10 17 15 18 11 19 14 20 12 21 13 22 21 25 22 26
REMARK SMILES IDX 23 27 24 28 25 30 26 31 27 32 73 33 28 34 72 35 29 36 30 37
REMARK SMILES IDX 31 38 66 39 32 40 71 41 65 42 67 43 33 44 70 45 64 46 63 47
REMARK SMILES IDX 34 49 56 50 41 51 55 52 42 53 45 54 54 55 68 56 43 57 44 58
REMARK SMILES IDX 53 60 69 61 46 62 35 63 36 64 40 65 37 66 39 67 38 68 57 69
REMARK SMILES IDX 58 70 62 71 59 72 61 73 60 74 47 75 48 76 52 77 49 78 51 79
REMARK SMILES IDX 50 80
REMARK H PARENT 19 5 6 14 13 23 13 24 23 29 67 48 45 59
REMARK Flexibility Score: inf
ROOT
ATOM      1  C   UNL A   1      33.042  27.757  26.705  1.00  0.00     0.118 C 
ENDROOT
BRANCH   1   2
ATOM      2  N   UNL A   1      33.658  26.933  25.695  1.00  0.00    -0.352 N 
ATOM      3  C   UNL A   1      33.541  25.627  25.310  1.00  0.00     0.256 C 
ATOM      4  O   UNL A   1      34.107  25.398  24.232  1.00  0.00    -0.269 OA
ATOM      5  H   UNL A   1      34.317  27.427  25.156  1.00  0.00     0.163 HD
BRANCH   3   6
ATOM      6  C   UNL A   1      32.901  24.525  26.051  1.00  0.00     0.097 A 
ATOM      7  C   UNL A   1      30.216  24.819  26.229  1.00  0.00     0.069 C 
ATOM      8  C   UNL A   1      31.542  24.212  26.507  1.00  0.00     0.066 A 
ATOM      9  N   UNL A   1      31.436  23.191  27.362  1.00  0.00    -0.195 NA
ATOM     10  S   UNL A   1      32.901  22.541  27.626  1.00  0.00    -0.017 S 
ATOM     11  C   UNL A   1      33.716  23.447  26.448  1.00  0.00     0.129 A 
BRANCH  11  12
ATOM     12  N   UNL A   1      35.036  23.180  26.099  1.00  0.00    -0.312 N 
ATOM     13  C   UNL A   1      35.610  22.086  25.482  1.00  0.00     0.256 C 
ATOM     14  H   UNL A   1      35.671  23.896  26.333  1.00  0.00     0.171 HD
ATOM     15  O   UNL A   1      36.833  21.961  25.429  1.00  0.00    -0.269 OA
BRANCH  13  16
ATOM     16  C   UNL A   1      34.778  21.060  24.825  1.00  0.00     0.040 A 
ATOM     17  C   UNL A   1      33.572  21.412  24.208  1.00  0.00     0.016 A 
ATOM     18  C   UNL A   1      35.157  19.722  24.931  1.00  0.00     0.016 A 
ATOM     19  C   UNL A   1      32.681  20.405  23.832  1.00  0.00     0.026 A 
ATOM     20  C   UNL A   1      34.259  18.726  24.540  1.00  0.00     0.026 A 
ATOM     21  C   UNL A   1      32.987  19.059  24.061  1.00  0.00     0.031 A 
BRANCH  21  22
ATOM     22  N   UNL A   1      32.084  18.066  23.715  1.00  0.00    -0.399 N 
ATOM     23  H   UNL A   1      32.358  17.340  23.110  1.00  0.00     0.156 HD
ATOM     24  H   UNL A   1      31.168  18.087  24.076  1.00  0.00     0.156 HD
ENDBRANCH  21  22
ENDBRANCH  13  16
ENDBRANCH  11  12
ENDBRANCH   3   6
ENDBRANCH   1   2
BRANCH   1  25
ATOM     25  C   UNL A   1      33.709  29.123  26.856  1.00  0.00     0.042 C 
BRANCH  25  26
ATOM     26  C   UNL A   1      35.153  29.035  27.313  1.00  0.00     0.118 C 
BRANCH  26  27
ATOM     27  N   UNL A   1      35.395  29.851  28.499  1.00  0.00    -0.352 N 
ATOM     28  C   UNL A   1      36.467  29.822  29.367  1.00  0.00     0.251 C 
ATOM     29  H   UNL A   1      34.697  30.513  28.709  1.00  0.00     0.163 HD
ATOM     30  O   UNL A   1      36.375  30.303  30.483  1.00  0.00    -0.269 OA
BRANCH  28  31
ATOM     31  C   UNL A   1      37.715  29.172  28.931  1.00  0.00     0.039 A 
ATOM     32  C   UNL A   1      38.413  29.670  27.831  1.00  0.00     0.014 A 
ATOM     33  C   UNL A   1      38.212  28.096  29.664  1.00  0.00     0.014 A 
ATOM     34  C   UNL A   1      39.668  29.144  27.547  1.00  0.00     0.010 A 
ATOM     35  C   UNL A   1      39.511  27.682  29.476  1.00  0.00     0.010 A 
ATOM     36  C   UNL A   1      40.239  28.183  28.404  1.00  0.00    -0.014 A 
BRANCH  36  37
ATOM     37  C   UNL A   1      41.656  27.848  28.268  1.00  0.00     0.031 A 
ATOM     38  C   UNL A   1      41.895  26.593  27.508  1.00  0.00     0.074 A 
ATOM     39  C   UNL A   1      42.692  28.632  28.636  1.00  0.00     0.049 A 
ATOM     40  N   UNL A   1      42.213  25.447  28.008  1.00  0.00    -0.248 NA
ATOM     41  C   UNL A   1      41.571  26.553  26.072  1.00  0.00     0.031 C 
ATOM     42  C   UNL A   1      42.656  30.010  29.134  1.00  0.00     0.029 A 
ATOM     43  N   UNL A   1      44.031  28.381  28.551  1.00  0.00    -0.354 N 
ATOM     44  C   UNL A   1      42.378  24.596  26.924  1.00  0.00     0.074 A 
ATOM     45  C   UNL A   1      41.773  25.262  25.797  1.00  0.00     0.031 C 
ATOM     46  C   UNL A   1      43.896  30.547  29.080  1.00  0.00     0.029 A 
ATOM     47  C   UNL A   1      44.837  29.503  28.719  1.00  0.00     0.049 A 
ATOM     48  H   UNL A   1      44.396  27.482  28.384  1.00  0.00     0.167 HD
ATOM     49  C   UNL A   1      43.281  23.578  26.986  1.00  0.00     0.031 A 
ATOM     50  C   UNL A   1      46.183  29.574  28.571  1.00  0.00     0.031 A 
ATOM     51  C   UNL A   1      43.691  23.324  28.349  1.00  0.00     0.049 A 
ATOM     52  C   UNL A   1      46.716  28.205  28.724  1.00  0.00     0.074 A 
ATOM     53  C   UNL A   1      43.050  23.016  29.533  1.00  0.00     0.029 A 
ATOM     54  N   UNL A   1      44.935  23.789  28.702  1.00  0.00    -0.354 N 
ATOM     55  N   UNL A   1      46.722  27.561  29.853  1.00  0.00    -0.248 NA
ATOM     56  C   UNL A   1      46.888  27.388  27.537  1.00  0.00     0.031 C 
ATOM     57  C   UNL A   1      43.769  23.727  30.542  1.00  0.00     0.029 A 
ATOM     58  C   UNL A   1      44.857  24.362  29.940  1.00  0.00     0.049 A 
ATOM     59  H   UNL A   1      45.749  23.720  28.153  1.00  0.00     0.167 HD
ATOM     60  C   UNL A   1      46.409  26.258  29.506  1.00  0.00     0.074 A 
ATOM     61  C   UNL A   1      46.669  26.183  28.069  1.00  0.00     0.031 C 
ATOM     62  C   UNL A   1      45.694  25.465  30.360  1.00  0.00     0.031 A 
BRANCH  49  63
ATOM     63  C   UNL A   1      44.175  23.206  25.819  1.00  0.00    -0.014 A 
ATOM     64  C   UNL A   1      44.316  21.842  25.499  1.00  0.00     0.009 A 
ATOM     65  C   UNL A   1      45.121  24.083  25.255  1.00  0.00     0.009 A 
ATOM     66  C   UNL A   1      45.411  21.376  24.763  1.00  0.00     0.001 A 
ATOM     67  C   UNL A   1      46.189  23.626  24.482  1.00  0.00     0.001 A 
ATOM     68  C   UNL A   1      46.355  22.267  24.266  1.00  0.00     0.000 A 
ENDBRANCH  49  63
BRANCH  50  69
ATOM     69  C   UNL A   1      47.045  30.690  28.127  1.00  0.00    -0.014 A 
ATOM     70  C   UNL A   1      46.759  31.379  26.936  1.00  0.00     0.009 A 
ATOM     71  C   UNL A   1      47.957  31.279  29.020  1.00  0.00     0.009 A 
ATOM     72  C   UNL A   1      47.314  32.639  26.677  1.00  0.00     0.001 A 
ATOM     73  C   UNL A   1      48.517  32.535  28.759  1.00  0.00     0.001 A 
ATOM     74  C   UNL A   1      48.178  33.225  27.598  1.00  0.00     0.000 A 
ENDBRANCH  50  69
BRANCH  62  75
ATOM     75  C   UNL A   1      45.593  25.890  31.805  1.00  0.00    -0.014 A 
ATOM     76  C   UNL A   1      44.589  26.732  32.313  1.00  0.00     0.009 A 
ATOM     77  C   UNL A   1      46.510  25.332  32.709  1.00  0.00     0.009 A 
ATOM     78  C   UNL A   1      44.541  27.044  33.677  1.00  0.00     0.001 A 
ATOM     79  C   UNL A   1      46.445  25.620  34.072  1.00  0.00     0.001 A 
ATOM     80  C   UNL A   1      45.467  26.486  34.555  1.00  0.00     0.000 A 
ENDBRANCH  62  75
ENDBRANCH  36  37
ENDBRANCH  28  31
ENDBRANCH  26  27
ENDBRANCH  25  26
ENDBRANCH   1  25
TORSDOF 13
ENDMDL
