MODEL 1
REMARK VINA RESULT:      -9.6      0.000      0.000
REMARK SMILES CC1(C)CCC[C@@H]1[C@H](O)C(=O)NCCCNC(=O)c1ccc(-c2c3nc(c(-c4ccccc4)c4ccc([nH]4)c(-c4ccccc4)c4nc(c(-c5ccccc5)c5ccc2[nH]5)C=C4)C=C3)cc1
REMARK SMILES IDX 14 1 13 2 12 3 10 4 11 5 8 7 7 8 1 9 2 10 3 11 4 12 5 13
REMARK SMILES IDX 6 14 9 15 15 17 16 18 17 19 18 21 19 22 20 23 66 24 21 25
REMARK SMILES IDX 65 26 22 27 23 28 24 29 59 30 25 31 64 32 58 33 60 34 26 35
REMARK SMILES IDX 63 36 57 37 56 38 27 40 49 41 34 42 48 43 35 44 38 45 47 46
REMARK SMILES IDX 61 47 36 48 37 49 46 51 62 52 39 53 28 54 29 55 33 56 30 57
REMARK SMILES IDX 32 58 31 59 50 60 51 61 55 62 52 63 54 64 53 65 40 66 41 67
REMARK SMILES IDX 45 68 42 69 44 70 43 71
REMARK H PARENT 12 6 9 16 16 20 60 39 38 50
REMARK Flexibility Score: inf
ROOT
ATOM      1  C   UNL A   1      33.501  34.003  28.119  1.00  0.00     0.042 C 
ENDROOT
BRANCH   1   2
ATOM      2  C   UNL A   1      33.765  35.126  29.100  1.00  0.00     0.117 C 
BRANCH   2   3
ATOM      3  N   UNL A   1      32.997  34.993  30.328  1.00  0.00    -0.354 N 
ATOM      4  C   UNL A   1      33.428  35.057  31.622  1.00  0.00     0.249 C 
ATOM      5  O   UNL A   1      32.600  34.938  32.526  1.00  0.00    -0.272 OA
ATOM      6  H   UNL A   1      32.032  34.835  30.209  1.00  0.00     0.163 HD
BRANCH   4   7
ATOM      7  C   UNL A   1      34.924  35.251  31.920  1.00  0.00     0.206 C 
BRANCH   7   8
ATOM      8  C   UNL A   1      35.534  33.978  32.534  1.00  0.00     0.033 C 
ATOM      9  C   UNL A   1      38.019  34.506  32.922  1.00  0.00     0.011 C 
ATOM     10  C   UNL A   1      36.999  33.636  32.173  1.00  0.00    -0.030 C 
ATOM     11  C   UNL A   1      37.281  33.708  30.665  1.00  0.00     0.011 C 
ATOM     12  C   UNL A   1      37.076  32.183  32.678  1.00  0.00     0.007 C 
ATOM     13  C   UNL A   1      35.732  31.554  32.315  1.00  0.00     0.001 C 
ATOM     14  C   UNL A   1      34.738  32.708  32.192  1.00  0.00     0.007 C 
ENDBRANCH   7   8
BRANCH   7  15
ATOM     15  O   UNL A   1      35.089  36.378  32.780  1.00  0.00    -0.383 OA
ATOM     16  H   UNL A   1      35.501  37.104  32.286  1.00  0.00     0.211 HD
ENDBRANCH   7  15
ENDBRANCH   4   7
ENDBRANCH   2   3
ENDBRANCH   1   2
BRANCH   1  17
ATOM     17  C   UNL A   1      34.367  32.780  28.351  1.00  0.00     0.118 C 
BRANCH  17  18
ATOM     18  N   UNL A   1      33.772  31.556  27.826  1.00  0.00    -0.352 N 
ATOM     19  C   UNL A   1      34.338  30.324  27.611  1.00  0.00     0.251 C 
ATOM     20  H   UNL A   1      32.818  31.624  27.593  1.00  0.00     0.163 HD
ATOM     21  O   UNL A   1      33.720  29.462  26.993  1.00  0.00    -0.269 OA
BRANCH  19  22
ATOM     22  C   UNL A   1      35.704  30.050  28.098  1.00  0.00     0.039 A 
ATOM     23  C   UNL A   1      35.881  29.583  29.402  1.00  0.00     0.014 A 
ATOM     24  C   UNL A   1      36.807  30.230  27.261  1.00  0.00     0.014 A 
ATOM     25  C   UNL A   1      37.157  29.219  29.835  1.00  0.00     0.010 A 
ATOM     26  C   UNL A   1      38.053  29.759  27.652  1.00  0.00     0.010 A 
ATOM     27  C   UNL A   1      38.245  29.259  28.948  1.00  0.00    -0.014 A 
BRANCH  27  28
ATOM     28  C   UNL A   1      39.596  28.799  29.353  1.00  0.00     0.031 A 
ATOM     29  C   UNL A   1      40.458  29.672  30.224  1.00  0.00     0.074 A 
ATOM     30  C   UNL A   1      40.073  27.628  28.886  1.00  0.00     0.049 A 
ATOM     31  N   UNL A   1      41.685  29.475  30.635  1.00  0.00    -0.248 NA
ATOM     32  C   UNL A   1      39.875  30.950  30.667  1.00  0.00     0.031 C 
ATOM     33  C   UNL A   1      39.353  26.707  28.003  1.00  0.00     0.029 A 
ATOM     34  N   UNL A   1      41.281  27.013  29.091  1.00  0.00    -0.354 N 
ATOM     35  C   UNL A   1      42.022  30.606  31.367  1.00  0.00     0.074 A 
ATOM     36  C   UNL A   1      40.899  31.513  31.288  1.00  0.00     0.031 C 
ATOM     37  C   UNL A   1      40.116  25.627  27.780  1.00  0.00     0.029 A 
ATOM     38  C   UNL A   1      41.395  25.799  28.459  1.00  0.00     0.049 A 
ATOM     39  H   UNL A   1      41.999  27.404  29.640  1.00  0.00     0.167 HD
ATOM     40  C   UNL A   1      43.152  30.859  32.068  1.00  0.00     0.031 A 
ATOM     41  C   UNL A   1      42.418  24.924  28.427  1.00  0.00     0.031 A 
ATOM     42  C   UNL A   1      44.268  29.956  32.149  1.00  0.00     0.049 A 
ATOM     43  C   UNL A   1      43.679  25.244  29.182  1.00  0.00     0.074 A 
ATOM     44  C   UNL A   1      45.441  30.097  32.868  1.00  0.00     0.029 A 
ATOM     45  N   UNL A   1      44.348  28.742  31.484  1.00  0.00    -0.354 N 
ATOM     46  N   UNL A   1      43.957  26.289  29.923  1.00  0.00    -0.248 NA
ATOM     47  C   UNL A   1      44.763  24.256  29.099  1.00  0.00     0.031 C 
ATOM     48  C   UNL A   1      46.257  28.995  32.590  1.00  0.00     0.029 A 
ATOM     49  C   UNL A   1      45.563  28.136  31.753  1.00  0.00     0.049 A 
ATOM     50  H   UNL A   1      43.645  28.367  30.905  1.00  0.00     0.167 HD
ATOM     51  C   UNL A   1      45.235  26.069  30.423  1.00  0.00     0.074 A 
ATOM     52  C   UNL A   1      45.668  24.785  29.911  1.00  0.00     0.031 C 
ATOM     53  C   UNL A   1      45.981  26.858  31.235  1.00  0.00     0.031 A 
BRANCH  40  54
ATOM     54  C   UNL A   1      43.233  32.175  32.794  1.00  0.00    -0.014 A 
ATOM     55  C   UNL A   1      42.799  32.302  34.124  1.00  0.00     0.009 A 
ATOM     56  C   UNL A   1      43.762  33.301  32.145  1.00  0.00     0.009 A 
ATOM     57  C   UNL A   1      42.849  33.537  34.772  1.00  0.00     0.001 A 
ATOM     58  C   UNL A   1      43.843  34.528  32.807  1.00  0.00     0.001 A 
ATOM     59  C   UNL A   1      43.375  34.648  34.114  1.00  0.00     0.000 A 
ENDBRANCH  40  54
BRANCH  41  60
ATOM     60  C   UNL A   1      42.287  23.648  27.675  1.00  0.00    -0.014 A 
ATOM     61  C   UNL A   1      41.791  22.498  28.309  1.00  0.00     0.009 A 
ATOM     62  C   UNL A   1      42.661  23.568  26.325  1.00  0.00     0.009 A 
ATOM     63  C   UNL A   1      41.699  21.289  27.616  1.00  0.00     0.001 A 
ATOM     64  C   UNL A   1      42.539  22.365  25.624  1.00  0.00     0.001 A 
ATOM     65  C   UNL A   1      42.068  21.225  26.273  1.00  0.00     0.000 A 
ENDBRANCH  41  60
BRANCH  53  66
ATOM     66  C   UNL A   1      47.326  26.335  31.654  1.00  0.00    -0.014 A 
ATOM     67  C   UNL A   1      47.491  25.603  32.840  1.00  0.00     0.009 A 
ATOM     68  C   UNL A   1      48.439  26.545  30.824  1.00  0.00     0.009 A 
ATOM     69  C   UNL A   1      48.752  25.125  33.205  1.00  0.00     0.001 A 
ATOM     70  C   UNL A   1      49.691  26.036  31.174  1.00  0.00     0.001 A 
ATOM     71  C   UNL A   1      49.848  25.336  32.368  1.00  0.00     0.000 A 
ENDBRANCH  53  66
ENDBRANCH  27  28
ENDBRANCH  19  22
ENDBRANCH  17  18
ENDBRANCH   1  17
TORSDOF 12
ENDMDL
MODEL 2
REMARK VINA RESULT:      -9.5      0.383      6.270
REMARK SMILES CC1(C)CCC[C@@H]1[C@H](O)C(=O)NCCCNC(=O)c1ccc(-c2c3nc(c(-c4ccccc4)c4ccc([nH]4)c(-c4ccccc4)c4nc(c(-c5ccccc5)c5ccc2[nH]5)C=C4)C=C3)cc1
REMARK SMILES IDX 14 1 13 2 12 3 10 4 11 5 8 7 7 8 1 9 2 10 3 11 4 12 5 13
REMARK SMILES IDX 6 14 9 15 15 17 16 18 17 19 18 21 19 22 20 23 66 24 21 25
REMARK SMILES IDX 65 26 22 27 23 28 24 29 59 30 25 31 64 32 58 33 60 34 26 35
REMARK SMILES IDX 63 36 57 37 56 38 27 40 49 41 34 42 48 43 35 44 38 45 47 46
REMARK SMILES IDX 61 47 36 48 37 49 46 51 62 52 39 53 28 54 29 55 33 56 30 57
REMARK SMILES IDX 32 58 31 59 50 60 51 61 55 62 52 63 54 64 53 65 40 66 41 67
REMARK SMILES IDX 45 68 42 69 44 70 43 71
REMARK H PARENT 12 6 9 16 16 20 60 39 38 50
REMARK Flexibility Score: inf
ROOT
ATOM      1  C   UNL A   1      33.454  33.796  28.121  1.00  0.00     0.042 C 
ENDROOT
BRANCH   1   2
ATOM      2  C   UNL A   1      33.733  34.979  29.025  1.00  0.00     0.117 C 
BRANCH   2   3
ATOM      3  N   UNL A   1      32.995  34.918  30.276  1.00  0.00    -0.354 N 
ATOM      4  C   UNL A   1      33.458  35.049  31.554  1.00  0.00     0.249 C 
ATOM      5  O   UNL A   1      32.651  34.984  32.483  1.00  0.00    -0.272 OA
ATOM      6  H   UNL A   1      32.026  34.761  30.189  1.00  0.00     0.163 HD
BRANCH   4   7
ATOM      7  C   UNL A   1      34.962  35.247  31.806  1.00  0.00     0.206 C 
BRANCH   7   8
ATOM      8  C   UNL A   1      35.597  33.970  32.385  1.00  0.00     0.033 C 
ATOM      9  C   UNL A   1      38.098  34.494  32.661  1.00  0.00     0.011 C 
ATOM     10  C   UNL A   1      37.044  33.628  31.956  1.00  0.00    -0.030 C 
ATOM     11  C   UNL A   1      37.256  33.707  30.437  1.00  0.00     0.011 C 
ATOM     12  C   UNL A   1      37.142  32.173  32.451  1.00  0.00     0.007 C 
ATOM     13  C   UNL A   1      35.783  31.547  32.147  1.00  0.00     0.001 C 
ATOM     14  C   UNL A   1      34.785  32.703  32.074  1.00  0.00     0.007 C 
ENDBRANCH   7   8
BRANCH   7  15
ATOM     15  O   UNL A   1      35.150  36.366  32.672  1.00  0.00    -0.383 OA
ATOM     16  H   UNL A   1      35.115  37.185  32.154  1.00  0.00     0.211 HD
ENDBRANCH   7  15
ENDBRANCH   4   7
ENDBRANCH   2   3
ENDBRANCH   1   2
BRANCH   1  17
ATOM     17  C   UNL A   1      34.320  32.588  28.421  1.00  0.00     0.118 C 
BRANCH  17  18
ATOM     18  N   UNL A   1      33.753  31.343  27.914  1.00  0.00    -0.352 N 
ATOM     19  C   UNL A   1      34.355  30.133  27.678  1.00  0.00     0.251 C 
ATOM     20  H   UNL A   1      32.790  31.377  27.711  1.00  0.00     0.163 HD
ATOM     21  O   UNL A   1      33.749  29.250  27.079  1.00  0.00    -0.269 OA
BRANCH  19  22
ATOM     22  C   UNL A   1      35.746  29.908  28.121  1.00  0.00     0.039 A 
ATOM     23  C   UNL A   1      35.981  29.444  29.417  1.00  0.00     0.014 A 
ATOM     24  C   UNL A   1      36.814  30.129  27.250  1.00  0.00     0.014 A 
ATOM     25  C   UNL A   1      37.282  29.125  29.808  1.00  0.00     0.010 A 
ATOM     26  C   UNL A   1      38.088  29.703  27.600  1.00  0.00     0.010 A 
ATOM     27  C   UNL A   1      38.339  29.207  28.887  1.00  0.00    -0.014 A 
BRANCH  27  28
ATOM     28  C   UNL A   1      39.718  28.796  29.247  1.00  0.00     0.031 A 
ATOM     29  C   UNL A   1      40.237  27.450  28.818  1.00  0.00     0.074 A 
ATOM     30  C   UNL A   1      40.479  29.601  30.015  1.00  0.00     0.049 A 
ATOM     31  N   UNL A   1      41.388  26.885  29.084  1.00  0.00    -0.248 NA
ATOM     32  C   UNL A   1      39.333  26.616  28.008  1.00  0.00     0.031 C 
ATOM     33  C   UNL A   1      40.078  30.913  30.529  1.00  0.00     0.029 A 
ATOM     34  N   UNL A   1      41.751  29.431  30.496  1.00  0.00    -0.354 N 
ATOM     35  C   UNL A   1      41.337  25.631  28.489  1.00  0.00     0.074 A 
ATOM     36  C   UNL A   1      40.021  25.490  27.908  1.00  0.00     0.031 C 
ATOM     37  C   UNL A   1      41.100  31.445  31.216  1.00  0.00     0.029 A 
ATOM     38  C   UNL A   1      42.208  30.496  31.234  1.00  0.00     0.049 A 
ATOM     39  H   UNL A   1      42.288  28.622  30.329  1.00  0.00     0.167 HD
ATOM     40  C   UNL A   1      42.306  24.689  28.407  1.00  0.00     0.031 A 
ATOM     41  C   UNL A   1      43.386  30.685  31.859  1.00  0.00     0.031 A 
ATOM     42  C   UNL A   1      43.616  24.831  28.982  1.00  0.00     0.049 A 
ATOM     43  C   UNL A   1      44.433  29.608  31.787  1.00  0.00     0.074 A 
ATOM     44  C   UNL A   1      44.686  23.956  28.918  1.00  0.00     0.029 A 
ATOM     45  N   UNL A   1      44.034  25.920  29.733  1.00  0.00    -0.354 N 
ATOM     46  N   UNL A   1      44.393  28.454  31.165  1.00  0.00    -0.248 NA
ATOM     47  C   UNL A   1      45.692  29.867  32.498  1.00  0.00     0.031 C 
ATOM     48  C   UNL A   1      45.731  24.489  29.680  1.00  0.00     0.029 A 
ATOM     49  C   UNL A   1      45.335  25.727  30.161  1.00  0.00     0.049 A 
ATOM     50  H   UNL A   1      43.485  26.713  29.932  1.00  0.00     0.167 HD
ATOM     51  C   UNL A   1      45.632  27.865  31.381  1.00  0.00     0.074 A 
ATOM     52  C   UNL A   1      46.404  28.795  32.178  1.00  0.00     0.031 C 
ATOM     53  C   UNL A   1      46.090  26.662  30.955  1.00  0.00     0.031 A 
BRANCH  40  54
ATOM     54  C   UNL A   1      41.972  23.419  27.672  1.00  0.00    -0.014 A 
ATOM     55  C   UNL A   1      41.336  22.347  28.321  1.00  0.00     0.009 A 
ATOM     56  C   UNL A   1      42.283  23.296  26.310  1.00  0.00     0.009 A 
ATOM     57  C   UNL A   1      41.063  21.163  27.634  1.00  0.00     0.001 A 
ATOM     58  C   UNL A   1      41.978  22.124  25.616  1.00  0.00     0.001 A 
ATOM     59  C   UNL A   1      41.381  21.054  26.281  1.00  0.00     0.000 A 
ENDBRANCH  40  54
BRANCH  41  60
ATOM     60  C   UNL A   1      43.650  31.954  32.588  1.00  0.00    -0.014 A 
ATOM     61  C   UNL A   1      43.295  32.082  33.940  1.00  0.00     0.009 A 
ATOM     62  C   UNL A   1      44.249  33.044  31.938  1.00  0.00     0.009 A 
ATOM     63  C   UNL A   1      43.508  33.285  34.617  1.00  0.00     0.001 A 
ATOM     64  C   UNL A   1      44.491  34.235  32.628  1.00  0.00     0.001 A 
ATOM     65  C   UNL A   1      44.110  34.358  33.963  1.00  0.00     0.000 A 
ENDBRANCH  41  60
BRANCH  53  66
ATOM     66  C   UNL A   1      47.507  26.302  31.308  1.00  0.00    -0.014 A 
ATOM     67  C   UNL A   1      47.813  25.588  32.476  1.00  0.00     0.009 A 
ATOM     68  C   UNL A   1      48.547  26.650  30.431  1.00  0.00     0.009 A 
ATOM     69  C   UNL A   1      49.137  25.264  32.778  1.00  0.00     0.001 A 
ATOM     70  C   UNL A   1      49.866  26.294  30.718  1.00  0.00     0.001 A 
ATOM     71  C   UNL A   1      50.160  25.611  31.896  1.00  0.00     0.000 A 
ENDBRANCH  53  66
ENDBRANCH  27  28
ENDBRANCH  19  22
ENDBRANCH  17  18
ENDBRANCH   1  17
TORSDOF 12
ENDMDL
MODEL 3
REMARK VINA RESULT:      -9.4      3.223      5.752
REMARK SMILES CC1(C)CCC[C@@H]1[C@H](O)C(=O)NCCCNC(=O)c1ccc(-c2c3nc(c(-c4ccccc4)c4ccc([nH]4)c(-c4ccccc4)c4nc(c(-c5ccccc5)c5ccc2[nH]5)C=C4)C=C3)cc1
REMARK SMILES IDX 14 1 13 2 12 3 10 4 11 5 8 7 7 8 1 9 2 10 3 11 4 12 5 13
REMARK SMILES IDX 6 14 9 15 15 17 16 18 17 19 18 21 19 22 20 23 66 24 21 25
REMARK SMILES IDX 65 26 22 27 23 28 24 29 59 30 25 31 64 32 58 33 60 34 26 35
REMARK SMILES IDX 63 36 57 37 56 38 27 40 49 41 34 42 48 43 35 44 38 45 47 46
REMARK SMILES IDX 61 47 36 48 37 49 46 51 62 52 39 53 28 54 29 55 33 56 30 57
REMARK SMILES IDX 32 58 31 59 50 60 51 61 55 62 52 63 54 64 53 65 40 66 41 67
REMARK SMILES IDX 45 68 42 69 44 70 43 71
REMARK H PARENT 12 6 9 16 16 20 60 39 38 50
REMARK Flexibility Score: inf
ROOT
ATOM      1  C   UNL A   1      33.280  28.737  25.746  1.00  0.00     0.042 C 
ENDROOT
BRANCH   1   2
ATOM      2  C   UNL A   1      32.002  27.981  25.447  1.00  0.00     0.117 C 
BRANCH   2   3
ATOM      3  N   UNL A   1      32.060  27.249  24.192  1.00  0.00    -0.354 N 
ATOM      4  C   UNL A   1      31.678  27.651  22.944  1.00  0.00     0.249 C 
ATOM      5  O   UNL A   1      31.833  26.874  22.001  1.00  0.00    -0.272 OA
ATOM      6  H   UNL A   1      32.426  26.336  24.251  1.00  0.00     0.163 HD
BRANCH   4   7
ATOM      7  C   UNL A   1      31.047  29.040  22.749  1.00  0.00     0.206 C 
BRANCH   7   8
ATOM      8  C   UNL A   1      29.544  28.924  22.437  1.00  0.00     0.033 C 
ATOM      9  C   UNL A   1      28.893  31.130  21.290  1.00  0.00     0.011 C 
ATOM     10  C   UNL A   1      28.693  30.215  22.507  1.00  0.00    -0.030 C 
ATOM     11  C   UNL A   1      28.927  31.022  23.792  1.00  0.00     0.011 C 
ATOM     12  C   UNL A   1      27.276  29.613  22.486  1.00  0.00     0.007 C 
ATOM     13  C   UNL A   1      27.353  28.360  23.355  1.00  0.00     0.001 C 
ATOM     14  C   UNL A   1      28.818  27.925  23.352  1.00  0.00     0.007 C 
ENDBRANCH   7   8
BRANCH   7  15
ATOM     15  O   UNL A   1      31.745  29.731  21.714  1.00  0.00    -0.383 OA
ATOM     16  H   UNL A   1      32.514  29.209  21.438  1.00  0.00     0.211 HD
ENDBRANCH   7  15
ENDBRANCH   4   7
ENDBRANCH   2   3
ENDBRANCH   1   2
BRANCH   1  17
ATOM     17  C   UNL A   1      33.607  28.812  27.225  1.00  0.00     0.118 C 
BRANCH  17  18
ATOM     18  N   UNL A   1      33.658  30.180  27.726  1.00  0.00    -0.352 N 
ATOM     19  C   UNL A   1      34.662  30.838  28.392  1.00  0.00     0.251 C 
ATOM     20  H   UNL A   1      32.848  30.715  27.560  1.00  0.00     0.163 HD
ATOM     21  O   UNL A   1      34.451  31.938  28.893  1.00  0.00    -0.269 OA
BRANCH  19  22
ATOM     22  C   UNL A   1      35.988  30.202  28.529  1.00  0.00     0.039 A 
ATOM     23  C   UNL A   1      36.877  30.244  27.454  1.00  0.00     0.014 A 
ATOM     24  C   UNL A   1      36.363  29.589  29.726  1.00  0.00     0.014 A 
ATOM     25  C   UNL A   1      38.170  29.743  27.610  1.00  0.00     0.010 A 
ATOM     26  C   UNL A   1      37.681  29.199  29.917  1.00  0.00     0.010 A 
ATOM     27  C   UNL A   1      38.597  29.260  28.858  1.00  0.00    -0.014 A 
BRANCH  27  28
ATOM     28  C   UNL A   1      39.989  28.799  29.079  1.00  0.00     0.031 A 
ATOM     29  C   UNL A   1      41.001  29.729  29.692  1.00  0.00     0.074 A 
ATOM     30  C   UNL A   1      40.361  27.570  28.669  1.00  0.00     0.049 A 
ATOM     31  N   UNL A   1      42.277  29.534  29.910  1.00  0.00    -0.248 NA
ATOM     32  C   UNL A   1      40.523  31.065  30.084  1.00  0.00     0.031 C 
ATOM     33  C   UNL A   1      39.486  26.587  28.025  1.00  0.00     0.029 A 
ATOM     34  N   UNL A   1      41.577  26.939  28.734  1.00  0.00    -0.354 N 
ATOM     35  C   UNL A   1      42.751  30.723  30.447  1.00  0.00     0.074 A 
ATOM     36  C   UNL A   1      41.647  31.655  30.459  1.00  0.00     0.031 C 
ATOM     37  C   UNL A   1      40.183  25.464  27.796  1.00  0.00     0.029 A 
ATOM     38  C   UNL A   1      41.562  25.662  28.228  1.00  0.00     0.049 A 
ATOM     39  H   UNL A   1      42.384  27.361  29.108  1.00  0.00     0.167 HD
ATOM     40  C   UNL A   1      43.989  31.010  30.916  1.00  0.00     0.031 A 
ATOM     41  C   UNL A   1      42.551  24.754  28.120  1.00  0.00     0.031 A 
ATOM     42  C   UNL A   1      45.087  30.083  30.907  1.00  0.00     0.049 A 
ATOM     43  C   UNL A   1      43.926  25.109  28.612  1.00  0.00     0.074 A 
ATOM     44  C   UNL A   1      46.369  30.258  31.399  1.00  0.00     0.029 A 
ATOM     45  N   UNL A   1      45.034  28.803  30.374  1.00  0.00    -0.354 N 
ATOM     46  N   UNL A   1      44.344  26.216  29.178  1.00  0.00    -0.248 NA
ATOM     47  C   UNL A   1      44.965  24.081  28.458  1.00  0.00     0.031 C 
ATOM     48  C   UNL A   1      47.108  29.106  31.110  1.00  0.00     0.029 A 
ATOM     49  C   UNL A   1      46.267  28.188  30.500  1.00  0.00     0.049 A 
ATOM     50  H   UNL A   1      44.237  28.394  29.966  1.00  0.00     0.167 HD
ATOM     51  C   UNL A   1      45.684  26.005  29.477  1.00  0.00     0.074 A 
ATOM     52  C   UNL A   1      46.004  24.661  29.044  1.00  0.00     0.031 C 
ATOM     53  C   UNL A   1      46.570  26.849  30.062  1.00  0.00     0.031 A 
BRANCH  40  54
ATOM     54  C   UNL A   1      44.213  32.391  31.470  1.00  0.00    -0.014 A 
ATOM     55  C   UNL A   1      44.011  32.672  32.832  1.00  0.00     0.009 A 
ATOM     56  C   UNL A   1      44.645  33.423  30.624  1.00  0.00     0.009 A 
ATOM     57  C   UNL A   1      44.190  33.966  33.324  1.00  0.00     0.001 A 
ATOM     58  C   UNL A   1      44.857  34.709  31.124  1.00  0.00     0.001 A 
ATOM     59  C   UNL A   1      44.617  34.983  32.470  1.00  0.00     0.000 A 
ENDBRANCH  40  54
BRANCH  41  60
ATOM     60  C   UNL A   1      42.273  23.412  27.544  1.00  0.00    -0.014 A 
ATOM     61  C   UNL A   1      42.547  23.149  26.193  1.00  0.00     0.009 A 
ATOM     62  C   UNL A   1      41.726  22.389  28.335  1.00  0.00     0.009 A 
ATOM     63  C   UNL A   1      42.253  21.901  25.640  1.00  0.00     0.001 A 
ATOM     64  C   UNL A   1      41.463  21.131  27.787  1.00  0.00     0.001 A 
ATOM     65  C   UNL A   1      41.717  20.892  26.437  1.00  0.00     0.000 A 
ENDBRANCH  41  60
BRANCH  53  66
ATOM     66  C   UNL A   1      47.959  26.327  30.304  1.00  0.00    -0.014 A 
ATOM     67  C   UNL A   1      48.964  26.437  29.330  1.00  0.00     0.009 A 
ATOM     68  C   UNL A   1      48.275  25.754  31.546  1.00  0.00     0.009 A 
ATOM     69  C   UNL A   1      50.247  25.947  29.583  1.00  0.00     0.001 A 
ATOM     70  C   UNL A   1      49.567  25.297  31.808  1.00  0.00     0.001 A 
ATOM     71  C   UNL A   1      50.549  25.384  30.823  1.00  0.00     0.000 A 
ENDBRANCH  53  66
ENDBRANCH  27  28
ENDBRANCH  19  22
ENDBRANCH  17  18
ENDBRANCH   1  17
TORSDOF 12
ENDMDL
