MODEL 1
REMARK VINA RESULT:     -11.3      0.000      0.000
REMARK SMILES CC(C)COc1cccc(N2C[C@@H](C(=O)NCCCNC(=O)c3ccc(-c4c5nc(c(-c6ccccc6)c6ccc([nH]6)c(-c6ccccc6)c6nc(c(-c7ccccc7)c7ccc4[nH]7)C=C6)C=C5)cc3)CC2=O)c1
REMARK SMILES IDX 17 1 16 2 14 3 15 4 13 6 11 7 12 8 72 9 71 10 73 11 10 12
REMARK SMILES IDX 6 13 7 14 74 15 8 16 9 17 5 18 4 19 2 20 1 21 3 22 18 23
REMARK SMILES IDX 19 24 20 25 21 26 22 28 23 29 24 30 70 31 25 32 69 33 26 34
REMARK SMILES IDX 27 35 28 36 63 37 29 38 68 39 62 40 64 41 30 42 67 43 61 44
REMARK SMILES IDX 60 45 31 47 53 48 38 49 52 50 39 51 42 52 51 53 65 54 40 55
REMARK SMILES IDX 41 56 50 58 66 59 43 60 32 61 33 62 37 63 34 64 36 65 35 66
REMARK SMILES IDX 54 67 55 68 59 69 56 70 58 71 57 72 44 73 45 74 49 75 46 76
REMARK SMILES IDX 48 77 47 78
REMARK H PARENT 16 5 20 27 64 46 42 57
REMARK Flexibility Score: inf
ROOT
ATOM      1  C   UNL A   1      35.694  21.196  25.029  1.00  0.00     0.117 C 
ENDROOT
BRANCH   1   2
ATOM      2  N   UNL A   1      35.371  21.589  26.391  1.00  0.00    -0.356 N 
ATOM      3  C   UNL A   1      34.378  22.349  26.918  1.00  0.00     0.225 C 
ATOM      4  O   UNL A   1      34.356  22.456  28.148  1.00  0.00    -0.275 OA
ATOM      5  H   UNL A   1      35.995  21.233  27.064  1.00  0.00     0.163 HD
BRANCH   3   6
ATOM      6  C   UNL A   1      33.317  23.046  26.092  1.00  0.00     0.107 C 
ATOM      7  N   UNL A   1      32.331  25.174  25.881  1.00  0.00    -0.311 N 
ATOM      8  C   UNL A   1      33.613  24.508  25.823  1.00  0.00     0.139 C 
ATOM      9  C   UNL A   1      31.334  24.346  26.400  1.00  0.00     0.227 C 
ATOM     10  C   UNL A   1      31.917  22.990  26.673  1.00  0.00     0.116 C 
ATOM     11  O   UNL A   1      30.162  24.613  26.633  1.00  0.00    -0.274 OA
BRANCH   7  12
ATOM     12  C   UNL A   1      32.222  26.578  25.700  1.00  0.00     0.047 A 
ATOM     13  C   UNL A   1      31.205  28.401  24.484  1.00  0.00     0.121 A 
ATOM     14  C   UNL A   1      31.552  29.305  25.480  1.00  0.00     0.046 A 
ATOM     15  C   UNL A   1      31.650  27.084  24.533  1.00  0.00     0.072 A 
ATOM     16  C   UNL A   1      32.252  28.845  26.594  1.00  0.00     0.006 A 
ATOM     17  C   UNL A   1      32.539  27.478  26.726  1.00  0.00     0.026 A 
BRANCH  13  18
ATOM     18  O   UNL A   1      30.389  28.778  23.454  1.00  0.00    -0.493 OA
BRANCH  18  19
ATOM     19  C   UNL A   1      29.760  30.056  23.714  1.00  0.00     0.232 C 
BRANCH  19  20
ATOM     20  C   UNL A   1      28.441  30.259  22.927  1.00  0.00     0.020 C 
ATOM     21  C   UNL A   1      27.533  29.023  22.982  1.00  0.00     0.011 C 
ATOM     22  C   UNL A   1      27.637  31.439  23.478  1.00  0.00     0.011 C 
ENDBRANCH  19  20
ENDBRANCH  18  19
ENDBRANCH  13  18
ENDBRANCH   7  12
ENDBRANCH   3   6
ENDBRANCH   1   2
BRANCH   1  23
ATOM     23  C   UNL A   1      36.855  20.207  24.957  1.00  0.00     0.042 C 
BRANCH  23  24
ATOM     24  C   UNL A   1      38.200  20.753  25.432  1.00  0.00     0.118 C 
BRANCH  24  25
ATOM     25  N   UNL A   1      39.228  19.728  25.539  1.00  0.00    -0.352 N 
ATOM     26  C   UNL A   1      40.534  19.812  25.957  1.00  0.00     0.251 C 
ATOM     27  H   UNL A   1      38.939  18.826  25.268  1.00  0.00     0.163 HD
ATOM     28  O   UNL A   1      41.277  18.846  25.808  1.00  0.00    -0.269 OA
BRANCH  26  29
ATOM     29  C   UNL A   1      41.065  21.055  26.563  1.00  0.00     0.039 A 
ATOM     30  C   UNL A   1      41.642  22.017  25.728  1.00  0.00     0.014 A 
ATOM     31  C   UNL A   1      41.035  21.268  27.943  1.00  0.00     0.014 A 
ATOM     32  C   UNL A   1      42.117  23.217  26.266  1.00  0.00     0.010 A 
ATOM     33  C   UNL A   1      41.431  22.496  28.468  1.00  0.00     0.010 A 
ATOM     34  C   UNL A   1      41.978  23.486  27.637  1.00  0.00    -0.014 A 
BRANCH  34  35
ATOM     35  C   UNL A   1      42.399  24.788  28.218  1.00  0.00     0.031 A 
ATOM     36  C   UNL A   1      41.400  25.900  28.399  1.00  0.00     0.074 A 
ATOM     37  C   UNL A   1      43.694  24.993  28.534  1.00  0.00     0.049 A 
ATOM     38  N   UNL A   1      41.592  27.124  28.825  1.00  0.00    -0.248 NA
ATOM     39  C   UNL A   1      40.003  25.607  28.035  1.00  0.00     0.031 C 
ATOM     40  C   UNL A   1      44.771  24.011  28.385  1.00  0.00     0.029 A 
ATOM     41  N   UNL A   1      44.326  26.100  29.045  1.00  0.00    -0.354 N 
ATOM     42  C   UNL A   1      40.350  27.744  28.770  1.00  0.00     0.074 A 
ATOM     43  C   UNL A   1      39.422  26.782  28.218  1.00  0.00     0.031 C 
ATOM     44  C   UNL A   1      45.921  24.550  28.823  1.00  0.00     0.029 A 
ATOM     45  C   UNL A   1      45.676  25.927  29.236  1.00  0.00     0.049 A 
ATOM     46  H   UNL A   1      43.857  26.940  29.253  1.00  0.00     0.167 HD
ATOM     47  C   UNL A   1      40.004  28.993  29.167  1.00  0.00     0.031 A 
ATOM     48  C   UNL A   1      46.615  26.783  29.684  1.00  0.00     0.031 A 
ATOM     49  C   UNL A   1      40.923  29.951  29.721  1.00  0.00     0.049 A 
ATOM     50  C   UNL A   1      46.211  28.180  30.069  1.00  0.00     0.074 A 
ATOM     51  C   UNL A   1      40.661  31.229  30.182  1.00  0.00     0.029 A 
ATOM     52  N   UNL A   1      42.282  29.737  29.888  1.00  0.00    -0.354 N 
ATOM     53  N   UNL A   1      45.021  28.729  30.064  1.00  0.00    -0.248 NA
ATOM     54  C   UNL A   1      47.282  29.073  30.533  1.00  0.00     0.031 C 
ATOM     55  C   UNL A   1      41.871  31.809  30.577  1.00  0.00     0.029 A 
ATOM     56  C   UNL A   1      42.874  30.867  30.426  1.00  0.00     0.049 A 
ATOM     57  H   UNL A   1      42.756  28.905  29.658  1.00  0.00     0.167 HD
ATOM     58  C   UNL A   1      45.196  30.015  30.560  1.00  0.00     0.074 A 
ATOM     59  C   UNL A   1      46.602  30.158  30.872  1.00  0.00     0.031 C 
ATOM     60  C   UNL A   1      44.273  30.992  30.742  1.00  0.00     0.031 A 
BRANCH  47  61
ATOM     61  C   UNL A   1      38.563  29.396  29.019  1.00  0.00    -0.014 A 
ATOM     62  C   UNL A   1      38.052  29.825  27.783  1.00  0.00     0.009 A 
ATOM     63  C   UNL A   1      37.690  29.292  30.113  1.00  0.00     0.009 A 
ATOM     64  C   UNL A   1      36.706  30.172  27.655  1.00  0.00     0.001 A 
ATOM     65  C   UNL A   1      36.337  29.610  29.974  1.00  0.00     0.001 A 
ATOM     66  C   UNL A   1      35.849  30.058  28.748  1.00  0.00     0.000 A 
ENDBRANCH  47  61
BRANCH  48  67
ATOM     67  C   UNL A   1      48.036  26.355  29.798  1.00  0.00    -0.014 A 
ATOM     68  C   UNL A   1      48.889  26.408  28.684  1.00  0.00     0.009 A 
ATOM     69  C   UNL A   1      48.537  25.848  31.008  1.00  0.00     0.009 A 
ATOM     70  C   UNL A   1      50.196  25.925  28.767  1.00  0.00     0.001 A 
ATOM     71  C   UNL A   1      49.856  25.399  31.097  1.00  0.00     0.001 A 
ATOM     72  C   UNL A   1      50.680  25.423  29.974  1.00  0.00     0.000 A 
ENDBRANCH  48  67
BRANCH  60  73
ATOM     73  C   UNL A   1      44.744  32.281  31.355  1.00  0.00    -0.014 A 
ATOM     74  C   UNL A   1      44.771  32.467  32.746  1.00  0.00     0.009 A 
ATOM     75  C   UNL A   1      45.205  33.314  30.523  1.00  0.00     0.009 A 
ATOM     76  C   UNL A   1      45.214  33.676  33.288  1.00  0.00     0.001 A 
ATOM     77  C   UNL A   1      45.679  34.507  31.068  1.00  0.00     0.001 A 
ATOM     78  C   UNL A   1      45.672  34.692  32.450  1.00  0.00     0.000 A 
ENDBRANCH  60  73
ENDBRANCH  34  35
ENDBRANCH  26  29
ENDBRANCH  24  25
ENDBRANCH  23  24
ENDBRANCH   1  23
TORSDOF 14
ENDMDL
MODEL 2
REMARK VINA RESULT:     -11.2      2.088      7.929
REMARK SMILES CC(C)COc1cccc(N2C[C@@H](C(=O)NCCCNC(=O)c3ccc(-c4c5nc(c(-c6ccccc6)c6ccc([nH]6)c(-c6ccccc6)c6nc(c(-c7ccccc7)c7ccc4[nH]7)C=C6)C=C5)cc3)CC2=O)c1
REMARK SMILES IDX 17 1 16 2 14 3 15 4 13 6 11 7 12 8 72 9 71 10 73 11 10 12
REMARK SMILES IDX 6 13 7 14 74 15 8 16 9 17 5 18 4 19 2 20 1 21 3 22 18 23
REMARK SMILES IDX 19 24 20 25 21 26 22 28 23 29 24 30 70 31 25 32 69 33 26 34
REMARK SMILES IDX 27 35 28 36 63 37 29 38 68 39 62 40 64 41 30 42 67 43 61 44
REMARK SMILES IDX 60 45 31 47 53 48 38 49 52 50 39 51 42 52 51 53 65 54 40 55
REMARK SMILES IDX 41 56 50 58 66 59 43 60 32 61 33 62 37 63 34 64 36 65 35 66
REMARK SMILES IDX 54 67 55 68 59 69 56 70 58 71 57 72 44 73 45 74 49 75 46 76
REMARK SMILES IDX 48 77 47 78
REMARK H PARENT 16 5 20 27 64 46 42 57
REMARK Flexibility Score: inf
ROOT
ATOM      1  C   UNL A   1      31.693  28.910  25.456  1.00  0.00     0.117 C 
ENDROOT
BRANCH   1   2
ATOM      2  N   UNL A   1      32.799  29.014  24.518  1.00  0.00    -0.356 N 
ATOM      3  C   UNL A   1      33.471  28.092  23.784  1.00  0.00     0.225 C 
ATOM      4  O   UNL A   1      34.351  28.520  23.031  1.00  0.00    -0.275 OA
ATOM      5  H   UNL A   1      33.124  29.935  24.390  1.00  0.00     0.163 HD
BRANCH   3   6
ATOM      6  C   UNL A   1      33.194  26.604  23.834  1.00  0.00     0.107 C 
ATOM      7  N   UNL A   1      34.354  24.583  24.170  1.00  0.00    -0.311 N 
ATOM      8  C   UNL A   1      34.076  25.850  24.809  1.00  0.00     0.139 C 
ATOM      9  C   UNL A   1      33.963  24.575  22.830  1.00  0.00     0.227 C 
ATOM     10  C   UNL A   1      33.312  25.888  22.502  1.00  0.00     0.116 C 
ATOM     11  O   UNL A   1      34.104  23.689  21.996  1.00  0.00    -0.274 OA
BRANCH   7  12
ATOM     12  C   UNL A   1      35.185  23.613  24.789  1.00  0.00     0.047 A 
ATOM     13  C   UNL A   1      35.687  21.272  25.119  1.00  0.00     0.121 A 
ATOM     14  C   UNL A   1      36.964  21.574  25.572  1.00  0.00     0.046 A 
ATOM     15  C   UNL A   1      34.767  22.283  24.857  1.00  0.00     0.072 A 
ATOM     16  C   UNL A   1      37.355  22.909  25.647  1.00  0.00     0.006 A 
ATOM     17  C   UNL A   1      36.487  23.920  25.207  1.00  0.00     0.026 A 
BRANCH  13  18
ATOM     18  O   UNL A   1      35.317  19.976  24.884  1.00  0.00    -0.493 OA
BRANCH  18  19
ATOM     19  C   UNL A   1      33.886  19.858  24.695  1.00  0.00     0.232 C 
BRANCH  19  20
ATOM     20  C   UNL A   1      33.426  18.406  24.415  1.00  0.00     0.020 C 
ATOM     21  C   UNL A   1      32.674  17.793  25.605  1.00  0.00     0.011 C 
ATOM     22  C   UNL A   1      32.491  18.340  23.204  1.00  0.00     0.011 C 
ENDBRANCH  19  20
ENDBRANCH  18  19
ENDBRANCH  13  18
ENDBRANCH   7  12
ENDBRANCH   3   6
ENDBRANCH   1   2
BRANCH   1  23
ATOM     23  C   UNL A   1      32.137  28.475  26.851  1.00  0.00     0.042 C 
BRANCH  23  24
ATOM     24  C   UNL A   1      33.545  28.915  27.247  1.00  0.00     0.118 C 
BRANCH  24  25
ATOM     25  N   UNL A   1      33.604  30.291  27.715  1.00  0.00    -0.352 N 
ATOM     26  C   UNL A   1      34.601  30.968  28.377  1.00  0.00     0.251 C 
ATOM     27  H   UNL A   1      32.798  30.825  27.526  1.00  0.00     0.163 HD
ATOM     28  O   UNL A   1      34.370  32.087  28.828  1.00  0.00    -0.269 OA
BRANCH  26  29
ATOM     29  C   UNL A   1      35.938  30.362  28.575  1.00  0.00     0.039 A 
ATOM     30  C   UNL A   1      36.847  30.380  27.513  1.00  0.00     0.014 A 
ATOM     31  C   UNL A   1      36.291  29.747  29.778  1.00  0.00     0.014 A 
ATOM     32  C   UNL A   1      38.129  29.849  27.682  1.00  0.00     0.010 A 
ATOM     33  C   UNL A   1      37.595  29.294  29.972  1.00  0.00     0.010 A 
ATOM     34  C   UNL A   1      38.530  29.339  28.927  1.00  0.00    -0.014 A 
BRANCH  34  35
ATOM     35  C   UNL A   1      39.915  28.847  29.153  1.00  0.00     0.031 A 
ATOM     36  C   UNL A   1      40.951  29.747  29.773  1.00  0.00     0.074 A 
ATOM     37  C   UNL A   1      40.259  27.606  28.752  1.00  0.00     0.049 A 
ATOM     38  N   UNL A   1      42.223  29.518  29.987  1.00  0.00    -0.248 NA
ATOM     39  C   UNL A   1      40.506  31.087  30.190  1.00  0.00     0.031 C 
ATOM     40  C   UNL A   1      39.362  26.640  28.114  1.00  0.00     0.029 A 
ATOM     41  N   UNL A   1      41.461  26.945  28.818  1.00  0.00    -0.354 N 
ATOM     42  C   UNL A   1      42.728  30.684  30.551  1.00  0.00     0.074 A 
ATOM     43  C   UNL A   1      41.641  31.637  30.595  1.00  0.00     0.031 C 
ATOM     44  C   UNL A   1      40.036  25.502  27.877  1.00  0.00     0.029 A 
ATOM     45  C   UNL A   1      41.422  25.673  28.298  1.00  0.00     0.049 A 
ATOM     46  H   UNL A   1      42.275  27.344  29.202  1.00  0.00     0.167 HD
ATOM     47  C   UNL A   1      43.976  30.934  31.015  1.00  0.00     0.031 A 
ATOM     48  C   UNL A   1      42.394  24.751  28.164  1.00  0.00     0.031 A 
ATOM     49  C   UNL A   1      45.059  29.987  30.978  1.00  0.00     0.049 A 
ATOM     50  C   UNL A   1      43.784  25.074  28.642  1.00  0.00     0.074 A 
ATOM     51  C   UNL A   1      46.350  30.136  31.454  1.00  0.00     0.029 A 
ATOM     52  N   UNL A   1      44.978  28.715  30.434  1.00  0.00    -0.354 N 
ATOM     53  N   UNL A   1      44.227  26.162  29.225  1.00  0.00    -0.248 NA
ATOM     54  C   UNL A   1      44.806  24.035  28.453  1.00  0.00     0.031 C 
ATOM     55  C   UNL A   1      47.066  28.975  31.148  1.00  0.00     0.029 A 
ATOM     56  C   UNL A   1      46.202  28.078  30.543  1.00  0.00     0.049 A 
ATOM     57  H   UNL A   1      44.170  28.324  30.030  1.00  0.00     0.167 HD
ATOM     58  C   UNL A   1      45.567  25.921  29.505  1.00  0.00     0.074 A 
ATOM     59  C   UNL A   1      45.858  24.580  29.045  1.00  0.00     0.031 C 
ATOM     60  C   UNL A   1      46.475  26.738  30.092  1.00  0.00     0.031 A 
BRANCH  47  61
ATOM     61  C   UNL A   1      44.239  32.290  31.610  1.00  0.00    -0.014 A 
ATOM     62  C   UNL A   1      44.736  33.343  30.825  1.00  0.00     0.009 A 
ATOM     63  C   UNL A   1      43.934  32.535  32.958  1.00  0.00     0.009 A 
ATOM     64  C   UNL A   1      44.952  34.603  31.384  1.00  0.00     0.001 A 
ATOM     65  C   UNL A   1      44.122  33.806  33.507  1.00  0.00     0.001 A 
ATOM     66  C   UNL A   1      44.638  34.836  32.723  1.00  0.00     0.000 A 
ENDBRANCH  47  61
BRANCH  48  67
ATOM     67  C   UNL A   1      42.102  23.427  27.552  1.00  0.00    -0.014 A 
ATOM     68  C   UNL A   1      41.559  22.387  28.325  1.00  0.00     0.009 A 
ATOM     69  C   UNL A   1      42.407  23.176  26.205  1.00  0.00     0.009 A 
ATOM     70  C   UNL A   1      41.367  21.118  27.775  1.00  0.00     0.001 A 
ATOM     71  C   UNL A   1      42.180  21.916  25.647  1.00  0.00     0.001 A 
ATOM     72  C   UNL A   1      41.676  20.884  26.436  1.00  0.00     0.000 A 
ENDBRANCH  48  67
BRANCH  60  73
ATOM     73  C   UNL A   1      47.855  26.186  30.322  1.00  0.00    -0.014 A 
ATOM     74  C   UNL A   1      48.249  25.689  31.574  1.00  0.00     0.009 A 
ATOM     75  C   UNL A   1      48.762  26.128  29.252  1.00  0.00     0.009 A 
ATOM     76  C   UNL A   1      49.537  25.181  31.758  1.00  0.00     0.001 A 
ATOM     77  C   UNL A   1      50.037  25.589  29.430  1.00  0.00     0.001 A 
ATOM     78  C   UNL A   1      50.427  25.126  30.686  1.00  0.00     0.000 A 
ENDBRANCH  60  73
ENDBRANCH  34  35
ENDBRANCH  26  29
ENDBRANCH  24  25
ENDBRANCH  23  24
ENDBRANCH   1  23
TORSDOF 14
ENDMDL
MODEL 3
REMARK VINA RESULT:     -10.8      2.244      7.933
REMARK SMILES CC(C)COc1cccc(N2C[C@@H](C(=O)NCCCNC(=O)c3ccc(-c4c5nc(c(-c6ccccc6)c6ccc([nH]6)c(-c6ccccc6)c6nc(c(-c7ccccc7)c7ccc4[nH]7)C=C6)C=C5)cc3)CC2=O)c1
REMARK SMILES IDX 17 1 16 2 14 3 15 4 13 6 11 7 12 8 72 9 71 10 73 11 10 12
REMARK SMILES IDX 6 13 7 14 74 15 8 16 9 17 5 18 4 19 2 20 1 21 3 22 18 23
REMARK SMILES IDX 19 24 20 25 21 26 22 28 23 29 24 30 70 31 25 32 69 33 26 34
REMARK SMILES IDX 27 35 28 36 63 37 29 38 68 39 62 40 64 41 30 42 67 43 61 44
REMARK SMILES IDX 60 45 31 47 53 48 38 49 52 50 39 51 42 52 51 53 65 54 40 55
REMARK SMILES IDX 41 56 50 58 66 59 43 60 32 61 33 62 37 63 34 64 36 65 35 66
REMARK SMILES IDX 54 67 55 68 59 69 56 70 58 71 57 72 44 73 45 74 49 75 46 76
REMARK SMILES IDX 48 77 47 78
REMARK H PARENT 16 5 20 27 64 46 42 57
REMARK Flexibility Score: inf
ROOT
ATOM      1  C   UNL A   1      31.843  28.733  25.417  1.00  0.00     0.117 C 
ENDROOT
BRANCH   1   2
ATOM      2  N   UNL A   1      32.995  28.852  24.538  1.00  0.00    -0.356 N 
ATOM      3  C   UNL A   1      33.391  28.155  23.443  1.00  0.00     0.225 C 
ATOM      4  O   UNL A   1      34.420  28.545  22.882  1.00  0.00    -0.275 OA
ATOM      5  H   UNL A   1      33.608  29.581  24.786  1.00  0.00     0.163 HD
BRANCH   3   6
ATOM      6  C   UNL A   1      32.646  26.961  22.884  1.00  0.00     0.107 C 
ATOM      7  N   UNL A   1      32.890  24.626  22.713  1.00  0.00    -0.311 N 
ATOM      8  C   UNL A   1      32.835  25.691  23.689  1.00  0.00     0.139 C 
ATOM      9  C   UNL A   1      33.013  25.113  21.411  1.00  0.00     0.227 C 
ATOM     10  C   UNL A   1      32.984  26.614  21.446  1.00  0.00     0.116 C 
ATOM     11  O   UNL A   1      33.142  24.487  20.367  1.00  0.00    -0.274 OA
BRANCH   7  12
ATOM     12  C   UNL A   1      33.088  23.276  23.106  1.00  0.00     0.047 A 
ATOM     13  C   UNL A   1      34.217  21.728  24.578  1.00  0.00     0.121 A 
ATOM     14  C   UNL A   1      33.290  20.733  24.301  1.00  0.00     0.046 A 
ATOM     15  C   UNL A   1      34.192  22.937  23.890  1.00  0.00     0.072 A 
ATOM     16  C   UNL A   1      32.256  21.006  23.407  1.00  0.00     0.006 A 
ATOM     17  C   UNL A   1      32.127  22.288  22.853  1.00  0.00     0.026 A 
BRANCH  13  18
ATOM     18  O   UNL A   1      35.153  21.555  25.561  1.00  0.00    -0.493 OA
BRANCH  18  19
ATOM     19  C   UNL A   1      35.912  22.767  25.790  1.00  0.00     0.232 C 
BRANCH  19  20
ATOM     20  C   UNL A   1      37.367  22.685  25.262  1.00  0.00     0.020 C 
ATOM     21  C   UNL A   1      38.358  23.431  26.166  1.00  0.00     0.011 C 
ATOM     22  C   UNL A   1      37.844  21.233  25.165  1.00  0.00     0.011 C 
ENDBRANCH  19  20
ENDBRANCH  18  19
ENDBRANCH  13  18
ENDBRANCH   7  12
ENDBRANCH   3   6
ENDBRANCH   1   2
BRANCH   1  23
ATOM     23  C   UNL A   1      32.195  28.141  26.780  1.00  0.00     0.042 C 
BRANCH  23  24
ATOM     24  C   UNL A   1      33.525  28.611  27.365  1.00  0.00     0.118 C 
BRANCH  24  25
ATOM     25  N   UNL A   1      33.530  30.026  27.707  1.00  0.00    -0.352 N 
ATOM     26  C   UNL A   1      34.507  30.802  28.284  1.00  0.00     0.251 C 
ATOM     27  H   UNL A   1      32.697  30.505  27.489  1.00  0.00     0.163 HD
ATOM     28  O   UNL A   1      34.234  31.946  28.639  1.00  0.00    -0.269 OA
BRANCH  26  29
ATOM     29  C   UNL A   1      35.873  30.275  28.506  1.00  0.00     0.039 A 
ATOM     30  C   UNL A   1      36.799  30.347  27.461  1.00  0.00     0.014 A 
ATOM     31  C   UNL A   1      36.240  29.679  29.715  1.00  0.00     0.014 A 
ATOM     32  C   UNL A   1      38.107  29.892  27.653  1.00  0.00     0.010 A 
ATOM     33  C   UNL A   1      37.564  29.303  29.933  1.00  0.00     0.010 A 
ATOM     34  C   UNL A   1      38.514  29.404  28.905  1.00  0.00    -0.014 A 
BRANCH  34  35
ATOM     35  C   UNL A   1      39.920  28.993  29.156  1.00  0.00     0.031 A 
ATOM     36  C   UNL A   1      40.394  27.618  28.766  1.00  0.00     0.074 A 
ATOM     37  C   UNL A   1      40.762  29.838  29.785  1.00  0.00     0.049 A 
ATOM     38  N   UNL A   1      41.562  27.058  28.963  1.00  0.00    -0.248 NA
ATOM     39  C   UNL A   1      39.423  26.749  28.080  1.00  0.00     0.031 C 
ATOM     40  C   UNL A   1      40.427  31.189  30.242  1.00  0.00     0.029 A 
ATOM     41  N   UNL A   1      42.076  29.683  30.155  1.00  0.00    -0.354 N 
ATOM     42  C   UNL A   1      41.461  25.776  28.438  1.00  0.00     0.074 A 
ATOM     43  C   UNL A   1      40.104  25.619  27.964  1.00  0.00     0.031 C 
ATOM     44  C   UNL A   1      41.514  31.748  30.800  1.00  0.00     0.029 A 
ATOM     45  C   UNL A   1      42.606  30.781  30.788  1.00  0.00     0.049 A 
ATOM     46  H   UNL A   1      42.591  28.861  29.982  1.00  0.00     0.167 HD
ATOM     47  C   UNL A   1      42.417  24.821  28.335  1.00  0.00     0.031 A 
ATOM     48  C   UNL A   1      43.831  30.985  31.311  1.00  0.00     0.031 A 
ATOM     49  C   UNL A   1      43.769  24.974  28.802  1.00  0.00     0.049 A 
ATOM     50  C   UNL A   1      44.857  29.889  31.228  1.00  0.00     0.074 A 
ATOM     51  C   UNL A   1      44.818  24.076  28.713  1.00  0.00     0.029 A 
ATOM     52  N   UNL A   1      44.260  26.099  29.445  1.00  0.00    -0.354 N 
ATOM     53  N   UNL A   1      44.760  28.703  30.676  1.00  0.00    -0.248 NA
ATOM     54  C   UNL A   1      46.169  30.164  31.831  1.00  0.00     0.031 C 
ATOM     55  C   UNL A   1      45.929  24.635  29.352  1.00  0.00     0.029 A 
ATOM     56  C   UNL A   1      45.591  25.908  29.778  1.00  0.00     0.049 A 
ATOM     57  H   UNL A   1      43.740  26.912  29.638  1.00  0.00     0.167 HD
ATOM     58  C   UNL A   1      46.007  28.110  30.832  1.00  0.00     0.074 A 
ATOM     59  C   UNL A   1      46.847  29.071  31.514  1.00  0.00     0.031 C 
ATOM     60  C   UNL A   1      46.419  26.878  30.445  1.00  0.00     0.031 A 
BRANCH  47  61
ATOM     61  C   UNL A   1      42.033  23.519  27.687  1.00  0.00    -0.014 A 
ATOM     62  C   UNL A   1      41.401  22.501  28.420  1.00  0.00     0.009 A 
ATOM     63  C   UNL A   1      42.255  23.327  26.314  1.00  0.00     0.009 A 
ATOM     64  C   UNL A   1      41.028  21.308  27.799  1.00  0.00     0.001 A 
ATOM     65  C   UNL A   1      41.853  22.145  25.689  1.00  0.00     0.001 A 
ATOM     66  C   UNL A   1      41.248  21.134  26.434  1.00  0.00     0.000 A 
ENDBRANCH  47  61
BRANCH  48  67
ATOM     67  C   UNL A   1      44.169  32.279  31.963  1.00  0.00    -0.014 A 
ATOM     68  C   UNL A   1      44.738  33.326  31.220  1.00  0.00     0.009 A 
ATOM     69  C   UNL A   1      43.968  32.462  33.341  1.00  0.00     0.009 A 
ATOM     70  C   UNL A   1      45.138  34.507  31.848  1.00  0.00     0.001 A 
ATOM     71  C   UNL A   1      44.336  33.659  33.960  1.00  0.00     0.001 A 
ATOM     72  C   UNL A   1      44.935  34.674  33.217  1.00  0.00     0.000 A 
ENDBRANCH  48  67
BRANCH  60  73
ATOM     73  C   UNL A   1      47.857  26.520  30.699  1.00  0.00    -0.014 A 
ATOM     74  C   UNL A   1      48.859  26.782  29.751  1.00  0.00     0.009 A 
ATOM     75  C   UNL A   1      48.219  25.944  31.928  1.00  0.00     0.009 A 
ATOM     76  C   UNL A   1      50.186  26.438  30.014  1.00  0.00     0.001 A 
ATOM     77  C   UNL A   1      49.551  25.633  32.201  1.00  0.00     0.001 A 
ATOM     78  C   UNL A   1      50.532  25.870  31.240  1.00  0.00     0.000 A 
ENDBRANCH  60  73
ENDBRANCH  34  35
ENDBRANCH  26  29
ENDBRANCH  24  25
ENDBRANCH  23  24
ENDBRANCH   1  23
TORSDOF 14
ENDMDL
