MODEL 1
REMARK VINA RESULT:     -11.0      0.000      0.000
REMARK SMILES CC[C@@]1(C(=O)NCCCNC(=O)c2ccc(-c3c4nc(c(-c5ccccc5)c5ccc([nH]5)c(-c5ccccc5)c5nc(c(-c6ccccc6)c6ccc3[nH]6)C=C5)C=C4)cc2)CCC[N@@H+](Cc2ccc(C3CC3)cc2)C1
REMARK SMILES IDX 7 1 6 2 4 3 5 4 3 6 61 7 75 8 62 9 64 10 63 11 2 13 1 14
REMARK SMILES IDX 65 15 66 16 67 17 74 18 68 19 73 20 69 21 70 22 71 23 72 24
REMARK SMILES IDX 8 25 9 26 10 27 11 28 12 30 13 31 14 32 60 33 15 34 59 35
REMARK SMILES IDX 16 36 17 37 18 38 53 39 19 40 58 41 52 42 54 43 20 44 57 45
REMARK SMILES IDX 51 46 50 47 21 49 43 50 28 51 42 52 29 53 32 54 41 55 55 56
REMARK SMILES IDX 30 57 31 58 40 60 56 61 33 62 22 63 23 64 27 65 24 66 26 67
REMARK SMILES IDX 25 68 44 69 45 70 49 71 46 72 48 73 47 74 34 75 35 76 39 77
REMARK SMILES IDX 36 78 38 79 37 80
REMARK H PARENT 6 5 64 12 10 29 54 48 32 59
REMARK Flexibility Score: inf
ROOT
ATOM      1  C   UNL A   1      33.132  29.287  24.844  1.00  0.00     0.117 C 
ENDROOT
BRANCH   1   2
ATOM      2  N   UNL A   1      33.151  28.507  23.625  1.00  0.00    -0.355 N 
ATOM      3  C   UNL A   1      32.450  27.444  23.167  1.00  0.00     0.231 C 
ATOM      4  O   UNL A   1      32.975  26.903  22.180  1.00  0.00    -0.274 OA
ATOM      5  H   UNL A   1      33.828  28.821  22.983  1.00  0.00     0.163 HD
BRANCH   3   6
ATOM      6  C   UNL A   1      31.022  27.024  23.607  1.00  0.00     0.098 C 
ATOM      7  C   UNL A   1      30.556  27.185  25.068  1.00  0.00     0.028 C 
ATOM      8  C   UNL A   1      30.898  25.506  23.276  1.00  0.00     0.279 C 
ATOM      9  C   UNL A   1      31.258  26.252  26.049  1.00  0.00     0.063 C 
ATOM     10  N   UNL A   1      31.696  24.678  24.203  1.00  0.00    -0.330 N 
ATOM     11  C   UNL A   1      31.215  24.801  25.580  1.00  0.00     0.262 C 
ATOM     12  H   UNL A   1      32.648  25.047  24.187  1.00  0.00     0.348 HD
BRANCH   6  13
ATOM     13  C   UNL A   1      30.107  27.853  22.637  1.00  0.00     0.019 C 
ATOM     14  C   UNL A   1      29.586  29.194  23.138  1.00  0.00     0.005 C 
ENDBRANCH   6  13
BRANCH  10  15
ATOM     15  C   UNL A   1      31.816  23.273  23.759  1.00  0.00     0.299 C 
BRANCH  15  16
ATOM     16  C   UNL A   1      33.226  22.720  23.763  1.00  0.00     0.006 A 
ATOM     17  C   UNL A   1      34.224  23.314  22.984  1.00  0.00     0.010 A 
ATOM     18  C   UNL A   1      33.582  21.687  24.633  1.00  0.00     0.010 A 
ATOM     19  C   UNL A   1      35.563  22.954  23.159  1.00  0.00     0.004 A 
ATOM     20  C   UNL A   1      34.924  21.340  24.806  1.00  0.00     0.004 A 
ATOM     21  C   UNL A   1      35.953  21.992  24.105  1.00  0.00    -0.045 A 
BRANCH  21  22
ATOM     22  C   UNL A   1      37.426  21.735  24.357  1.00  0.00     0.019 C 
ATOM     23  C   UNL A   1      37.990  21.823  25.756  1.00  0.00     0.009 C 
ATOM     24  C   UNL A   1      37.904  20.493  25.063  1.00  0.00     0.009 C 
ENDBRANCH  21  22
ENDBRANCH  15  16
ENDBRANCH  10  15
ENDBRANCH   3   6
ENDBRANCH   1   2
BRANCH   1  25
ATOM     25  C   UNL A   1      34.060  28.678  25.892  1.00  0.00     0.042 C 
BRANCH  25  26
ATOM     26  C   UNL A   1      33.551  28.844  27.317  1.00  0.00     0.118 C 
BRANCH  26  27
ATOM     27  N   UNL A   1      33.617  30.226  27.760  1.00  0.00    -0.352 N 
ATOM     28  C   UNL A   1      34.594  30.904  28.445  1.00  0.00     0.251 C 
ATOM     29  H   UNL A   1      32.829  30.768  27.529  1.00  0.00     0.163 HD
ATOM     30  O   UNL A   1      34.318  31.987  28.955  1.00  0.00    -0.269 OA
BRANCH  28  31
ATOM     31  C   UNL A   1      35.966  30.360  28.590  1.00  0.00     0.039 A 
ATOM     32  C   UNL A   1      36.337  29.805  29.820  1.00  0.00     0.014 A 
ATOM     33  C   UNL A   1      36.917  30.473  27.575  1.00  0.00     0.014 A 
ATOM     34  C   UNL A   1      37.640  29.337  30.015  1.00  0.00     0.010 A 
ATOM     35  C   UNL A   1      38.188  29.923  27.736  1.00  0.00     0.010 A 
ATOM     36  C   UNL A   1      38.572  29.372  28.966  1.00  0.00    -0.014 A 
BRANCH  36  37
ATOM     37  C   UNL A   1      39.962  28.882  29.154  1.00  0.00     0.031 A 
ATOM     38  C   UNL A   1      41.010  29.781  29.756  1.00  0.00     0.074 A 
ATOM     39  C   UNL A   1      40.296  27.644  28.744  1.00  0.00     0.049 A 
ATOM     40  N   UNL A   1      42.283  29.546  29.957  1.00  0.00    -0.248 NA
ATOM     41  C   UNL A   1      40.579  31.129  30.159  1.00  0.00     0.031 C 
ATOM     42  C   UNL A   1      39.390  26.689  28.100  1.00  0.00     0.029 A 
ATOM     43  N   UNL A   1      41.494  26.978  28.803  1.00  0.00    -0.354 N 
ATOM     44  C   UNL A   1      42.806  30.723  30.479  1.00  0.00     0.074 A 
ATOM     45  C   UNL A   1      41.725  31.684  30.523  1.00  0.00     0.031 C 
ATOM     46  C   UNL A   1      40.058  25.550  27.854  1.00  0.00     0.029 A 
ATOM     47  C   UNL A   1      41.441  25.704  28.291  1.00  0.00     0.049 A 
ATOM     48  H   UNL A   1      42.314  27.375  29.178  1.00  0.00     0.167 HD
ATOM     49  C   UNL A   1      44.066  30.980  30.906  1.00  0.00     0.031 A 
ATOM     50  C   UNL A   1      42.398  24.764  28.188  1.00  0.00     0.031 A 
ATOM     51  C   UNL A   1      45.138  30.020  30.892  1.00  0.00     0.049 A 
ATOM     52  C   UNL A   1      43.779  25.058  28.698  1.00  0.00     0.074 A 
ATOM     53  C   UNL A   1      46.433  30.165  31.357  1.00  0.00     0.029 A 
ATOM     54  N   UNL A   1      45.033  28.732  30.391  1.00  0.00    -0.354 N 
ATOM     55  N   UNL A   1      44.241  26.158  29.242  1.00  0.00    -0.248 NA
ATOM     56  C   UNL A   1      44.766  23.974  28.593  1.00  0.00     0.031 C 
ATOM     57  C   UNL A   1      47.122  28.972  31.107  1.00  0.00     0.029 A 
ATOM     58  C   UNL A   1      46.244  28.075  30.523  1.00  0.00     0.049 A 
ATOM     59  H   UNL A   1      44.218  28.344  29.998  1.00  0.00     0.167 HD
ATOM     60  C   UNL A   1      45.567  25.896  29.556  1.00  0.00     0.074 A 
ATOM     61  C   UNL A   1      45.829  24.525  29.163  1.00  0.00     0.031 C 
ATOM     62  C   UNL A   1      46.488  26.716  30.117  1.00  0.00     0.031 A 
BRANCH  49  63
ATOM     63  C   UNL A   1      44.348  32.362  31.425  1.00  0.00    -0.014 A 
ATOM     64  C   UNL A   1      44.755  33.392  30.562  1.00  0.00     0.009 A 
ATOM     65  C   UNL A   1      44.190  32.644  32.791  1.00  0.00     0.009 A 
ATOM     66  C   UNL A   1      45.038  34.665  31.062  1.00  0.00     0.001 A 
ATOM     67  C   UNL A   1      44.447  33.924  33.284  1.00  0.00     0.001 A 
ATOM     68  C   UNL A   1      44.882  34.931  32.422  1.00  0.00     0.000 A 
ENDBRANCH  49  63
BRANCH  50  69
ATOM     69  C   UNL A   1      42.070  23.442  27.598  1.00  0.00    -0.014 A 
ATOM     70  C   UNL A   1      41.503  22.433  28.392  1.00  0.00     0.009 A 
ATOM     71  C   UNL A   1      42.309  23.186  26.239  1.00  0.00     0.009 A 
ATOM     72  C   UNL A   1      41.198  21.188  27.839  1.00  0.00     0.001 A 
ATOM     73  C   UNL A   1      41.981  21.948  25.685  1.00  0.00     0.001 A 
ATOM     74  C   UNL A   1      41.433  20.947  26.486  1.00  0.00     0.000 A 
ENDBRANCH  50  69
BRANCH  62  75
ATOM     75  C   UNL A   1      47.856  26.145  30.351  1.00  0.00    -0.014 A 
ATOM     76  C   UNL A   1      48.797  26.076  29.312  1.00  0.00     0.009 A 
ATOM     77  C   UNL A   1      48.216  25.697  31.631  1.00  0.00     0.009 A 
ATOM     78  C   UNL A   1      50.064  25.537  29.544  1.00  0.00     0.001 A 
ATOM     79  C   UNL A   1      49.491  25.181  31.865  1.00  0.00     0.001 A 
ATOM     80  C   UNL A   1      50.411  25.093  30.820  1.00  0.00     0.000 A 
ENDBRANCH  62  75
ENDBRANCH  36  37
ENDBRANCH  28  31
ENDBRANCH  26  27
ENDBRANCH  25  26
ENDBRANCH   1  25
TORSDOF 14
ENDMDL
MODEL 2
REMARK VINA RESULT:     -10.8      2.586      8.065
REMARK SMILES CC[C@@]1(C(=O)NCCCNC(=O)c2ccc(-c3c4nc(c(-c5ccccc5)c5ccc([nH]5)c(-c5ccccc5)c5nc(c(-c6ccccc6)c6ccc3[nH]6)C=C5)C=C4)cc2)CCC[N@@H+](Cc2ccc(C3CC3)cc2)C1
REMARK SMILES IDX 7 1 6 2 4 3 5 4 3 6 61 7 75 8 62 9 64 10 63 11 2 13 1 14
REMARK SMILES IDX 65 15 66 16 67 17 74 18 68 19 73 20 69 21 70 22 71 23 72 24
REMARK SMILES IDX 8 25 9 26 10 27 11 28 12 30 13 31 14 32 60 33 15 34 59 35
REMARK SMILES IDX 16 36 17 37 18 38 53 39 19 40 58 41 52 42 54 43 20 44 57 45
REMARK SMILES IDX 51 46 50 47 21 49 43 50 28 51 42 52 29 53 32 54 41 55 55 56
REMARK SMILES IDX 30 57 31 58 40 60 56 61 33 62 22 63 23 64 27 65 24 66 26 67
REMARK SMILES IDX 25 68 44 69 45 70 49 71 46 72 48 73 47 74 34 75 35 76 39 77
REMARK SMILES IDX 36 78 38 79 37 80
REMARK H PARENT 6 5 64 12 10 29 54 48 32 59
REMARK Flexibility Score: inf
ROOT
ATOM      1  C   UNL A   1      35.747  21.727  24.634  1.00  0.00     0.117 C 
ENDROOT
BRANCH   1   2
ATOM      2  N   UNL A   1      34.772  22.120  25.629  1.00  0.00    -0.355 N 
ATOM      3  C   UNL A   1      33.463  22.460  25.593  1.00  0.00     0.231 C 
ATOM      4  O   UNL A   1      33.071  23.004  26.638  1.00  0.00    -0.274 OA
ATOM      5  H   UNL A   1      35.146  22.145  26.539  1.00  0.00     0.163 HD
BRANCH   3   6
ATOM      6  C   UNL A   1      32.432  22.040  24.510  1.00  0.00     0.098 C 
ATOM      7  C   UNL A   1      32.748  22.183  23.008  1.00  0.00     0.028 C 
ATOM      8  C   UNL A   1      31.160  22.902  24.770  1.00  0.00     0.279 C 
ATOM      9  C   UNL A   1      32.838  23.628  22.528  1.00  0.00     0.063 C 
ATOM     10  N   UNL A   1      31.366  24.312  24.382  1.00  0.00    -0.330 N 
ATOM     11  C   UNL A   1      31.617  24.441  22.945  1.00  0.00     0.262 C 
ATOM     12  H   UNL A   1      32.208  24.632  24.861  1.00  0.00     0.348 HD
BRANCH   6  13
ATOM     13  C   UNL A   1      32.140  20.543  24.877  1.00  0.00     0.019 C 
ATOM     14  C   UNL A   1      32.614  19.475  23.900  1.00  0.00     0.005 C 
ENDBRANCH   6  13
BRANCH  10  15
ATOM     15  C   UNL A   1      30.286  25.203  24.859  1.00  0.00     0.299 C 
BRANCH  15  16
ATOM     16  C   UNL A   1      30.734  26.594  25.255  1.00  0.00     0.006 A 
ATOM     17  C   UNL A   1      31.343  26.817  26.494  1.00  0.00     0.010 A 
ATOM     18  C   UNL A   1      30.657  27.652  24.347  1.00  0.00     0.010 A 
ATOM     19  C   UNL A   1      31.959  28.042  26.766  1.00  0.00     0.004 A 
ATOM     20  C   UNL A   1      31.282  28.869  24.626  1.00  0.00     0.004 A 
ATOM     21  C   UNL A   1      31.985  29.083  25.824  1.00  0.00    -0.045 A 
BRANCH  21  22
ATOM     22  C   UNL A   1      32.783  30.340  26.110  1.00  0.00     0.019 C 
ATOM     23  C   UNL A   1      32.356  31.283  27.211  1.00  0.00     0.009 C 
ATOM     24  C   UNL A   1      33.617  30.481  27.357  1.00  0.00     0.009 C 
ENDBRANCH  21  22
ENDBRANCH  15  16
ENDBRANCH  10  15
ENDBRANCH   3   6
ENDBRANCH   1   2
BRANCH   1  25
ATOM     25  C   UNL A   1      36.400  22.954  24.001  1.00  0.00     0.042 C 
BRANCH  25  26
ATOM     26  C   UNL A   1      37.401  23.644  24.917  1.00  0.00     0.118 C 
BRANCH  26  27
ATOM     27  N   UNL A   1      38.432  22.730  25.380  1.00  0.00    -0.352 N 
ATOM     28  C   UNL A   1      39.565  22.957  26.119  1.00  0.00     0.251 C 
ATOM     29  H   UNL A   1      38.293  21.791  25.120  1.00  0.00     0.163 HD
ATOM     30  O   UNL A   1      40.433  22.088  26.156  1.00  0.00    -0.269 OA
BRANCH  28  31
ATOM     31  C   UNL A   1      39.770  24.221  26.867  1.00  0.00     0.039 A 
ATOM     32  C   UNL A   1      40.504  25.246  26.256  1.00  0.00     0.014 A 
ATOM     33  C   UNL A   1      39.339  24.380  28.185  1.00  0.00     0.014 A 
ATOM     34  C   UNL A   1      40.770  26.429  26.951  1.00  0.00     0.010 A 
ATOM     35  C   UNL A   1      39.524  25.594  28.845  1.00  0.00     0.010 A 
ATOM     36  C   UNL A   1      40.263  26.622  28.246  1.00  0.00    -0.014 A 
BRANCH  36  37
ATOM     37  C   UNL A   1      40.538  27.872  29.001  1.00  0.00     0.031 A 
ATOM     38  C   UNL A   1      41.837  28.042  29.743  1.00  0.00     0.074 A 
ATOM     39  C   UNL A   1      39.601  28.838  29.059  1.00  0.00     0.049 A 
ATOM     40  N   UNL A   1      42.236  29.039  30.493  1.00  0.00    -0.248 NA
ATOM     41  C   UNL A   1      42.803  26.936  29.655  1.00  0.00     0.031 C 
ATOM     42  C   UNL A   1      38.281  28.779  28.428  1.00  0.00     0.029 A 
ATOM     43  N   UNL A   1      39.617  30.058  29.686  1.00  0.00    -0.354 N 
ATOM     44  C   UNL A   1      43.481  28.667  30.986  1.00  0.00     0.074 A 
ATOM     45  C   UNL A   1      43.752  27.336  30.488  1.00  0.00     0.031 C 
ATOM     46  C   UNL A   1      37.627  29.927  28.673  1.00  0.00     0.029 A 
ATOM     47  C   UNL A   1      38.466  30.786  29.502  1.00  0.00     0.049 A 
ATOM     48  H   UNL A   1      40.381  30.383  30.216  1.00  0.00     0.167 HD
ATOM     49  C   UNL A   1      44.335  29.373  31.765  1.00  0.00     0.031 A 
ATOM     50  C   UNL A   1      38.125  32.008  29.949  1.00  0.00     0.031 A 
ATOM     51  C   UNL A   1      44.084  30.708  32.239  1.00  0.00     0.049 A 
ATOM     52  C   UNL A   1      39.100  32.787  30.782  1.00  0.00     0.074 A 
ATOM     53  C   UNL A   1      44.911  31.530  32.983  1.00  0.00     0.029 A 
ATOM     54  N   UNL A   1      42.917  31.418  32.006  1.00  0.00    -0.354 N 
ATOM     55  N   UNL A   1      40.296  32.442  31.192  1.00  0.00    -0.248 NA
ATOM     56  C   UNL A   1      38.682  34.132  31.203  1.00  0.00     0.031 C 
ATOM     57  C   UNL A   1      44.230  32.728  33.229  1.00  0.00     0.029 A 
ATOM     58  C   UNL A   1      42.996  32.664  32.603  1.00  0.00     0.049 A 
ATOM     59  H   UNL A   1      42.146  31.085  31.493  1.00  0.00     0.167 HD
ATOM     60  C   UNL A   1      40.780  33.529  31.906  1.00  0.00     0.074 A 
ATOM     61  C   UNL A   1      39.756  34.554  31.855  1.00  0.00     0.031 C 
ATOM     62  C   UNL A   1      41.964  33.667  32.550  1.00  0.00     0.031 A 
BRANCH  49  63
ATOM     63  C   UNL A   1      45.625  28.705  32.152  1.00  0.00    -0.014 A 
ATOM     64  C   UNL A   1      45.722  27.938  33.324  1.00  0.00     0.009 A 
ATOM     65  C   UNL A   1      46.753  28.831  31.327  1.00  0.00     0.009 A 
ATOM     66  C   UNL A   1      46.934  27.345  33.684  1.00  0.00     0.001 A 
ATOM     67  C   UNL A   1      47.957  28.214  31.676  1.00  0.00     0.001 A 
ATOM     68  C   UNL A   1      48.049  27.481  32.859  1.00  0.00     0.000 A 
ENDBRANCH  49  63
BRANCH  50  69
ATOM     69  C   UNL A   1      36.803  32.580  29.589  1.00  0.00    -0.014 A 
ATOM     70  C   UNL A   1      35.713  32.447  30.462  1.00  0.00     0.009 A 
ATOM     71  C   UNL A   1      36.629  33.273  28.381  1.00  0.00     0.009 A 
ATOM     72  C   UNL A   1      34.468  32.982  30.123  1.00  0.00     0.001 A 
ATOM     73  C   UNL A   1      35.389  33.827  28.056  1.00  0.00     0.001 A 
ATOM     74  C   UNL A   1      34.308  33.674  28.923  1.00  0.00     0.000 A 
ENDBRANCH  50  69
BRANCH  62  75
ATOM     75  C   UNL A   1      42.218  34.977  33.236  1.00  0.00    -0.014 A 
ATOM     76  C   UNL A   1      43.011  35.966  32.634  1.00  0.00     0.009 A 
ATOM     77  C   UNL A   1      41.635  35.235  34.486  1.00  0.00     0.009 A 
ATOM     78  C   UNL A   1      43.242  37.177  33.288  1.00  0.00     0.001 A 
ATOM     79  C   UNL A   1      41.848  36.456  35.125  1.00  0.00     0.001 A 
ATOM     80  C   UNL A   1      42.658  37.423  34.530  1.00  0.00     0.000 A 
ENDBRANCH  62  75
ENDBRANCH  36  37
ENDBRANCH  28  31
ENDBRANCH  26  27
ENDBRANCH  25  26
ENDBRANCH   1  25
TORSDOF 14
ENDMDL
MODEL 3
REMARK VINA RESULT:     -10.8      2.164      7.696
REMARK SMILES CC[C@@]1(C(=O)NCCCNC(=O)c2ccc(-c3c4nc(c(-c5ccccc5)c5ccc([nH]5)c(-c5ccccc5)c5nc(c(-c6ccccc6)c6ccc3[nH]6)C=C5)C=C4)cc2)CCC[N@@H+](Cc2ccc(C3CC3)cc2)C1
REMARK SMILES IDX 7 1 6 2 4 3 5 4 3 6 61 7 75 8 62 9 64 10 63 11 2 13 1 14
REMARK SMILES IDX 65 15 66 16 67 17 74 18 68 19 73 20 69 21 70 22 71 23 72 24
REMARK SMILES IDX 8 25 9 26 10 27 11 28 12 30 13 31 14 32 60 33 15 34 59 35
REMARK SMILES IDX 16 36 17 37 18 38 53 39 19 40 58 41 52 42 54 43 20 44 57 45
REMARK SMILES IDX 51 46 50 47 21 49 43 50 28 51 42 52 29 53 32 54 41 55 55 56
REMARK SMILES IDX 30 57 31 58 40 60 56 61 33 62 22 63 23 64 27 65 24 66 26 67
REMARK SMILES IDX 25 68 44 69 45 70 49 71 46 72 48 73 47 74 34 75 35 76 39 77
REMARK SMILES IDX 36 78 38 79 37 80
REMARK H PARENT 6 5 64 12 10 29 54 48 32 59
REMARK Flexibility Score: inf
ROOT
ATOM      1  C   UNL A   1      36.402  20.236  24.888  1.00  0.00     0.117 C 
ENDROOT
BRANCH   1   2
ATOM      2  N   UNL A   1      36.568  21.507  24.215  1.00  0.00    -0.355 N 
ATOM      3  C   UNL A   1      35.751  22.552  23.945  1.00  0.00     0.231 C 
ATOM      4  O   UNL A   1      36.218  23.329  23.096  1.00  0.00    -0.274 OA
ATOM      5  H   UNL A   1      37.483  21.643  23.879  1.00  0.00     0.163 HD
BRANCH   3   6
ATOM      6  C   UNL A   1      34.471  22.947  24.730  1.00  0.00     0.098 C 
ATOM      7  C   UNL A   1      33.246  22.013  24.784  1.00  0.00     0.028 C 
ATOM      8  C   UNL A   1      33.973  24.281  24.096  1.00  0.00     0.279 C 
ATOM      9  C   UNL A   1      32.522  21.862  23.451  1.00  0.00     0.063 C 
ATOM     10  N   UNL A   1      33.385  24.065  22.758  1.00  0.00    -0.330 N 
ATOM     11  C   UNL A   1      32.194  23.216  22.827  1.00  0.00     0.262 C 
ATOM     12  H   UNL A   1      34.079  23.559  22.207  1.00  0.00     0.348 HD
BRANCH   6  13
ATOM     13  C   UNL A   1      35.026  23.222  26.172  1.00  0.00     0.019 C 
ATOM     14  C   UNL A   1      34.224  22.679  27.348  1.00  0.00     0.005 C 
ENDBRANCH   6  13
BRANCH  10  15
ATOM     15  C   UNL A   1      33.150  25.326  22.024  1.00  0.00     0.299 C 
BRANCH  15  16
ATOM     16  C   UNL A   1      32.732  26.498  22.886  1.00  0.00     0.006 A 
ATOM     17  C   UNL A   1      31.437  26.568  23.410  1.00  0.00     0.010 A 
ATOM     18  C   UNL A   1      33.663  27.466  23.272  1.00  0.00     0.010 A 
ATOM     19  C   UNL A   1      31.120  27.521  24.382  1.00  0.00     0.004 A 
ATOM     20  C   UNL A   1      33.338  28.408  24.250  1.00  0.00     0.004 A 
ATOM     21  C   UNL A   1      32.073  28.435  24.862  1.00  0.00    -0.045 A 
BRANCH  21  22
ATOM     22  C   UNL A   1      31.723  29.355  26.015  1.00  0.00     0.019 C 
ATOM     23  C   UNL A   1      31.758  28.846  27.438  1.00  0.00     0.009 C 
ATOM     24  C   UNL A   1      32.771  29.854  26.976  1.00  0.00     0.009 C 
ENDBRANCH  21  22
ENDBRANCH  15  16
ENDBRANCH  10  15
ENDBRANCH   3   6
ENDBRANCH   1   2
BRANCH   1  25
ATOM     25  C   UNL A   1      37.714  19.454  24.900  1.00  0.00     0.042 C 
BRANCH  25  26
ATOM     26  C   UNL A   1      38.817  20.140  25.692  1.00  0.00     0.118 C 
BRANCH  26  27
ATOM     27  N   UNL A   1      40.018  19.325  25.769  1.00  0.00    -0.352 N 
ATOM     28  C   UNL A   1      41.325  19.673  25.999  1.00  0.00     0.251 C 
ATOM     29  H   UNL A   1      39.868  18.362  25.633  1.00  0.00     0.163 HD
ATOM     30  O   UNL A   1      42.209  18.859  25.744  1.00  0.00    -0.269 OA
BRANCH  28  31
ATOM     31  C   UNL A   1      41.695  21.003  26.541  1.00  0.00     0.039 A 
ATOM     32  C   UNL A   1      41.555  21.226  27.916  1.00  0.00     0.014 A 
ATOM     33  C   UNL A   1      42.084  22.056  25.713  1.00  0.00     0.014 A 
ATOM     34  C   UNL A   1      41.836  22.485  28.455  1.00  0.00     0.010 A 
ATOM     35  C   UNL A   1      42.454  23.284  26.261  1.00  0.00     0.010 A 
ATOM     36  C   UNL A   1      42.310  23.520  27.634  1.00  0.00    -0.014 A 
BRANCH  36  37
ATOM     37  C   UNL A   1      42.612  24.865  28.188  1.00  0.00     0.031 A 
ATOM     38  C   UNL A   1      44.015  25.217  28.608  1.00  0.00     0.074 A 
ATOM     39  C   UNL A   1      41.618  25.757  28.359  1.00  0.00     0.049 A 
ATOM     40  N   UNL A   1      44.462  26.321  29.153  1.00  0.00    -0.248 NA
ATOM     41  C   UNL A   1      45.046  24.184  28.416  1.00  0.00     0.031 C 
ATOM     42  C   UNL A   1      40.207  25.527  28.041  1.00  0.00     0.029 A 
ATOM     43  N   UNL A   1      41.644  27.039  28.848  1.00  0.00    -0.354 N 
ATOM     44  C   UNL A   1      45.813  26.102  29.395  1.00  0.00     0.074 A 
ATOM     45  C   UNL A   1      46.104  24.748  28.978  1.00  0.00     0.031 C 
ATOM     46  C   UNL A   1      39.509  26.642  28.313  1.00  0.00     0.029 A 
ATOM     47  C   UNL A   1      40.415  27.651  28.852  1.00  0.00     0.049 A 
ATOM     48  H   UNL A   1      42.467  27.479  29.164  1.00  0.00     0.167 HD
ATOM     49  C   UNL A   1      46.738  26.956  29.896  1.00  0.00     0.031 A 
ATOM     50  C   UNL A   1      40.056  28.887  29.245  1.00  0.00     0.031 A 
ATOM     51  C   UNL A   1      46.462  28.313  30.285  1.00  0.00     0.049 A 
ATOM     52  C   UNL A   1      41.102  29.828  29.766  1.00  0.00     0.074 A 
ATOM     53  C   UNL A   1      47.342  29.275  30.747  1.00  0.00     0.029 A 
ATOM     54  N   UNL A   1      45.207  28.901  30.246  1.00  0.00    -0.354 N 
ATOM     55  N   UNL A   1      42.386  29.623  29.934  1.00  0.00    -0.248 NA
ATOM     56  C   UNL A   1      40.652  31.177  30.138  1.00  0.00     0.031 C 
ATOM     57  C   UNL A   1      46.612  30.439  31.021  1.00  0.00     0.029 A 
ATOM     58  C   UNL A   1      45.287  30.210  30.690  1.00  0.00     0.049 A 
ATOM     59  H   UNL A   1      44.383  28.454  29.949  1.00  0.00     0.167 HD
ATOM     60  C   UNL A   1      42.900  30.818  30.418  1.00  0.00     0.074 A 
ATOM     61  C   UNL A   1      41.792  31.751  30.496  1.00  0.00     0.031 C 
ATOM     62  C   UNL A   1      44.173  31.119  30.770  1.00  0.00     0.031 A 
BRANCH  49  63
ATOM     63  C   UNL A   1      48.140  26.436  30.052  1.00  0.00    -0.014 A 
ATOM     64  C   UNL A   1      49.077  26.556  29.013  1.00  0.00     0.009 A 
ATOM     65  C   UNL A   1      48.534  25.835  31.257  1.00  0.00     0.009 A 
ATOM     66  C   UNL A   1      50.369  26.045  29.163  1.00  0.00     0.001 A 
ATOM     67  C   UNL A   1      49.834  25.349  31.413  1.00  0.00     0.001 A 
ATOM     68  C   UNL A   1      50.747  25.445  30.363  1.00  0.00     0.000 A 
ENDBRANCH  49  63
BRANCH  50  69
ATOM     69  C   UNL A   1      38.639  29.313  29.131  1.00  0.00    -0.014 A 
ATOM     70  C   UNL A   1      37.776  29.204  30.232  1.00  0.00     0.009 A 
ATOM     71  C   UNL A   1      38.145  29.842  27.929  1.00  0.00     0.009 A 
ATOM     72  C   UNL A   1      36.441  29.600  30.126  1.00  0.00     0.001 A 
ATOM     73  C   UNL A   1      36.816  30.259  27.832  1.00  0.00     0.001 A 
ATOM     74  C   UNL A   1      35.963  30.131  28.928  1.00  0.00     0.000 A 
ENDBRANCH  50  69
BRANCH  62  75
ATOM     75  C   UNL A   1      44.435  32.514  31.256  1.00  0.00    -0.014 A 
ATOM     76  C   UNL A   1      44.762  33.542  30.358  1.00  0.00     0.009 A 
ATOM     77  C   UNL A   1      44.326  32.809  32.623  1.00  0.00     0.009 A 
ATOM     78  C   UNL A   1      45.008  34.834  30.827  1.00  0.00     0.001 A 
ATOM     79  C   UNL A   1      44.548  34.107  33.085  1.00  0.00     0.001 A 
ATOM     80  C   UNL A   1      44.898  35.115  32.188  1.00  0.00     0.000 A 
ENDBRANCH  62  75
ENDBRANCH  36  37
ENDBRANCH  28  31
ENDBRANCH  26  27
ENDBRANCH  25  26
ENDBRANCH   1  25
TORSDOF 14
ENDMDL
