MODEL 1
REMARK VINA RESULT:     -12.1      0.000      0.000
REMARK SMILES O=C(NCCCNC(=O)c1c(S(=O)(=O)N2CCO[C@@H](CCO)C2)sc2c1CC[NH2+]C2)c1ccc(-c2c3nc(c(-c4ccccc4)c4ccc([nH]4)c(-c4ccccc4)c4nc(c(-c5ccccc5)c5ccc2[nH]5)C=C4)C=C3)cc1
REMARK SMILES IDX 7 1 8 2 9 3 6 5 5 6 4 7 3 8 1 9 2 10 31 12 32 13 78 14 33 15
REMARK SMILES IDX 77 16 34 17 35 18 36 19 71 20 37 21 76 22 70 23 72 24 38 25
REMARK SMILES IDX 75 26 69 27 68 28 39 30 61 31 46 32 60 33 47 34 50 35 59 36
REMARK SMILES IDX 73 37 48 38 49 39 58 41 74 42 51 43 40 44 41 45 45 46 42 47
REMARK SMILES IDX 44 48 43 49 62 50 63 51 67 52 64 53 66 54 65 55 52 56 53 57
REMARK SMILES IDX 57 58 54 59 56 60 55 61 10 62 11 63 26 64 24 65 25 66 27 67
REMARK SMILES IDX 30 68 28 69 29 70 12 73 13 74 14 75 15 76 16 77 23 78 17 79
REMARK SMILES IDX 19 80 18 81 20 82 21 83 22 84
REMARK H PARENT 7 4 3 11 72 29 50 40 29 71 29 72 22 85
REMARK Flexibility Score: inf
ROOT
ATOM      1  N   UNL A   1      32.790  29.664  24.530  1.00  0.00    -0.352 N 
ATOM      2  C   UNL A   1      32.390  28.897  23.477  1.00  0.00     0.253 C 
ATOM      3  O   UNL A   1      33.247  28.746  22.602  1.00  0.00    -0.269 OA
ATOM      4  H   UNL A   1      33.690  30.045  24.405  1.00  0.00     0.163 HD
ENDROOT
BRANCH   1   5
ATOM      5  C   UNL A   1      32.191  30.042  25.787  1.00  0.00     0.118 C 
BRANCH   5   6
ATOM      6  C   UNL A   1      33.003  29.644  27.021  1.00  0.00     0.042 C 
BRANCH   6   7
ATOM      7  C   UNL A   1      34.275  30.443  27.304  1.00  0.00     0.118 C 
BRANCH   7   8
ATOM      8  N   UNL A   1      34.263  31.278  28.487  1.00  0.00    -0.352 N 
ATOM      9  O   UNL A   1      34.873  32.550  30.189  1.00  0.00    -0.269 OA
ATOM     10  C   UNL A   1      35.194  31.636  29.424  1.00  0.00     0.251 C 
ATOM     11  H   UNL A   1      33.381  31.682  28.657  1.00  0.00     0.163 HD
BRANCH  10  12
ATOM     12  C   UNL A   1      36.516  30.978  29.624  1.00  0.00     0.039 A 
ATOM     13  C   UNL A   1      37.764  31.556  29.390  1.00  0.00     0.014 A 
ATOM     14  C   UNL A   1      36.474  29.644  30.071  1.00  0.00     0.014 A 
ATOM     15  C   UNL A   1      38.934  30.798  29.495  1.00  0.00     0.010 A 
ATOM     16  C   UNL A   1      37.638  28.895  30.211  1.00  0.00     0.010 A 
ATOM     17  C   UNL A   1      38.870  29.458  29.878  1.00  0.00    -0.014 A 
BRANCH  17  18
ATOM     18  C   UNL A   1      40.112  28.683  29.967  1.00  0.00     0.031 A 
ATOM     19  C   UNL A   1      40.763  28.548  31.307  1.00  0.00     0.074 A 
ATOM     20  C   UNL A   1      40.552  27.914  28.950  1.00  0.00     0.049 A 
ATOM     21  N   UNL A   1      42.016  28.680  31.618  1.00  0.00    -0.248 NA
ATOM     22  C   UNL A   1      39.898  28.194  32.444  1.00  0.00     0.031 C 
ATOM     23  C   UNL A   1      39.864  27.641  27.684  1.00  0.00     0.029 A 
ATOM     24  N   UNL A   1      41.641  27.088  28.904  1.00  0.00    -0.354 N 
ATOM     25  C   UNL A   1      42.126  28.296  32.954  1.00  0.00     0.074 A 
ATOM     26  C   UNL A   1      40.785  28.066  33.430  1.00  0.00     0.031 C 
ATOM     27  C   UNL A   1      40.409  26.543  27.118  1.00  0.00     0.029 A 
ATOM     28  C   UNL A   1      41.553  26.125  27.911  1.00  0.00     0.049 A 
ATOM     29  H   UNL A   1      42.409  27.170  29.513  1.00  0.00     0.167 HD
ATOM     30  C   UNL A   1      43.314  28.037  33.570  1.00  0.00     0.031 A 
ATOM     31  C   UNL A   1      42.306  25.007  27.785  1.00  0.00     0.031 A 
ATOM     32  C   UNL A   1      44.447  28.576  32.878  1.00  0.00     0.049 A 
ATOM     33  C   UNL A   1      43.529  25.159  28.598  1.00  0.00     0.074 A 
ATOM     34  C   UNL A   1      44.877  29.837  32.522  1.00  0.00     0.029 A 
ATOM     35  N   UNL A   1      45.262  27.704  32.202  1.00  0.00    -0.354 N 
ATOM     36  N   UNL A   1      44.495  25.986  28.318  1.00  0.00    -0.248 NA
ATOM     37  C   UNL A   1      43.559  24.598  29.939  1.00  0.00     0.031 C 
ATOM     38  C   UNL A   1      45.601  29.658  31.307  1.00  0.00     0.029 A 
ATOM     39  C   UNL A   1      45.554  28.296  31.001  1.00  0.00     0.049 A 
ATOM     40  H   UNL A   1      45.576  26.826  32.516  1.00  0.00     0.167 HD
ATOM     41  C   UNL A   1      45.007  26.362  29.549  1.00  0.00     0.074 A 
ATOM     42  C   UNL A   1      44.500  25.369  30.488  1.00  0.00     0.031 C 
ATOM     43  C   UNL A   1      45.555  27.599  29.734  1.00  0.00     0.031 A 
BRANCH  30  44
ATOM     44  C   UNL A   1      43.474  27.030  34.679  1.00  0.00    -0.014 A 
ATOM     45  C   UNL A   1      43.384  25.656  34.392  1.00  0.00     0.009 A 
ATOM     46  C   UNL A   1      43.447  27.401  36.037  1.00  0.00     0.009 A 
ATOM     47  C   UNL A   1      43.250  24.706  35.413  1.00  0.00     0.001 A 
ATOM     48  C   UNL A   1      43.354  26.453  37.059  1.00  0.00     0.001 A 
ATOM     49  C   UNL A   1      43.236  25.105  36.746  1.00  0.00     0.000 A 
ENDBRANCH  30  44
BRANCH  31  50
ATOM     50  C   UNL A   1      41.907  23.718  27.184  1.00  0.00    -0.014 A 
ATOM     51  C   UNL A   1      42.723  23.071  26.247  1.00  0.00     0.009 A 
ATOM     52  C   UNL A   1      40.807  23.008  27.700  1.00  0.00     0.009 A 
ATOM     53  C   UNL A   1      42.451  21.755  25.850  1.00  0.00     0.001 A 
ATOM     54  C   UNL A   1      40.529  21.700  27.298  1.00  0.00     0.001 A 
ATOM     55  C   UNL A   1      41.359  21.069  26.378  1.00  0.00     0.000 A 
ENDBRANCH  31  50
BRANCH  43  56
ATOM     56  C   UNL A   1      45.834  28.433  28.509  1.00  0.00    -0.014 A 
ATOM     57  C   UNL A   1      44.833  29.201  27.887  1.00  0.00     0.009 A 
ATOM     58  C   UNL A   1      47.155  28.573  28.062  1.00  0.00     0.009 A 
ATOM     59  C   UNL A   1      45.138  30.054  26.824  1.00  0.00     0.001 A 
ATOM     60  C   UNL A   1      47.462  29.442  27.011  1.00  0.00     0.001 A 
ATOM     61  C   UNL A   1      46.454  30.176  26.388  1.00  0.00     0.000 A 
ENDBRANCH  43  56
ENDBRANCH  17  18
ENDBRANCH  10  12
ENDBRANCH   7   8
ENDBRANCH   6   7
ENDBRANCH   5   6
ENDBRANCH   1   5
BRANCH   2  62
ATOM     62  C   UNL A   1      31.120  28.178  23.342  1.00  0.00     0.074 A 
ATOM     63  C   UNL A   1      30.828  26.810  23.357  1.00  0.00     0.148 A 
ATOM     64  C   UNL A   1      29.851  28.907  23.246  1.00  0.00    -0.009 A 
ATOM     65  S   UNL A   1      29.224  26.589  24.026  1.00  0.00    -0.120 S 
ATOM     66  C   UNL A   1      28.756  28.080  23.389  1.00  0.00     0.064 A 
ATOM     67  C   UNL A   1      29.638  30.364  22.926  1.00  0.00     0.099 C 
ATOM     68  C   UNL A   1      27.336  28.446  23.110  1.00  0.00     0.308 C 
ATOM     69  C   UNL A   1      28.127  30.717  22.844  1.00  0.00     0.265 C 
ATOM     70  N   UNL A   1      27.286  29.651  22.259  1.00  0.00    -0.342 N 
ATOM     71  H   UNL A   1      27.630  29.422  21.327  1.00  0.00     0.346 HD
ATOM     72  H   UNL A   1      26.322  29.981  22.201  1.00  0.00     0.346 HD
BRANCH  63  73
ATOM     73  S   UNL A   1      31.517  25.231  22.887  1.00  0.00     0.253 S 
ATOM     74  O   UNL A   1      30.455  24.252  22.969  1.00  0.00    -0.206 OA
ATOM     75  O   UNL A   1      32.232  25.435  21.653  1.00  0.00    -0.206 OA
BRANCH  73  76
ATOM     76  N   UNL A   1      32.653  24.819  24.110  1.00  0.00    -0.192 NA
ATOM     77  C   UNL A   1      34.100  24.903  23.736  1.00  0.00     0.131 C 
ATOM     78  C   UNL A   1      32.416  23.587  24.916  1.00  0.00     0.134 C 
ATOM     79  C   UNL A   1      34.690  23.544  23.283  1.00  0.00     0.177 C 
ATOM     80  C   UNL A   1      32.875  22.342  24.167  1.00  0.00     0.135 C 
ATOM     81  O   UNL A   1      34.309  22.423  24.111  1.00  0.00    -0.375 OA
BRANCH  80  82
ATOM     82  C   UNL A   1      32.411  21.065  24.883  1.00  0.00     0.061 C 
BRANCH  82  83
ATOM     83  C   UNL A   1      33.445  19.942  24.785  1.00  0.00     0.159 C 
BRANCH  83  84
ATOM     84  O   UNL A   1      34.381  20.046  25.847  1.00  0.00    -0.396 OA
ATOM     85  H   UNL A   1      33.907  20.111  26.690  1.00  0.00     0.210 HD
ENDBRANCH  83  84
ENDBRANCH  82  83
ENDBRANCH  80  82
ENDBRANCH  73  76
ENDBRANCH  63  73
ENDBRANCH   2  62
TORSDOF 15
ENDMDL
MODEL 2
REMARK VINA RESULT:     -12.0      1.713      5.724
REMARK SMILES O=C(NCCCNC(=O)c1c(S(=O)(=O)N2CCO[C@@H](CCO)C2)sc2c1CC[NH2+]C2)c1ccc(-c2c3nc(c(-c4ccccc4)c4ccc([nH]4)c(-c4ccccc4)c4nc(c(-c5ccccc5)c5ccc2[nH]5)C=C4)C=C3)cc1
REMARK SMILES IDX 7 1 8 2 9 3 6 5 5 6 4 7 3 8 1 9 2 10 31 12 32 13 78 14 33 15
REMARK SMILES IDX 77 16 34 17 35 18 36 19 71 20 37 21 76 22 70 23 72 24 38 25
REMARK SMILES IDX 75 26 69 27 68 28 39 30 61 31 46 32 60 33 47 34 50 35 59 36
REMARK SMILES IDX 73 37 48 38 49 39 58 41 74 42 51 43 40 44 41 45 45 46 42 47
REMARK SMILES IDX 44 48 43 49 62 50 63 51 67 52 64 53 66 54 65 55 52 56 53 57
REMARK SMILES IDX 57 58 54 59 56 60 55 61 10 62 11 63 26 64 24 65 25 66 27 67
REMARK SMILES IDX 30 68 28 69 29 70 12 73 13 74 14 75 15 76 16 77 23 78 17 79
REMARK SMILES IDX 19 80 18 81 20 82 21 83 22 84
REMARK H PARENT 7 4 3 11 72 29 50 40 29 71 29 72 22 85
REMARK Flexibility Score: inf
ROOT
ATOM      1  N   UNL A   1      32.950  29.596  24.455  1.00  0.00    -0.352 N 
ATOM      2  C   UNL A   1      32.474  28.955  23.351  1.00  0.00     0.253 C 
ATOM      3  O   UNL A   1      33.240  28.967  22.384  1.00  0.00    -0.269 OA
ATOM      4  H   UNL A   1      33.816  30.038  24.296  1.00  0.00     0.163 HD
ENDROOT
BRANCH   1   5
ATOM      5  C   UNL A   1      32.470  29.772  25.804  1.00  0.00     0.118 C 
BRANCH   5   6
ATOM      6  C   UNL A   1      33.018  28.756  26.809  1.00  0.00     0.042 C 
BRANCH   6   7
ATOM      7  C   UNL A   1      34.479  28.911  27.229  1.00  0.00     0.118 C 
BRANCH   7   8
ATOM      8  N   UNL A   1      34.754  29.891  28.258  1.00  0.00    -0.352 N 
ATOM      9  O   UNL A   1      35.763  31.336  29.593  1.00  0.00    -0.269 OA
ATOM     10  C   UNL A   1      35.880  30.314  28.911  1.00  0.00     0.251 C 
ATOM     11  H   UNL A   1      33.944  30.363  28.559  1.00  0.00     0.163 HD
BRANCH  10  12
ATOM     12  C   UNL A   1      37.196  29.614  28.908  1.00  0.00     0.039 A 
ATOM     13  C   UNL A   1      37.705  28.820  29.937  1.00  0.00     0.014 A 
ATOM     14  C   UNL A   1      37.988  29.802  27.760  1.00  0.00     0.014 A 
ATOM     15  C   UNL A   1      39.007  28.315  29.872  1.00  0.00     0.010 A 
ATOM     16  C   UNL A   1      39.272  29.273  27.675  1.00  0.00     0.010 A 
ATOM     17  C   UNL A   1      39.802  28.565  28.754  1.00  0.00    -0.014 A 
BRANCH  17  18
ATOM     18  C   UNL A   1      41.169  28.034  28.720  1.00  0.00     0.031 A 
ATOM     19  C   UNL A   1      41.392  26.705  28.071  1.00  0.00     0.074 A 
ATOM     20  C   UNL A   1      42.240  28.790  29.039  1.00  0.00     0.049 A 
ATOM     21  N   UNL A   1      42.097  25.702  28.496  1.00  0.00    -0.248 NA
ATOM     22  C   UNL A   1      40.760  26.479  26.761  1.00  0.00     0.031 C 
ATOM     23  C   UNL A   1      42.251  30.221  29.357  1.00  0.00     0.029 A 
ATOM     24  N   UNL A   1      43.568  28.465  28.990  1.00  0.00    -0.354 N 
ATOM     25  C   UNL A   1      42.115  24.772  27.457  1.00  0.00     0.074 A 
ATOM     26  C   UNL A   1      41.226  25.273  26.438  1.00  0.00     0.031 C 
ATOM     27  C   UNL A   1      43.511  30.689  29.225  1.00  0.00     0.029 A 
ATOM     28  C   UNL A   1      44.399  29.573  28.942  1.00  0.00     0.049 A 
ATOM     29  H   UNL A   1      43.899  27.538  28.990  1.00  0.00     0.167 HD
ATOM     30  C   UNL A   1      42.967  23.710  27.408  1.00  0.00     0.031 A 
ATOM     31  C   UNL A   1      45.710  29.600  28.608  1.00  0.00     0.031 A 
ATOM     32  C   UNL A   1      43.553  23.387  28.675  1.00  0.00     0.049 A 
ATOM     33  C   UNL A   1      46.261  28.235  28.721  1.00  0.00     0.074 A 
ATOM     34  C   UNL A   1      43.080  22.984  29.906  1.00  0.00     0.029 A 
ATOM     35  N   UNL A   1      44.872  23.705  28.874  1.00  0.00    -0.354 N 
ATOM     36  N   UNL A   1      46.436  27.608  29.848  1.00  0.00    -0.248 NA
ATOM     37  C   UNL A   1      46.343  27.407  27.529  1.00  0.00     0.031 C 
ATOM     38  C   UNL A   1      43.995  23.526  30.856  1.00  0.00     0.029 A 
ATOM     39  C   UNL A   1      44.960  24.232  30.136  1.00  0.00     0.049 A 
ATOM     40  H   UNL A   1      45.611  23.580  28.236  1.00  0.00     0.167 HD
ATOM     41  C   UNL A   1      46.242  26.270  29.544  1.00  0.00     0.074 A 
ATOM     42  C   UNL A   1      46.340  26.196  28.091  1.00  0.00     0.031 C 
ATOM     43  C   UNL A   1      45.737  25.404  30.471  1.00  0.00     0.031 A 
BRANCH  30  44
ATOM     44  C   UNL A   1      43.496  23.127  26.124  1.00  0.00    -0.014 A 
ATOM     45  C   UNL A   1      43.516  21.732  25.948  1.00  0.00     0.009 A 
ATOM     46  C   UNL A   1      44.219  23.898  25.193  1.00  0.00     0.009 A 
ATOM     47  C   UNL A   1      44.242  21.139  24.906  1.00  0.00     0.001 A 
ATOM     48  C   UNL A   1      44.910  23.313  24.129  1.00  0.00     0.001 A 
ATOM     49  C   UNL A   1      44.938  21.930  23.997  1.00  0.00     0.000 A 
ENDBRANCH  30  44
BRANCH  31  50
ATOM     50  C   UNL A   1      46.453  30.706  27.971  1.00  0.00    -0.014 A 
ATOM     51  C   UNL A   1      45.891  31.449  26.924  1.00  0.00     0.009 A 
ATOM     52  C   UNL A   1      47.649  31.178  28.544  1.00  0.00     0.009 A 
ATOM     53  C   UNL A   1      46.501  32.628  26.475  1.00  0.00     0.001 A 
ATOM     54  C   UNL A   1      48.263  32.347  28.091  1.00  0.00     0.001 A 
ATOM     55  C   UNL A   1      47.683  33.079  27.062  1.00  0.00     0.000 A 
ENDBRANCH  31  50
BRANCH  43  56
ATOM     56  C   UNL A   1      45.658  25.876  31.901  1.00  0.00    -0.014 A 
ATOM     57  C   UNL A   1      44.568  26.627  32.379  1.00  0.00     0.009 A 
ATOM     58  C   UNL A   1      46.615  25.432  32.824  1.00  0.00     0.009 A 
ATOM     59  C   UNL A   1      44.459  26.956  33.731  1.00  0.00     0.001 A 
ATOM     60  C   UNL A   1      46.494  25.744  34.181  1.00  0.00     0.001 A 
ATOM     61  C   UNL A   1      45.421  26.511  34.633  1.00  0.00     0.000 A 
ENDBRANCH  43  56
ENDBRANCH  17  18
ENDBRANCH  10  12
ENDBRANCH   7   8
ENDBRANCH   6   7
ENDBRANCH   5   6
ENDBRANCH   1   5
BRANCH   2  62
ATOM     62  C   UNL A   1      31.227  28.193  23.244  1.00  0.00     0.074 A 
ATOM     63  C   UNL A   1      30.986  26.815  23.223  1.00  0.00     0.148 A 
ATOM     64  C   UNL A   1      29.928  28.875  23.225  1.00  0.00    -0.009 A 
ATOM     65  S   UNL A   1      29.422  26.510  23.950  1.00  0.00    -0.120 S 
ATOM     66  C   UNL A   1      28.872  28.002  23.384  1.00  0.00     0.064 A 
ATOM     67  C   UNL A   1      29.649  30.333  22.965  1.00  0.00     0.099 C 
ATOM     68  C   UNL A   1      27.428  28.323  23.176  1.00  0.00     0.308 C 
ATOM     69  C   UNL A   1      28.123  30.630  22.957  1.00  0.00     0.265 C 
ATOM     70  N   UNL A   1      27.299  29.553  22.371  1.00  0.00    -0.342 N 
ATOM     71  H   UNL A   1      27.611  29.367  21.418  1.00  0.00     0.346 HD
ATOM     72  H   UNL A   1      26.321  29.847  22.364  1.00  0.00     0.346 HD
BRANCH  63  73
ATOM     73  S   UNL A   1      31.713  25.279  22.671  1.00  0.00     0.253 S 
ATOM     74  O   UNL A   1      30.723  24.240  22.855  1.00  0.00    -0.206 OA
ATOM     75  O   UNL A   1      32.282  25.527  21.370  1.00  0.00    -0.206 OA
BRANCH  73  76
ATOM     76  N   UNL A   1      32.992  24.932  23.766  1.00  0.00    -0.192 NA
ATOM     77  C   UNL A   1      33.967  23.877  23.344  1.00  0.00     0.131 C 
ATOM     78  C   UNL A   1      32.665  24.761  25.210  1.00  0.00     0.134 C 
ATOM     79  C   UNL A   1      33.629  22.475  23.910  1.00  0.00     0.177 C 
ATOM     80  C   UNL A   1      32.135  23.360  25.493  1.00  0.00     0.135 C 
ATOM     81  O   UNL A   1      33.249  22.473  25.304  1.00  0.00    -0.375 OA
BRANCH  80  82
ATOM     82  C   UNL A   1      31.571  23.261  26.918  1.00  0.00     0.061 C 
BRANCH  82  83
ATOM     83  C   UNL A   1      30.065  22.994  26.925  1.00  0.00     0.159 C 
BRANCH  83  84
ATOM     84  O   UNL A   1      29.352  24.221  26.908  1.00  0.00    -0.396 OA
ATOM     85  H   UNL A   1      29.849  24.891  27.401  1.00  0.00     0.210 HD
ENDBRANCH  83  84
ENDBRANCH  82  83
ENDBRANCH  80  82
ENDBRANCH  73  76
ENDBRANCH  63  73
ENDBRANCH   2  62
TORSDOF 15
ENDMDL
MODEL 3
REMARK VINA RESULT:     -11.6      3.119      8.569
REMARK SMILES O=C(NCCCNC(=O)c1c(S(=O)(=O)N2CCO[C@@H](CCO)C2)sc2c1CC[NH2+]C2)c1ccc(-c2c3nc(c(-c4ccccc4)c4ccc([nH]4)c(-c4ccccc4)c4nc(c(-c5ccccc5)c5ccc2[nH]5)C=C4)C=C3)cc1
REMARK SMILES IDX 7 1 8 2 9 3 6 5 5 6 4 7 3 8 1 9 2 10 31 12 32 13 78 14 33 15
REMARK SMILES IDX 77 16 34 17 35 18 36 19 71 20 37 21 76 22 70 23 72 24 38 25
REMARK SMILES IDX 75 26 69 27 68 28 39 30 61 31 46 32 60 33 47 34 50 35 59 36
REMARK SMILES IDX 73 37 48 38 49 39 58 41 74 42 51 43 40 44 41 45 45 46 42 47
REMARK SMILES IDX 44 48 43 49 62 50 63 51 67 52 64 53 66 54 65 55 52 56 53 57
REMARK SMILES IDX 57 58 54 59 56 60 55 61 10 62 11 63 26 64 24 65 25 66 27 67
REMARK SMILES IDX 30 68 28 69 29 70 12 73 13 74 14 75 15 76 16 77 23 78 17 79
REMARK SMILES IDX 19 80 18 81 20 82 21 83 22 84
REMARK H PARENT 7 4 3 11 72 29 50 40 29 71 29 72 22 85
REMARK Flexibility Score: inf
ROOT
ATOM      1  N   UNL A   1      37.166  23.177  24.323  1.00  0.00    -0.352 N 
ATOM      2  C   UNL A   1      36.049  23.069  23.550  1.00  0.00     0.253 C 
ATOM      3  O   UNL A   1      36.262  23.129  22.336  1.00  0.00    -0.269 OA
ATOM      4  H   UNL A   1      37.979  23.356  23.797  1.00  0.00     0.163 HD
ENDROOT
BRANCH   1   5
ATOM      5  C   UNL A   1      37.424  23.086  25.740  1.00  0.00     0.118 C 
BRANCH   5   6
ATOM      6  C   UNL A   1      38.480  22.049  26.126  1.00  0.00     0.042 C 
BRANCH   6   7
ATOM      7  C   UNL A   1      39.705  22.554  26.890  1.00  0.00     0.118 C 
BRANCH   7   8
ATOM      8  N   UNL A   1      40.926  22.700  26.127  1.00  0.00    -0.352 N 
ATOM      9  O   UNL A   1      42.942  23.305  25.450  1.00  0.00    -0.269 OA
ATOM     10  C   UNL A   1      41.937  23.622  26.094  1.00  0.00     0.251 C 
ATOM     11  H   UNL A   1      41.061  21.967  25.484  1.00  0.00     0.163 HD
BRANCH  10  12
ATOM     12  C   UNL A   1      41.892  24.977  26.712  1.00  0.00     0.039 A 
ATOM     13  C   UNL A   1      42.450  25.338  27.940  1.00  0.00     0.014 A 
ATOM     14  C   UNL A   1      41.201  25.961  25.982  1.00  0.00     0.014 A 
ATOM     15  C   UNL A   1      42.236  26.611  28.475  1.00  0.00     0.010 A 
ATOM     16  C   UNL A   1      41.014  27.241  26.495  1.00  0.00     0.010 A 
ATOM     17  C   UNL A   1      41.493  27.555  27.766  1.00  0.00    -0.014 A 
BRANCH  17  18
ATOM     18  C   UNL A   1      41.272  28.878  28.359  1.00  0.00     0.031 A 
ATOM     19  C   UNL A   1      42.356  29.900  28.223  1.00  0.00     0.074 A 
ATOM     20  C   UNL A   1      40.063  29.269  28.811  1.00  0.00     0.049 A 
ATOM     21  N   UNL A   1      42.841  30.696  29.126  1.00  0.00    -0.248 NA
ATOM     22  C   UNL A   1      42.960  30.069  26.891  1.00  0.00     0.031 C 
ATOM     23  C   UNL A   1      38.798  28.536  28.706  1.00  0.00     0.029 A 
ATOM     24  N   UNL A   1      39.685  30.481  29.320  1.00  0.00    -0.354 N 
ATOM     25  C   UNL A   1      43.710  31.558  28.458  1.00  0.00     0.074 A 
ATOM     26  C   UNL A   1      43.793  31.089  27.097  1.00  0.00     0.031 C 
ATOM     27  C   UNL A   1      37.776  29.396  28.898  1.00  0.00     0.029 A 
ATOM     28  C   UNL A   1      38.317  30.695  29.262  1.00  0.00     0.049 A 
ATOM     29  H   UNL A   1      40.321  31.135  29.692  1.00  0.00     0.167 HD
ATOM     30  C   UNL A   1      44.206  32.703  29.005  1.00  0.00     0.031 A 
ATOM     31  C   UNL A   1      37.664  31.871  29.414  1.00  0.00     0.031 A 
ATOM     32  C   UNL A   1      44.102  32.748  30.433  1.00  0.00     0.049 A 
ATOM     33  C   UNL A   1      38.561  32.834  30.084  1.00  0.00     0.074 A 
ATOM     34  C   UNL A   1      44.599  32.002  31.482  1.00  0.00     0.029 A 
ATOM     35  N   UNL A   1      43.156  33.573  30.984  1.00  0.00    -0.354 N 
ATOM     36  N   UNL A   1      38.935  32.742  31.327  1.00  0.00    -0.248 NA
ATOM     37  C   UNL A   1      39.321  33.771  29.273  1.00  0.00     0.031 C 
ATOM     38  C   UNL A   1      43.606  32.082  32.503  1.00  0.00     0.029 A 
ATOM     39  C   UNL A   1      42.567  32.867  32.000  1.00  0.00     0.049 A 
ATOM     40  H   UNL A   1      42.941  34.492  30.705  1.00  0.00     0.167 HD
ATOM     41  C   UNL A   1      40.209  33.285  31.355  1.00  0.00     0.074 A 
ATOM     42  C   UNL A   1      40.328  34.032  30.109  1.00  0.00     0.031 C 
ATOM     43  C   UNL A   1      41.143  32.842  32.248  1.00  0.00     0.031 A 
BRANCH  30  44
ATOM     44  C   UNL A   1      44.538  33.933  28.200  1.00  0.00    -0.014 A 
ATOM     45  C   UNL A   1      45.830  34.484  28.271  1.00  0.00     0.009 A 
ATOM     46  C   UNL A   1      43.543  34.715  27.582  1.00  0.00     0.009 A 
ATOM     47  C   UNL A   1      46.104  35.764  27.769  1.00  0.00     0.001 A 
ATOM     48  C   UNL A   1      43.822  35.974  27.044  1.00  0.00     0.001 A 
ATOM     49  C   UNL A   1      45.100  36.507  27.156  1.00  0.00     0.000 A 
ENDBRANCH  30  44
BRANCH  31  50
ATOM     50  C   UNL A   1      36.384  32.274  28.797  1.00  0.00    -0.014 A 
ATOM     51  C   UNL A   1      35.565  31.340  28.149  1.00  0.00     0.009 A 
ATOM     52  C   UNL A   1      35.857  33.557  29.037  1.00  0.00     0.009 A 
ATOM     53  C   UNL A   1      34.261  31.678  27.764  1.00  0.00     0.001 A 
ATOM     54  C   UNL A   1      34.561  33.898  28.645  1.00  0.00     0.001 A 
ATOM     55  C   UNL A   1      33.758  32.953  28.017  1.00  0.00     0.000 A 
ENDBRANCH  31  50
BRANCH  43  56
ATOM     56  C   UNL A   1      40.672  31.953  33.371  1.00  0.00    -0.014 A 
ATOM     57  C   UNL A   1      40.616  30.553  33.239  1.00  0.00     0.009 A 
ATOM     58  C   UNL A   1      40.427  32.513  34.633  1.00  0.00     0.009 A 
ATOM     59  C   UNL A   1      40.287  29.741  34.326  1.00  0.00     0.001 A 
ATOM     60  C   UNL A   1      40.117  31.697  35.725  1.00  0.00     0.001 A 
ATOM     61  C   UNL A   1      40.040  30.314  35.570  1.00  0.00     0.000 A 
ENDBRANCH  43  56
ENDBRANCH  17  18
ENDBRANCH  10  12
ENDBRANCH   7   8
ENDBRANCH   6   7
ENDBRANCH   5   6
ENDBRANCH   1   5
BRANCH   2  62
ATOM     62  C   UNL A   1      34.684  22.796  24.007  1.00  0.00     0.074 A 
ATOM     63  C   UNL A   1      33.569  23.632  24.135  1.00  0.00     0.148 A 
ATOM     64  C   UNL A   1      34.264  21.432  24.345  1.00  0.00    -0.009 A 
ATOM     65  S   UNL A   1      32.124  22.681  23.856  1.00  0.00    -0.120 S 
ATOM     66  C   UNL A   1      32.897  21.325  24.498  1.00  0.00     0.064 A 
ATOM     67  C   UNL A   1      35.134  20.233  24.623  1.00  0.00     0.099 C 
ATOM     68  C   UNL A   1      32.166  20.154  25.068  1.00  0.00     0.308 C 
ATOM     69  C   UNL A   1      34.287  18.993  25.023  1.00  0.00     0.265 C 
ATOM     70  N   UNL A   1      33.097  19.308  25.840  1.00  0.00    -0.342 N 
ATOM     71  H   UNL A   1      33.386  19.805  26.682  1.00  0.00     0.346 HD
ATOM     72  H   UNL A   1      32.627  18.439  26.094  1.00  0.00     0.346 HD
BRANCH  63  73
ATOM     73  S   UNL A   1      33.126  25.317  24.525  1.00  0.00     0.253 S 
ATOM     74  O   UNL A   1      31.946  25.273  25.361  1.00  0.00    -0.206 OA
ATOM     75  O   UNL A   1      34.325  25.972  24.983  1.00  0.00    -0.206 OA
BRANCH  73  76
ATOM     76  N   UNL A   1      32.644  26.042  23.043  1.00  0.00    -0.192 NA
ATOM     77  C   UNL A   1      33.739  26.565  22.166  1.00  0.00     0.131 C 
ATOM     78  C   UNL A   1      31.512  27.013  23.060  1.00  0.00     0.134 C 
ATOM     79  C   UNL A   1      34.006  28.079  22.365  1.00  0.00     0.177 C 
ATOM     80  C   UNL A   1      31.976  28.394  23.506  1.00  0.00     0.135 C 
ATOM     81  O   UNL A   1      32.812  28.888  22.447  1.00  0.00    -0.375 OA
BRANCH  80  82
ATOM     82  C   UNL A   1      30.781  29.323  23.759  1.00  0.00     0.061 C 
BRANCH  82  83
ATOM     83  C   UNL A   1      29.782  29.307  22.601  1.00  0.00     0.159 C 
BRANCH  83  84
ATOM     84  O   UNL A   1      30.277  30.081  21.519  1.00  0.00    -0.396 OA
ATOM     85  H   UNL A   1      29.533  30.457  21.024  1.00  0.00     0.210 HD
ENDBRANCH  83  84
ENDBRANCH  82  83
ENDBRANCH  80  82
ENDBRANCH  73  76
ENDBRANCH  63  73
ENDBRANCH   2  62
TORSDOF 15
ENDMDL
