MODEL 1
REMARK VINA RESULT:     -11.7      0.000      0.000
REMARK SMILES Cc1ccccc1O[C@@H](C)C(=O)Oc1ccccc1C(=O)NCCCNC(=O)c1ccc(-c2c3nc(c(-c4ccccc4)c4ccc([nH]4)c(-c4ccccc4)c4nc(c(-c5ccccc5)c5ccc2[nH]5)C=C4)C=C3)cc1
REMARK SMILES IDX 20 1 21 2 22 3 19 5 14 6 15 7 16 8 18 9 17 10 13 11 11 12
REMARK SMILES IDX 12 13 9 14 10 15 8 16 7 17 1 18 2 19 3 20 4 21 6 22 5 23
REMARK SMILES IDX 23 24 24 25 25 26 26 27 27 28 28 30 29 31 30 32 76 33 31 34
REMARK SMILES IDX 75 35 32 36 33 37 34 38 69 39 35 40 74 41 68 42 70 43 36 44
REMARK SMILES IDX 73 45 67 46 66 47 37 49 59 50 44 51 58 52 45 53 48 54 57 55
REMARK SMILES IDX 71 56 46 57 47 58 56 60 72 61 49 62 38 63 39 64 43 65 40 66
REMARK SMILES IDX 42 67 41 68 60 69 61 70 65 71 62 72 64 73 63 74 50 75 51 76
REMARK SMILES IDX 55 77 52 78 54 79 53 80
REMARK H PARENT 22 4 26 29 70 48 48 59
REMARK Flexibility Score: inf
ROOT
ATOM      1  C   UNL A   1      33.320  28.480  24.438  1.00  0.00     0.255 C 
ATOM      2  O   UNL A   1      34.114  28.675  23.515  1.00  0.00    -0.269 OA
ATOM      3  N   UNL A   1      33.871  28.478  25.699  1.00  0.00    -0.352 N 
ATOM      4  H   UNL A   1      34.854  28.430  25.678  1.00  0.00     0.163 HD
ENDROOT
BRANCH   1   5
ATOM      5  C   UNL A   1      31.871  28.272  24.126  1.00  0.00     0.082 A 
ATOM      6  C   UNL A   1      31.259  27.017  24.331  1.00  0.00     0.143 A 
ATOM      7  C   UNL A   1      29.937  26.759  23.935  1.00  0.00     0.048 A 
ATOM      8  C   UNL A   1      29.187  27.757  23.329  1.00  0.00     0.004 A 
ATOM      9  C   UNL A   1      31.087  29.252  23.502  1.00  0.00     0.018 A 
ATOM     10  C   UNL A   1      29.762  29.002  23.113  1.00  0.00     0.001 A 
BRANCH   6  11
ATOM     11  O   UNL A   1      31.946  25.844  24.718  1.00  0.00    -0.423 OA
BRANCH  11  12
ATOM     12  C   UNL A   1      31.553  25.040  25.772  1.00  0.00     0.352 C 
ATOM     13  O   UNL A   1      31.253  25.449  26.890  1.00  0.00    -0.247 OA
BRANCH  12  14
ATOM     14  C   UNL A   1      31.539  23.541  25.345  1.00  0.00     0.280 C 
ATOM     15  C   UNL A   1      30.589  22.709  26.214  1.00  0.00     0.066 C 
BRANCH  14  16
ATOM     16  O   UNL A   1      32.628  22.693  25.009  1.00  0.00    -0.479 OA
BRANCH  16  17
ATOM     17  C   UNL A   1      33.937  23.041  25.140  1.00  0.00     0.123 A 
ATOM     18  C   UNL A   1      34.246  22.589  27.669  1.00  0.00     0.048 C 
ATOM     19  C   UNL A   1      34.721  22.993  26.303  1.00  0.00    -0.009 A 
ATOM     20  C   UNL A   1      36.105  23.248  26.193  1.00  0.00     0.007 A 
ATOM     21  C   UNL A   1      36.708  23.509  24.964  1.00  0.00     0.001 A 
ATOM     22  C   UNL A   1      34.561  23.289  23.905  1.00  0.00     0.047 A 
ATOM     23  C   UNL A   1      35.934  23.521  23.814  1.00  0.00     0.004 A 
ENDBRANCH  16  17
ENDBRANCH  14  16
ENDBRANCH  12  14
ENDBRANCH  11  12
ENDBRANCH   6  11
ENDBRANCH   1   5
BRANCH   3  24
ATOM     24  C   UNL A   1      33.347  28.532  27.057  1.00  0.00     0.118 C 
BRANCH  24  25
ATOM     25  C   UNL A   1      32.964  29.930  27.527  1.00  0.00     0.042 C 
BRANCH  25  26
ATOM     26  C   UNL A   1      34.016  30.975  27.165  1.00  0.00     0.118 C 
BRANCH  26  27
ATOM     27  N   UNL A   1      34.523  31.742  28.305  1.00  0.00    -0.352 N 
ATOM     28  C   UNL A   1      35.554  31.430  29.180  1.00  0.00     0.251 C 
ATOM     29  H   UNL A   1      34.070  32.600  28.473  1.00  0.00     0.163 HD
ATOM     30  O   UNL A   1      35.857  32.191  30.084  1.00  0.00    -0.269 OA
BRANCH  28  31
ATOM     31  C   UNL A   1      36.363  30.216  28.922  1.00  0.00     0.039 A 
ATOM     32  C   UNL A   1      36.585  29.342  29.992  1.00  0.00     0.014 A 
ATOM     33  C   UNL A   1      37.089  30.094  27.741  1.00  0.00     0.014 A 
ATOM     34  C   UNL A   1      37.717  28.535  29.979  1.00  0.00     0.010 A 
ATOM     35  C   UNL A   1      38.263  29.371  27.766  1.00  0.00     0.010 A 
ATOM     36  C   UNL A   1      38.614  28.660  28.919  1.00  0.00    -0.014 A 
BRANCH  36  37
ATOM     37  C   UNL A   1      40.000  28.216  29.003  1.00  0.00     0.031 A 
ATOM     38  C   UNL A   1      40.388  26.878  28.525  1.00  0.00     0.074 A 
ATOM     39  C   UNL A   1      40.939  29.066  29.473  1.00  0.00     0.049 A 
ATOM     40  N   UNL A   1      41.460  26.262  28.895  1.00  0.00    -0.248 NA
ATOM     41  C   UNL A   1      39.537  26.077  27.650  1.00  0.00     0.031 C 
ATOM     42  C   UNL A   1      42.389  28.939  29.374  1.00  0.00     0.029 A 
ATOM     43  N   UNL A   1      40.743  30.132  30.355  1.00  0.00    -0.354 N 
ATOM     44  C   UNL A   1      41.599  25.165  28.081  1.00  0.00     0.074 A 
ATOM     45  C   UNL A   1      40.316  25.011  27.444  1.00  0.00     0.031 C 
ATOM     46  C   UNL A   1      42.957  29.695  30.327  1.00  0.00     0.029 A 
ATOM     47  C   UNL A   1      41.888  30.209  31.168  1.00  0.00     0.049 A 
ATOM     48  H   UNL A   1      39.954  30.718  30.398  1.00  0.00     0.167 HD
ATOM     49  C   UNL A   1      42.836  24.620  27.914  1.00  0.00     0.031 A 
ATOM     50  C   UNL A   1      41.807  30.020  32.517  1.00  0.00     0.031 A 
ATOM     51  C   UNL A   1      43.793  25.147  28.891  1.00  0.00     0.049 A 
ATOM     52  C   UNL A   1      42.589  28.826  33.021  1.00  0.00     0.074 A 
ATOM     53  C   UNL A   1      44.853  26.033  28.807  1.00  0.00     0.029 A 
ATOM     54  N   UNL A   1      43.543  24.963  30.248  1.00  0.00    -0.354 N 
ATOM     55  N   UNL A   1      43.059  27.883  32.251  1.00  0.00    -0.248 NA
ATOM     56  C   UNL A   1      42.867  28.576  34.433  1.00  0.00     0.031 C 
ATOM     57  C   UNL A   1      45.172  26.461  30.126  1.00  0.00     0.029 A 
ATOM     58  C   UNL A   1      44.337  25.799  31.009  1.00  0.00     0.049 A 
ATOM     59  H   UNL A   1      42.889  24.324  30.615  1.00  0.00     0.167 HD
ATOM     60  C   UNL A   1      43.667  26.922  33.015  1.00  0.00     0.074 A 
ATOM     61  C   UNL A   1      43.538  27.411  34.376  1.00  0.00     0.031 C 
ATOM     62  C   UNL A   1      44.211  25.799  32.462  1.00  0.00     0.031 A 
BRANCH  49  63
ATOM     63  C   UNL A   1      43.244  23.809  26.700  1.00  0.00    -0.014 A 
ATOM     64  C   UNL A   1      43.086  22.409  26.717  1.00  0.00     0.009 A 
ATOM     65  C   UNL A   1      43.891  24.327  25.563  1.00  0.00     0.009 A 
ATOM     66  C   UNL A   1      43.585  21.588  25.692  1.00  0.00     0.001 A 
ATOM     67  C   UNL A   1      44.380  23.518  24.528  1.00  0.00     0.001 A 
ATOM     68  C   UNL A   1      44.238  22.143  24.599  1.00  0.00     0.000 A 
ENDBRANCH  49  63
BRANCH  50  69
ATOM     69  C   UNL A   1      40.539  30.524  33.114  1.00  0.00    -0.014 A 
ATOM     70  C   UNL A   1      40.285  31.910  33.063  1.00  0.00     0.009 A 
ATOM     71  C   UNL A   1      39.469  29.659  33.377  1.00  0.00     0.009 A 
ATOM     72  C   UNL A   1      38.981  32.404  33.158  1.00  0.00     0.001 A 
ATOM     73  C   UNL A   1      38.165  30.159  33.478  1.00  0.00     0.001 A 
ATOM     74  C   UNL A   1      37.917  31.525  33.335  1.00  0.00     0.000 A 
ENDBRANCH  50  69
BRANCH  62  75
ATOM     75  C   UNL A   1      44.726  24.599  33.219  1.00  0.00    -0.014 A 
ATOM     76  C   UNL A   1      46.016  24.490  33.752  1.00  0.00     0.009 A 
ATOM     77  C   UNL A   1      43.820  23.561  33.539  1.00  0.00     0.009 A 
ATOM     78  C   UNL A   1      46.394  23.383  34.527  1.00  0.00     0.001 A 
ATOM     79  C   UNL A   1      44.178  22.479  34.346  1.00  0.00     0.001 A 
ATOM     80  C   UNL A   1      45.474  22.384  34.831  1.00  0.00     0.000 A 
ENDBRANCH  62  75
ENDBRANCH  36  37
ENDBRANCH  28  31
ENDBRANCH  26  27
ENDBRANCH  25  26
ENDBRANCH  24  25
ENDBRANCH   3  24
TORSDOF 15
ENDMDL
MODEL 2
REMARK VINA RESULT:     -11.6      1.923      4.579
REMARK SMILES Cc1ccccc1O[C@@H](C)C(=O)Oc1ccccc1C(=O)NCCCNC(=O)c1ccc(-c2c3nc(c(-c4ccccc4)c4ccc([nH]4)c(-c4ccccc4)c4nc(c(-c5ccccc5)c5ccc2[nH]5)C=C4)C=C3)cc1
REMARK SMILES IDX 20 1 21 2 22 3 19 5 14 6 15 7 16 8 18 9 17 10 13 11 11 12
REMARK SMILES IDX 12 13 9 14 10 15 8 16 7 17 1 18 2 19 3 20 4 21 6 22 5 23
REMARK SMILES IDX 23 24 24 25 25 26 26 27 27 28 28 30 29 31 30 32 76 33 31 34
REMARK SMILES IDX 75 35 32 36 33 37 34 38 69 39 35 40 74 41 68 42 70 43 36 44
REMARK SMILES IDX 73 45 67 46 66 47 37 49 59 50 44 51 58 52 45 53 48 54 57 55
REMARK SMILES IDX 71 56 46 57 47 58 56 60 72 61 49 62 38 63 39 64 43 65 40 66
REMARK SMILES IDX 42 67 41 68 60 69 61 70 65 71 62 72 64 73 63 74 50 75 51 76
REMARK SMILES IDX 55 77 52 78 54 79 53 80
REMARK H PARENT 22 4 26 29 70 48 48 59
REMARK Flexibility Score: inf
ROOT
ATOM      1  C   UNL A   1      32.261  26.017  26.069  1.00  0.00     0.255 C 
ATOM      2  O   UNL A   1      31.158  25.616  26.446  1.00  0.00    -0.269 OA
ATOM      3  N   UNL A   1      32.488  27.363  26.240  1.00  0.00    -0.352 N 
ATOM      4  H   UNL A   1      31.664  27.858  26.452  1.00  0.00     0.163 HD
ENDROOT
BRANCH   1   5
ATOM      5  C   UNL A   1      33.233  25.042  25.480  1.00  0.00     0.082 A 
ATOM      6  C   UNL A   1      33.276  24.814  24.089  1.00  0.00     0.143 A 
ATOM      7  C   UNL A   1      34.090  23.821  23.521  1.00  0.00     0.048 A 
ATOM      8  C   UNL A   1      34.892  23.032  24.335  1.00  0.00     0.004 A 
ATOM      9  C   UNL A   1      34.048  24.221  26.272  1.00  0.00     0.018 A 
ATOM     10  C   UNL A   1      34.870  23.232  25.709  1.00  0.00     0.001 A 
BRANCH   6  11
ATOM     11  O   UNL A   1      32.366  25.364  23.158  1.00  0.00    -0.423 OA
BRANCH  11  12
ATOM     12  C   UNL A   1      32.739  26.223  22.140  1.00  0.00     0.352 C 
ATOM     13  O   UNL A   1      33.280  25.876  21.094  1.00  0.00    -0.247 OA
BRANCH  12  14
ATOM     14  C   UNL A   1      32.375  27.695  22.502  1.00  0.00     0.280 C 
ATOM     15  C   UNL A   1      33.623  28.578  22.619  1.00  0.00     0.066 C 
BRANCH  14  16
ATOM     16  O   UNL A   1      31.443  28.181  23.457  1.00  0.00    -0.479 OA
BRANCH  16  17
ATOM     17  C   UNL A   1      30.166  28.546  23.162  1.00  0.00     0.123 A 
ATOM     18  C   UNL A   1      28.932  26.386  23.876  1.00  0.00     0.048 C 
ATOM     19  C   UNL A   1      28.998  27.791  23.350  1.00  0.00    -0.009 A 
ATOM     20  C   UNL A   1      27.751  28.413  23.126  1.00  0.00     0.007 A 
ATOM     21  C   UNL A   1      27.655  29.755  22.760  1.00  0.00     0.001 A 
ATOM     22  C   UNL A   1      30.054  29.902  22.810  1.00  0.00     0.047 A 
ATOM     23  C   UNL A   1      28.811  30.505  22.609  1.00  0.00     0.004 A 
ENDBRANCH  16  17
ENDBRANCH  14  16
ENDBRANCH  12  14
ENDBRANCH  11  12
ENDBRANCH   6  11
ENDBRANCH   1   5
BRANCH   3  24
ATOM     24  C   UNL A   1      33.657  28.230  26.183  1.00  0.00     0.118 C 
BRANCH  24  25
ATOM     25  C   UNL A   1      34.014  28.891  27.510  1.00  0.00     0.042 C 
BRANCH  25  26
ATOM     26  C   UNL A   1      34.744  30.217  27.322  1.00  0.00     0.118 C 
BRANCH  26  27
ATOM     27  N   UNL A   1      33.883  31.398  27.408  1.00  0.00    -0.352 N 
ATOM     28  C   UNL A   1      34.040  32.540  28.182  1.00  0.00     0.251 C 
ATOM     29  H   UNL A   1      33.082  31.381  26.837  1.00  0.00     0.163 HD
ATOM     30  O   UNL A   1      33.224  33.446  28.130  1.00  0.00    -0.269 OA
BRANCH  28  31
ATOM     31  C   UNL A   1      35.281  32.696  28.976  1.00  0.00     0.039 A 
ATOM     32  C   UNL A   1      36.358  33.359  28.376  1.00  0.00     0.014 A 
ATOM     33  C   UNL A   1      35.454  31.982  30.157  1.00  0.00     0.014 A 
ATOM     34  C   UNL A   1      37.648  33.074  28.807  1.00  0.00     0.010 A 
ATOM     35  C   UNL A   1      36.734  31.620  30.522  1.00  0.00     0.010 A 
ATOM     36  C   UNL A   1      37.825  32.102  29.791  1.00  0.00    -0.014 A 
BRANCH  36  37
ATOM     37  C   UNL A   1      39.094  31.419  30.006  1.00  0.00     0.031 A 
ATOM     38  C   UNL A   1      39.344  30.097  29.407  1.00  0.00     0.074 A 
ATOM     39  C   UNL A   1      40.065  32.036  30.715  1.00  0.00     0.049 A 
ATOM     40  N   UNL A   1      40.236  29.267  29.835  1.00  0.00    -0.248 NA
ATOM     41  C   UNL A   1      38.531  29.558  28.320  1.00  0.00     0.031 C 
ATOM     42  C   UNL A   1      41.476  31.673  30.802  1.00  0.00     0.029 A 
ATOM     43  N   UNL A   1      39.896  33.013  31.699  1.00  0.00    -0.354 N 
ATOM     44  C   UNL A   1      40.334  28.262  28.905  1.00  0.00     0.074 A 
ATOM     45  C   UNL A   1      39.161  28.404  28.080  1.00  0.00     0.031 C 
ATOM     46  C   UNL A   1      41.992  32.207  31.920  1.00  0.00     0.029 A 
ATOM     47  C   UNL A   1      40.895  32.800  32.666  1.00  0.00     0.049 A 
ATOM     48  H   UNL A   1      39.210  33.719  31.712  1.00  0.00     0.167 HD
ATOM     49  C   UNL A   1      41.483  27.534  28.839  1.00  0.00     0.031 A 
ATOM     50  C   UNL A   1      40.570  32.477  33.952  1.00  0.00     0.031 A 
ATOM     51  C   UNL A   1      42.341  27.774  30.003  1.00  0.00     0.049 A 
ATOM     52  C   UNL A   1      41.069  31.117  34.391  1.00  0.00     0.074 A 
ATOM     53  C   UNL A   1      43.524  28.469  30.191  1.00  0.00     0.029 A 
ATOM     54  N   UNL A   1      41.851  27.485  31.273  1.00  0.00    -0.354 N 
ATOM     55  N   UNL A   1      41.506  30.200  33.572  1.00  0.00    -0.248 NA
ATOM     56  C   UNL A   1      41.076  30.665  35.780  1.00  0.00     0.031 C 
ATOM     57  C   UNL A   1      43.688  28.683  31.587  1.00  0.00     0.029 A 
ATOM     58  C   UNL A   1      42.631  28.080  32.245  1.00  0.00     0.049 A 
ATOM     59  H   UNL A   1      41.057  26.931  31.454  1.00  0.00     0.167 HD
ATOM     60  C   UNL A   1      41.829  29.069  34.274  1.00  0.00     0.074 A 
ATOM     61  C   UNL A   1      41.560  29.416  35.657  1.00  0.00     0.031 C 
ATOM     62  C   UNL A   1      42.276  27.938  33.652  1.00  0.00     0.031 A 
BRANCH  49  63
ATOM     63  C   UNL A   1      41.951  26.807  27.594  1.00  0.00    -0.014 A 
ATOM     64  C   UNL A   1      42.550  25.538  27.716  1.00  0.00     0.009 A 
ATOM     65  C   UNL A   1      41.945  27.345  26.294  1.00  0.00     0.009 A 
ATOM     66  C   UNL A   1      43.142  24.882  26.625  1.00  0.00     0.001 A 
ATOM     67  C   UNL A   1      42.521  26.694  25.195  1.00  0.00     0.001 A 
ATOM     68  C   UNL A   1      43.133  25.463  25.363  1.00  0.00     0.000 A 
ENDBRANCH  49  63
BRANCH  50  69
ATOM     69  C   UNL A   1      39.316  33.122  34.430  1.00  0.00    -0.014 A 
ATOM     70  C   UNL A   1      38.086  32.577  34.010  1.00  0.00     0.009 A 
ATOM     71  C   UNL A   1      39.321  33.982  35.537  1.00  0.00     0.009 A 
ATOM     72  C   UNL A   1      36.916  32.795  34.743  1.00  0.00     0.001 A 
ATOM     73  C   UNL A   1      38.145  34.203  36.265  1.00  0.00     0.001 A 
ATOM     74  C   UNL A   1      36.953  33.584  35.889  1.00  0.00     0.000 A 
ENDBRANCH  50  69
BRANCH  62  75
ATOM     75  C   UNL A   1      42.472  26.590  34.302  1.00  0.00    -0.014 A 
ATOM     76  C   UNL A   1      41.529  25.960  35.124  1.00  0.00     0.009 A 
ATOM     77  C   UNL A   1      43.620  25.836  33.963  1.00  0.00     0.009 A 
ATOM     78  C   UNL A   1      41.742  24.663  35.617  1.00  0.00     0.001 A 
ATOM     79  C   UNL A   1      43.815  24.529  34.415  1.00  0.00     0.001 A 
ATOM     80  C   UNL A   1      42.879  23.945  35.255  1.00  0.00     0.000 A 
ENDBRANCH  62  75
ENDBRANCH  36  37
ENDBRANCH  28  31
ENDBRANCH  26  27
ENDBRANCH  25  26
ENDBRANCH  24  25
ENDBRANCH   3  24
TORSDOF 15
ENDMDL
MODEL 3
REMARK VINA RESULT:     -11.5      3.420      8.272
REMARK SMILES Cc1ccccc1O[C@@H](C)C(=O)Oc1ccccc1C(=O)NCCCNC(=O)c1ccc(-c2c3nc(c(-c4ccccc4)c4ccc([nH]4)c(-c4ccccc4)c4nc(c(-c5ccccc5)c5ccc2[nH]5)C=C4)C=C3)cc1
REMARK SMILES IDX 20 1 21 2 22 3 19 5 14 6 15 7 16 8 18 9 17 10 13 11 11 12
REMARK SMILES IDX 12 13 9 14 10 15 8 16 7 17 1 18 2 19 3 20 4 21 6 22 5 23
REMARK SMILES IDX 23 24 24 25 25 26 26 27 27 28 28 30 29 31 30 32 76 33 31 34
REMARK SMILES IDX 75 35 32 36 33 37 34 38 69 39 35 40 74 41 68 42 70 43 36 44
REMARK SMILES IDX 73 45 67 46 66 47 37 49 59 50 44 51 58 52 45 53 48 54 57 55
REMARK SMILES IDX 71 56 46 57 47 58 56 60 72 61 49 62 38 63 39 64 43 65 40 66
REMARK SMILES IDX 42 67 41 68 60 69 61 70 65 71 62 72 64 73 63 74 50 75 51 76
REMARK SMILES IDX 55 77 52 78 54 79 53 80
REMARK H PARENT 22 4 26 29 70 48 48 59
REMARK Flexibility Score: inf
ROOT
ATOM      1  C   UNL A   1      34.488  24.552  24.033  1.00  0.00     0.255 C 
ATOM      2  O   UNL A   1      34.091  24.432  22.872  1.00  0.00    -0.269 OA
ATOM      3  N   UNL A   1      35.580  23.782  24.364  1.00  0.00    -0.352 N 
ATOM      4  H   UNL A   1      35.768  23.089  23.690  1.00  0.00     0.163 HD
ENDROOT
BRANCH   1   5
ATOM      5  C   UNL A   1      33.782  25.495  24.956  1.00  0.00     0.082 A 
ATOM      6  C   UNL A   1      32.620  25.095  25.650  1.00  0.00     0.143 A 
ATOM      7  C   UNL A   1      31.870  25.992  26.426  1.00  0.00     0.048 A 
ATOM      8  C   UNL A   1      32.268  27.317  26.535  1.00  0.00     0.004 A 
ATOM      9  C   UNL A   1      34.149  26.842  25.081  1.00  0.00     0.018 A 
ATOM     10  C   UNL A   1      33.407  27.741  25.863  1.00  0.00     0.001 A 
BRANCH   6  11
ATOM     11  O   UNL A   1      31.960  23.859  25.462  1.00  0.00    -0.423 OA
BRANCH  11  12
ATOM     12  C   UNL A   1      31.814  22.911  26.459  1.00  0.00     0.352 C 
ATOM     13  O   UNL A   1      30.902  22.895  27.281  1.00  0.00    -0.247 OA
BRANCH  12  14
ATOM     14  C   UNL A   1      32.965  21.862  26.394  1.00  0.00     0.280 C 
ATOM     15  C   UNL A   1      33.965  22.042  27.541  1.00  0.00     0.066 C 
BRANCH  14  16
ATOM     16  O   UNL A   1      33.712  21.417  25.270  1.00  0.00    -0.479 OA
BRANCH  16  17
ATOM     17  C   UNL A   1      33.759  20.125  24.847  1.00  0.00     0.123 A 
ATOM     18  C   UNL A   1      36.321  19.758  24.892  1.00  0.00     0.048 C 
ATOM     19  C   UNL A   1      34.899  19.323  24.681  1.00  0.00    -0.009 A 
ATOM     20  C   UNL A   1      34.722  17.954  24.383  1.00  0.00     0.007 A 
ATOM     21  C   UNL A   1      33.454  17.382  24.286  1.00  0.00     0.001 A 
ATOM     22  C   UNL A   1      32.488  19.531  24.763  1.00  0.00     0.047 A 
ATOM     23  C   UNL A   1      32.333  18.172  24.485  1.00  0.00     0.004 A 
ENDBRANCH  16  17
ENDBRANCH  14  16
ENDBRANCH  12  14
ENDBRANCH  11  12
ENDBRANCH   6  11
ENDBRANCH   1   5
BRANCH   3  24
ATOM     24  C   UNL A   1      36.523  23.747  25.473  1.00  0.00     0.118 C 
BRANCH  24  25
ATOM     25  C   UNL A   1      37.920  23.270  25.094  1.00  0.00     0.042 C 
BRANCH  25  26
ATOM     26  C   UNL A   1      38.583  22.465  26.208  1.00  0.00     0.118 C 
BRANCH  26  27
ATOM     27  N   UNL A   1      40.040  22.598  26.265  1.00  0.00    -0.352 N 
ATOM     28  C   UNL A   1      40.805  23.722  26.542  1.00  0.00     0.251 C 
ATOM     29  H   UNL A   1      40.548  21.775  26.083  1.00  0.00     0.163 HD
ATOM     30  O   UNL A   1      42.023  23.660  26.556  1.00  0.00    -0.269 OA
BRANCH  28  31
ATOM     31  C   UNL A   1      40.115  24.970  26.945  1.00  0.00     0.039 A 
ATOM     32  C   UNL A   1      40.398  26.134  26.221  1.00  0.00     0.014 A 
ATOM     33  C   UNL A   1      39.427  25.034  28.153  1.00  0.00     0.014 A 
ATOM     34  C   UNL A   1      40.240  27.368  26.841  1.00  0.00     0.010 A 
ATOM     35  C   UNL A   1      39.362  26.247  28.807  1.00  0.00     0.010 A 
ATOM     36  C   UNL A   1      39.848  27.398  28.178  1.00  0.00    -0.014 A 
BRANCH  36  37
ATOM     37  C   UNL A   1      40.067  28.555  29.037  1.00  0.00     0.031 A 
ATOM     38  C   UNL A   1      39.033  29.596  29.170  1.00  0.00     0.074 A 
ATOM     39  C   UNL A   1      41.207  28.637  29.758  1.00  0.00     0.049 A 
ATOM     40  N   UNL A   1      39.268  30.800  29.573  1.00  0.00    -0.248 NA
ATOM     41  C   UNL A   1      37.647  29.387  28.761  1.00  0.00     0.031 C 
ATOM     42  C   UNL A   1      41.497  29.533  30.873  1.00  0.00     0.029 A 
ATOM     43  N   UNL A   1      42.437  28.050  29.455  1.00  0.00    -0.354 N 
ATOM     44  C   UNL A   1      38.052  31.401  29.785  1.00  0.00     0.074 A 
ATOM     45  C   UNL A   1      37.096  30.549  29.124  1.00  0.00     0.031 C 
ATOM     46  C   UNL A   1      42.828  29.641  31.007  1.00  0.00     0.029 A 
ATOM     47  C   UNL A   1      43.436  28.941  29.887  1.00  0.00     0.049 A 
ATOM     48  H   UNL A   1      42.579  27.177  29.021  1.00  0.00     0.167 HD
ATOM     49  C   UNL A   1      37.978  32.458  30.641  1.00  0.00     0.031 A 
ATOM     50  C   UNL A   1      44.304  29.508  29.000  1.00  0.00     0.031 A 
ATOM     51  C   UNL A   1      39.309  32.967  30.984  1.00  0.00     0.049 A 
ATOM     52  C   UNL A   1      44.207  31.017  28.922  1.00  0.00     0.074 A 
ATOM     53  C   UNL A   1      40.095  32.896  32.122  1.00  0.00     0.029 A 
ATOM     54  N   UNL A   1      40.135  33.435  29.966  1.00  0.00    -0.354 N 
ATOM     55  N   UNL A   1      43.216  31.711  29.409  1.00  0.00    -0.248 NA
ATOM     56  C   UNL A   1      45.195  31.860  28.252  1.00  0.00     0.031 C 
ATOM     57  C   UNL A   1      41.428  33.230  31.754  1.00  0.00     0.029 A 
ATOM     58  C   UNL A   1      41.439  33.547  30.407  1.00  0.00     0.049 A 
ATOM     59  H   UNL A   1      39.831  33.658  29.057  1.00  0.00     0.167 HD
ATOM     60  C   UNL A   1      43.398  33.040  29.127  1.00  0.00     0.074 A 
ATOM     61  C   UNL A   1      44.663  33.084  28.416  1.00  0.00     0.031 C 
ATOM     62  C   UNL A   1      42.484  33.986  29.489  1.00  0.00     0.031 A 
BRANCH  49  63
ATOM     63  C   UNL A   1      36.715  32.863  31.376  1.00  0.00    -0.014 A 
ATOM     64  C   UNL A   1      35.790  33.717  30.745  1.00  0.00     0.009 A 
ATOM     65  C   UNL A   1      36.423  32.545  32.715  1.00  0.00     0.009 A 
ATOM     66  C   UNL A   1      34.683  34.252  31.423  1.00  0.00     0.001 A 
ATOM     67  C   UNL A   1      35.314  33.063  33.397  1.00  0.00     0.001 A 
ATOM     68  C   UNL A   1      34.447  33.929  32.753  1.00  0.00     0.000 A 
ENDBRANCH  49  63
BRANCH  50  69
ATOM     69  C   UNL A   1      44.665  28.616  27.864  1.00  0.00    -0.014 A 
ATOM     70  C   UNL A   1      45.506  27.516  28.125  1.00  0.00     0.009 A 
ATOM     71  C   UNL A   1      43.922  28.622  26.676  1.00  0.00     0.009 A 
ATOM     72  C   UNL A   1      45.516  26.403  27.277  1.00  0.00     0.001 A 
ATOM     73  C   UNL A   1      43.940  27.508  25.826  1.00  0.00     0.001 A 
ATOM     74  C   UNL A   1      44.709  26.388  26.144  1.00  0.00     0.000 A 
ENDBRANCH  50  69
BRANCH  62  75
ATOM     75  C   UNL A   1      42.491  35.434  29.062  1.00  0.00    -0.014 A 
ATOM     76  C   UNL A   1      43.406  36.391  29.518  1.00  0.00     0.009 A 
ATOM     77  C   UNL A   1      41.609  35.841  28.034  1.00  0.00     0.009 A 
ATOM     78  C   UNL A   1      43.411  37.697  29.004  1.00  0.00     0.001 A 
ATOM     79  C   UNL A   1      41.639  37.126  27.490  1.00  0.00     0.001 A 
ATOM     80  C   UNL A   1      42.536  38.061  27.985  1.00  0.00     0.000 A 
ENDBRANCH  62  75
ENDBRANCH  36  37
ENDBRANCH  28  31
ENDBRANCH  26  27
ENDBRANCH  25  26
ENDBRANCH  24  25
ENDBRANCH   3  24
TORSDOF 15
ENDMDL
