MODEL 1
REMARK VINA RESULT:     -13.4      0.000      0.000
REMARK SMILES NC(=O)c1c(-c2ccc(Cl)cc2)csc1NC(=O)[C@H]1[C@@H](C(=O)NCCCNC(=O)c2ccc(-c3c4nc(c(-c5ccccc5)c5ccc([nH]5)c(-c5ccccc5)c5nc(c(-c6ccccc6)c6ccc3[nH]6)C=C5)C=C4)cc2)[C@@H]2CC[C@H]1O2
REMARK SMILES IDX 24 1 23 2 21 3 22 4 20 6 19 7 81 8 78 9 80 10 82 11 79 12
REMARK SMILES IDX 17 13 16 14 18 16 15 17 4 18 5 19 13 20 14 21 2 22 1 23 3 26
REMARK SMILES IDX 6 27 7 28 12 29 8 30 11 31 9 32 10 33 25 34 26 35 27 36
REMARK SMILES IDX 28 37 29 39 30 40 31 41 77 42 32 43 76 44 33 45 34 46 35 47
REMARK SMILES IDX 70 48 36 49 75 50 69 51 71 52 37 53 74 54 68 55 67 56 38 58
REMARK SMILES IDX 60 59 45 60 59 61 46 62 49 63 58 64 72 65 47 66 48 67 57 69
REMARK SMILES IDX 73 70 50 71 39 72 40 73 44 74 41 75 43 76 42 77 61 78 62 79
REMARK SMILES IDX 66 80 63 81 65 82 64 83 51 84 52 85 56 86 53 87 55 88 54 89
REMARK H PARENT 23 5 16 15 1 24 1 25 27 38 71 57 49 68
REMARK Flexibility Score: inf
ROOT
ATOM      1  C   UNL A   1      31.546  30.675  26.446  1.00  0.00     0.117 C 
ENDROOT
BRANCH   1   2
ATOM      2  N   UNL A   1      32.399  30.217  25.384  1.00  0.00    -0.356 N 
ATOM      3  C   UNL A   1      32.197  29.218  24.494  1.00  0.00     0.226 C 
ATOM      4  O   UNL A   1      33.058  29.082  23.618  1.00  0.00    -0.275 OA
ATOM      5  H   UNL A   1      33.252  30.701  25.290  1.00  0.00     0.163 HD
BRANCH   3   6
ATOM      6  C   UNL A   1      31.047  28.228  24.571  1.00  0.00     0.122 C 
ATOM      7  C   UNL A   1      31.038  26.998  25.505  1.00  0.00     0.123 C 
ATOM      8  C   UNL A   1      30.336  25.991  24.616  1.00  0.00     0.132 C 
ATOM      9  C   UNL A   1      30.649  27.622  23.213  1.00  0.00     0.132 C 
ATOM     10  C   UNL A   1      28.905  26.398  24.230  1.00  0.00     0.035 C 
ATOM     11  O   UNL A   1      31.010  26.225  23.359  1.00  0.00    -0.373 OA
ATOM     12  C   UNL A   1      29.136  27.449  23.140  1.00  0.00     0.035 C 
BRANCH   7  13
ATOM     13  C   UNL A   1      32.335  26.678  26.271  1.00  0.00     0.231 C 
ATOM     14  N   UNL A   1      33.269  25.699  26.126  1.00  0.00    -0.317 N 
ATOM     15  H   UNL A   1      34.019  25.832  26.749  1.00  0.00     0.170 HD
ATOM     16  O   UNL A   1      32.654  27.529  27.125  1.00  0.00    -0.274 OA
BRANCH  14  17
ATOM     17  C   UNL A   1      33.463  24.567  25.347  1.00  0.00     0.108 A 
ATOM     18  C   UNL A   1      33.140  23.247  25.690  1.00  0.00     0.082 A 
ATOM     19  C   UNL A   1      33.715  22.330  24.720  1.00  0.00     0.007 A 
ATOM     20  C   UNL A   1      34.280  23.004  23.657  1.00  0.00     0.076 A 
ATOM     21  S   UNL A   1      33.966  24.658  23.744  1.00  0.00    -0.125 S 
BRANCH  18  22
ATOM     22  C   UNL A   1      32.382  22.945  26.905  1.00  0.00     0.252 C 
ATOM     23  N   UNL A   1      32.901  22.032  27.769  1.00  0.00    -0.365 N 
ATOM     24  H   UNL A   1      32.417  21.806  28.596  1.00  0.00     0.159 HD
ATOM     25  H   UNL A   1      33.760  21.597  27.566  1.00  0.00     0.159 HD
ATOM     26  O   UNL A   1      31.331  23.517  27.182  1.00  0.00    -0.269 OA
ENDBRANCH  18  22
BRANCH  19  27
ATOM     27  C   UNL A   1      33.664  20.881  24.616  1.00  0.00    -0.017 A 
ATOM     28  C   UNL A   1      34.788  20.098  24.915  1.00  0.00     0.010 A 
ATOM     29  C   UNL A   1      32.528  20.285  24.055  1.00  0.00     0.010 A 
ATOM     30  C   UNL A   1      34.781  18.731  24.626  1.00  0.00     0.021 A 
ATOM     31  C   UNL A   1      32.526  18.921  23.765  1.00  0.00     0.021 A 
ATOM     32  C   UNL A   1      33.655  18.152  24.042  1.00  0.00     0.041 A 
ATOM     33  Cl  UNL A   1      33.668  16.482  23.630  1.00  0.00    -0.084 Cl
ENDBRANCH  19  27
ENDBRANCH  14  17
ENDBRANCH   7  13
ENDBRANCH   3   6
ENDBRANCH   1   2
BRANCH   1  34
ATOM     34  C   UNL A   1      31.446  32.180  26.561  1.00  0.00     0.042 C 
BRANCH  34  35
ATOM     35  C   UNL A   1      32.642  32.807  27.255  1.00  0.00     0.118 C 
BRANCH  35  36
ATOM     36  N   UNL A   1      32.415  34.203  27.625  1.00  0.00    -0.352 N 
ATOM     37  C   UNL A   1      33.003  34.974  28.597  1.00  0.00     0.251 C 
ATOM     38  H   UNL A   1      31.729  34.666  27.092  1.00  0.00     0.163 HD
ATOM     39  O   UNL A   1      32.528  36.070  28.883  1.00  0.00    -0.269 OA
BRANCH  37  40
ATOM     40  C   UNL A   1      34.182  34.479  29.333  1.00  0.00     0.039 A 
ATOM     41  C   UNL A   1      33.998  33.899  30.592  1.00  0.00     0.014 A 
ATOM     42  C   UNL A   1      35.465  34.593  28.797  1.00  0.00     0.014 A 
ATOM     43  C   UNL A   1      35.091  33.366  31.273  1.00  0.00     0.010 A 
ATOM     44  C   UNL A   1      36.532  33.964  29.421  1.00  0.00     0.010 A 
ATOM     45  C   UNL A   1      36.359  33.355  30.671  1.00  0.00    -0.014 A 
BRANCH  45  46
ATOM     46  C   UNL A   1      37.526  32.731  31.337  1.00  0.00     0.031 A 
ATOM     47  C   UNL A   1      38.205  31.548  30.703  1.00  0.00     0.074 A 
ATOM     48  C   UNL A   1      37.922  33.181  32.542  1.00  0.00     0.049 A 
ATOM     49  N   UNL A   1      39.185  30.815  31.165  1.00  0.00    -0.248 NA
ATOM     50  C   UNL A   1      37.693  31.111  29.393  1.00  0.00     0.031 C 
ATOM     51  C   UNL A   1      37.309  34.291  33.278  1.00  0.00     0.029 A 
ATOM     52  N   UNL A   1      38.931  32.753  33.366  1.00  0.00    -0.354 N 
ATOM     53  C   UNL A   1      39.389  29.821  30.216  1.00  0.00     0.074 A 
ATOM     54  C   UNL A   1      38.395  30.009  29.183  1.00  0.00     0.031 C 
ATOM     55  C   UNL A   1      37.978  34.477  34.427  1.00  0.00     0.029 A 
ATOM     56  C   UNL A   1      39.032  33.475  34.530  1.00  0.00     0.049 A 
ATOM     57  H   UNL A   1      39.526  32.001  33.143  1.00  0.00     0.167 HD
ATOM     58  C   UNL A   1      40.335  28.853  30.193  1.00  0.00     0.031 A 
ATOM     59  C   UNL A   1      39.877  33.336  35.568  1.00  0.00     0.031 A 
ATOM     60  C   UNL A   1      41.330  28.680  31.217  1.00  0.00     0.049 A 
ATOM     61  C   UNL A   1      40.915  32.251  35.524  1.00  0.00     0.074 A 
ATOM     62  C   UNL A   1      42.369  27.768  31.264  1.00  0.00     0.029 A 
ATOM     63  N   UNL A   1      41.407  29.440  32.374  1.00  0.00    -0.354 N 
ATOM     64  N   UNL A   1      41.137  31.360  34.588  1.00  0.00    -0.248 NA
ATOM     65  C   UNL A   1      41.824  32.160  36.674  1.00  0.00     0.031 C 
ATOM     66  C   UNL A   1      43.044  27.943  32.476  1.00  0.00     0.029 A 
ATOM     67  C   UNL A   1      42.464  29.002  33.154  1.00  0.00     0.049 A 
ATOM     68  H   UNL A   1      40.802  30.181  32.606  1.00  0.00     0.167 HD
ATOM     69  C   UNL A   1      42.228  30.620  35.023  1.00  0.00     0.074 A 
ATOM     70  C   UNL A   1      42.632  31.178  36.298  1.00  0.00     0.031 C 
ATOM     71  C   UNL A   1      42.844  29.572  34.422  1.00  0.00     0.031 A 
BRANCH  58  72
ATOM     72  C   UNL A   1      40.325  27.905  29.026  1.00  0.00    -0.014 A 
ATOM     73  C   UNL A   1      40.993  28.215  27.829  1.00  0.00     0.009 A 
ATOM     74  C   UNL A   1      39.654  26.678  29.127  1.00  0.00     0.009 A 
ATOM     75  C   UNL A   1      40.951  27.335  26.745  1.00  0.00     0.001 A 
ATOM     76  C   UNL A   1      39.641  25.785  28.053  1.00  0.00     0.001 A 
ATOM     77  C   UNL A   1      40.279  26.120  26.860  1.00  0.00     0.000 A 
ENDBRANCH  58  72
BRANCH  59  78
ATOM     78  C   UNL A   1      39.789  34.264  36.727  1.00  0.00    -0.014 A 
ATOM     79  C   UNL A   1      39.001  33.935  37.842  1.00  0.00     0.009 A 
ATOM     80  C   UNL A   1      40.493  35.478  36.728  1.00  0.00     0.009 A 
ATOM     81  C   UNL A   1      38.902  34.816  38.921  1.00  0.00     0.001 A 
ATOM     82  C   UNL A   1      40.415  36.342  37.822  1.00  0.00     0.001 A 
ATOM     83  C   UNL A   1      39.612  36.016  38.914  1.00  0.00     0.000 A 
ENDBRANCH  59  78
BRANCH  71  84
ATOM     84  C   UNL A   1      44.039  28.986  35.120  1.00  0.00    -0.014 A 
ATOM     85  C   UNL A   1      45.329  29.492  34.907  1.00  0.00     0.009 A 
ATOM     86  C   UNL A   1      43.859  27.941  36.040  1.00  0.00     0.009 A 
ATOM     87  C   UNL A   1      46.423  28.938  35.575  1.00  0.00     0.001 A 
ATOM     88  C   UNL A   1      44.949  27.410  36.730  1.00  0.00     0.001 A 
ATOM     89  C   UNL A   1      46.231  27.903  36.490  1.00  0.00     0.000 A 
ENDBRANCH  71  84
ENDBRANCH  45  46
ENDBRANCH  37  40
ENDBRANCH  35  36
ENDBRANCH  34  35
ENDBRANCH   1  34
TORSDOF 14
ENDMDL
MODEL 2
REMARK VINA RESULT:     -13.3      1.517      5.804
REMARK SMILES NC(=O)c1c(-c2ccc(Cl)cc2)csc1NC(=O)[C@H]1[C@@H](C(=O)NCCCNC(=O)c2ccc(-c3c4nc(c(-c5ccccc5)c5ccc([nH]5)c(-c5ccccc5)c5nc(c(-c6ccccc6)c6ccc3[nH]6)C=C5)C=C4)cc2)[C@@H]2CC[C@H]1O2
REMARK SMILES IDX 24 1 23 2 21 3 22 4 20 6 19 7 81 8 78 9 80 10 82 11 79 12
REMARK SMILES IDX 17 13 16 14 18 16 15 17 4 18 5 19 13 20 14 21 2 22 1 23 3 26
REMARK SMILES IDX 6 27 7 28 12 29 8 30 11 31 9 32 10 33 25 34 26 35 27 36
REMARK SMILES IDX 28 37 29 39 30 40 31 41 77 42 32 43 76 44 33 45 34 46 35 47
REMARK SMILES IDX 70 48 36 49 75 50 69 51 71 52 37 53 74 54 68 55 67 56 38 58
REMARK SMILES IDX 60 59 45 60 59 61 46 62 49 63 58 64 72 65 47 66 48 67 57 69
REMARK SMILES IDX 73 70 50 71 39 72 40 73 44 74 41 75 43 76 42 77 61 78 62 79
REMARK SMILES IDX 66 80 63 81 65 82 64 83 51 84 52 85 56 86 53 87 55 88 54 89
REMARK H PARENT 23 5 16 15 1 24 1 25 27 38 71 57 49 68
REMARK Flexibility Score: inf
ROOT
ATOM      1  C   UNL A   1      31.581  30.590  26.446  1.00  0.00     0.117 C 
ENDROOT
BRANCH   1   2
ATOM      2  N   UNL A   1      32.368  30.152  25.326  1.00  0.00    -0.356 N 
ATOM      3  C   UNL A   1      32.107  29.175  24.427  1.00  0.00     0.226 C 
ATOM      4  O   UNL A   1      32.913  29.055  23.498  1.00  0.00    -0.275 OA
ATOM      5  H   UNL A   1      33.216  30.634  25.192  1.00  0.00     0.163 HD
BRANCH   3   6
ATOM      6  C   UNL A   1      30.956  28.190  24.548  1.00  0.00     0.122 C 
ATOM      7  C   UNL A   1      30.980  26.959  25.480  1.00  0.00     0.123 C 
ATOM      8  C   UNL A   1      30.238  25.956  24.619  1.00  0.00     0.132 C 
ATOM      9  C   UNL A   1      30.501  27.587  23.206  1.00  0.00     0.132 C 
ATOM     10  C   UNL A   1      28.794  26.370  24.291  1.00  0.00     0.035 C 
ATOM     11  O   UNL A   1      30.862  26.189  23.336  1.00  0.00    -0.373 OA
ATOM     12  C   UNL A   1      28.985  27.421  23.195  1.00  0.00     0.035 C 
BRANCH   7  13
ATOM     13  C   UNL A   1      32.305  26.632  26.193  1.00  0.00     0.231 C 
ATOM     14  N   UNL A   1      33.226  25.647  26.012  1.00  0.00    -0.317 N 
ATOM     15  H   UNL A   1      34.002  25.776  26.604  1.00  0.00     0.170 HD
ATOM     16  O   UNL A   1      32.664  27.484  27.032  1.00  0.00    -0.274 OA
BRANCH  14  17
ATOM     17  C   UNL A   1      33.380  24.512  25.229  1.00  0.00     0.108 A 
ATOM     18  C   UNL A   1      33.088  23.192  25.598  1.00  0.00     0.082 A 
ATOM     19  C   UNL A   1      33.610  22.273  24.600  1.00  0.00     0.007 A 
ATOM     20  C   UNL A   1      34.105  22.945  23.501  1.00  0.00     0.076 A 
ATOM     21  S   UNL A   1      33.784  24.598  23.598  1.00  0.00    -0.125 S 
BRANCH  18  22
ATOM     22  C   UNL A   1      32.408  22.891  26.859  1.00  0.00     0.252 C 
ATOM     23  N   UNL A   1      33.019  22.042  27.726  1.00  0.00    -0.365 N 
ATOM     24  H   UNL A   1      32.589  21.819  28.583  1.00  0.00     0.159 HD
ATOM     25  H   UNL A   1      33.892  21.650  27.496  1.00  0.00     0.159 HD
ATOM     26  O   UNL A   1      31.339  23.412  27.168  1.00  0.00    -0.269 OA
ENDBRANCH  18  22
BRANCH  19  27
ATOM     27  C   UNL A   1      33.563  20.823  24.507  1.00  0.00    -0.017 A 
ATOM     28  C   UNL A   1      34.655  20.041  24.910  1.00  0.00     0.010 A 
ATOM     29  C   UNL A   1      32.477  20.225  23.857  1.00  0.00     0.010 A 
ATOM     30  C   UNL A   1      34.668  18.670  24.635  1.00  0.00     0.021 A 
ATOM     31  C   UNL A   1      32.495  18.857  23.582  1.00  0.00     0.021 A 
ATOM     32  C   UNL A   1      33.594  18.089  23.963  1.00  0.00     0.041 A 
ATOM     33  Cl  UNL A   1      33.637  16.414  23.571  1.00  0.00    -0.084 Cl
ENDBRANCH  19  27
ENDBRANCH  14  17
ENDBRANCH   7  13
ENDBRANCH   3   6
ENDBRANCH   1   2
BRANCH   1  34
ATOM     34  C   UNL A   1      31.500  32.093  26.602  1.00  0.00     0.042 C 
BRANCH  34  35
ATOM     35  C   UNL A   1      32.779  32.708  27.140  1.00  0.00     0.118 C 
BRANCH  35  36
ATOM     36  N   UNL A   1      32.555  33.992  27.803  1.00  0.00    -0.352 N 
ATOM     37  C   UNL A   1      33.239  34.596  28.828  1.00  0.00     0.251 C 
ATOM     38  H   UNL A   1      31.790  34.507  27.459  1.00  0.00     0.163 HD
ATOM     39  O   UNL A   1      32.769  35.588  29.381  1.00  0.00    -0.269 OA
BRANCH  37  40
ATOM     40  C   UNL A   1      34.521  34.040  29.303  1.00  0.00     0.039 A 
ATOM     41  C   UNL A   1      34.524  33.228  30.441  1.00  0.00     0.014 A 
ATOM     42  C   UNL A   1      35.717  34.322  28.642  1.00  0.00     0.014 A 
ATOM     43  C   UNL A   1      35.715  32.640  30.866  1.00  0.00     0.010 A 
ATOM     44  C   UNL A   1      36.877  33.649  28.996  1.00  0.00     0.010 A 
ATOM     45  C   UNL A   1      36.891  32.811  30.119  1.00  0.00    -0.014 A 
BRANCH  45  46
ATOM     46  C   UNL A   1      38.154  32.140  30.502  1.00  0.00     0.031 A 
ATOM     47  C   UNL A   1      39.093  32.806  31.470  1.00  0.00     0.074 A 
ATOM     48  C   UNL A   1      38.488  30.972  29.920  1.00  0.00     0.049 A 
ATOM     49  N   UNL A   1      40.279  32.420  31.866  1.00  0.00    -0.248 NA
ATOM     50  C   UNL A   1      38.656  34.091  32.041  1.00  0.00     0.031 C 
ATOM     51  C   UNL A   1      37.680  30.254  28.930  1.00  0.00     0.029 A 
ATOM     52  N   UNL A   1      39.601  30.186  30.073  1.00  0.00    -0.354 N 
ATOM     53  C   UNL A   1      40.736  33.423  32.712  1.00  0.00     0.074 A 
ATOM     54  C   UNL A   1      39.728  34.460  32.726  1.00  0.00     0.031 C 
ATOM     55  C   UNL A   1      38.308  29.117  28.592  1.00  0.00     0.029 A 
ATOM     56  C   UNL A   1      39.581  29.049  29.302  1.00  0.00     0.049 A 
ATOM     57  H   UNL A   1      40.343  30.415  30.678  1.00  0.00     0.167 HD
ATOM     58  C   UNL A   1      41.880  33.467  33.433  1.00  0.00     0.031 A 
ATOM     59  C   UNL A   1      40.491  28.066  29.178  1.00  0.00     0.031 A 
ATOM     60  C   UNL A   1      42.872  32.426  33.426  1.00  0.00     0.049 A 
ATOM     61  C   UNL A   1      41.757  28.139  29.983  1.00  0.00     0.074 A 
ATOM     62  C   UNL A   1      44.041  32.344  34.162  1.00  0.00     0.029 A 
ATOM     63  N   UNL A   1      42.808  31.284  32.642  1.00  0.00    -0.354 N 
ATOM     64  N   UNL A   1      42.145  29.063  30.829  1.00  0.00    -0.248 NA
ATOM     65  C   UNL A   1      42.705  27.029  29.824  1.00  0.00     0.031 C 
ATOM     66  C   UNL A   1      44.710  31.176  33.785  1.00  0.00     0.029 A 
ATOM     67  C   UNL A   1      43.929  30.501  32.859  1.00  0.00     0.049 A 
ATOM     68  H   UNL A   1      42.075  31.063  32.024  1.00  0.00     0.167 HD
ATOM     69  C   UNL A   1      43.368  28.633  31.324  1.00  0.00     0.074 A 
ATOM     70  C   UNL A   1      43.649  27.357  30.696  1.00  0.00     0.031 C 
ATOM     71  C   UNL A   1      44.188  29.236  32.220  1.00  0.00     0.031 A 
BRANCH  58  72
ATOM     72  C   UNL A   1      42.117  34.688  34.278  1.00  0.00    -0.014 A 
ATOM     73  C   UNL A   1      42.737  35.833  33.750  1.00  0.00     0.009 A 
ATOM     74  C   UNL A   1      41.702  34.701  35.618  1.00  0.00     0.009 A 
ATOM     75  C   UNL A   1      42.973  36.948  34.557  1.00  0.00     0.001 A 
ATOM     76  C   UNL A   1      41.910  35.830  36.414  1.00  0.00     0.001 A 
ATOM     77  C   UNL A   1      42.556  36.946  35.887  1.00  0.00     0.000 A 
ENDBRANCH  58  72
BRANCH  59  78
ATOM     78  C   UNL A   1      40.226  26.919  28.269  1.00  0.00    -0.014 A 
ATOM     79  C   UNL A   1      39.493  25.811  28.720  1.00  0.00     0.009 A 
ATOM     80  C   UNL A   1      40.700  26.928  26.948  1.00  0.00     0.009 A 
ATOM     81  C   UNL A   1      39.261  24.724  27.874  1.00  0.00     0.001 A 
ATOM     82  C   UNL A   1      40.441  25.853  26.096  1.00  0.00     0.001 A 
ATOM     83  C   UNL A   1      39.731  24.748  26.561  1.00  0.00     0.000 A 
ENDBRANCH  59  78
BRANCH  71  84
ATOM     84  C   UNL A   1      45.446  28.507  32.597  1.00  0.00    -0.014 A 
ATOM     85  C   UNL A   1      45.509  27.707  33.748  1.00  0.00     0.009 A 
ATOM     86  C   UNL A   1      46.571  28.590  31.762  1.00  0.00     0.009 A 
ATOM     87  C   UNL A   1      46.687  27.031  34.073  1.00  0.00     0.001 A 
ATOM     88  C   UNL A   1      47.736  27.888  32.072  1.00  0.00     0.001 A 
ATOM     89  C   UNL A   1      47.796  27.117  33.232  1.00  0.00     0.000 A 
ENDBRANCH  71  84
ENDBRANCH  45  46
ENDBRANCH  37  40
ENDBRANCH  35  36
ENDBRANCH  34  35
ENDBRANCH   1  34
TORSDOF 14
ENDMDL
MODEL 3
REMARK VINA RESULT:     -11.9      1.954      2.639
REMARK SMILES NC(=O)c1c(-c2ccc(Cl)cc2)csc1NC(=O)[C@H]1[C@@H](C(=O)NCCCNC(=O)c2ccc(-c3c4nc(c(-c5ccccc5)c5ccc([nH]5)c(-c5ccccc5)c5nc(c(-c6ccccc6)c6ccc3[nH]6)C=C5)C=C4)cc2)[C@@H]2CC[C@H]1O2
REMARK SMILES IDX 24 1 23 2 21 3 22 4 20 6 19 7 81 8 78 9 80 10 82 11 79 12
REMARK SMILES IDX 17 13 16 14 18 16 15 17 4 18 5 19 13 20 14 21 2 22 1 23 3 26
REMARK SMILES IDX 6 27 7 28 12 29 8 30 11 31 9 32 10 33 25 34 26 35 27 36
REMARK SMILES IDX 28 37 29 39 30 40 31 41 77 42 32 43 76 44 33 45 34 46 35 47
REMARK SMILES IDX 70 48 36 49 75 50 69 51 71 52 37 53 74 54 68 55 67 56 38 58
REMARK SMILES IDX 60 59 45 60 59 61 46 62 49 63 58 64 72 65 47 66 48 67 57 69
REMARK SMILES IDX 73 70 50 71 39 72 40 73 44 74 41 75 43 76 42 77 61 78 62 79
REMARK SMILES IDX 66 80 63 81 65 82 64 83 51 84 52 85 56 86 53 87 55 88 54 89
REMARK H PARENT 23 5 16 15 1 24 1 25 27 38 71 57 49 68
REMARK Flexibility Score: inf
ROOT
ATOM      1  C   UNL A   1      32.848  29.683  27.360  1.00  0.00     0.117 C 
ENDROOT
BRANCH   1   2
ATOM      2  N   UNL A   1      32.039  28.502  27.481  1.00  0.00    -0.356 N 
ATOM      3  C   UNL A   1      31.688  27.603  26.532  1.00  0.00     0.226 C 
ATOM      4  O   UNL A   1      31.049  26.619  26.919  1.00  0.00    -0.275 OA
ATOM      5  H   UNL A   1      31.691  28.320  28.384  1.00  0.00     0.163 HD
BRANCH   3   6
ATOM      6  C   UNL A   1      31.956  27.783  25.047  1.00  0.00     0.122 C 
ATOM      7  C   UNL A   1      31.208  27.004  23.944  1.00  0.00     0.123 C 
ATOM      8  C   UNL A   1      32.335  26.794  22.952  1.00  0.00     0.132 C 
ATOM      9  C   UNL A   1      33.432  27.598  24.648  1.00  0.00     0.132 C 
ATOM     10  C   UNL A   1      32.923  28.103  22.399  1.00  0.00     0.035 C 
ATOM     11  O   UNL A   1      33.404  26.395  23.839  1.00  0.00    -0.373 OA
ATOM     12  C   UNL A   1      33.805  28.589  23.552  1.00  0.00     0.035 C 
BRANCH   7  13
ATOM     13  C   UNL A   1      30.263  25.872  24.388  1.00  0.00     0.231 C 
ATOM     14  N   UNL A   1      30.427  24.525  24.488  1.00  0.00    -0.317 N 
ATOM     15  H   UNL A   1      29.629  24.100  24.879  1.00  0.00     0.170 HD
ATOM     16  O   UNL A   1      29.168  26.262  24.841  1.00  0.00    -0.274 OA
BRANCH  14  17
ATOM     17  C   UNL A   1      31.401  23.582  24.193  1.00  0.00     0.108 A 
ATOM     18  C   UNL A   1      32.515  23.253  24.978  1.00  0.00     0.082 A 
ATOM     19  C   UNL A   1      33.420  22.404  24.220  1.00  0.00     0.007 A 
ATOM     20  C   UNL A   1      32.871  22.030  23.011  1.00  0.00     0.076 A 
ATOM     21  S   UNL A   1      31.267  22.534  22.883  1.00  0.00    -0.125 S 
BRANCH  18  22
ATOM     22  C   UNL A   1      32.675  23.793  26.329  1.00  0.00     0.252 C 
ATOM     23  N   UNL A   1      33.666  24.699  26.539  1.00  0.00    -0.365 N 
ATOM     24  H   UNL A   1      33.801  25.082  27.436  1.00  0.00     0.159 HD
ATOM     25  H   UNL A   1      34.249  24.971  25.795  1.00  0.00     0.159 HD
ATOM     26  O   UNL A   1      31.922  23.488  27.250  1.00  0.00    -0.269 OA
ENDBRANCH  18  22
BRANCH  19  27
ATOM     27  C   UNL A   1      34.688  21.789  24.575  1.00  0.00    -0.017 A 
ATOM     28  C   UNL A   1      35.887  22.510  24.481  1.00  0.00     0.010 A 
ATOM     29  C   UNL A   1      34.717  20.418  24.855  1.00  0.00     0.010 A 
ATOM     30  C   UNL A   1      37.110  21.850  24.639  1.00  0.00     0.021 A 
ATOM     31  C   UNL A   1      35.939  19.762  25.009  1.00  0.00     0.021 A 
ATOM     32  C   UNL A   1      37.129  20.478  24.890  1.00  0.00     0.041 A 
ATOM     33  Cl  UNL A   1      38.634  19.655  25.025  1.00  0.00    -0.084 Cl
ENDBRANCH  19  27
ENDBRANCH  14  17
ENDBRANCH   7  13
ENDBRANCH   3   6
ENDBRANCH   1   2
BRANCH   1  34
ATOM     34  C   UNL A   1      32.062  30.972  27.268  1.00  0.00     0.042 C 
BRANCH  34  35
ATOM     35  C   UNL A   1      32.886  32.141  26.760  1.00  0.00     0.118 C 
BRANCH  35  36
ATOM     36  N   UNL A   1      32.524  33.408  27.393  1.00  0.00    -0.352 N 
ATOM     37  C   UNL A   1      33.118  34.090  28.426  1.00  0.00     0.251 C 
ATOM     38  H   UNL A   1      31.724  33.843  27.018  1.00  0.00     0.163 HD
ATOM     39  O   UNL A   1      32.540  35.041  28.946  1.00  0.00    -0.269 OA
BRANCH  37  40
ATOM     40  C   UNL A   1      34.431  33.665  28.946  1.00  0.00     0.039 A 
ATOM     41  C   UNL A   1      34.474  32.812  30.054  1.00  0.00     0.014 A 
ATOM     42  C   UNL A   1      35.616  34.107  28.359  1.00  0.00     0.014 A 
ATOM     43  C   UNL A   1      35.703  32.346  30.519  1.00  0.00     0.010 A 
ATOM     44  C   UNL A   1      36.828  33.557  28.749  1.00  0.00     0.010 A 
ATOM     45  C   UNL A   1      36.885  32.681  29.841  1.00  0.00    -0.014 A 
BRANCH  45  46
ATOM     46  C   UNL A   1      38.199  32.143  30.265  1.00  0.00     0.031 A 
ATOM     47  C   UNL A   1      38.689  30.837  29.704  1.00  0.00     0.074 A 
ATOM     48  C   UNL A   1      38.909  32.792  31.207  1.00  0.00     0.049 A 
ATOM     49  N   UNL A   1      39.769  30.162  30.008  1.00  0.00    -0.248 NA
ATOM     50  C   UNL A   1      37.839  30.186  28.693  1.00  0.00     0.031 C 
ATOM     51  C   UNL A   1      38.511  34.043  31.860  1.00  0.00     0.029 A 
ATOM     52  N   UNL A   1      40.112  32.483  31.786  1.00  0.00    -0.354 N 
ATOM     53  C   UNL A   1      39.713  29.002  29.246  1.00  0.00     0.074 A 
ATOM     54  C   UNL A   1      38.469  29.036  28.510  1.00  0.00     0.031 C 
ATOM     55  C   UNL A   1      39.471  34.411  32.722  1.00  0.00     0.029 A 
ATOM     56  C   UNL A   1      40.525  33.403  32.719  1.00  0.00     0.049 A 
ATOM     57  H   UNL A   1      40.631  31.679  31.554  1.00  0.00     0.167 HD
ATOM     58  C   UNL A   1      40.627  28.009  29.147  1.00  0.00     0.031 A 
ATOM     59  C   UNL A   1      41.627  33.425  33.491  1.00  0.00     0.031 A 
ATOM     60  C   UNL A   1      41.870  27.988  29.870  1.00  0.00     0.049 A 
ATOM     61  C   UNL A   1      42.624  32.308  33.369  1.00  0.00     0.074 A 
ATOM     62  C   UNL A   1      42.892  27.059  29.801  1.00  0.00     0.029 A 
ATOM     63  N   UNL A   1      42.256  28.946  30.795  1.00  0.00    -0.354 N 
ATOM     64  N   UNL A   1      42.589  31.251  32.594  1.00  0.00    -0.248 NA
ATOM     65  C   UNL A   1      43.819  32.394  34.220  1.00  0.00     0.031 C 
ATOM     66  C   UNL A   1      43.875  27.427  30.724  1.00  0.00     0.029 A 
ATOM     67  C   UNL A   1      43.493  28.617  31.323  1.00  0.00     0.049 A 
ATOM     68  H   UNL A   1      41.730  29.740  31.041  1.00  0.00     0.167 HD
ATOM     69  C   UNL A   1      43.767  30.560  32.843  1.00  0.00     0.074 A 
ATOM     70  C   UNL A   1      44.502  31.328  33.828  1.00  0.00     0.031 C 
ATOM     71  C   UNL A   1      44.204  29.395  32.305  1.00  0.00     0.031 A 
BRANCH  58  72
ATOM     72  C   UNL A   1      40.305  26.863  28.228  1.00  0.00    -0.014 A 
ATOM     73  C   UNL A   1      40.776  26.833  26.905  1.00  0.00     0.009 A 
ATOM     74  C   UNL A   1      39.533  25.788  28.695  1.00  0.00     0.009 A 
ATOM     75  C   UNL A   1      40.445  25.774  26.057  1.00  0.00     0.001 A 
ATOM     76  C   UNL A   1      39.230  24.715  27.855  1.00  0.00     0.001 A 
ATOM     77  C   UNL A   1      39.676  24.714  26.535  1.00  0.00     0.000 A 
ENDBRANCH  58  72
BRANCH  59  78
ATOM     78  C   UNL A   1      41.852  34.553  34.432  1.00  0.00    -0.014 A 
ATOM     79  C   UNL A   1      41.358  34.494  35.744  1.00  0.00     0.009 A 
ATOM     80  C   UNL A   1      42.567  35.692  34.027  1.00  0.00     0.009 A 
ATOM     81  C   UNL A   1      41.552  35.563  36.622  1.00  0.00     0.001 A 
ATOM     82  C   UNL A   1      42.784  36.745  34.916  1.00  0.00     0.001 A 
ATOM     83  C   UNL A   1      42.269  36.685  36.210  1.00  0.00     0.000 A 
ENDBRANCH  59  78
BRANCH  71  84
ATOM     84  C   UNL A   1      45.553  28.901  32.745  1.00  0.00    -0.014 A 
ATOM     85  C   UNL A   1      45.699  28.088  33.879  1.00  0.00     0.009 A 
ATOM     86  C   UNL A   1      46.689  29.219  31.984  1.00  0.00     0.009 A 
ATOM     87  C   UNL A   1      46.962  27.633  34.262  1.00  0.00     0.001 A 
ATOM     88  C   UNL A   1      47.945  28.737  32.351  1.00  0.00     0.001 A 
ATOM     89  C   UNL A   1      48.082  27.952  33.495  1.00  0.00     0.000 A 
ENDBRANCH  71  84
ENDBRANCH  45  46
ENDBRANCH  37  40
ENDBRANCH  35  36
ENDBRANCH  34  35
ENDBRANCH   1  34
TORSDOF 14
ENDMDL
