MODEL 1
REMARK VINA RESULT:     -11.4      0.000      0.000
REMARK SMILES O=C(Cc1ccn[nH]1)Nc1sc2c(c1C(=O)NCCCNC(=O)c1ccc(-c3c4nc(c(-c5ccccc5)c5ccc([nH]5)c(-c5ccccc5)c5nc(c(-c6ccccc6)c6ccc3[nH]6)C=C5)C=C4)cc1)CCC2
REMARK SMILES IDX 18 1 17 2 15 3 16 4 14 6 10 7 11 8 12 9 13 10 74 11 72 12
REMARK SMILES IDX 73 13 9 14 1 15 2 16 3 18 4 19 5 20 8 21 6 22 7 23 19 25
REMARK SMILES IDX 20 26 21 27 22 28 23 30 24 31 25 32 71 33 26 34 70 35 27 36
REMARK SMILES IDX 28 37 29 38 64 39 30 40 69 41 63 42 65 43 31 44 68 45 62 46
REMARK SMILES IDX 61 47 32 49 54 50 39 51 53 52 40 53 43 54 52 55 66 56 41 57
REMARK SMILES IDX 42 58 51 60 67 61 44 62 33 63 34 64 38 65 35 66 37 67 36 68
REMARK SMILES IDX 55 69 56 70 60 71 57 72 59 73 58 74 45 75 46 76 50 77 47 78
REMARK SMILES IDX 49 79 48 80
REMARK H PARENT 17 5 9 17 8 24 21 29 65 48 43 59
REMARK Flexibility Score: inf
ROOT
ATOM      1  C   UNL A   1      37.354  32.472  34.249  1.00  0.00     0.118 C 
ENDROOT
BRANCH   1   2
ATOM      2  N   UNL A   1      36.158  32.698  33.479  1.00  0.00    -0.352 N 
ATOM      3  C   UNL A   1      35.641  32.104  32.359  1.00  0.00     0.254 C 
ATOM      4  O   UNL A   1      34.429  32.317  32.229  1.00  0.00    -0.269 OA
ATOM      5  H   UNL A   1      35.599  33.429  33.829  1.00  0.00     0.163 HD
BRANCH   3   6
ATOM      6  C   UNL A   1      36.386  31.213  31.441  1.00  0.00     0.078 A 
ATOM      7  C   UNL A   1      36.464  31.538  30.078  1.00  0.00     0.108 A 
ATOM      8  S   UNL A   1      37.027  30.291  29.059  1.00  0.00    -0.122 S 
ATOM      9  C   UNL A   1      37.470  29.409  30.397  1.00  0.00     0.011 A 
ATOM     10  C   UNL A   1      37.089  29.957  31.600  1.00  0.00    -0.019 A 
ATOM     11  C   UNL A   1      38.175  28.108  30.480  1.00  0.00     0.047 C 
ATOM     12  C   UNL A   1      37.516  29.025  32.682  1.00  0.00     0.038 C 
ATOM     13  C   UNL A   1      38.493  28.039  31.988  1.00  0.00     0.010 C 
BRANCH   7  14
ATOM     14  N   UNL A   1      36.145  32.669  29.361  1.00  0.00    -0.317 N 
ATOM     15  O   UNL A   1      34.069  31.908  28.632  1.00  0.00    -0.274 OA
ATOM     16  C   UNL A   1      34.973  32.740  28.616  1.00  0.00     0.230 C 
ATOM     17  H   UNL A   1      36.756  33.440  29.375  1.00  0.00     0.170 HD
BRANCH  16  18
ATOM     18  C   UNL A   1      34.859  34.040  27.836  1.00  0.00     0.155 C 
BRANCH  18  19
ATOM     19  C   UNL A   1      34.186  35.122  28.621  1.00  0.00     0.044 A 
ATOM     20  C   UNL A   1      33.511  35.071  29.824  1.00  0.00     0.045 A 
ATOM     21  N   UNL A   1      34.112  36.433  28.225  1.00  0.00    -0.282 N 
ATOM     22  C   UNL A   1      33.031  36.377  30.029  1.00  0.00     0.135 A 
ATOM     23  N   UNL A   1      33.376  37.202  29.040  1.00  0.00    -0.184 NA
ATOM     24  H   UNL A   1      34.557  36.778  27.418  1.00  0.00     0.190 HD
ENDBRANCH  18  19
ENDBRANCH  16  18
ENDBRANCH   7  14
ENDBRANCH   3   6
ENDBRANCH   1   2
BRANCH   1  25
ATOM     25  C   UNL A   1      38.453  33.483  33.929  1.00  0.00     0.042 C 
BRANCH  25  26
ATOM     26  C   UNL A   1      39.470  32.959  32.937  1.00  0.00     0.118 C 
BRANCH  26  27
ATOM     27  N   UNL A   1      40.063  34.033  32.141  1.00  0.00    -0.352 N 
ATOM     28  C   UNL A   1      41.097  33.958  31.231  1.00  0.00     0.251 C 
ATOM     29  H   UNL A   1      39.672  34.928  32.274  1.00  0.00     0.163 HD
ATOM     30  O   UNL A   1      41.715  34.956  30.902  1.00  0.00    -0.269 OA
BRANCH  28  31
ATOM     31  C   UNL A   1      41.451  32.638  30.682  1.00  0.00     0.039 A 
ATOM     32  C   UNL A   1      42.779  32.215  30.654  1.00  0.00     0.014 A 
ATOM     33  C   UNL A   1      40.425  31.799  30.256  1.00  0.00     0.014 A 
ATOM     34  C   UNL A   1      43.049  30.902  30.286  1.00  0.00     0.010 A 
ATOM     35  C   UNL A   1      40.673  30.462  30.069  1.00  0.00     0.010 A 
ATOM     36  C   UNL A   1      41.985  30.014  30.034  1.00  0.00    -0.014 A 
BRANCH  36  37
ATOM     37  C   UNL A   1      42.251  28.588  29.869  1.00  0.00     0.031 A 
ATOM     38  C   UNL A   1      42.948  27.967  31.026  1.00  0.00     0.074 A 
ATOM     39  C   UNL A   1      41.787  27.825  28.857  1.00  0.00     0.049 A 
ATOM     40  N   UNL A   1      44.175  27.567  31.068  1.00  0.00    -0.248 NA
ATOM     41  C   UNL A   1      42.258  27.926  32.327  1.00  0.00     0.031 C 
ATOM     42  C   UNL A   1      40.833  28.174  27.799  1.00  0.00     0.029 A 
ATOM     43  N   UNL A   1      42.014  26.504  28.624  1.00  0.00    -0.354 N 
ATOM     44  C   UNL A   1      44.358  27.029  32.334  1.00  0.00     0.074 A 
ATOM     45  C   UNL A   1      43.216  27.435  33.116  1.00  0.00     0.031 C 
ATOM     46  C   UNL A   1      40.384  27.047  27.201  1.00  0.00     0.029 A 
ATOM     47  C   UNL A   1      41.154  25.923  27.700  1.00  0.00     0.049 A 
ATOM     48  H   UNL A   1      42.730  25.999  29.074  1.00  0.00     0.167 HD
ATOM     49  C   UNL A   1      45.301  26.074  32.560  1.00  0.00     0.031 A 
ATOM     50  C   UNL A   1      41.072  24.607  27.382  1.00  0.00     0.031 A 
ATOM     51  C   UNL A   1      46.276  26.023  31.496  1.00  0.00     0.049 A 
ATOM     52  C   UNL A   1      42.351  23.979  27.787  1.00  0.00     0.074 A 
ATOM     53  C   UNL A   1      47.127  26.947  30.920  1.00  0.00     0.029 A 
ATOM     54  N   UNL A   1      46.163  25.004  30.579  1.00  0.00    -0.354 N 
ATOM     55  N   UNL A   1      43.489  24.234  27.211  1.00  0.00    -0.248 NA
ATOM     56  C   UNL A   1      42.435  23.410  29.122  1.00  0.00     0.031 C 
ATOM     57  C   UNL A   1      47.056  26.686  29.519  1.00  0.00     0.029 A 
ATOM     58  C   UNL A   1      46.243  25.567  29.331  1.00  0.00     0.049 A 
ATOM     59  H   UNL A   1      46.046  24.048  30.782  1.00  0.00     0.167 HD
ATOM     60  C   UNL A   1      44.400  24.295  28.254  1.00  0.00     0.074 A 
ATOM     61  C   UNL A   1      43.713  23.685  29.393  1.00  0.00     0.031 C 
ATOM     62  C   UNL A   1      45.512  25.086  28.179  1.00  0.00     0.031 A 
BRANCH  49  63
ATOM     63  C   UNL A   1      45.077  24.920  33.504  1.00  0.00    -0.014 A 
ATOM     64  C   UNL A   1      44.218  23.878  33.115  1.00  0.00     0.009 A 
ATOM     65  C   UNL A   1      45.449  24.958  34.862  1.00  0.00     0.009 A 
ATOM     66  C   UNL A   1      43.709  22.968  34.050  1.00  0.00     0.001 A 
ATOM     67  C   UNL A   1      44.979  24.028  35.790  1.00  0.00     0.001 A 
ATOM     68  C   UNL A   1      44.085  23.047  35.388  1.00  0.00     0.000 A 
ENDBRANCH  49  63
BRANCH  50  69
ATOM     69  C   UNL A   1      39.889  23.801  27.012  1.00  0.00    -0.014 A 
ATOM     70  C   UNL A   1      38.659  24.427  26.746  1.00  0.00     0.009 A 
ATOM     71  C   UNL A   1      40.036  22.457  26.623  1.00  0.00     0.009 A 
ATOM     72  C   UNL A   1      37.639  23.752  26.063  1.00  0.00     0.001 A 
ATOM     73  C   UNL A   1      39.014  21.782  25.946  1.00  0.00     0.001 A 
ATOM     74  C   UNL A   1      37.823  22.435  25.648  1.00  0.00     0.000 A 
ENDBRANCH  50  69
BRANCH  62  75
ATOM     75  C   UNL A   1      45.865  25.705  26.845  1.00  0.00    -0.014 A 
ATOM     76  C   UNL A   1      45.260  26.870  26.339  1.00  0.00     0.009 A 
ATOM     77  C   UNL A   1      46.953  25.167  26.141  1.00  0.00     0.009 A 
ATOM     78  C   UNL A   1      45.712  27.456  25.151  1.00  0.00     0.001 A 
ATOM     79  C   UNL A   1      47.419  25.764  24.966  1.00  0.00     0.001 A 
ATOM     80  C   UNL A   1      46.794  26.905  24.468  1.00  0.00     0.000 A 
ENDBRANCH  62  75
ENDBRANCH  36  37
ENDBRANCH  28  31
ENDBRANCH  26  27
ENDBRANCH  25  26
ENDBRANCH   1  25
TORSDOF 13
ENDMDL
MODEL 2
REMARK VINA RESULT:     -11.2      4.809     10.464
REMARK SMILES O=C(Cc1ccn[nH]1)Nc1sc2c(c1C(=O)NCCCNC(=O)c1ccc(-c3c4nc(c(-c5ccccc5)c5ccc([nH]5)c(-c5ccccc5)c5nc(c(-c6ccccc6)c6ccc3[nH]6)C=C5)C=C4)cc1)CCC2
REMARK SMILES IDX 18 1 17 2 15 3 16 4 14 6 10 7 11 8 12 9 13 10 74 11 72 12
REMARK SMILES IDX 73 13 9 14 1 15 2 16 3 18 4 19 5 20 8 21 6 22 7 23 19 25
REMARK SMILES IDX 20 26 21 27 22 28 23 30 24 31 25 32 71 33 26 34 70 35 27 36
REMARK SMILES IDX 28 37 29 38 64 39 30 40 69 41 63 42 65 43 31 44 68 45 62 46
REMARK SMILES IDX 61 47 32 49 54 50 39 51 53 52 40 53 43 54 52 55 66 56 41 57
REMARK SMILES IDX 42 58 51 60 67 61 44 62 33 63 34 64 38 65 35 66 37 67 36 68
REMARK SMILES IDX 55 69 56 70 60 71 57 72 59 73 58 74 45 75 46 76 50 77 47 78
REMARK SMILES IDX 49 79 48 80
REMARK H PARENT 17 5 9 17 8 24 21 29 65 48 43 59
REMARK Flexibility Score: inf
ROOT
ATOM      1  C   UNL A   1      37.206  23.264  25.586  1.00  0.00     0.118 C 
ENDROOT
BRANCH   1   2
ATOM      2  N   UNL A   1      36.408  23.033  24.409  1.00  0.00    -0.352 N 
ATOM      3  C   UNL A   1      35.139  23.403  24.053  1.00  0.00     0.254 C 
ATOM      4  O   UNL A   1      34.956  23.345  22.830  1.00  0.00    -0.269 OA
ATOM      5  H   UNL A   1      36.869  22.500  23.722  1.00  0.00     0.163 HD
BRANCH   3   6
ATOM      6  C   UNL A   1      34.107  23.924  24.978  1.00  0.00     0.078 A 
ATOM      7  C   UNL A   1      33.322  23.021  25.712  1.00  0.00     0.108 A 
ATOM      8  S   UNL A   1      31.946  23.692  26.466  1.00  0.00    -0.122 S 
ATOM      9  C   UNL A   1      32.507  25.217  26.113  1.00  0.00     0.011 A 
ATOM     10  C   UNL A   1      33.634  25.248  25.325  1.00  0.00    -0.019 A 
ATOM     11  C   UNL A   1      31.951  26.538  26.488  1.00  0.00     0.047 C 
ATOM     12  C   UNL A   1      33.971  26.677  25.065  1.00  0.00     0.038 C 
ATOM     13  C   UNL A   1      33.107  27.474  26.078  1.00  0.00     0.010 C 
BRANCH   7  14
ATOM     14  N   UNL A   1      33.407  21.665  25.934  1.00  0.00    -0.317 N 
ATOM     15  O   UNL A   1      32.212  21.040  24.036  1.00  0.00    -0.274 OA
ATOM     16  C   UNL A   1      32.768  20.758  25.096  1.00  0.00     0.230 C 
ATOM     17  H   UNL A   1      33.929  21.331  26.699  1.00  0.00     0.170 HD
BRANCH  16  18
ATOM     18  C   UNL A   1      32.921  19.322  25.570  1.00  0.00     0.155 C 
BRANCH  18  19
ATOM     19  C   UNL A   1      33.209  18.375  24.447  1.00  0.00     0.044 A 
ATOM     20  C   UNL A   1      34.309  17.576  24.207  1.00  0.00     0.045 A 
ATOM     21  N   UNL A   1      32.368  18.152  23.388  1.00  0.00    -0.282 N 
ATOM     22  C   UNL A   1      34.053  16.965  22.967  1.00  0.00     0.135 A 
ATOM     23  N   UNL A   1      32.879  17.337  22.455  1.00  0.00    -0.184 NA
ATOM     24  H   UNL A   1      31.471  18.553  23.318  1.00  0.00     0.190 HD
ENDBRANCH  18  19
ENDBRANCH  16  18
ENDBRANCH   7  14
ENDBRANCH   3   6
ENDBRANCH   1   2
BRANCH   1  25
ATOM     25  C   UNL A   1      38.310  22.222  25.755  1.00  0.00     0.042 C 
BRANCH  25  26
ATOM     26  C   UNL A   1      39.449  22.701  26.631  1.00  0.00     0.118 C 
BRANCH  26  27
ATOM     27  N   UNL A   1      40.747  22.235  26.145  1.00  0.00    -0.352 N 
ATOM     28  C   UNL A   1      41.871  22.977  25.848  1.00  0.00     0.251 C 
ATOM     29  H   UNL A   1      40.828  21.262  26.011  1.00  0.00     0.163 HD
ATOM     30  O   UNL A   1      42.752  22.524  25.139  1.00  0.00    -0.269 OA
BRANCH  28  31
ATOM     31  C   UNL A   1      41.971  24.342  26.393  1.00  0.00     0.039 A 
ATOM     32  C   UNL A   1      41.459  25.428  25.684  1.00  0.00     0.014 A 
ATOM     33  C   UNL A   1      42.526  24.513  27.659  1.00  0.00     0.014 A 
ATOM     34  C   UNL A   1      41.423  26.669  26.308  1.00  0.00     0.010 A 
ATOM     35  C   UNL A   1      42.326  25.690  28.335  1.00  0.00     0.010 A 
ATOM     36  C   UNL A   1      41.820  26.788  27.654  1.00  0.00    -0.014 A 
BRANCH  36  37
ATOM     37  C   UNL A   1      41.575  28.030  28.378  1.00  0.00     0.031 A 
ATOM     38  C   UNL A   1      42.597  29.082  28.135  1.00  0.00     0.074 A 
ATOM     39  C   UNL A   1      40.458  28.309  29.084  1.00  0.00     0.049 A 
ATOM     40  N   UNL A   1      43.497  29.494  28.963  1.00  0.00    -0.248 NA
ATOM     41  C   UNL A   1      42.736  29.629  26.774  1.00  0.00     0.031 C 
ATOM     42  C   UNL A   1      39.213  27.540  29.186  1.00  0.00     0.029 A 
ATOM     43  N   UNL A   1      40.172  29.428  29.803  1.00  0.00    -0.354 N 
ATOM     44  C   UNL A   1      44.189  30.501  28.305  1.00  0.00     0.074 A 
ATOM     45  C   UNL A   1      43.803  30.419  26.917  1.00  0.00     0.031 C 
ATOM     46  C   UNL A   1      38.240  28.319  29.709  1.00  0.00     0.029 A 
ATOM     47  C   UNL A   1      38.834  29.566  30.151  1.00  0.00     0.049 A 
ATOM     48  H   UNL A   1      40.858  30.088  30.057  1.00  0.00     0.167 HD
ATOM     49  C   UNL A   1      44.819  31.488  29.000  1.00  0.00     0.031 A 
ATOM     50  C   UNL A   1      38.256  30.639  30.746  1.00  0.00     0.031 A 
ATOM     51  C   UNL A   1      45.011  31.128  30.384  1.00  0.00     0.049 A 
ATOM     52  C   UNL A   1      39.335  31.407  31.408  1.00  0.00     0.074 A 
ATOM     53  C   UNL A   1      45.621  30.069  31.032  1.00  0.00     0.029 A 
ATOM     54  N   UNL A   1      44.161  31.687  31.310  1.00  0.00    -0.354 N 
ATOM     55  N   UNL A   1      40.002  30.967  32.435  1.00  0.00    -0.248 NA
ATOM     56  C   UNL A   1      39.976  32.468  30.649  1.00  0.00     0.031 C 
ATOM     57  C   UNL A   1      44.739  29.741  32.104  1.00  0.00     0.029 A 
ATOM     58  C   UNL A   1      43.697  30.669  32.105  1.00  0.00     0.049 A 
ATOM     59  H   UNL A   1      43.929  32.640  31.388  1.00  0.00     0.167 HD
ATOM     60  C   UNL A   1      41.311  31.354  32.191  1.00  0.00     0.074 A 
ATOM     61  C   UNL A   1      41.217  32.356  31.130  1.00  0.00     0.031 C 
ATOM     62  C   UNL A   1      42.365  30.626  32.666  1.00  0.00     0.031 A 
BRANCH  49  63
ATOM     63  C   UNL A   1      44.850  32.919  28.527  1.00  0.00    -0.014 A 
ATOM     64  C   UNL A   1      43.664  33.672  28.553  1.00  0.00     0.009 A 
ATOM     65  C   UNL A   1      45.927  33.462  27.798  1.00  0.00     0.009 A 
ATOM     66  C   UNL A   1      43.545  34.867  27.832  1.00  0.00     0.001 A 
ATOM     67  C   UNL A   1      45.827  34.673  27.112  1.00  0.00     0.001 A 
ATOM     68  C   UNL A   1      44.625  35.363  27.107  1.00  0.00     0.000 A 
ENDBRANCH  49  63
BRANCH  50  69
ATOM     69  C   UNL A   1      36.900  31.199  30.561  1.00  0.00    -0.014 A 
ATOM     70  C   UNL A   1      36.084  31.466  31.675  1.00  0.00     0.009 A 
ATOM     71  C   UNL A   1      36.520  31.754  29.326  1.00  0.00     0.009 A 
ATOM     72  C   UNL A   1      34.968  32.306  31.567  1.00  0.00     0.001 A 
ATOM     73  C   UNL A   1      35.402  32.588  29.218  1.00  0.00     0.001 A 
ATOM     74  C   UNL A   1      34.637  32.880  30.343  1.00  0.00     0.000 A 
ENDBRANCH  50  69
BRANCH  62  75
ATOM     75  C   UNL A   1      42.088  29.530  33.671  1.00  0.00    -0.014 A 
ATOM     76  C   UNL A   1      41.704  28.224  33.315  1.00  0.00     0.009 A 
ATOM     77  C   UNL A   1      42.364  29.792  35.021  1.00  0.00     0.009 A 
ATOM     78  C   UNL A   1      41.574  27.224  34.287  1.00  0.00     0.001 A 
ATOM     79  C   UNL A   1      42.255  28.789  35.988  1.00  0.00     0.001 A 
ATOM     80  C   UNL A   1      41.854  27.507  35.622  1.00  0.00     0.000 A 
ENDBRANCH  62  75
ENDBRANCH  36  37
ENDBRANCH  28  31
ENDBRANCH  26  27
ENDBRANCH  25  26
ENDBRANCH   1  25
TORSDOF 13
ENDMDL
MODEL 3
REMARK VINA RESULT:     -11.2      3.935     11.488
REMARK SMILES O=C(Cc1ccn[nH]1)Nc1sc2c(c1C(=O)NCCCNC(=O)c1ccc(-c3c4nc(c(-c5ccccc5)c5ccc([nH]5)c(-c5ccccc5)c5nc(c(-c6ccccc6)c6ccc3[nH]6)C=C5)C=C4)cc1)CCC2
REMARK SMILES IDX 18 1 17 2 15 3 16 4 14 6 10 7 11 8 12 9 13 10 74 11 72 12
REMARK SMILES IDX 73 13 9 14 1 15 2 16 3 18 4 19 5 20 8 21 6 22 7 23 19 25
REMARK SMILES IDX 20 26 21 27 22 28 23 30 24 31 25 32 71 33 26 34 70 35 27 36
REMARK SMILES IDX 28 37 29 38 64 39 30 40 69 41 63 42 65 43 31 44 68 45 62 46
REMARK SMILES IDX 61 47 32 49 54 50 39 51 53 52 40 53 43 54 52 55 66 56 41 57
REMARK SMILES IDX 42 58 51 60 67 61 44 62 33 63 34 64 38 65 35 66 37 67 36 68
REMARK SMILES IDX 55 69 56 70 60 71 57 72 59 73 58 74 45 75 46 76 50 77 47 78
REMARK SMILES IDX 49 79 48 80
REMARK H PARENT 17 5 9 17 8 24 21 29 65 48 43 59
REMARK Flexibility Score: inf
ROOT
ATOM      1  C   UNL A   1      44.595  24.662  27.241  1.00  0.00     0.118 C 
ENDROOT
BRANCH   1   2
ATOM      2  N   UNL A   1      44.431  23.877  26.044  1.00  0.00    -0.352 N 
ATOM      3  C   UNL A   1      43.337  23.339  25.422  1.00  0.00     0.254 C 
ATOM      4  O   UNL A   1      43.556  23.067  24.234  1.00  0.00    -0.269 OA
ATOM      5  H   UNL A   1      45.278  23.689  25.580  1.00  0.00     0.163 HD
BRANCH   3   6
ATOM      6  C   UNL A   1      41.996  23.182  26.031  1.00  0.00     0.078 A 
ATOM      7  C   UNL A   1      41.378  21.922  26.018  1.00  0.00     0.108 A 
ATOM      8  S   UNL A   1      39.718  21.919  26.414  1.00  0.00    -0.122 S 
ATOM      9  C   UNL A   1      39.841  23.501  26.908  1.00  0.00     0.011 A 
ATOM     10  C   UNL A   1      41.060  24.088  26.663  1.00  0.00    -0.019 A 
ATOM     11  C   UNL A   1      38.822  24.378  27.533  1.00  0.00     0.047 C 
ATOM     12  C   UNL A   1      40.985  25.506  27.117  1.00  0.00     0.038 C 
ATOM     13  C   UNL A   1      39.689  25.577  27.968  1.00  0.00     0.010 C 
BRANCH   7  14
ATOM     14  N   UNL A   1      41.826  20.657  25.713  1.00  0.00    -0.317 N 
ATOM     15  O   UNL A   1      42.028  19.941  27.919  1.00  0.00    -0.274 OA
ATOM     16  C   UNL A   1      42.194  19.765  26.713  1.00  0.00     0.230 C 
ATOM     17  H   UNL A   1      41.887  20.379  24.771  1.00  0.00     0.170 HD
BRANCH  16  18
ATOM     18  C   UNL A   1      42.738  18.460  26.156  1.00  0.00     0.155 C 
BRANCH  18  19
ATOM     19  C   UNL A   1      44.071  18.630  25.496  1.00  0.00     0.044 A 
ATOM     20  C   UNL A   1      44.416  19.272  24.323  1.00  0.00     0.045 A 
ATOM     21  N   UNL A   1      45.246  18.117  25.982  1.00  0.00    -0.282 N 
ATOM     22  C   UNL A   1      45.795  19.040  24.172  1.00  0.00     0.135 A 
ATOM     23  N   UNL A   1      46.296  18.313  25.172  1.00  0.00    -0.184 NA
ATOM     24  H   UNL A   1      45.314  17.649  26.845  1.00  0.00     0.190 HD
ENDBRANCH  18  19
ENDBRANCH  16  18
ENDBRANCH   7  14
ENDBRANCH   3   6
ENDBRANCH   1   2
BRANCH   1  25
ATOM     25  C   UNL A   1      45.843  25.542  27.194  1.00  0.00     0.042 C 
BRANCH  25  26
ATOM     26  C   UNL A   1      46.099  26.278  28.492  1.00  0.00     0.118 C 
BRANCH  26  27
ATOM     27  N   UNL A   1      46.059  25.382  29.647  1.00  0.00    -0.352 N 
ATOM     28  C   UNL A   1      45.388  25.549  30.841  1.00  0.00     0.251 C 
ATOM     29  H   UNL A   1      46.579  24.551  29.560  1.00  0.00     0.163 HD
ATOM     30  O   UNL A   1      45.707  24.915  31.832  1.00  0.00    -0.269 OA
BRANCH  28  31
ATOM     31  C   UNL A   1      44.290  26.530  30.896  1.00  0.00     0.039 A 
ATOM     32  C   UNL A   1      44.323  27.579  31.813  1.00  0.00     0.014 A 
ATOM     33  C   UNL A   1      43.258  26.423  29.968  1.00  0.00     0.014 A 
ATOM     34  C   UNL A   1      43.356  28.573  31.717  1.00  0.00     0.010 A 
ATOM     35  C   UNL A   1      42.418  27.489  29.760  1.00  0.00     0.010 A 
ATOM     36  C   UNL A   1      42.427  28.546  30.659  1.00  0.00    -0.014 A 
BRANCH  36  37
ATOM     37  C   UNL A   1      41.560  29.695  30.422  1.00  0.00     0.031 A 
ATOM     38  C   UNL A   1      42.292  30.942  30.074  1.00  0.00     0.074 A 
ATOM     39  C   UNL A   1      40.212  29.648  30.351  1.00  0.00     0.049 A 
ATOM     40  N   UNL A   1      42.443  31.984  30.820  1.00  0.00    -0.248 NA
ATOM     41  C   UNL A   1      43.071  30.977  28.825  1.00  0.00     0.031 C 
ATOM     42  C   UNL A   1      39.327  28.478  30.352  1.00  0.00     0.029 A 
ATOM     43  N   UNL A   1      39.341  30.676  30.162  1.00  0.00    -0.354 N 
ATOM     44  C   UNL A   1      43.161  32.897  30.059  1.00  0.00     0.074 A 
ATOM     45  C   UNL A   1      43.670  32.167  28.924  1.00  0.00     0.031 C 
ATOM     46  C   UNL A   1      38.095  28.841  29.931  1.00  0.00     0.029 A 
ATOM     47  C   UNL A   1      38.053  30.286  29.815  1.00  0.00     0.049 A 
ATOM     48  H   UNL A   1      39.602  31.620  30.262  1.00  0.00     0.167 HD
ATOM     49  C   UNL A   1      43.055  34.235  30.287  1.00  0.00     0.031 A 
ATOM     50  C   UNL A   1      37.031  31.097  29.443  1.00  0.00     0.031 A 
ATOM     51  C   UNL A   1      42.486  34.514  31.583  1.00  0.00     0.049 A 
ATOM     52  C   UNL A   1      37.347  32.455  29.943  1.00  0.00     0.074 A 
ATOM     53  C   UNL A   1      42.815  34.162  32.879  1.00  0.00     0.029 A 
ATOM     54  N   UNL A   1      41.165  34.895  31.629  1.00  0.00    -0.354 N 
ATOM     55  N   UNL A   1      37.374  32.765  31.206  1.00  0.00    -0.248 NA
ATOM     56  C   UNL A   1      38.071  33.352  29.058  1.00  0.00     0.031 C 
ATOM     57  C   UNL A   1      41.569  33.858  33.503  1.00  0.00     0.029 A 
ATOM     58  C   UNL A   1      40.552  34.128  32.586  1.00  0.00     0.049 A 
ATOM     59  H   UNL A   1      40.740  35.590  31.076  1.00  0.00     0.167 HD
ATOM     60  C   UNL A   1      38.471  33.605  31.334  1.00  0.00     0.074 A 
ATOM     61  C   UNL A   1      38.800  34.007  29.966  1.00  0.00     0.031 C 
ATOM     62  C   UNL A   1      39.183  33.669  32.498  1.00  0.00     0.031 A 
BRANCH  49  63
ATOM     63  C   UNL A   1      43.057  35.249  29.171  1.00  0.00    -0.014 A 
ATOM     64  C   UNL A   1      43.929  36.348  29.250  1.00  0.00     0.009 A 
ATOM     65  C   UNL A   1      42.042  35.317  28.196  1.00  0.00     0.009 A 
ATOM     66  C   UNL A   1      43.750  37.477  28.441  1.00  0.00     0.001 A 
ATOM     67  C   UNL A   1      41.886  36.422  27.358  1.00  0.00     0.001 A 
ATOM     68  C   UNL A   1      42.725  37.516  27.501  1.00  0.00     0.000 A 
ENDBRANCH  49  63
BRANCH  50  69
ATOM     69  C   UNL A   1      35.949  30.857  28.466  1.00  0.00    -0.014 A 
ATOM     70  C   UNL A   1      35.787  29.588  27.883  1.00  0.00     0.009 A 
ATOM     71  C   UNL A   1      34.892  31.776  28.333  1.00  0.00     0.009 A 
ATOM     72  C   UNL A   1      34.590  29.234  27.245  1.00  0.00     0.001 A 
ATOM     73  C   UNL A   1      33.700  31.423  27.690  1.00  0.00     0.001 A 
ATOM     74  C   UNL A   1      33.541  30.145  27.164  1.00  0.00     0.000 A 
ENDBRANCH  50  69
BRANCH  62  75
ATOM     75  C   UNL A   1      38.612  32.998  33.728  1.00  0.00    -0.014 A 
ATOM     76  C   UNL A   1      38.772  31.630  34.016  1.00  0.00     0.009 A 
ATOM     77  C   UNL A   1      38.014  33.812  34.701  1.00  0.00     0.009 A 
ATOM     78  C   UNL A   1      38.318  31.094  35.227  1.00  0.00     0.001 A 
ATOM     79  C   UNL A   1      37.580  33.281  35.919  1.00  0.00     0.001 A 
ATOM     80  C   UNL A   1      37.726  31.921  36.179  1.00  0.00     0.000 A 
ENDBRANCH  62  75
ENDBRANCH  36  37
ENDBRANCH  28  31
ENDBRANCH  26  27
ENDBRANCH  25  26
ENDBRANCH   1  25
TORSDOF 13
ENDMDL
