MODEL 1
REMARK VINA RESULT:     -11.7      0.000      0.000
REMARK SMILES CC(C)CN(C)c1cc2c(cc1Cl)C=C(C(=O)NCCCNC(=O)c1ccc(-c3c4nc(c(-c5ccccc5)c5ccc([nH]5)c(-c5ccccc5)c5nc(c(-c6ccccc6)c6ccc3[nH]6)C=C5)C=C4)cc1)[C@H](C(F)(F)F)O2
REMARK SMILES IDX 19 1 18 2 16 3 17 4 15 6 7 7 8 8 12 9 9 10 11 11 13 12 10 13
REMARK SMILES IDX 78 14 14 15 73 16 5 17 6 18 4 19 2 20 1 21 3 22 74 23 75 24
REMARK SMILES IDX 76 25 77 26 20 27 21 28 22 29 23 30 24 32 25 33 26 34 72 35
REMARK SMILES IDX 27 36 71 37 28 38 29 39 30 40 65 41 31 42 70 43 64 44 66 45
REMARK SMILES IDX 32 46 69 47 63 48 62 49 33 51 55 52 40 53 54 54 41 55 44 56
REMARK SMILES IDX 53 57 67 58 42 59 43 60 52 62 68 63 45 64 34 65 35 66 39 67
REMARK SMILES IDX 36 68 38 69 37 70 56 71 57 72 61 73 58 74 60 75 59 76 46 77
REMARK SMILES IDX 47 78 51 79 48 80 50 81 49 82
REMARK H PARENT 18 5 22 31 66 50 44 61
REMARK Flexibility Score: inf
ROOT
ATOM      1  C   UNL A   1      37.226  20.574  24.948  1.00  0.00     0.118 C 
ENDROOT
BRANCH   1   2
ATOM      2  N   UNL A   1      35.912  19.954  24.944  1.00  0.00    -0.352 N 
ATOM      3  C   UNL A   1      34.630  20.384  24.954  1.00  0.00     0.251 C 
ATOM      4  O   UNL A   1      33.770  19.499  24.955  1.00  0.00    -0.270 OA
ATOM      5  H   UNL A   1      35.970  18.971  24.930  1.00  0.00     0.163 HD
BRANCH   3   6
ATOM      6  C   UNL A   1      34.225  21.815  24.914  1.00  0.00     0.067 C 
ATOM      7  C   UNL A   1      32.548  26.280  23.200  1.00  0.00     0.059 A 
ATOM      8  C   UNL A   1      33.003  25.794  24.438  1.00  0.00     0.074 A 
ATOM      9  C   UNL A   1      32.550  25.369  22.120  1.00  0.00     0.065 A 
ATOM     10  C   UNL A   1      33.408  24.468  24.601  1.00  0.00     0.130 A 
ATOM     11  C   UNL A   1      32.862  24.018  22.308  1.00  0.00     0.034 A 
ATOM     12  Cl  UNL A   1      32.273  25.861  20.483  1.00  0.00    -0.082 Cl
ATOM     13  C   UNL A   1      33.296  23.566  23.552  1.00  0.00     0.019 A 
ATOM     14  O   UNL A   1      33.926  24.149  25.817  1.00  0.00    -0.475 OA
ATOM     15  C   UNL A   1      33.686  22.183  23.741  1.00  0.00     0.025 C 
ATOM     16  C   UNL A   1      34.359  22.781  26.062  1.00  0.00     0.314 C 
BRANCH   7  17
ATOM     17  N   UNL A   1      32.124  27.613  23.076  1.00  0.00    -0.373 N 
ATOM     18  C   UNL A   1      33.195  28.611  23.038  1.00  0.00     0.143 C 
BRANCH  17  19
ATOM     19  C   UNL A   1      30.913  28.002  23.839  1.00  0.00     0.119 C 
BRANCH  19  20
ATOM     20  C   UNL A   1      29.605  27.507  23.190  1.00  0.00     0.002 C 
ATOM     21  C   UNL A   1      28.963  26.370  23.991  1.00  0.00     0.009 C 
ATOM     22  C   UNL A   1      28.585  28.638  23.036  1.00  0.00     0.009 C 
ENDBRANCH  19  20
ENDBRANCH  17  19
ENDBRANCH   7  17
BRANCH  16  23
ATOM     23  C   UNL A   1      33.682  22.327  27.367  1.00  0.00     0.429 C 
ATOM     24  F   UNL A   1      33.844  21.011  27.626  1.00  0.00    -0.167 F 
ATOM     25  F   UNL A   1      34.210  23.005  28.421  1.00  0.00    -0.167 F 
ATOM     26  F   UNL A   1      32.350  22.566  27.377  1.00  0.00    -0.167 F 
ENDBRANCH  16  23
ENDBRANCH   3   6
ENDBRANCH   1   2
BRANCH   1  27
ATOM     27  C   UNL A   1      38.314  19.527  25.141  1.00  0.00     0.042 C 
BRANCH  27  28
ATOM     28  C   UNL A   1      39.452  20.025  26.020  1.00  0.00     0.118 C 
BRANCH  28  29
ATOM     29  N   UNL A   1      40.643  19.193  25.891  1.00  0.00    -0.352 N 
ATOM     30  C   UNL A   1      41.969  19.537  25.985  1.00  0.00     0.251 C 
ATOM     31  H   UNL A   1      40.469  18.241  25.710  1.00  0.00     0.163 HD
ATOM     32  O   UNL A   1      42.832  18.751  25.595  1.00  0.00    -0.269 OA
BRANCH  30  33
ATOM     33  C   UNL A   1      42.361  20.854  26.529  1.00  0.00     0.039 A 
ATOM     34  C   UNL A   1      42.343  21.082  27.904  1.00  0.00     0.014 A 
ATOM     35  C   UNL A   1      42.762  21.875  25.663  1.00  0.00     0.014 A 
ATOM     36  C   UNL A   1      42.509  22.369  28.391  1.00  0.00     0.010 A 
ATOM     37  C   UNL A   1      43.067  23.142  26.171  1.00  0.00     0.010 A 
ATOM     38  C   UNL A   1      42.897  23.414  27.536  1.00  0.00    -0.014 A 
BRANCH  38  39
ATOM     39  C   UNL A   1      43.169  24.752  28.125  1.00  0.00     0.031 A 
ATOM     40  C   UNL A   1      44.570  25.222  28.399  1.00  0.00     0.074 A 
ATOM     41  C   UNL A   1      42.127  25.575  28.356  1.00  0.00     0.049 A 
ATOM     42  N   UNL A   1      44.970  26.392  28.833  1.00  0.00    -0.248 NA
ATOM     43  C   UNL A   1      45.663  24.263  28.173  1.00  0.00     0.031 C 
ATOM     44  C   UNL A   1      40.721  25.226  28.135  1.00  0.00     0.029 A 
ATOM     45  N   UNL A   1      42.081  26.877  28.782  1.00  0.00    -0.354 N 
ATOM     46  C   UNL A   1      46.350  26.301  28.957  1.00  0.00     0.074 A 
ATOM     47  C   UNL A   1      46.720  24.954  28.582  1.00  0.00     0.031 C 
ATOM     48  C   UNL A   1      39.962  26.309  28.343  1.00  0.00     0.029 A 
ATOM     49  C   UNL A   1      40.812  27.402  28.799  1.00  0.00     0.049 A 
ATOM     50  H   UNL A   1      42.881  27.387  29.049  1.00  0.00     0.167 HD
ATOM     51  C   UNL A   1      47.227  27.260  29.344  1.00  0.00     0.031 A 
ATOM     52  C   UNL A   1      40.364  28.622  29.153  1.00  0.00     0.031 A 
ATOM     53  C   UNL A   1      46.850  28.604  29.698  1.00  0.00     0.049 A 
ATOM     54  C   UNL A   1      41.352  29.658  29.593  1.00  0.00     0.074 A 
ATOM     55  C   UNL A   1      47.674  29.662  30.038  1.00  0.00     0.029 A 
ATOM     56  N   UNL A   1      45.546  29.075  29.769  1.00  0.00    -0.354 N 
ATOM     57  N   UNL A   1      42.659  29.571  29.658  1.00  0.00    -0.248 NA
ATOM     58  C   UNL A   1      40.810  30.957  30.010  1.00  0.00     0.031 C 
ATOM     59  C   UNL A   1      46.869  30.743  30.403  1.00  0.00     0.029 A 
ATOM     60  C   UNL A   1      45.543  30.392  30.202  1.00  0.00     0.049 A 
ATOM     61  H   UNL A   1      44.743  28.551  29.546  1.00  0.00     0.167 HD
ATOM     62  C   UNL A   1      43.098  30.802  30.125  1.00  0.00     0.074 A 
ATOM     63  C   UNL A   1      41.919  31.630  30.291  1.00  0.00     0.031 C 
ATOM     64  C   UNL A   1      44.364  31.201  30.397  1.00  0.00     0.031 A 
BRANCH  51  65
ATOM     65  C   UNL A   1      48.687  26.896  29.435  1.00  0.00    -0.014 A 
ATOM     66  C   UNL A   1      49.509  27.054  28.305  1.00  0.00     0.009 A 
ATOM     67  C   UNL A   1      49.234  26.315  30.589  1.00  0.00     0.009 A 
ATOM     68  C   UNL A   1      50.837  26.624  28.324  1.00  0.00     0.001 A 
ATOM     69  C   UNL A   1      50.574  25.918  30.617  1.00  0.00     0.001 A 
ATOM     70  C   UNL A   1      51.371  26.062  29.481  1.00  0.00     0.000 A 
ENDBRANCH  51  65
BRANCH  52  71
ATOM     71  C   UNL A   1      38.903  28.893  29.083  1.00  0.00    -0.014 A 
ATOM     72  C   UNL A   1      38.327  29.373  27.893  1.00  0.00     0.009 A 
ATOM     73  C   UNL A   1      38.103  28.793  30.230  1.00  0.00     0.009 A 
ATOM     74  C   UNL A   1      36.999  29.800  27.868  1.00  0.00     0.001 A 
ATOM     75  C   UNL A   1      36.762  29.186  30.190  1.00  0.00     0.001 A 
ATOM     76  C   UNL A   1      36.217  29.706  29.016  1.00  0.00     0.000 A 
ENDBRANCH  52  71
BRANCH  64  77
ATOM     77  C   UNL A   1      44.556  32.594  30.935  1.00  0.00    -0.014 A 
ATOM     78  C   UNL A   1      44.501  32.828  32.319  1.00  0.00     0.009 A 
ATOM     79  C   UNL A   1      44.700  33.690  30.070  1.00  0.00     0.009 A 
ATOM     80  C   UNL A   1      44.568  34.127  32.824  1.00  0.00     0.001 A 
ATOM     81  C   UNL A   1      44.805  34.985  30.579  1.00  0.00     0.001 A 
ATOM     82  C   UNL A   1      44.727  35.204  31.954  1.00  0.00     0.000 A 
ENDBRANCH  64  77
ENDBRANCH  38  39
ENDBRANCH  30  33
ENDBRANCH  28  29
ENDBRANCH  27  28
ENDBRANCH   1  27
TORSDOF 14
ENDMDL
MODEL 2
REMARK VINA RESULT:     -11.7      1.589      2.148
REMARK SMILES CC(C)CN(C)c1cc2c(cc1Cl)C=C(C(=O)NCCCNC(=O)c1ccc(-c3c4nc(c(-c5ccccc5)c5ccc([nH]5)c(-c5ccccc5)c5nc(c(-c6ccccc6)c6ccc3[nH]6)C=C5)C=C4)cc1)[C@H](C(F)(F)F)O2
REMARK SMILES IDX 19 1 18 2 16 3 17 4 15 6 7 7 8 8 12 9 9 10 11 11 13 12 10 13
REMARK SMILES IDX 78 14 14 15 73 16 5 17 6 18 4 19 2 20 1 21 3 22 74 23 75 24
REMARK SMILES IDX 76 25 77 26 20 27 21 28 22 29 23 30 24 32 25 33 26 34 72 35
REMARK SMILES IDX 27 36 71 37 28 38 29 39 30 40 65 41 31 42 70 43 64 44 66 45
REMARK SMILES IDX 32 46 69 47 63 48 62 49 33 51 55 52 40 53 54 54 41 55 44 56
REMARK SMILES IDX 53 57 67 58 42 59 43 60 52 62 68 63 45 64 34 65 35 66 39 67
REMARK SMILES IDX 36 68 38 69 37 70 56 71 57 72 61 73 58 74 60 75 59 76 46 77
REMARK SMILES IDX 47 78 51 79 48 80 50 81 49 82
REMARK H PARENT 18 5 22 31 66 50 44 61
REMARK Flexibility Score: inf
ROOT
ATOM      1  C   UNL A   1      36.163  21.323  24.838  1.00  0.00     0.118 C 
ENDROOT
BRANCH   1   2
ATOM      2  N   UNL A   1      35.265  21.082  25.954  1.00  0.00    -0.352 N 
ATOM      3  C   UNL A   1      34.151  21.663  26.453  1.00  0.00     0.251 C 
ATOM      4  O   UNL A   1      33.678  21.134  27.463  1.00  0.00    -0.270 OA
ATOM      5  H   UNL A   1      35.537  20.296  26.481  1.00  0.00     0.163 HD
BRANCH   3   6
ATOM      6  C   UNL A   1      33.466  22.832  25.836  1.00  0.00     0.067 C 
ATOM      7  C   UNL A   1      32.314  27.605  24.580  1.00  0.00     0.059 A 
ATOM      8  C   UNL A   1      31.786  26.338  24.274  1.00  0.00     0.074 A 
ATOM      9  C   UNL A   1      33.417  27.638  25.462  1.00  0.00     0.065 A 
ATOM     10  C   UNL A   1      32.345  25.168  24.790  1.00  0.00     0.130 A 
ATOM     11  C   UNL A   1      34.035  26.461  25.898  1.00  0.00     0.034 A 
ATOM     12  Cl  UNL A   1      34.022  29.109  26.145  1.00  0.00    -0.082 Cl
ATOM     13  C   UNL A   1      33.496  25.221  25.564  1.00  0.00     0.019 A 
ATOM     14  O   UNL A   1      31.682  24.015  24.506  1.00  0.00    -0.475 OA
ATOM     15  C   UNL A   1      34.089  23.998  26.066  1.00  0.00     0.025 C 
ATOM     16  C   UNL A   1      32.213  22.755  25.001  1.00  0.00     0.314 C 
BRANCH   7  17
ATOM     17  N   UNL A   1      31.743  28.761  24.024  1.00  0.00    -0.373 N 
ATOM     18  C   UNL A   1      31.253  29.746  24.991  1.00  0.00     0.143 C 
BRANCH  17  19
ATOM     19  C   UNL A   1      30.904  28.577  22.815  1.00  0.00     0.119 C 
BRANCH  19  20
ATOM     20  C   UNL A   1      29.566  29.341  22.886  1.00  0.00     0.002 C 
ATOM     21  C   UNL A   1      29.361  30.247  21.668  1.00  0.00     0.009 C 
ATOM     22  C   UNL A   1      28.374  28.388  22.998  1.00  0.00     0.009 C 
ENDBRANCH  19  20
ENDBRANCH  17  19
ENDBRANCH   7  17
BRANCH  16  23
ATOM     23  C   UNL A   1      32.301  21.803  23.796  1.00  0.00     0.429 C 
ATOM     24  F   UNL A   1      31.426  22.101  22.811  1.00  0.00    -0.167 F 
ATOM     25  F   UNL A   1      33.545  21.863  23.251  1.00  0.00    -0.167 F 
ATOM     26  F   UNL A   1      32.084  20.510  24.133  1.00  0.00    -0.167 F 
ENDBRANCH  16  23
ENDBRANCH   3   6
ENDBRANCH   1   2
BRANCH   1  27
ATOM     27  C   UNL A   1      37.298  20.309  24.833  1.00  0.00     0.042 C 
BRANCH  27  28
ATOM     28  C   UNL A   1      38.502  20.779  25.637  1.00  0.00     0.118 C 
BRANCH  28  29
ATOM     29  N   UNL A   1      39.541  19.759  25.707  1.00  0.00    -0.352 N 
ATOM     30  C   UNL A   1      40.878  19.884  25.999  1.00  0.00     0.251 C 
ATOM     31  H   UNL A   1      39.239  18.841  25.517  1.00  0.00     0.163 HD
ATOM     32  O   UNL A   1      41.644  18.951  25.759  1.00  0.00    -0.269 OA
BRANCH  30  33
ATOM     33  C   UNL A   1      41.400  21.140  26.575  1.00  0.00     0.039 A 
ATOM     34  C   UNL A   1      41.409  21.332  27.956  1.00  0.00     0.014 A 
ATOM     35  C   UNL A   1      41.897  22.140  25.734  1.00  0.00     0.014 A 
ATOM     36  C   UNL A   1      41.703  22.583  28.475  1.00  0.00     0.010 A 
ATOM     37  C   UNL A   1      42.329  23.356  26.274  1.00  0.00     0.010 A 
ATOM     38  C   UNL A   1      42.190  23.607  27.647  1.00  0.00    -0.014 A 
BRANCH  38  39
ATOM     39  C   UNL A   1      42.596  24.895  28.269  1.00  0.00     0.031 A 
ATOM     40  C   UNL A   1      44.034  25.201  28.580  1.00  0.00     0.074 A 
ATOM     41  C   UNL A   1      41.646  25.823  28.498  1.00  0.00     0.049 A 
ATOM     42  N   UNL A   1      44.551  26.311  29.046  1.00  0.00    -0.248 NA
ATOM     43  C   UNL A   1      45.019  24.133  28.354  1.00  0.00     0.031 C 
ATOM     44  C   UNL A   1      40.215  25.636  28.243  1.00  0.00     0.029 A 
ATOM     45  N   UNL A   1      41.735  27.115  28.950  1.00  0.00    -0.354 N 
ATOM     46  C   UNL A   1      45.910  26.067  29.194  1.00  0.00     0.074 A 
ATOM     47  C   UNL A   1      46.136  24.694  28.798  1.00  0.00     0.031 C 
ATOM     48  C   UNL A   1      39.575  26.793  28.459  1.00  0.00     0.029 A 
ATOM     49  C   UNL A   1      40.531  27.776  28.955  1.00  0.00     0.049 A 
ATOM     50  H   UNL A   1      42.580  27.527  29.243  1.00  0.00     0.167 HD
ATOM     51  C   UNL A   1      46.878  26.915  29.618  1.00  0.00     0.031 A 
ATOM     52  C   UNL A   1      40.213  29.031  29.325  1.00  0.00     0.031 A 
ATOM     53  C   UNL A   1      46.644  28.285  29.994  1.00  0.00     0.049 A 
ATOM     54  C   UNL A   1      41.300  29.943  29.807  1.00  0.00     0.074 A 
ATOM     55  C   UNL A   1      47.573  29.239  30.372  1.00  0.00     0.029 A 
ATOM     56  N   UNL A   1      45.399  28.896  30.050  1.00  0.00    -0.354 N 
ATOM     57  N   UNL A   1      42.587  29.711  29.894  1.00  0.00    -0.248 NA
ATOM     58  C   UNL A   1      40.895  31.286  30.241  1.00  0.00     0.031 C 
ATOM     59  C   UNL A   1      46.884  30.396  30.745  1.00  0.00     0.029 A 
ATOM     60  C   UNL A   1      45.532  30.197  30.511  1.00  0.00     0.049 A 
ATOM     61  H   UNL A   1      44.548  28.469  29.801  1.00  0.00     0.167 HD
ATOM     62  C   UNL A   1      43.149  30.877  30.396  1.00  0.00     0.074 A 
ATOM     63  C   UNL A   1      42.066  31.826  30.557  1.00  0.00     0.031 C 
ATOM     64  C   UNL A   1      44.446  31.128  30.701  1.00  0.00     0.031 A 
BRANCH  51  65
ATOM     65  C   UNL A   1      48.287  26.390  29.729  1.00  0.00    -0.014 A 
ATOM     66  C   UNL A   1      48.720  25.828  30.943  1.00  0.00     0.009 A 
ATOM     67  C   UNL A   1      49.213  26.532  28.685  1.00  0.00     0.009 A 
ATOM     68  C   UNL A   1      50.049  25.435  31.114  1.00  0.00     0.001 A 
ATOM     69  C   UNL A   1      50.535  26.105  28.846  1.00  0.00     0.001 A 
ATOM     70  C   UNL A   1      50.954  25.568  30.063  1.00  0.00     0.000 A 
ENDBRANCH  51  65
BRANCH  52  71
ATOM     71  C   UNL A   1      38.793  29.463  29.234  1.00  0.00    -0.014 A 
ATOM     72  C   UNL A   1      37.925  29.285  30.326  1.00  0.00     0.009 A 
ATOM     73  C   UNL A   1      38.268  29.940  28.024  1.00  0.00     0.009 A 
ATOM     74  C   UNL A   1      36.557  29.519  30.193  1.00  0.00     0.001 A 
ATOM     75  C   UNL A   1      36.902  30.210  27.906  1.00  0.00     0.001 A 
ATOM     76  C   UNL A   1      36.046  29.982  28.983  1.00  0.00     0.000 A 
ENDBRANCH  52  71
BRANCH  64  77
ATOM     77  C   UNL A   1      44.778  32.481  31.272  1.00  0.00    -0.014 A 
ATOM     78  C   UNL A   1      45.153  33.532  30.418  1.00  0.00     0.009 A 
ATOM     79  C   UNL A   1      44.810  32.692  32.660  1.00  0.00     0.009 A 
ATOM     80  C   UNL A   1      45.569  34.757  30.941  1.00  0.00     0.001 A 
ATOM     81  C   UNL A   1      45.189  33.931  33.178  1.00  0.00     0.001 A 
ATOM     82  C   UNL A   1      45.580  34.958  32.320  1.00  0.00     0.000 A 
ENDBRANCH  64  77
ENDBRANCH  38  39
ENDBRANCH  30  33
ENDBRANCH  28  29
ENDBRANCH  27  28
ENDBRANCH   1  27
TORSDOF 14
ENDMDL
MODEL 3
REMARK VINA RESULT:     -11.6      4.520      9.457
REMARK SMILES CC(C)CN(C)c1cc2c(cc1Cl)C=C(C(=O)NCCCNC(=O)c1ccc(-c3c4nc(c(-c5ccccc5)c5ccc([nH]5)c(-c5ccccc5)c5nc(c(-c6ccccc6)c6ccc3[nH]6)C=C5)C=C4)cc1)[C@H](C(F)(F)F)O2
REMARK SMILES IDX 19 1 18 2 16 3 17 4 15 6 7 7 8 8 12 9 9 10 11 11 13 12 10 13
REMARK SMILES IDX 78 14 14 15 73 16 5 17 6 18 4 19 2 20 1 21 3 22 74 23 75 24
REMARK SMILES IDX 76 25 77 26 20 27 21 28 22 29 23 30 24 32 25 33 26 34 72 35
REMARK SMILES IDX 27 36 71 37 28 38 29 39 30 40 65 41 31 42 70 43 64 44 66 45
REMARK SMILES IDX 32 46 69 47 63 48 62 49 33 51 55 52 40 53 54 54 41 55 44 56
REMARK SMILES IDX 53 57 67 58 42 59 43 60 52 62 68 63 45 64 34 65 35 66 39 67
REMARK SMILES IDX 36 68 38 69 37 70 56 71 57 72 61 73 58 74 60 75 59 76 46 77
REMARK SMILES IDX 47 78 51 79 48 80 50 81 49 82
REMARK H PARENT 18 5 22 31 66 50 44 61
REMARK Flexibility Score: inf
ROOT
ATOM      1  C   UNL A   1      31.564  30.927  26.310  1.00  0.00     0.118 C 
ENDROOT
BRANCH   1   2
ATOM      2  N   UNL A   1      30.957  30.584  25.035  1.00  0.00    -0.352 N 
ATOM      3  C   UNL A   1      30.962  29.515  24.208  1.00  0.00     0.251 C 
ATOM      4  O   UNL A   1      30.296  29.634  23.176  1.00  0.00    -0.270 OA
ATOM      5  H   UNL A   1      30.400  31.317  24.686  1.00  0.00     0.163 HD
BRANCH   3   6
ATOM      6  C   UNL A   1      31.663  28.234  24.497  1.00  0.00     0.067 C 
ATOM      7  C   UNL A   1      32.520  23.458  25.958  1.00  0.00     0.059 A 
ATOM      8  C   UNL A   1      33.307  24.495  25.427  1.00  0.00     0.074 A 
ATOM      9  C   UNL A   1      31.157  23.748  26.187  1.00  0.00     0.065 A 
ATOM     10  C   UNL A   1      32.762  25.741  25.113  1.00  0.00     0.130 A 
ATOM     11  C   UNL A   1      30.593  24.962  25.781  1.00  0.00     0.034 A 
ATOM     12  Cl  UNL A   1      30.112  22.686  27.069  1.00  0.00    -0.082 Cl
ATOM     13  C   UNL A   1      31.399  25.964  25.245  1.00  0.00     0.019 A 
ATOM     14  O   UNL A   1      33.645  26.692  24.707  1.00  0.00    -0.475 OA
ATOM     15  C   UNL A   1      30.836  27.250  24.883  1.00  0.00     0.025 C 
ATOM     16  C   UNL A   1      33.146  28.012  24.352  1.00  0.00     0.314 C 
BRANCH   7  17
ATOM     17  N   UNL A   1      33.095  22.207  26.239  1.00  0.00    -0.373 N 
ATOM     18  C   UNL A   1      33.513  22.008  27.628  1.00  0.00     0.143 C 
BRANCH  17  19
ATOM     19  C   UNL A   1      34.000  21.642  25.210  1.00  0.00     0.119 C 
BRANCH  19  20
ATOM     20  C   UNL A   1      33.313  20.597  24.307  1.00  0.00     0.002 C 
ATOM     21  C   UNL A   1      32.520  19.571  25.122  1.00  0.00     0.009 C 
ATOM     22  C   UNL A   1      32.374  21.255  23.294  1.00  0.00     0.009 C 
ENDBRANCH  19  20
ENDBRANCH  17  19
ENDBRANCH   7  17
BRANCH  16  23
ATOM     23  C   UNL A   1      33.714  28.344  22.961  1.00  0.00     0.429 C 
ATOM     24  F   UNL A   1      34.937  28.915  23.003  1.00  0.00    -0.167 F 
ATOM     25  F   UNL A   1      33.834  27.205  22.229  1.00  0.00    -0.167 F 
ATOM     26  F   UNL A   1      32.916  29.180  22.256  1.00  0.00    -0.167 F 
ENDBRANCH  16  23
ENDBRANCH   3   6
ENDBRANCH   1   2
BRANCH   1  27
ATOM     27  C   UNL A   1      31.465  32.424  26.567  1.00  0.00     0.042 C 
BRANCH  27  28
ATOM     28  C   UNL A   1      32.731  32.993  27.191  1.00  0.00     0.118 C 
BRANCH  28  29
ATOM     29  N   UNL A   1      32.529  34.346  27.696  1.00  0.00    -0.352 N 
ATOM     30  C   UNL A   1      33.079  34.968  28.789  1.00  0.00     0.251 C 
ATOM     31  H   UNL A   1      31.902  34.897  27.173  1.00  0.00     0.163 HD
ATOM     32  O   UNL A   1      32.594  36.022  29.200  1.00  0.00    -0.269 OA
BRANCH  30  33
ATOM     33  C   UNL A   1      34.235  34.365  29.487  1.00  0.00     0.039 A 
ATOM     34  C   UNL A   1      35.515  34.461  28.943  1.00  0.00     0.014 A 
ATOM     35  C   UNL A   1      34.046  33.702  30.703  1.00  0.00     0.014 A 
ATOM     36  C   UNL A   1      36.552  33.721  29.489  1.00  0.00     0.010 A 
ATOM     37  C   UNL A   1      35.127  33.072  31.329  1.00  0.00     0.010 A 
ATOM     38  C   UNL A   1      36.381  33.035  30.703  1.00  0.00    -0.014 A 
BRANCH  38  39
ATOM     39  C   UNL A   1      37.554  32.348  31.304  1.00  0.00     0.031 A 
ATOM     40  C   UNL A   1      38.210  31.175  30.631  1.00  0.00     0.074 A 
ATOM     41  C   UNL A   1      38.068  32.838  32.450  1.00  0.00     0.049 A 
ATOM     42  N   UNL A   1      39.289  30.524  30.991  1.00  0.00    -0.248 NA
ATOM     43  C   UNL A   1      37.578  30.654  29.409  1.00  0.00     0.031 C 
ATOM     44  C   UNL A   1      37.512  33.969  33.198  1.00  0.00     0.029 A 
ATOM     45  N   UNL A   1      39.185  32.487  33.163  1.00  0.00    -0.354 N 
ATOM     46  C   UNL A   1      39.448  29.504  30.061  1.00  0.00     0.074 A 
ATOM     47  C   UNL A   1      38.340  29.602  29.136  1.00  0.00     0.031 C 
ATOM     48  C   UNL A   1      38.334  34.272  34.211  1.00  0.00     0.029 A 
ATOM     49  C   UNL A   1      39.424  33.304  34.241  1.00  0.00     0.049 A 
ATOM     50  H   UNL A   1      39.760  31.724  32.925  1.00  0.00     0.167 HD
ATOM     51  C   UNL A   1      40.433  28.577  29.986  1.00  0.00     0.031 A 
ATOM     52  C   UNL A   1      40.401  33.282  35.167  1.00  0.00     0.031 A 
ATOM     53  C   UNL A   1      41.541  28.500  30.902  1.00  0.00     0.049 A 
ATOM     54  C   UNL A   1      41.469  32.236  35.072  1.00  0.00     0.074 A 
ATOM     55  C   UNL A   1      42.622  27.637  30.866  1.00  0.00     0.029 A 
ATOM     56  N   UNL A   1      41.710  29.304  32.021  1.00  0.00    -0.354 N 
ATOM     57  N   UNL A   1      41.631  31.311  34.158  1.00  0.00    -0.248 NA
ATOM     58  C   UNL A   1      42.486  32.227  36.131  1.00  0.00     0.031 C 
ATOM     59  C   UNL A   1      43.394  27.855  32.010  1.00  0.00     0.029 A 
ATOM     60  C   UNL A   1      42.847  28.918  32.713  1.00  0.00     0.049 A 
ATOM     61  H   UNL A   1      41.109  30.038  32.285  1.00  0.00     0.167 HD
ATOM     62  C   UNL A   1      42.767  30.605  34.530  1.00  0.00     0.074 A 
ATOM     63  C   UNL A   1      43.273  31.235  35.733  1.00  0.00     0.031 C 
ATOM     64  C   UNL A   1      43.329  29.528  33.929  1.00  0.00     0.031 A 
BRANCH  51  65
ATOM     65  C   UNL A   1      40.357  27.543  28.892  1.00  0.00    -0.014 A 
ATOM     66  C   UNL A   1      40.947  27.813  27.645  1.00  0.00     0.009 A 
ATOM     67  C   UNL A   1      39.632  26.352  29.049  1.00  0.00     0.009 A 
ATOM     68  C   UNL A   1      40.800  26.925  26.578  1.00  0.00     0.001 A 
ATOM     69  C   UNL A   1      39.516  25.447  27.990  1.00  0.00     0.001 A 
ATOM     70  C   UNL A   1      40.090  25.739  26.753  1.00  0.00     0.000 A 
ENDBRANCH  51  65
BRANCH  52  71
ATOM     71  C   UNL A   1      40.384  34.306  36.246  1.00  0.00    -0.014 A 
ATOM     72  C   UNL A   1      39.606  34.106  37.401  1.00  0.00     0.009 A 
ATOM     73  C   UNL A   1      41.041  35.533  36.077  1.00  0.00     0.009 A 
ATOM     74  C   UNL A   1      39.440  35.132  38.332  1.00  0.00     0.001 A 
ATOM     75  C   UNL A   1      40.903  36.544  37.032  1.00  0.00     0.001 A 
ATOM     76  C   UNL A   1      40.089  36.350  38.148  1.00  0.00     0.000 A 
ENDBRANCH  52  71
BRANCH  64  77
ATOM     77  C   UNL A   1      44.551  28.929  34.573  1.00  0.00    -0.014 A 
ATOM     78  C   UNL A   1      45.832  29.340  34.168  1.00  0.00     0.009 A 
ATOM     79  C   UNL A   1      44.439  27.893  35.514  1.00  0.00     0.009 A 
ATOM     80  C   UNL A   1      46.972  28.716  34.678  1.00  0.00     0.001 A 
ATOM     81  C   UNL A   1      45.581  27.297  36.050  1.00  0.00     0.001 A 
ATOM     82  C   UNL A   1      46.846  27.700  35.623  1.00  0.00     0.000 A 
ENDBRANCH  64  77
ENDBRANCH  38  39
ENDBRANCH  30  33
ENDBRANCH  28  29
ENDBRANCH  27  28
ENDBRANCH   1  27
TORSDOF 14
ENDMDL
