MODEL 1
REMARK VINA RESULT:      -9.0      0.000      0.000
REMARK SMILES CCCCCCNC(=O)Oc1cccc(-c2ccc(CC(=O)NCCCNC(=O)c3ccc(-c4c5nc(c(-c6ccccc6)c6ccc([nH]6)c(-c6ccccc6)c6nc(c(-c7ccccc7)c7ccc4[nH]7)C=C6)C=C5)cc3)cc2F)c1
REMARK SMILES IDX 16 1 17 2 18 3 19 4 78 5 79 6 80 7 15 8 11 9 12 10 81 11
REMARK SMILES IDX 13 12 14 13 10 14 8 15 7 16 9 18 6 19 5 20 4 21 3 22 2 23
REMARK SMILES IDX 1 24 20 25 21 26 22 27 23 28 24 30 25 31 26 32 27 33 28 34
REMARK SMILES IDX 29 36 30 37 31 38 77 39 32 40 76 41 33 42 34 43 35 44 70 45
REMARK SMILES IDX 36 46 75 47 69 48 71 49 37 50 74 51 68 52 67 53 38 55 60 56
REMARK SMILES IDX 45 57 59 58 46 59 49 60 58 61 72 62 47 63 48 64 57 66 73 67
REMARK SMILES IDX 50 68 39 69 40 70 44 71 41 72 43 73 42 74 61 75 62 76 66 77
REMARK SMILES IDX 63 78 65 79 64 80 51 81 52 82 56 83 53 84 55 85 54 86
REMARK H PARENT 7 17 23 29 27 35 71 54 49 65
REMARK Flexibility Score: inf
ROOT
ATOM      1  C   UNL A   1      45.524  28.090  26.123  1.00  0.00     0.018 A 
ATOM      2  C   UNL A   1      46.572  27.164  25.988  1.00  0.00     0.012 A 
ATOM      3  C   UNL A   1      46.338  25.867  25.514  1.00  0.00     0.005 A 
ATOM      4  C   UNL A   1      45.046  25.462  25.158  1.00  0.00    -0.036 A 
ATOM      5  C   UNL A   1      43.988  26.360  25.334  1.00  0.00     0.044 A 
ATOM      6  C   UNL A   1      44.233  27.652  25.796  1.00  0.00     0.131 A 
ATOM      7  F   UNL A   1      43.186  28.487  25.888  1.00  0.00    -0.206 F 
ENDROOT
BRANCH   1   8
ATOM      8  C   UNL A   1      45.775  29.468  26.583  1.00  0.00    -0.012 A 
ATOM      9  C   UNL A   1      45.042  31.765  26.882  1.00  0.00     0.133 A 
ATOM     10  C   UNL A   1      46.280  32.123  27.403  1.00  0.00     0.047 A 
ATOM     11  C   UNL A   1      44.789  30.458  26.461  1.00  0.00     0.056 A 
ATOM     12  C   UNL A   1      47.271  31.153  27.536  1.00  0.00     0.004 A 
ATOM     13  C   UNL A   1      47.019  29.837  27.131  1.00  0.00     0.009 A 
BRANCH   9  14
ATOM     14  O   UNL A   1      44.109  32.796  26.681  1.00  0.00    -0.410 OA
BRANCH  14  15
ATOM     15  C   UNL A   1      44.169  33.523  25.501  1.00  0.00     0.412 C 
ATOM     16  N   UNL A   1      43.997  34.865  25.684  1.00  0.00    -0.321 N 
ATOM     17  H   UNL A   1      44.024  35.426  24.875  1.00  0.00     0.167 HD
ATOM     18  O   UNL A   1      44.345  33.061  24.375  1.00  0.00    -0.224 OA
BRANCH  16  19
ATOM     19  C   UNL A   1      43.781  35.550  26.942  1.00  0.00     0.119 C 
BRANCH  19  20
ATOM     20  C   UNL A   1      42.331  36.004  27.107  1.00  0.00     0.021 C 
BRANCH  20  21
ATOM     21  C   UNL A   1      41.803  35.976  28.546  1.00  0.00     0.002 C 
BRANCH  21  22
ATOM     22  C   UNL A   1      41.030  34.712  28.944  1.00  0.00    -0.000 C 
BRANCH  22  23
ATOM     23  C   UNL A   1      39.841  34.935  29.880  1.00  0.00    -0.003 C 
ATOM     24  C   UNL A   1      38.544  34.332  29.362  1.00  0.00     0.004 C 
ENDBRANCH  22  23
ENDBRANCH  21  22
ENDBRANCH  20  21
ENDBRANCH  19  20
ENDBRANCH  16  19
ENDBRANCH  14  15
ENDBRANCH   9  14
ENDBRANCH   1   8
BRANCH   4  25
ATOM     25  C   UNL A   1      44.793  24.091  24.584  1.00  0.00     0.135 C 
BRANCH  25  26
ATOM     26  C   UNL A   1      46.060  23.295  24.323  1.00  0.00     0.224 C 
ATOM     27  O   UNL A   1      46.968  23.745  23.622  1.00  0.00    -0.275 OA
ATOM     28  N   UNL A   1      46.225  22.061  24.883  1.00  0.00    -0.356 N 
ATOM     29  H   UNL A   1      47.100  21.640  24.726  1.00  0.00     0.163 HD
BRANCH  28  30
ATOM     30  C   UNL A   1      45.293  21.281  25.678  1.00  0.00     0.117 C 
BRANCH  30  31
ATOM     31  C   UNL A   1      44.638  20.161  24.871  1.00  0.00     0.042 C 
BRANCH  31  32
ATOM     32  C   UNL A   1      44.142  18.988  25.713  1.00  0.00     0.118 C 
BRANCH  32  33
ATOM     33  N   UNL A   1      42.707  18.777  25.595  1.00  0.00    -0.352 N 
ATOM     34  C   UNL A   1      41.653  19.551  26.011  1.00  0.00     0.251 C 
ATOM     35  H   UNL A   1      42.450  17.941  25.142  1.00  0.00     0.163 HD
ATOM     36  O   UNL A   1      40.514  19.096  25.958  1.00  0.00    -0.269 OA
BRANCH  34  37
ATOM     37  C   UNL A   1      41.869  20.919  26.535  1.00  0.00     0.039 A 
ATOM     38  C   UNL A   1      42.133  21.076  27.899  1.00  0.00     0.014 A 
ATOM     39  C   UNL A   1      41.759  22.044  25.714  1.00  0.00     0.014 A 
ATOM     40  C   UNL A   1      42.341  22.352  28.429  1.00  0.00     0.010 A 
ATOM     41  C   UNL A   1      42.030  23.311  26.228  1.00  0.00     0.010 A 
ATOM     42  C   UNL A   1      42.320  23.479  27.591  1.00  0.00    -0.014 A 
BRANCH  42  43
ATOM     43  C   UNL A   1      42.597  24.837  28.123  1.00  0.00     0.031 A 
ATOM     44  C   UNL A   1      43.983  25.210  28.570  1.00  0.00     0.074 A 
ATOM     45  C   UNL A   1      41.588  25.719  28.257  1.00  0.00     0.049 A 
ATOM     46  N   UNL A   1      44.402  26.323  29.119  1.00  0.00    -0.248 NA
ATOM     47  C   UNL A   1      45.032  24.192  28.397  1.00  0.00     0.031 C 
ATOM     48  C   UNL A   1      40.194  25.476  27.885  1.00  0.00     0.029 A 
ATOM     49  N   UNL A   1      41.584  26.999  28.751  1.00  0.00    -0.354 N 
ATOM     50  C   UNL A   1      45.756  26.132  29.374  1.00  0.00     0.074 A 
ATOM     51  C   UNL A   1      46.076  24.783  28.959  1.00  0.00     0.031 C 
ATOM     52  C   UNL A   1      39.474  26.582  28.137  1.00  0.00     0.029 A 
ATOM     53  C   UNL A   1      40.346  27.594  28.726  1.00  0.00     0.049 A 
ATOM     54  H   UNL A   1      42.391  27.450  29.091  1.00  0.00     0.167 HD
ATOM     55  C   UNL A   1      46.654  27.004  29.891  1.00  0.00     0.031 A 
ATOM     56  C   UNL A   1      39.953  28.814  29.135  1.00  0.00     0.031 A 
ATOM     57  C   UNL A   1      46.341  28.347  30.298  1.00  0.00     0.049 A 
ATOM     58  C   UNL A   1      40.964  29.755  29.727  1.00  0.00     0.074 A 
ATOM     59  C   UNL A   1      47.194  29.321  30.790  1.00  0.00     0.029 A 
ATOM     60  N   UNL A   1      45.074  28.907  30.261  1.00  0.00    -0.354 N 
ATOM     61  N   UNL A   1      42.248  29.576  29.915  1.00  0.00    -0.248 NA
ATOM     62  C   UNL A   1      40.467  31.070  30.156  1.00  0.00     0.031 C 
ATOM     63  C   UNL A   1      46.434  30.457  31.091  1.00  0.00     0.029 A 
ATOM     64  C   UNL A   1      45.116  30.206  30.740  1.00  0.00     0.049 A 
ATOM     65  H   UNL A   1      44.263  28.450  29.941  1.00  0.00     0.167 HD
ATOM     66  C   UNL A   1      42.720  30.764  30.458  1.00  0.00     0.074 A 
ATOM     67  C   UNL A   1      41.585  31.660  30.559  1.00  0.00     0.031 C 
ATOM     68  C   UNL A   1      43.981  31.084  30.837  1.00  0.00     0.031 A 
BRANCH  55  69
ATOM     69  C   UNL A   1      48.066  26.516  30.056  1.00  0.00    -0.014 A 
ATOM     70  C   UNL A   1      48.492  25.912  31.251  1.00  0.00     0.009 A 
ATOM     71  C   UNL A   1      48.980  26.645  28.998  1.00  0.00     0.009 A 
ATOM     72  C   UNL A   1      49.814  25.485  31.395  1.00  0.00     0.001 A 
ATOM     73  C   UNL A   1      50.292  26.192  29.136  1.00  0.00     0.001 A 
ATOM     74  C   UNL A   1      50.712  25.623  30.338  1.00  0.00     0.000 A 
ENDBRANCH  55  69
BRANCH  56  75
ATOM     75  C   UNL A   1      38.536  29.227  28.976  1.00  0.00    -0.014 A 
ATOM     76  C   UNL A   1      37.643  29.120  30.053  1.00  0.00     0.009 A 
ATOM     77  C   UNL A   1      38.069  29.733  27.754  1.00  0.00     0.009 A 
ATOM     78  C   UNL A   1      36.306  29.492  29.903  1.00  0.00     0.001 A 
ATOM     79  C   UNL A   1      36.737  30.128  27.614  1.00  0.00     0.001 A 
ATOM     80  C   UNL A   1      35.855  30.000  28.686  1.00  0.00     0.000 A 
ENDBRANCH  56  75
BRANCH  68  81
ATOM     81  C   UNL A   1      44.205  32.473  31.364  1.00  0.00    -0.014 A 
ATOM     82  C   UNL A   1      44.431  33.553  30.498  1.00  0.00     0.009 A 
ATOM     83  C   UNL A   1      44.153  32.706  32.747  1.00  0.00     0.009 A 
ATOM     84  C   UNL A   1      44.631  34.837  31.010  1.00  0.00     0.001 A 
ATOM     85  C   UNL A   1      44.329  33.995  33.255  1.00  0.00     0.001 A 
ATOM     86  C   UNL A   1      44.575  35.057  32.387  1.00  0.00     0.000 A 
ENDBRANCH  68  81
ENDBRANCH  42  43
ENDBRANCH  34  37
ENDBRANCH  32  33
ENDBRANCH  31  32
ENDBRANCH  30  31
ENDBRANCH  28  30
ENDBRANCH  25  26
ENDBRANCH   4  25
TORSDOF 19
ENDMDL
MODEL 2
REMARK VINA RESULT:      -8.3      3.773      7.492
REMARK SMILES CCCCCCNC(=O)Oc1cccc(-c2ccc(CC(=O)NCCCNC(=O)c3ccc(-c4c5nc(c(-c6ccccc6)c6ccc([nH]6)c(-c6ccccc6)c6nc(c(-c7ccccc7)c7ccc4[nH]7)C=C6)C=C5)cc3)cc2F)c1
REMARK SMILES IDX 16 1 17 2 18 3 19 4 78 5 79 6 80 7 15 8 11 9 12 10 81 11
REMARK SMILES IDX 13 12 14 13 10 14 8 15 7 16 9 18 6 19 5 20 4 21 3 22 2 23
REMARK SMILES IDX 1 24 20 25 21 26 22 27 23 28 24 30 25 31 26 32 27 33 28 34
REMARK SMILES IDX 29 36 30 37 31 38 77 39 32 40 76 41 33 42 34 43 35 44 70 45
REMARK SMILES IDX 36 46 75 47 69 48 71 49 37 50 74 51 68 52 67 53 38 55 60 56
REMARK SMILES IDX 45 57 59 58 46 59 49 60 58 61 72 62 47 63 48 64 57 66 73 67
REMARK SMILES IDX 50 68 39 69 40 70 44 71 41 72 43 73 42 74 61 75 62 76 66 77
REMARK SMILES IDX 63 78 65 79 64 80 51 81 52 82 56 83 53 84 55 85 54 86
REMARK H PARENT 7 17 23 29 27 35 71 54 49 65
REMARK Flexibility Score: inf
ROOT
ATOM      1  C   UNL A   1      39.624  28.116  28.170  1.00  0.00     0.018 A 
ATOM      2  C   UNL A   1      39.292  26.945  28.873  1.00  0.00     0.012 A 
ATOM      3  C   UNL A   1      39.751  25.691  28.452  1.00  0.00     0.005 A 
ATOM      4  C   UNL A   1      40.560  25.574  27.316  1.00  0.00    -0.036 A 
ATOM      5  C   UNL A   1      40.857  26.727  26.581  1.00  0.00     0.044 A 
ATOM      6  C   UNL A   1      40.404  27.971  27.014  1.00  0.00     0.131 A 
ATOM      7  F   UNL A   1      40.770  29.048  26.300  1.00  0.00    -0.206 F 
ENDROOT
BRANCH   1   8
ATOM      8  C   UNL A   1      39.176  29.440  28.635  1.00  0.00    -0.012 A 
ATOM      9  C   UNL A   1      37.557  31.252  28.616  1.00  0.00     0.133 A 
ATOM     10  C   UNL A   1      38.349  32.008  29.474  1.00  0.00     0.047 A 
ATOM     11  C   UNL A   1      37.965  29.989  28.186  1.00  0.00     0.056 A 
ATOM     12  C   UNL A   1      39.552  31.478  29.934  1.00  0.00     0.004 A 
ATOM     13  C   UNL A   1      39.959  30.206  29.519  1.00  0.00     0.009 A 
BRANCH   9  14
ATOM     14  O   UNL A   1      36.400  31.865  28.106  1.00  0.00    -0.410 OA
BRANCH  14  15
ATOM     15  C   UNL A   1      35.182  31.223  28.271  1.00  0.00     0.412 C 
ATOM     16  N   UNL A   1      34.430  31.743  29.285  1.00  0.00    -0.321 N 
ATOM     17  H   UNL A   1      33.557  31.317  29.448  1.00  0.00     0.167 HD
ATOM     18  O   UNL A   1      34.771  30.271  27.609  1.00  0.00    -0.224 OA
BRANCH  16  19
ATOM     19  C   UNL A   1      34.781  32.855  30.146  1.00  0.00     0.119 C 
BRANCH  19  20
ATOM     20  C   UNL A   1      34.960  32.421  31.600  1.00  0.00     0.021 C 
BRANCH  20  21
ATOM     21  C   UNL A   1      36.401  32.481  32.121  1.00  0.00     0.002 C 
BRANCH  21  22
ATOM     22  C   UNL A   1      36.732  31.520  33.268  1.00  0.00    -0.000 C 
BRANCH  22  23
ATOM     23  C   UNL A   1      37.958  30.631  33.050  1.00  0.00    -0.003 C 
ATOM     24  C   UNL A   1      37.637  29.321  32.347  1.00  0.00     0.004 C 
ENDBRANCH  22  23
ENDBRANCH  21  22
ENDBRANCH  20  21
ENDBRANCH  19  20
ENDBRANCH  16  19
ENDBRANCH  14  15
ENDBRANCH   9  14
ENDBRANCH   1   8
BRANCH   4  25
ATOM     25  C   UNL A   1      41.114  24.237  26.892  1.00  0.00     0.135 C 
BRANCH  25  26
ATOM     26  C   UNL A   1      42.498  23.946  27.447  1.00  0.00     0.224 C 
ATOM     27  O   UNL A   1      42.710  23.917  28.661  1.00  0.00    -0.275 OA
ATOM     28  N   UNL A   1      43.538  23.688  26.601  1.00  0.00    -0.356 N 
ATOM     29  H   UNL A   1      44.384  23.439  27.038  1.00  0.00     0.163 HD
BRANCH  28  30
ATOM     30  C   UNL A   1      43.574  23.729  25.151  1.00  0.00     0.117 C 
BRANCH  30  31
ATOM     31  C   UNL A   1      44.974  23.470  24.597  1.00  0.00     0.042 C 
BRANCH  31  32
ATOM     32  C   UNL A   1      46.097  24.125  25.397  1.00  0.00     0.118 C 
BRANCH  32  33
ATOM     33  N   UNL A   1      46.773  25.182  24.659  1.00  0.00    -0.352 N 
ATOM     34  C   UNL A   1      46.717  26.546  24.801  1.00  0.00     0.251 C 
ATOM     35  H   UNL A   1      47.368  24.867  23.941  1.00  0.00     0.163 HD
ATOM     36  O   UNL A   1      47.243  27.261  23.953  1.00  0.00    -0.269 OA
BRANCH  34  37
ATOM     37  C   UNL A   1      46.021  27.168  25.950  1.00  0.00     0.039 A 
ATOM     38  C   UNL A   1      46.792  27.666  27.006  1.00  0.00     0.014 A 
ATOM     39  C   UNL A   1      44.627  27.214  26.026  1.00  0.00     0.014 A 
ATOM     40  C   UNL A   1      46.170  28.260  28.107  1.00  0.00     0.010 A 
ATOM     41  C   UNL A   1      44.008  27.863  27.093  1.00  0.00     0.010 A 
ATOM     42  C   UNL A   1      44.773  28.389  28.146  1.00  0.00    -0.014 A 
BRANCH  42  43
ATOM     43  C   UNL A   1      44.095  29.069  29.279  1.00  0.00     0.031 A 
ATOM     44  C   UNL A   1      43.754  30.531  29.194  1.00  0.00     0.074 A 
ATOM     45  C   UNL A   1      43.838  28.385  30.409  1.00  0.00     0.049 A 
ATOM     46  N   UNL A   1      43.222  31.309  30.103  1.00  0.00    -0.248 NA
ATOM     47  C   UNL A   1      44.070  31.212  27.929  1.00  0.00     0.031 C 
ATOM     48  C   UNL A   1      44.139  26.970  30.632  1.00  0.00     0.029 A 
ATOM     49  N   UNL A   1      43.267  28.794  31.589  1.00  0.00    -0.354 N 
ATOM     50  C   UNL A   1      43.158  32.573  29.528  1.00  0.00     0.074 A 
ATOM     51  C   UNL A   1      43.745  32.465  28.209  1.00  0.00     0.031 C 
ATOM     52  C   UNL A   1      43.725  26.621  31.861  1.00  0.00     0.029 A 
ATOM     53  C   UNL A   1      43.168  27.795  32.526  1.00  0.00     0.049 A 
ATOM     54  H   UNL A   1      42.957  29.714  31.747  1.00  0.00     0.167 HD
ATOM     55  C   UNL A   1      42.645  33.716  30.043  1.00  0.00     0.031 A 
ATOM     56  C   UNL A   1      42.687  27.820  33.783  1.00  0.00     0.031 A 
ATOM     57  C   UNL A   1      42.056  33.825  31.350  1.00  0.00     0.049 A 
ATOM     58  C   UNL A   1      42.144  29.106  34.340  1.00  0.00     0.074 A 
ATOM     59  C   UNL A   1      41.466  34.929  31.942  1.00  0.00     0.029 A 
ATOM     60  N   UNL A   1      41.980  32.791  32.270  1.00  0.00    -0.354 N 
ATOM     61  N   UNL A   1      42.047  30.279  33.766  1.00  0.00    -0.248 NA
ATOM     62  C   UNL A   1      41.639  29.064  35.720  1.00  0.00     0.031 C 
ATOM     63  C   UNL A   1      41.073  34.574  33.237  1.00  0.00     0.029 A 
ATOM     64  C   UNL A   1      41.374  33.235  33.433  1.00  0.00     0.049 A 
ATOM     65  H   UNL A   1      42.310  31.876  32.120  1.00  0.00     0.167 HD
ATOM     66  C   UNL A   1      41.445  31.109  34.702  1.00  0.00     0.074 A 
ATOM     67  C   UNL A   1      41.189  30.302  35.878  1.00  0.00     0.031 C 
ATOM     68  C   UNL A   1      41.129  32.423  34.595  1.00  0.00     0.031 A 
BRANCH  55  69
ATOM     69  C   UNL A   1      42.714  34.947  29.183  1.00  0.00    -0.014 A 
ATOM     70  C   UNL A   1      41.678  35.269  28.290  1.00  0.00     0.009 A 
ATOM     71  C   UNL A   1      43.818  35.808  29.279  1.00  0.00     0.009 A 
ATOM     72  C   UNL A   1      41.768  36.404  27.482  1.00  0.00     0.001 A 
ATOM     73  C   UNL A   1      43.892  36.956  28.490  1.00  0.00     0.001 A 
ATOM     74  C   UNL A   1      42.873  37.248  27.584  1.00  0.00     0.000 A 
ENDBRANCH  55  69
BRANCH  56  75
ATOM     75  C   UNL A   1      42.676  26.578  34.596  1.00  0.00    -0.014 A 
ATOM     76  C   UNL A   1      43.878  26.031  35.069  1.00  0.00     0.009 A 
ATOM     77  C   UNL A   1      41.468  25.935  34.907  1.00  0.00     0.009 A 
ATOM     78  C   UNL A   1      43.874  24.854  35.820  1.00  0.00     0.001 A 
ATOM     79  C   UNL A   1      41.464  24.772  35.680  1.00  0.00     0.001 A 
ATOM     80  C   UNL A   1      42.667  24.228  36.128  1.00  0.00     0.000 A 
ENDBRANCH  56  75
BRANCH  68  81
ATOM     81  C   UNL A   1      40.441  33.059  35.769  1.00  0.00    -0.014 A 
ATOM     82  C   UNL A   1      39.043  33.057  35.885  1.00  0.00     0.009 A 
ATOM     83  C   UNL A   1      41.209  33.638  36.792  1.00  0.00     0.009 A 
ATOM     84  C   UNL A   1      38.426  33.649  36.988  1.00  0.00     0.001 A 
ATOM     85  C   UNL A   1      40.591  34.207  37.907  1.00  0.00     0.001 A 
ATOM     86  C   UNL A   1      39.200  34.219  37.999  1.00  0.00     0.000 A 
ENDBRANCH  68  81
ENDBRANCH  42  43
ENDBRANCH  34  37
ENDBRANCH  32  33
ENDBRANCH  31  32
ENDBRANCH  30  31
ENDBRANCH  28  30
ENDBRANCH  25  26
ENDBRANCH   4  25
TORSDOF 19
ENDMDL
MODEL 3
REMARK VINA RESULT:      -8.1      2.138      3.486
REMARK SMILES CCCCCCNC(=O)Oc1cccc(-c2ccc(CC(=O)NCCCNC(=O)c3ccc(-c4c5nc(c(-c6ccccc6)c6ccc([nH]6)c(-c6ccccc6)c6nc(c(-c7ccccc7)c7ccc4[nH]7)C=C6)C=C5)cc3)cc2F)c1
REMARK SMILES IDX 16 1 17 2 18 3 19 4 78 5 79 6 80 7 15 8 11 9 12 10 81 11
REMARK SMILES IDX 13 12 14 13 10 14 8 15 7 16 9 18 6 19 5 20 4 21 3 22 2 23
REMARK SMILES IDX 1 24 20 25 21 26 22 27 23 28 24 30 25 31 26 32 27 33 28 34
REMARK SMILES IDX 29 36 30 37 31 38 77 39 32 40 76 41 33 42 34 43 35 44 70 45
REMARK SMILES IDX 36 46 75 47 69 48 71 49 37 50 74 51 68 52 67 53 38 55 60 56
REMARK SMILES IDX 45 57 59 58 46 59 49 60 58 61 72 62 47 63 48 64 57 66 73 67
REMARK SMILES IDX 50 68 39 69 40 70 44 71 41 72 43 73 42 74 61 75 62 76 66 77
REMARK SMILES IDX 63 78 65 79 64 80 51 81 52 82 56 83 53 84 55 85 54 86
REMARK H PARENT 7 17 23 29 27 35 71 54 49 65
REMARK Flexibility Score: inf
ROOT
ATOM      1  C   UNL A   1      44.893  28.007  26.243  1.00  0.00     0.018 A 
ATOM      2  C   UNL A   1      45.892  27.088  26.604  1.00  0.00     0.012 A 
ATOM      3  C   UNL A   1      45.774  25.728  26.294  1.00  0.00     0.005 A 
ATOM      4  C   UNL A   1      44.650  25.249  25.610  1.00  0.00    -0.036 A 
ATOM      5  C   UNL A   1      43.626  26.146  25.290  1.00  0.00     0.044 A 
ATOM      6  C   UNL A   1      43.759  27.500  25.592  1.00  0.00     0.131 A 
ATOM      7  F   UNL A   1      42.769  28.322  25.207  1.00  0.00    -0.206 F 
ENDROOT
BRANCH   1   8
ATOM      8  C   UNL A   1      45.035  29.445  26.532  1.00  0.00    -0.012 A 
ATOM      9  C   UNL A   1      46.352  31.487  26.510  1.00  0.00     0.133 A 
ATOM     10  C   UNL A   1      45.332  32.186  27.146  1.00  0.00     0.047 A 
ATOM     11  C   UNL A   1      46.218  30.129  26.216  1.00  0.00     0.056 A 
ATOM     12  C   UNL A   1      44.148  31.525  27.464  1.00  0.00     0.004 A 
ATOM     13  C   UNL A   1      44.001  30.168  27.157  1.00  0.00     0.009 A 
BRANCH   9  14
ATOM     14  O   UNL A   1      47.560  32.172  26.295  1.00  0.00    -0.410 OA
BRANCH  14  15
ATOM     15  C   UNL A   1      48.079  32.940  27.326  1.00  0.00     0.412 C 
ATOM     16  N   UNL A   1      48.182  34.265  27.013  1.00  0.00    -0.321 N 
ATOM     17  H   UNL A   1      48.552  34.854  27.710  1.00  0.00     0.167 HD
ATOM     18  O   UNL A   1      48.438  32.526  28.427  1.00  0.00    -0.224 OA
BRANCH  16  19
ATOM     19  C   UNL A   1      47.803  34.896  25.764  1.00  0.00     0.119 C 
BRANCH  19  20
ATOM     20  C   UNL A   1      46.353  35.378  25.782  1.00  0.00     0.021 C 
BRANCH  20  21
ATOM     21  C   UNL A   1      45.925  36.095  27.068  1.00  0.00     0.002 C 
BRANCH  21  22
ATOM     22  C   UNL A   1      44.525  36.719  27.045  1.00  0.00    -0.000 C 
BRANCH  22  23
ATOM     23  C   UNL A   1      43.643  36.403  28.255  1.00  0.00    -0.003 C 
ATOM     24  C   UNL A   1      42.924  35.067  28.144  1.00  0.00     0.004 C 
ENDBRANCH  22  23
ENDBRANCH  21  22
ENDBRANCH  20  21
ENDBRANCH  19  20
ENDBRANCH  16  19
ENDBRANCH  14  15
ENDBRANCH   9  14
ENDBRANCH   1   8
BRANCH   4  25
ATOM     25  C   UNL A   1      44.542  23.798  25.214  1.00  0.00     0.135 C 
BRANCH  25  26
ATOM     26  C   UNL A   1      45.055  22.836  26.273  1.00  0.00     0.224 C 
ATOM     27  O   UNL A   1      46.144  22.272  26.154  1.00  0.00    -0.275 OA
ATOM     28  N   UNL A   1      44.318  22.593  27.396  1.00  0.00    -0.356 N 
ATOM     29  H   UNL A   1      44.749  22.016  28.066  1.00  0.00     0.163 HD
BRANCH  28  30
ATOM     30  C   UNL A   1      42.990  23.066  27.743  1.00  0.00     0.117 C 
BRANCH  30  31
ATOM     31  C   UNL A   1      41.911  22.022  27.462  1.00  0.00     0.042 C 
BRANCH  31  32
ATOM     32  C   UNL A   1      41.503  21.919  25.994  1.00  0.00     0.118 C 
BRANCH  32  33
ATOM     33  N   UNL A   1      40.059  21.879  25.812  1.00  0.00    -0.352 N 
ATOM     34  C   UNL A   1      39.083  22.751  26.223  1.00  0.00     0.251 C 
ATOM     35  H   UNL A   1      39.729  21.097  25.312  1.00  0.00     0.163 HD
ATOM     36  O   UNL A   1      37.903  22.432  26.107  1.00  0.00    -0.269 OA
BRANCH  34  37
ATOM     37  C   UNL A   1      39.429  24.063  26.816  1.00  0.00     0.039 A 
ATOM     38  C   UNL A   1      39.046  24.319  28.137  1.00  0.00     0.014 A 
ATOM     39  C   UNL A   1      40.073  25.056  26.074  1.00  0.00     0.014 A 
ATOM     40  C   UNL A   1      39.355  25.546  28.729  1.00  0.00     0.010 A 
ATOM     41  C   UNL A   1      40.438  26.255  26.684  1.00  0.00     0.010 A 
ATOM     42  C   UNL A   1      40.080  26.514  28.016  1.00  0.00    -0.014 A 
BRANCH  42  43
ATOM     43  C   UNL A   1      40.470  27.801  28.646  1.00  0.00     0.031 A 
ATOM     44  C   UNL A   1      41.859  27.991  29.189  1.00  0.00     0.074 A 
ATOM     45  C   UNL A   1      39.557  28.780  28.781  1.00  0.00     0.049 A 
ATOM     46  N   UNL A   1      42.362  29.016  29.829  1.00  0.00    -0.248 NA
ATOM     47  C   UNL A   1      42.800  26.873  29.009  1.00  0.00     0.031 C 
ATOM     48  C   UNL A   1      38.169  28.717  28.320  1.00  0.00     0.029 A 
ATOM     49  N   UNL A   1      39.661  30.023  29.354  1.00  0.00    -0.354 N 
ATOM     50  C   UNL A   1      43.669  28.661  30.144  1.00  0.00     0.074 A 
ATOM     51  C   UNL A   1      43.866  27.310  29.662  1.00  0.00     0.031 C 
ATOM     52  C   UNL A   1      37.559  29.880  28.603  1.00  0.00     0.029 A 
ATOM     53  C   UNL A   1      38.499  30.753  29.300  1.00  0.00     0.049 A 
ATOM     54  H   UNL A   1      40.490  30.361  29.764  1.00  0.00     0.167 HD
ATOM     55  C   UNL A   1      44.625  29.397  30.763  1.00  0.00     0.031 A 
ATOM     56  C   UNL A   1      38.217  31.984  29.764  1.00  0.00     0.031 A 
ATOM     57  C   UNL A   1      44.435  30.741  31.236  1.00  0.00     0.049 A 
ATOM     58  C   UNL A   1      39.286  32.772  30.467  1.00  0.00     0.074 A 
ATOM     59  C   UNL A   1      45.356  31.584  31.832  1.00  0.00     0.029 A 
ATOM     60  N   UNL A   1      43.240  31.441  31.166  1.00  0.00    -0.354 N 
ATOM     61  N   UNL A   1      40.529  32.440  30.712  1.00  0.00    -0.248 NA
ATOM     62  C   UNL A   1      38.910  34.107  30.951  1.00  0.00     0.031 C 
ATOM     63  C   UNL A   1      44.707  32.780  32.163  1.00  0.00     0.029 A 
ATOM     64  C   UNL A   1      43.394  32.697  31.727  1.00  0.00     0.049 A 
ATOM     65  H   UNL A   1      42.405  31.096  30.775  1.00  0.00     0.167 HD
ATOM     66  C   UNL A   1      41.093  33.535  31.354  1.00  0.00     0.074 A 
ATOM     67  C   UNL A   1      40.058  34.545  31.450  1.00  0.00     0.031 C 
ATOM     68  C   UNL A   1      42.357  33.690  31.819  1.00  0.00     0.031 A 
BRANCH  55  69
ATOM     69  C   UNL A   1      45.963  28.746  30.971  1.00  0.00    -0.014 A 
ATOM     70  C   UNL A   1      46.958  28.796  29.981  1.00  0.00     0.009 A 
ATOM     71  C   UNL A   1      46.242  28.089  32.180  1.00  0.00     0.009 A 
ATOM     72  C   UNL A   1      48.188  28.167  30.181  1.00  0.00     0.001 A 
ATOM     73  C   UNL A   1      47.482  27.485  32.388  1.00  0.00     0.001 A 
ATOM     74  C   UNL A   1      48.451  27.514  31.385  1.00  0.00     0.000 A 
ENDBRANCH  55  69
BRANCH  56  75
ATOM     75  C   UNL A   1      36.864  32.562  29.555  1.00  0.00    -0.014 A 
ATOM     76  C   UNL A   1      35.894  32.471  30.564  1.00  0.00     0.009 A 
ATOM     77  C   UNL A   1      36.537  33.208  28.354  1.00  0.00     0.009 A 
ATOM     78  C   UNL A   1      34.616  32.998  30.367  1.00  0.00     0.001 A 
ATOM     79  C   UNL A   1      35.267  33.757  28.168  1.00  0.00     0.001 A 
ATOM     80  C   UNL A   1      34.305  33.644  29.171  1.00  0.00     0.000 A 
ENDBRANCH  56  75
BRANCH  68  81
ATOM     81  C   UNL A   1      42.698  35.013  32.443  1.00  0.00    -0.014 A 
ATOM     82  C   UNL A   1      42.329  35.312  33.763  1.00  0.00     0.009 A 
ATOM     83  C   UNL A   1      43.430  35.958  31.709  1.00  0.00     0.009 A 
ATOM     84  C   UNL A   1      42.661  36.546  34.326  1.00  0.00     0.001 A 
ATOM     85  C   UNL A   1      43.784  37.181  32.282  1.00  0.00     0.001 A 
ATOM     86  C   UNL A   1      43.392  37.477  33.586  1.00  0.00     0.000 A 
ENDBRANCH  68  81
ENDBRANCH  42  43
ENDBRANCH  34  37
ENDBRANCH  32  33
ENDBRANCH  31  32
ENDBRANCH  30  31
ENDBRANCH  28  30
ENDBRANCH  25  26
ENDBRANCH   4  25
TORSDOF 19
ENDMDL
