MODEL 1
REMARK VINA RESULT:      -9.9      0.000      0.000
REMARK SMILES O=C(C[C@H](CNC(=O)c1ccccn1)c1ccc(Cl)cc1)NCCCNC(=O)c1ccc(-c2c3nc(c(-c4ccccc4)c4ccc([nH]4)c(-c4ccccc4)c4nc(c(-c5ccccc5)c5ccc2[nH]5)C=C4)C=C3)cc1
REMARK SMILES IDX 23 1 22 2 1 3 2 4 3 6 4 7 15 8 16 9 21 10 17 11 20 12 18 13
REMARK SMILES IDX 19 14 5 15 6 16 7 17 8 19 9 20 10 21 14 22 11 23 13 24 12 25
REMARK SMILES IDX 24 26 25 27 26 28 27 29 28 31 29 32 30 33 76 34 31 35 75 36
REMARK SMILES IDX 32 37 33 38 34 39 69 40 35 41 74 42 68 43 70 44 36 45 73 46
REMARK SMILES IDX 67 47 66 48 37 50 59 51 44 52 58 53 45 54 48 55 57 56 71 57
REMARK SMILES IDX 46 58 47 59 56 61 72 62 49 63 38 64 39 65 43 66 40 67 42 68
REMARK SMILES IDX 41 69 60 70 61 71 65 72 62 73 64 74 63 75 50 76 51 77 55 78
REMARK SMILES IDX 52 79 54 80 53 81
REMARK H PARENT 22 5 6 18 26 30 70 49 48 60
REMARK Flexibility Score: inf
ROOT
ATOM      1  C   UNL A   1      46.260  20.010  24.634  1.00  0.00     0.117 C 
ENDROOT
BRANCH   1   2
ATOM      2  N   UNL A   1      46.217  21.392  24.196  1.00  0.00    -0.356 N 
ATOM      3  O   UNL A   1      45.885  22.245  26.286  1.00  0.00    -0.275 OA
ATOM      4  C   UNL A   1      46.083  22.431  25.090  1.00  0.00     0.220 C 
ATOM      5  H   UNL A   1      46.286  21.593  23.235  1.00  0.00     0.163 HD
BRANCH   4   6
ATOM      6  C   UNL A   1      46.095  23.823  24.484  1.00  0.00     0.110 C 
BRANCH   6   7
ATOM      7  C   UNL A   1      46.309  24.965  25.496  1.00  0.00     0.048 C 
BRANCH   7   8
ATOM      8  C   UNL A   1      47.786  25.209  25.792  1.00  0.00    -0.043 A 
ATOM      9  C   UNL A   1      48.332  24.736  26.997  1.00  0.00     0.005 A 
ATOM     10  C   UNL A   1      48.625  25.893  24.897  1.00  0.00     0.005 A 
ATOM     11  C   UNL A   1      49.681  24.938  27.299  1.00  0.00     0.021 A 
ATOM     12  C   UNL A   1      49.972  26.103  25.205  1.00  0.00     0.021 A 
ATOM     13  C   UNL A   1      50.495  25.624  26.403  1.00  0.00     0.041 A 
ATOM     14  Cl  UNL A   1      52.154  25.877  26.778  1.00  0.00    -0.084 Cl
ENDBRANCH   7   8
BRANCH   7  15
ATOM     15  C   UNL A   1      45.555  26.264  25.139  1.00  0.00     0.125 C 
BRANCH  15  16
ATOM     16  N   UNL A   1      44.133  26.097  24.883  1.00  0.00    -0.350 N 
ATOM     17  C   UNL A   1      43.073  26.862  25.317  1.00  0.00     0.269 C 
ATOM     18  H   UNL A   1      43.894  25.326  24.318  1.00  0.00     0.163 HD
ATOM     19  O   UNL A   1      41.926  26.525  25.024  1.00  0.00    -0.268 OA
BRANCH  17  20
ATOM     20  C   UNL A   1      43.328  28.098  26.103  1.00  0.00     0.128 A 
ATOM     21  C   UNL A   1      42.335  29.066  26.213  1.00  0.00     0.034 A 
ATOM     22  N   UNL A   1      44.559  28.215  26.655  1.00  0.00    -0.251 NA
ATOM     23  C   UNL A   1      42.641  30.244  26.887  1.00  0.00     0.004 A 
ATOM     24  C   UNL A   1      44.823  29.367  27.303  1.00  0.00     0.112 A 
ATOM     25  C   UNL A   1      43.909  30.403  27.437  1.00  0.00     0.020 A 
ENDBRANCH  17  20
ENDBRANCH  15  16
ENDBRANCH   7  15
ENDBRANCH   6   7
ENDBRANCH   4   6
ENDBRANCH   1   2
BRANCH   1  26
ATOM     26  C   UNL A   1      44.924  19.297  24.457  1.00  0.00     0.042 C 
BRANCH  26  27
ATOM     27  C   UNL A   1      44.171  19.024  25.758  1.00  0.00     0.118 C 
BRANCH  27  28
ATOM     28  N   UNL A   1      42.732  18.900  25.571  1.00  0.00    -0.352 N 
ATOM     29  C   UNL A   1      41.707  19.728  25.946  1.00  0.00     0.251 C 
ATOM     30  H   UNL A   1      42.448  18.085  25.098  1.00  0.00     0.163 HD
ATOM     31  O   UNL A   1      40.549  19.345  25.783  1.00  0.00    -0.269 OA
BRANCH  29  32
ATOM     32  C   UNL A   1      41.954  21.057  26.553  1.00  0.00     0.039 A 
ATOM     33  C   UNL A   1      41.703  21.215  27.921  1.00  0.00     0.014 A 
ATOM     34  C   UNL A   1      42.357  22.160  25.794  1.00  0.00     0.014 A 
ATOM     35  C   UNL A   1      41.883  22.458  28.530  1.00  0.00     0.010 A 
ATOM     36  C   UNL A   1      42.599  23.386  26.415  1.00  0.00     0.010 A 
ATOM     37  C   UNL A   1      42.348  23.553  27.785  1.00  0.00    -0.014 A 
BRANCH  37  38
ATOM     38  C   UNL A   1      42.540  24.881  28.425  1.00  0.00     0.031 A 
ATOM     39  C   UNL A   1      43.873  25.254  29.017  1.00  0.00     0.074 A 
ATOM     40  C   UNL A   1      41.510  25.745  28.501  1.00  0.00     0.049 A 
ATOM     41  N   UNL A   1      44.228  26.361  29.619  1.00  0.00    -0.248 NA
ATOM     42  C   UNL A   1      44.940  24.243  28.940  1.00  0.00     0.031 C 
ATOM     43  C   UNL A   1      40.156  25.498  28.001  1.00  0.00     0.029 A 
ATOM     44  N   UNL A   1      41.445  27.010  29.029  1.00  0.00    -0.354 N 
ATOM     45  C   UNL A   1      45.548  26.174  30.009  1.00  0.00     0.074 A 
ATOM     46  C   UNL A   1      45.918  24.831  29.614  1.00  0.00     0.031 C 
ATOM     47  C   UNL A   1      39.403  26.588  28.221  1.00  0.00     0.029 A 
ATOM     48  C   UNL A   1      40.210  27.598  28.898  1.00  0.00     0.049 A 
ATOM     49  H   UNL A   1      42.211  27.455  29.460  1.00  0.00     0.167 HD
ATOM     50  C   UNL A   1      46.388  27.042  30.621  1.00  0.00     0.031 A 
ATOM     51  C   UNL A   1      39.778  28.815  29.276  1.00  0.00     0.031 A 
ATOM     52  C   UNL A   1      46.035  28.384  31.000  1.00  0.00     0.049 A 
ATOM     53  C   UNL A   1      40.732  29.768  29.938  1.00  0.00     0.074 A 
ATOM     54  C   UNL A   1      46.832  29.355  31.584  1.00  0.00     0.029 A 
ATOM     55  N   UNL A   1      44.780  28.947  30.830  1.00  0.00    -0.354 N 
ATOM     56  N   UNL A   1      41.994  29.596  30.243  1.00  0.00    -0.248 NA
ATOM     57  C   UNL A   1      40.203  31.095  30.289  1.00  0.00     0.031 C 
ATOM     58  C   UNL A   1      46.049  30.495  31.797  1.00  0.00     0.029 A 
ATOM     59  C   UNL A   1      44.778  30.247  31.304  1.00  0.00     0.049 A 
ATOM     60  H   UNL A   1      44.005  28.489  30.431  1.00  0.00     0.167 HD
ATOM     61  C   UNL A   1      42.419  30.799  30.790  1.00  0.00     0.074 A 
ATOM     62  C   UNL A   1      41.283  31.697  30.766  1.00  0.00     0.031 C 
ATOM     63  C   UNL A   1      43.644  31.132  31.267  1.00  0.00     0.031 A 
BRANCH  50  64
ATOM     64  C   UNL A   1      47.778  26.558  30.923  1.00  0.00    -0.014 A 
ATOM     65  C   UNL A   1      48.038  25.751  32.043  1.00  0.00     0.009 A 
ATOM     66  C   UNL A   1      48.836  26.890  30.063  1.00  0.00     0.009 A 
ATOM     67  C   UNL A   1      49.337  25.318  32.316  1.00  0.00     0.001 A 
ATOM     68  C   UNL A   1      50.130  26.433  30.325  1.00  0.00     0.001 A 
ATOM     69  C   UNL A   1      50.381  25.657  31.456  1.00  0.00     0.000 A 
ENDBRANCH  50  64
BRANCH  51  70
ATOM     70  C   UNL A   1      38.376  29.223  29.001  1.00  0.00    -0.014 A 
ATOM     71  C   UNL A   1      38.000  29.655  27.720  1.00  0.00     0.009 A 
ATOM     72  C   UNL A   1      37.410  29.190  30.019  1.00  0.00     0.009 A 
ATOM     73  C   UNL A   1      36.693  30.073  27.470  1.00  0.00     0.001 A 
ATOM     74  C   UNL A   1      36.096  29.584  29.758  1.00  0.00     0.001 A 
ATOM     75  C   UNL A   1      35.741  30.034  28.488  1.00  0.00     0.000 A 
ENDBRANCH  51  70
BRANCH  63  76
ATOM     76  C   UNL A   1      43.829  32.539  31.757  1.00  0.00    -0.014 A 
ATOM     77  C   UNL A   1      44.297  33.554  30.908  1.00  0.00     0.009 A 
ATOM     78  C   UNL A   1      43.501  32.858  33.084  1.00  0.00     0.009 A 
ATOM     79  C   UNL A   1      44.467  34.854  31.389  1.00  0.00     0.001 A 
ATOM     80  C   UNL A   1      43.648  34.164  33.555  1.00  0.00     0.001 A 
ATOM     81  C   UNL A   1      44.139  35.158  32.710  1.00  0.00     0.000 A 
ENDBRANCH  63  76
ENDBRANCH  37  38
ENDBRANCH  29  32
ENDBRANCH  27  28
ENDBRANCH  26  27
ENDBRANCH   1  26
TORSDOF 15
ENDMDL
MODEL 2
REMARK VINA RESULT:      -9.5      4.660      9.683
REMARK SMILES O=C(C[C@H](CNC(=O)c1ccccn1)c1ccc(Cl)cc1)NCCCNC(=O)c1ccc(-c2c3nc(c(-c4ccccc4)c4ccc([nH]4)c(-c4ccccc4)c4nc(c(-c5ccccc5)c5ccc2[nH]5)C=C4)C=C3)cc1
REMARK SMILES IDX 23 1 22 2 1 3 2 4 3 6 4 7 15 8 16 9 21 10 17 11 20 12 18 13
REMARK SMILES IDX 19 14 5 15 6 16 7 17 8 19 9 20 10 21 14 22 11 23 13 24 12 25
REMARK SMILES IDX 24 26 25 27 26 28 27 29 28 31 29 32 30 33 76 34 31 35 75 36
REMARK SMILES IDX 32 37 33 38 34 39 69 40 35 41 74 42 68 43 70 44 36 45 73 46
REMARK SMILES IDX 67 47 66 48 37 50 59 51 44 52 58 53 45 54 48 55 57 56 71 57
REMARK SMILES IDX 46 58 47 59 56 61 72 62 49 63 38 64 39 65 43 66 40 67 42 68
REMARK SMILES IDX 41 69 60 70 61 71 65 72 62 73 64 74 63 75 50 76 51 77 55 78
REMARK SMILES IDX 52 79 54 80 53 81
REMARK H PARENT 22 5 6 18 26 30 70 49 48 60
REMARK Flexibility Score: inf
ROOT
ATOM      1  C   UNL A   1      36.012  20.280  25.026  1.00  0.00     0.117 C 
ENDROOT
BRANCH   1   2
ATOM      2  N   UNL A   1      35.628  21.653  24.763  1.00  0.00    -0.356 N 
ATOM      3  O   UNL A   1      34.469  21.906  26.712  1.00  0.00    -0.275 OA
ATOM      4  C   UNL A   1      34.912  22.393  25.677  1.00  0.00     0.220 C 
ATOM      5  H   UNL A   1      35.886  22.068  23.908  1.00  0.00     0.163 HD
BRANCH   4   6
ATOM      6  C   UNL A   1      34.620  23.828  25.275  1.00  0.00     0.110 C 
BRANCH   6   7
ATOM      7  C   UNL A   1      33.140  24.240  25.387  1.00  0.00     0.048 C 
BRANCH   7   8
ATOM      8  C   UNL A   1      32.972  25.671  25.888  1.00  0.00    -0.043 A 
ATOM      9  C   UNL A   1      34.049  26.568  25.777  1.00  0.00     0.005 A 
ATOM     10  C   UNL A   1      31.774  26.129  26.458  1.00  0.00     0.005 A 
ATOM     11  C   UNL A   1      33.930  27.886  26.222  1.00  0.00     0.021 A 
ATOM     12  C   UNL A   1      31.659  27.446  26.912  1.00  0.00     0.021 A 
ATOM     13  C   UNL A   1      32.737  28.320  26.790  1.00  0.00     0.041 A 
ATOM     14  Cl  UNL A   1      32.593  29.942  27.342  1.00  0.00    -0.084 Cl
ENDBRANCH   7   8
BRANCH   7  15
ATOM     15  C   UNL A   1      32.317  23.960  24.111  1.00  0.00     0.125 C 
BRANCH  15  16
ATOM     16  N   UNL A   1      32.969  24.336  22.866  1.00  0.00    -0.350 N 
ATOM     17  C   UNL A   1      32.817  25.478  22.112  1.00  0.00     0.269 C 
ATOM     18  H   UNL A   1      33.611  23.678  22.511  1.00  0.00     0.163 HD
ATOM     19  O   UNL A   1      33.434  25.589  21.053  1.00  0.00    -0.268 OA
BRANCH  17  20
ATOM     20  C   UNL A   1      31.937  26.573  22.601  1.00  0.00     0.128 A 
ATOM     21  C   UNL A   1      32.459  27.850  22.784  1.00  0.00     0.034 A 
ATOM     22  N   UNL A   1      30.654  26.237  22.870  1.00  0.00    -0.251 NA
ATOM     23  C   UNL A   1      31.626  28.826  23.321  1.00  0.00     0.004 A 
ATOM     24  C   UNL A   1      29.872  27.206  23.387  1.00  0.00     0.112 A 
ATOM     25  C   UNL A   1      30.310  28.500  23.635  1.00  0.00     0.020 A 
ENDBRANCH  17  20
ENDBRANCH  15  16
ENDBRANCH   7  15
ENDBRANCH   6   7
ENDBRANCH   4   6
ENDBRANCH   1   2
BRANCH   1  26
ATOM     26  C   UNL A   1      37.457  19.990  24.637  1.00  0.00     0.042 C 
BRANCH  26  27
ATOM     27  C   UNL A   1      38.493  20.397  25.683  1.00  0.00     0.118 C 
BRANCH  27  28
ATOM     28  N   UNL A   1      39.634  19.495  25.741  1.00  0.00    -0.352 N 
ATOM     29  C   UNL A   1      40.943  19.728  26.073  1.00  0.00     0.251 C 
ATOM     30  H   UNL A   1      39.432  18.562  25.501  1.00  0.00     0.163 HD
ATOM     31  O   UNL A   1      41.760  18.819  25.928  1.00  0.00    -0.269 OA
BRANCH  29  32
ATOM     32  C   UNL A   1      41.399  21.042  26.583  1.00  0.00     0.039 A 
ATOM     33  C   UNL A   1      41.328  21.275  27.961  1.00  0.00     0.014 A 
ATOM     34  C   UNL A   1      41.826  22.065  25.731  1.00  0.00     0.014 A 
ATOM     35  C   UNL A   1      41.710  22.512  28.486  1.00  0.00     0.010 A 
ATOM     36  C   UNL A   1      42.268  23.278  26.262  1.00  0.00     0.010 A 
ATOM     37  C   UNL A   1      42.199  23.521  27.642  1.00  0.00    -0.014 A 
BRANCH  37  38
ATOM     38  C   UNL A   1      42.605  24.841  28.192  1.00  0.00     0.031 A 
ATOM     39  C   UNL A   1      41.580  25.923  28.404  1.00  0.00     0.074 A 
ATOM     40  C   UNL A   1      43.898  25.080  28.478  1.00  0.00     0.049 A 
ATOM     41  N   UNL A   1      41.745  27.137  28.867  1.00  0.00    -0.248 NA
ATOM     42  C   UNL A   1      40.193  25.608  28.026  1.00  0.00     0.031 C 
ATOM     43  C   UNL A   1      44.999  24.134  28.287  1.00  0.00     0.029 A 
ATOM     44  N   UNL A   1      44.505  26.199  28.993  1.00  0.00    -0.354 N 
ATOM     45  C   UNL A   1      40.491  27.734  28.819  1.00  0.00     0.074 A 
ATOM     46  C   UNL A   1      39.585  26.765  28.241  1.00  0.00     0.031 C 
ATOM     47  C   UNL A   1      46.142  24.702  28.707  1.00  0.00     0.029 A 
ATOM     48  C   UNL A   1      45.860  26.057  29.170  1.00  0.00     0.049 A 
ATOM     49  H   UNL A   1      44.016  27.024  29.214  1.00  0.00     0.167 HD
ATOM     50  C   UNL A   1      40.119  28.968  29.234  1.00  0.00     0.031 A 
ATOM     51  C   UNL A   1      46.772  26.919  29.656  1.00  0.00     0.031 A 
ATOM     52  C   UNL A   1      41.009  29.930  29.827  1.00  0.00     0.049 A 
ATOM     53  C   UNL A   1      46.332  28.276  30.127  1.00  0.00     0.074 A 
ATOM     54  C   UNL A   1      40.714  31.190  30.322  1.00  0.00     0.029 A 
ATOM     55  N   UNL A   1      42.369  29.737  30.008  1.00  0.00    -0.354 N 
ATOM     56  N   UNL A   1      45.132  28.801  30.131  1.00  0.00    -0.248 NA
ATOM     57  C   UNL A   1      47.376  29.152  30.682  1.00  0.00     0.031 C 
ATOM     58  C   UNL A   1      41.903  31.772  30.773  1.00  0.00     0.029 A 
ATOM     59  C   UNL A   1      42.929  30.857  30.600  1.00  0.00     0.049 A 
ATOM     60  H   UNL A   1      42.863  28.926  29.754  1.00  0.00     0.167 HD
ATOM     61  C   UNL A   1      45.268  30.053  30.716  1.00  0.00     0.074 A 
ATOM     62  C   UNL A   1      46.666  30.205  31.064  1.00  0.00     0.031 C 
ATOM     63  C   UNL A   1      44.318  30.992  30.948  1.00  0.00     0.031 A 
BRANCH  50  64
ATOM     64  C   UNL A   1      38.676  29.348  29.055  1.00  0.00    -0.014 A 
ATOM     65  C   UNL A   1      38.201  29.836  27.827  1.00  0.00     0.009 A 
ATOM     66  C   UNL A   1      37.774  29.188  30.119  1.00  0.00     0.009 A 
ATOM     67  C   UNL A   1      36.860  30.194  27.680  1.00  0.00     0.001 A 
ATOM     68  C   UNL A   1      36.427  29.524  29.960  1.00  0.00     0.001 A 
ATOM     69  C   UNL A   1      35.973  30.035  28.745  1.00  0.00     0.000 A 
ENDBRANCH  50  64
BRANCH  51  70
ATOM     70  C   UNL A   1      48.197  26.511  29.760  1.00  0.00    -0.014 A 
ATOM     71  C   UNL A   1      48.661  25.841  30.902  1.00  0.00     0.009 A 
ATOM     72  C   UNL A   1      49.099  26.796  28.724  1.00  0.00     0.009 A 
ATOM     73  C   UNL A   1      50.007  25.490  31.017  1.00  0.00     0.001 A 
ATOM     74  C   UNL A   1      50.440  26.421  28.832  1.00  0.00     0.001 A 
ATOM     75  C   UNL A   1      50.894  25.776  29.981  1.00  0.00     0.000 A 
ENDBRANCH  51  70
BRANCH  63  76
ATOM     76  C   UNL A   1      44.752  32.246  31.652  1.00  0.00    -0.014 A 
ATOM     77  C   UNL A   1      45.186  33.373  30.937  1.00  0.00     0.009 A 
ATOM     78  C   UNL A   1      44.696  32.307  33.053  1.00  0.00     0.009 A 
ATOM     79  C   UNL A   1      45.589  34.525  31.615  1.00  0.00     0.001 A 
ATOM     80  C   UNL A   1      45.075  33.469  33.726  1.00  0.00     0.001 A 
ATOM     81  C   UNL A   1      45.530  34.573  33.008  1.00  0.00     0.000 A 
ENDBRANCH  63  76
ENDBRANCH  37  38
ENDBRANCH  29  32
ENDBRANCH  27  28
ENDBRANCH  26  27
ENDBRANCH   1  26
TORSDOF 15
ENDMDL
MODEL 3
REMARK VINA RESULT:      -9.5      5.306     11.044
REMARK SMILES O=C(C[C@H](CNC(=O)c1ccccn1)c1ccc(Cl)cc1)NCCCNC(=O)c1ccc(-c2c3nc(c(-c4ccccc4)c4ccc([nH]4)c(-c4ccccc4)c4nc(c(-c5ccccc5)c5ccc2[nH]5)C=C4)C=C3)cc1
REMARK SMILES IDX 23 1 22 2 1 3 2 4 3 6 4 7 15 8 16 9 21 10 17 11 20 12 18 13
REMARK SMILES IDX 19 14 5 15 6 16 7 17 8 19 9 20 10 21 14 22 11 23 13 24 12 25
REMARK SMILES IDX 24 26 25 27 26 28 27 29 28 31 29 32 30 33 76 34 31 35 75 36
REMARK SMILES IDX 32 37 33 38 34 39 69 40 35 41 74 42 68 43 70 44 36 45 73 46
REMARK SMILES IDX 67 47 66 48 37 50 59 51 44 52 58 53 45 54 48 55 57 56 71 57
REMARK SMILES IDX 46 58 47 59 56 61 72 62 49 63 38 64 39 65 43 66 40 67 42 68
REMARK SMILES IDX 41 69 60 70 61 71 65 72 62 73 64 74 63 75 50 76 51 77 55 78
REMARK SMILES IDX 52 79 54 80 53 81
REMARK H PARENT 22 5 6 18 26 30 70 49 48 60
REMARK Flexibility Score: inf
ROOT
ATOM      1  C   UNL A   1      33.601  30.229  27.339  1.00  0.00     0.117 C 
ENDROOT
BRANCH   1   2
ATOM      2  N   UNL A   1      33.281  28.817  27.256  1.00  0.00    -0.356 N 
ATOM      3  O   UNL A   1      33.933  28.601  25.080  1.00  0.00    -0.275 OA
ATOM      4  C   UNL A   1      33.530  28.084  26.116  1.00  0.00     0.220 C 
ATOM      5  H   UNL A   1      32.876  28.370  28.033  1.00  0.00     0.163 HD
BRANCH   4   6
ATOM      6  C   UNL A   1      33.178  26.609  26.196  1.00  0.00     0.110 C 
BRANCH   6   7
ATOM      7  C   UNL A   1      33.186  25.872  24.843  1.00  0.00     0.048 C 
BRANCH   7   8
ATOM      8  C   UNL A   1      34.299  24.833  24.754  1.00  0.00    -0.043 A 
ATOM      9  C   UNL A   1      35.216  24.718  25.814  1.00  0.00     0.005 A 
ATOM     10  C   UNL A   1      34.443  23.982  23.648  1.00  0.00     0.005 A 
ATOM     11  C   UNL A   1      36.246  23.776  25.769  1.00  0.00     0.021 A 
ATOM     12  C   UNL A   1      35.481  23.046  23.599  1.00  0.00     0.021 A 
ATOM     13  C   UNL A   1      36.377  22.946  24.660  1.00  0.00     0.041 A 
ATOM     14  Cl  UNL A   1      37.648  21.790  24.603  1.00  0.00    -0.084 Cl
ENDBRANCH   7   8
BRANCH   7  15
ATOM     15  C   UNL A   1      31.810  25.299  24.439  1.00  0.00     0.125 C 
BRANCH  15  16
ATOM     16  N   UNL A   1      30.884  25.091  25.541  1.00  0.00    -0.350 N 
ATOM     17  C   UNL A   1      30.755  24.004  26.377  1.00  0.00     0.269 C 
ATOM     18  H   UNL A   1      30.259  25.833  25.713  1.00  0.00     0.163 HD
ATOM     19  O   UNL A   1      29.869  24.003  27.231  1.00  0.00    -0.268 OA
BRANCH  17  20
ATOM     20  C   UNL A   1      31.704  22.866  26.260  1.00  0.00     0.128 A 
ATOM     21  C   UNL A   1      32.651  22.648  27.256  1.00  0.00     0.034 A 
ATOM     22  N   UNL A   1      31.599  22.109  25.143  1.00  0.00    -0.251 NA
ATOM     23  C   UNL A   1      33.574  21.624  27.070  1.00  0.00     0.004 A 
ATOM     24  C   UNL A   1      32.506  21.123  24.993  1.00  0.00     0.112 A 
ATOM     25  C   UNL A   1      33.507  20.850  25.916  1.00  0.00     0.020 A 
ENDBRANCH  17  20
ENDBRANCH  15  16
ENDBRANCH   7  15
ENDBRANCH   6   7
ENDBRANCH   4   6
ENDBRANCH   1   2
BRANCH   1  26
ATOM     26  C   UNL A   1      32.358  31.113  27.342  1.00  0.00     0.042 C 
BRANCH  26  27
ATOM     27  C   UNL A   1      32.488  32.397  26.525  1.00  0.00     0.118 C 
BRANCH  27  28
ATOM     28  N   UNL A   1      32.265  33.602  27.311  1.00  0.00    -0.352 N 
ATOM     29  C   UNL A   1      32.983  34.140  28.346  1.00  0.00     0.251 C 
ATOM     30  H   UNL A   1      31.465  34.115  27.057  1.00  0.00     0.163 HD
ATOM     31  O   UNL A   1      32.523  35.115  28.940  1.00  0.00    -0.269 OA
BRANCH  29  32
ATOM     32  C   UNL A   1      34.283  33.574  28.776  1.00  0.00     0.039 A 
ATOM     33  C   UNL A   1      35.394  33.767  27.946  1.00  0.00     0.014 A 
ATOM     34  C   UNL A   1      34.414  32.803  29.935  1.00  0.00     0.014 A 
ATOM     35  C   UNL A   1      36.632  33.219  28.289  1.00  0.00     0.010 A 
ATOM     36  C   UNL A   1      35.665  32.310  30.310  1.00  0.00     0.010 A 
ATOM     37  C   UNL A   1      36.782  32.497  29.483  1.00  0.00    -0.014 A 
BRANCH  37  38
ATOM     38  C   UNL A   1      38.096  31.908  29.854  1.00  0.00     0.031 A 
ATOM     39  C   UNL A   1      39.029  32.651  30.773  1.00  0.00     0.074 A 
ATOM     40  C   UNL A   1      38.465  30.717  29.347  1.00  0.00     0.049 A 
ATOM     41  N   UNL A   1      40.215  32.300  31.204  1.00  0.00    -0.248 NA
ATOM     42  C   UNL A   1      38.581  33.967  31.253  1.00  0.00     0.031 C 
ATOM     43  C   UNL A   1      37.673  29.908  28.418  1.00  0.00     0.029 A 
ATOM     44  N   UNL A   1      39.605  29.979  29.544  1.00  0.00    -0.354 N 
ATOM     45  C   UNL A   1      40.661  33.357  31.988  1.00  0.00     0.074 A 
ATOM     46  C   UNL A   1      39.638  34.380  31.938  1.00  0.00     0.031 C 
ATOM     47  C   UNL A   1      38.340  28.773  28.149  1.00  0.00     0.029 A 
ATOM     48  C   UNL A   1      39.613  28.786  28.863  1.00  0.00     0.049 A 
ATOM     49  H   UNL A   1      40.347  30.276  30.119  1.00  0.00     0.167 HD
ATOM     50  C   UNL A   1      41.807  33.465  32.702  1.00  0.00     0.031 A 
ATOM     51  C   UNL A   1      40.537  27.809  28.822  1.00  0.00     0.031 A 
ATOM     52  C   UNL A   1      42.819  32.446  32.772  1.00  0.00     0.049 A 
ATOM     53  C   UNL A   1      41.793  27.943  29.637  1.00  0.00     0.074 A 
ATOM     54  C   UNL A   1      43.994  32.445  33.507  1.00  0.00     0.029 A 
ATOM     55  N   UNL A   1      42.777  31.244  32.084  1.00  0.00    -0.354 N 
ATOM     56  N   UNL A   1      42.170  28.923  30.420  1.00  0.00    -0.248 NA
ATOM     57  C   UNL A   1      42.742  26.821  29.575  1.00  0.00     0.031 C 
ATOM     58  C   UNL A   1      44.678  31.255  33.238  1.00  0.00     0.029 A 
ATOM     59  C   UNL A   1      43.907  30.497  32.371  1.00  0.00     0.049 A 
ATOM     60  H   UNL A   1      42.051  30.963  31.482  1.00  0.00     0.167 HD
ATOM     61  C   UNL A   1      43.381  28.524  30.970  1.00  0.00     0.074 A 
ATOM     62  C   UNL A   1      43.671  27.208  30.439  1.00  0.00     0.031 C 
ATOM     63  C   UNL A   1      44.179  29.187  31.842  1.00  0.00     0.031 A 
BRANCH  50  64
ATOM     64  C   UNL A   1      42.024  34.741  33.465  1.00  0.00    -0.014 A 
ATOM     65  C   UNL A   1      41.515  34.905  34.764  1.00  0.00     0.009 A 
ATOM     66  C   UNL A   1      42.770  35.781  32.890  1.00  0.00     0.009 A 
ATOM     67  C   UNL A   1      41.716  36.100  35.456  1.00  0.00     0.001 A 
ATOM     68  C   UNL A   1      42.992  36.966  33.596  1.00  0.00     0.001 A 
ATOM     69  C   UNL A   1      42.456  37.129  34.873  1.00  0.00     0.000 A 
ENDBRANCH  50  64
BRANCH  51  70
ATOM     70  C   UNL A   1      40.295  26.591  28.007  1.00  0.00    -0.014 A 
ATOM     71  C   UNL A   1      39.546  25.526  28.528  1.00  0.00     0.009 A 
ATOM     72  C   UNL A   1      40.818  26.485  26.709  1.00  0.00     0.009 A 
ATOM     73  C   UNL A   1      39.348  24.367  27.776  1.00  0.00     0.001 A 
ATOM     74  C   UNL A   1      40.597  25.334  25.950  1.00  0.00     0.001 A 
ATOM     75  C   UNL A   1      39.871  24.273  26.488  1.00  0.00     0.000 A 
ENDBRANCH  51  70
BRANCH  63  76
ATOM     76  C   UNL A   1      45.419  28.480  32.310  1.00  0.00    -0.014 A 
ATOM     77  C   UNL A   1      45.402  27.643  33.436  1.00  0.00     0.009 A 
ATOM     78  C   UNL A   1      46.615  28.633  31.592  1.00  0.00     0.009 A 
ATOM     79  C   UNL A   1      46.569  27.001  33.855  1.00  0.00     0.001 A 
ATOM     80  C   UNL A   1      47.774  27.970  31.999  1.00  0.00     0.001 A 
ATOM     81  C   UNL A   1      47.752  27.162  33.134  1.00  0.00     0.000 A 
ENDBRANCH  63  76
ENDBRANCH  37  38
ENDBRANCH  29  32
ENDBRANCH  27  28
ENDBRANCH  26  27
ENDBRANCH   1  26
TORSDOF 15
ENDMDL
