MODEL 1
REMARK VINA RESULT:     -11.9      0.000      0.000
REMARK SMILES O=C(NCCCNC(=O)[C@@H](Cc1c[nH]c2ccccc12)NC(=O)c1ccc(F)cc1F)c1ccc(-c2c3nc(c(-c4ccccc4)c4ccc([nH]4)c(-c4ccccc4)c4nc(c(-c5ccccc5)c5ccc2[nH]5)C=C4)C=C3)cc1
REMARK SMILES IDX 5 1 4 2 3 3 1 4 2 5 32 7 33 8 79 9 34 10 78 11 35 12 36 13
REMARK SMILES IDX 37 14 72 15 38 16 77 17 71 18 73 19 39 20 76 21 70 22 69 23
REMARK SMILES IDX 40 25 62 26 47 27 61 28 48 29 51 30 60 31 74 32 49 33 50 34
REMARK SMILES IDX 59 36 75 37 52 38 41 39 42 40 46 41 43 42 45 43 44 44 63 45
REMARK SMILES IDX 64 46 68 47 65 48 67 49 66 50 53 51 54 52 58 53 55 54 57 55
REMARK SMILES IDX 56 56 6 57 7 58 8 59 9 61 10 62 11 63 12 64 13 65 20 66
REMARK SMILES IDX 14 67 15 68 19 69 16 71 18 72 17 73 21 74 22 75 23 77 24 78
REMARK SMILES IDX 25 79 30 80 26 81 29 82 31 83 27 84 28 85
REMARK H PARENT 3 6 73 24 51 35 7 60 14 70 21 76
REMARK Flexibility Score: inf
ROOT
ATOM      1  C   UNL A   1      37.051  23.306  24.612  1.00  0.00     0.042 C 
ENDROOT
BRANCH   1   2
ATOM      2  C   UNL A   1      37.332  22.387  25.793  1.00  0.00     0.118 C 
BRANCH   2   3
ATOM      3  N   UNL A   1      38.733  22.017  25.863  1.00  0.00    -0.352 N 
ATOM      4  O   UNL A   1      40.952  22.271  25.880  1.00  0.00    -0.269 OA
ATOM      5  C   UNL A   1      39.853  22.756  26.148  1.00  0.00     0.251 C 
ATOM      6  H   UNL A   1      38.912  21.068  25.674  1.00  0.00     0.163 HD
BRANCH   5   7
ATOM      7  C   UNL A   1      39.800  24.108  26.770  1.00  0.00     0.039 A 
ATOM      8  C   UNL A   1      39.283  24.333  28.048  1.00  0.00     0.014 A 
ATOM      9  C   UNL A   1      40.452  25.162  26.113  1.00  0.00     0.014 A 
ATOM     10  C   UNL A   1      39.357  25.600  28.633  1.00  0.00     0.010 A 
ATOM     11  C   UNL A   1      40.613  26.406  26.738  1.00  0.00     0.010 A 
ATOM     12  C   UNL A   1      40.081  26.631  28.014  1.00  0.00    -0.014 A 
BRANCH  12  13
ATOM     13  C   UNL A   1      40.432  27.849  28.792  1.00  0.00     0.031 A 
ATOM     14  C   UNL A   1      41.736  27.981  29.523  1.00  0.00     0.074 A 
ATOM     15  C   UNL A   1      39.522  28.846  28.859  1.00  0.00     0.049 A 
ATOM     16  N   UNL A   1      42.171  28.983  30.248  1.00  0.00    -0.248 NA
ATOM     17  C   UNL A   1      42.671  26.849  29.442  1.00  0.00     0.031 C 
ATOM     18  C   UNL A   1      38.198  28.825  28.229  1.00  0.00     0.029 A 
ATOM     19  N   UNL A   1      39.568  30.068  29.482  1.00  0.00    -0.354 N 
ATOM     20  C   UNL A   1      43.417  28.597  30.725  1.00  0.00     0.074 A 
ATOM     21  C   UNL A   1      43.666  27.264  30.217  1.00  0.00     0.031 C 
ATOM     22  C   UNL A   1      37.577  29.989  28.463  1.00  0.00     0.029 A 
ATOM     23  C   UNL A   1      38.426  30.815  29.313  1.00  0.00     0.049 A 
ATOM     24  H   UNL A   1      40.346  30.381  29.999  1.00  0.00     0.167 HD
ATOM     25  C   UNL A   1      44.271  29.292  31.513  1.00  0.00     0.031 A 
ATOM     26  C   UNL A   1      38.079  32.018  29.806  1.00  0.00     0.031 A 
ATOM     27  C   UNL A   1      44.027  30.621  32.012  1.00  0.00     0.049 A 
ATOM     28  C   UNL A   1      39.037  32.746  30.700  1.00  0.00     0.074 A 
ATOM     29  C   UNL A   1      44.874  31.432  32.750  1.00  0.00     0.029 A 
ATOM     30  N   UNL A   1      42.848  31.327  31.842  1.00  0.00    -0.354 N 
ATOM     31  N   UNL A   1      40.245  32.398  31.068  1.00  0.00    -0.248 NA
ATOM     32  C   UNL A   1      38.579  34.027  31.255  1.00  0.00     0.031 C 
ATOM     33  C   UNL A   1      44.186  32.604  33.076  1.00  0.00     0.029 A 
ATOM     34  C   UNL A   1      42.928  32.544  32.501  1.00  0.00     0.049 A 
ATOM     35  H   UNL A   1      42.068  31.011  31.330  1.00  0.00     0.167 HD
ATOM     36  C   UNL A   1      40.692  33.416  31.897  1.00  0.00     0.074 A 
ATOM     37  C   UNL A   1      39.639  34.410  31.953  1.00  0.00     0.031 C 
ATOM     38  C   UNL A   1      41.868  33.513  32.562  1.00  0.00     0.031 A 
BRANCH  25  39
ATOM     39  C   UNL A   1      45.558  28.628  31.915  1.00  0.00    -0.014 A 
ATOM     40  C   UNL A   1      46.726  28.788  31.155  1.00  0.00     0.009 A 
ATOM     41  C   UNL A   1      45.622  27.915  33.122  1.00  0.00     0.009 A 
ATOM     42  C   UNL A   1      47.932  28.232  31.592  1.00  0.00     0.001 A 
ATOM     43  C   UNL A   1      46.831  27.376  33.564  1.00  0.00     0.001 A 
ATOM     44  C   UNL A   1      47.984  27.532  32.797  1.00  0.00     0.000 A 
ENDBRANCH  25  39
BRANCH  26  45
ATOM     45  C   UNL A   1      36.741  32.586  29.503  1.00  0.00    -0.014 A 
ATOM     46  C   UNL A   1      35.672  32.419  30.396  1.00  0.00     0.009 A 
ATOM     47  C   UNL A   1      36.526  33.293  28.309  1.00  0.00     0.009 A 
ATOM     48  C   UNL A   1      34.409  32.932  30.088  1.00  0.00     0.001 A 
ATOM     49  C   UNL A   1      35.271  33.830  28.018  1.00  0.00     0.001 A 
ATOM     50  C   UNL A   1      34.212  33.641  28.902  1.00  0.00     0.000 A 
ENDBRANCH  26  45
BRANCH  38  51
ATOM     51  C   UNL A   1      42.070  34.736  33.408  1.00  0.00    -0.014 A 
ATOM     52  C   UNL A   1      41.596  34.782  34.728  1.00  0.00     0.009 A 
ATOM     53  C   UNL A   1      42.763  35.841  32.890  1.00  0.00     0.009 A 
ATOM     54  C   UNL A   1      41.789  35.925  35.506  1.00  0.00     0.001 A 
ATOM     55  C   UNL A   1      42.974  36.972  33.679  1.00  0.00     0.001 A 
ATOM     56  C   UNL A   1      42.480  37.016  34.982  1.00  0.00     0.000 A 
ENDBRANCH  38  51
ENDBRANCH  12  13
ENDBRANCH   5   7
ENDBRANCH   2   3
ENDBRANCH   1   2
BRANCH   1  57
ATOM     57  C   UNL A   1      36.211  22.657  23.516  1.00  0.00     0.117 C 
BRANCH  57  58
ATOM     58  N   UNL A   1      34.931  22.226  24.054  1.00  0.00    -0.354 N 
ATOM     59  C   UNL A   1      33.841  22.929  24.459  1.00  0.00     0.242 C 
ATOM     60  H   UNL A   1      34.837  21.249  24.139  1.00  0.00     0.163 HD
ATOM     61  O   UNL A   1      33.126  22.378  25.305  1.00  0.00    -0.273 OA
BRANCH  59  62
ATOM     62  C   UNL A   1      33.498  24.358  23.990  1.00  0.00     0.176 C 
BRANCH  62  63
ATOM     63  C   UNL A   1      34.053  25.498  24.865  1.00  0.00     0.072 C 
BRANCH  63  64
ATOM     64  C   UNL A   1      33.091  26.301  25.689  1.00  0.00    -0.020 A 
ATOM     65  C   UNL A   1      31.865  25.844  26.138  1.00  0.00     0.087 A 
ATOM     66  C   UNL A   1      33.190  27.671  26.107  1.00  0.00     0.003 A 
ATOM     67  N   UNL A   1      31.272  26.833  26.875  1.00  0.00    -0.361 N 
ATOM     68  C   UNL A   1      32.081  27.942  26.913  1.00  0.00     0.046 A 
ATOM     69  C   UNL A   1      34.126  28.708  25.906  1.00  0.00     0.010 A 
ATOM     70  H   UNL A   1      30.394  26.760  27.315  1.00  0.00     0.166 HD
ATOM     71  C   UNL A   1      31.909  29.154  27.592  1.00  0.00     0.026 A 
ATOM     72  C   UNL A   1      33.971  29.926  26.579  1.00  0.00     0.001 A 
ATOM     73  C   UNL A   1      32.886  30.138  27.423  1.00  0.00     0.002 A 
ENDBRANCH  63  64
ENDBRANCH  62  63
BRANCH  62  74
ATOM     74  N   UNL A   1      33.627  24.598  22.549  1.00  0.00    -0.340 N 
ATOM     75  C   UNL A   1      33.028  25.538  21.755  1.00  0.00     0.254 C 
ATOM     76  H   UNL A   1      34.240  23.988  22.080  1.00  0.00     0.164 HD
ATOM     77  O   UNL A   1      33.225  25.516  20.537  1.00  0.00    -0.269 OA
BRANCH  75  78
ATOM     78  C   UNL A   1      32.181  26.595  22.331  1.00  0.00     0.075 A 
ATOM     79  C   UNL A   1      30.878  26.320  22.768  1.00  0.00     0.020 A 
ATOM     80  C   UNL A   1      32.708  27.879  22.488  1.00  0.00     0.138 A 
ATOM     81  C   UNL A   1      30.095  27.348  23.298  1.00  0.00     0.040 A 
ATOM     82  C   UNL A   1      31.938  28.900  23.033  1.00  0.00     0.079 A 
ATOM     83  F   UNL A   1      33.957  28.163  22.093  1.00  0.00    -0.206 F 
ATOM     84  C   UNL A   1      30.633  28.627  23.423  1.00  0.00     0.126 A 
ATOM     85  F   UNL A   1      29.879  29.609  23.932  1.00  0.00    -0.207 F 
ENDBRANCH  75  78
ENDBRANCH  62  74
ENDBRANCH  59  62
ENDBRANCH  57  58
ENDBRANCH   1  57
TORSDOF 14
ENDMDL
MODEL 2
REMARK VINA RESULT:     -11.8      0.438      5.726
REMARK SMILES O=C(NCCCNC(=O)[C@@H](Cc1c[nH]c2ccccc12)NC(=O)c1ccc(F)cc1F)c1ccc(-c2c3nc(c(-c4ccccc4)c4ccc([nH]4)c(-c4ccccc4)c4nc(c(-c5ccccc5)c5ccc2[nH]5)C=C4)C=C3)cc1
REMARK SMILES IDX 5 1 4 2 3 3 1 4 2 5 32 7 33 8 79 9 34 10 78 11 35 12 36 13
REMARK SMILES IDX 37 14 72 15 38 16 77 17 71 18 73 19 39 20 76 21 70 22 69 23
REMARK SMILES IDX 40 25 62 26 47 27 61 28 48 29 51 30 60 31 74 32 49 33 50 34
REMARK SMILES IDX 59 36 75 37 52 38 41 39 42 40 46 41 43 42 45 43 44 44 63 45
REMARK SMILES IDX 64 46 68 47 65 48 67 49 66 50 53 51 54 52 58 53 55 54 57 55
REMARK SMILES IDX 56 56 6 57 7 58 8 59 9 61 10 62 11 63 12 64 13 65 20 66
REMARK SMILES IDX 14 67 15 68 19 69 16 71 18 72 17 73 21 74 22 75 23 77 24 78
REMARK SMILES IDX 25 79 30 80 26 81 29 82 31 83 27 84 28 85
REMARK H PARENT 3 6 73 24 51 35 7 60 14 70 21 76
REMARK Flexibility Score: inf
ROOT
ATOM      1  C   UNL A   1      37.169  21.703  24.543  1.00  0.00     0.042 C 
ENDROOT
BRANCH   1   2
ATOM      2  C   UNL A   1      37.772  22.406  25.751  1.00  0.00     0.118 C 
BRANCH   2   3
ATOM      3  N   UNL A   1      39.195  22.149  25.866  1.00  0.00    -0.352 N 
ATOM      4  O   UNL A   1      41.383  22.581  25.973  1.00  0.00    -0.269 OA
ATOM      5  C   UNL A   1      40.240  22.969  26.211  1.00  0.00     0.251 C 
ATOM      6  H   UNL A   1      39.458  21.223  25.661  1.00  0.00     0.163 HD
BRANCH   5   7
ATOM      7  C   UNL A   1      40.053  24.294  26.863  1.00  0.00     0.039 A 
ATOM      8  C   UNL A   1      39.407  24.449  28.092  1.00  0.00     0.014 A 
ATOM      9  C   UNL A   1      40.705  25.403  26.302  1.00  0.00     0.014 A 
ATOM     10  C   UNL A   1      39.356  25.697  28.717  1.00  0.00     0.010 A 
ATOM     11  C   UNL A   1      40.738  26.631  26.974  1.00  0.00     0.010 A 
ATOM     12  C   UNL A   1      40.076  26.785  28.199  1.00  0.00    -0.014 A 
BRANCH  12  13
ATOM     13  C   UNL A   1      40.284  27.993  29.042  1.00  0.00     0.031 A 
ATOM     14  C   UNL A   1      39.276  29.104  29.108  1.00  0.00     0.074 A 
ATOM     15  C   UNL A   1      41.437  28.093  29.740  1.00  0.00     0.049 A 
ATOM     16  N   UNL A   1      39.331  30.219  29.794  1.00  0.00    -0.248 NA
ATOM     17  C   UNL A   1      38.057  28.955  28.300  1.00  0.00     0.031 C 
ATOM     18  C   UNL A   1      42.519  27.102  29.729  1.00  0.00     0.029 A 
ATOM     19  N   UNL A   1      41.894  29.066  30.592  1.00  0.00    -0.354 N 
ATOM     20  C   UNL A   1      38.167  30.913  29.487  1.00  0.00     0.074 A 
ATOM     21  C   UNL A   1      37.430  30.099  28.544  1.00  0.00     0.031 C 
ATOM     22  C   UNL A   1      43.490  27.498  30.563  1.00  0.00     0.029 A 
ATOM     23  C   UNL A   1      43.136  28.798  31.117  1.00  0.00     0.049 A 
ATOM     24  H   UNL A   1      41.381  29.879  30.808  1.00  0.00     0.167 HD
ATOM     25  C   UNL A   1      37.756  32.117  29.950  1.00  0.00     0.031 A 
ATOM     26  C   UNL A   1      43.924  29.525  31.932  1.00  0.00     0.031 A 
ATOM     27  C   UNL A   1      38.486  32.924  30.895  1.00  0.00     0.049 A 
ATOM     28  C   UNL A   1      43.449  30.868  32.402  1.00  0.00     0.074 A 
ATOM     29  C   UNL A   1      38.104  34.120  31.480  1.00  0.00     0.029 A 
ATOM     30  N   UNL A   1      39.750  32.630  31.376  1.00  0.00    -0.354 N 
ATOM     31  N   UNL A   1      42.309  31.465  32.166  1.00  0.00    -0.248 NA
ATOM     32  C   UNL A   1      44.377  31.639  33.241  1.00  0.00     0.031 C 
ATOM     33  C   UNL A   1      39.161  34.578  32.272  1.00  0.00     0.029 A 
ATOM     34  C   UNL A   1      40.183  33.645  32.216  1.00  0.00     0.049 A 
ATOM     35  H   UNL A   1      40.266  31.821  31.155  1.00  0.00     0.167 HD
ATOM     36  C   UNL A   1      42.380  32.683  32.826  1.00  0.00     0.074 A 
ATOM     37  C   UNL A   1      43.662  32.725  33.498  1.00  0.00     0.031 C 
ATOM     38  C   UNL A   1      41.466  33.682  32.863  1.00  0.00     0.031 A 
BRANCH  25  39
ATOM     39  C   UNL A   1      36.457  32.665  29.432  1.00  0.00    -0.014 A 
ATOM     40  C   UNL A   1      36.410  33.452  28.272  1.00  0.00     0.009 A 
ATOM     41  C   UNL A   1      35.254  32.307  30.061  1.00  0.00     0.009 A 
ATOM     42  C   UNL A   1      35.183  33.881  27.760  1.00  0.00     0.001 A 
ATOM     43  C   UNL A   1      34.029  32.722  29.537  1.00  0.00     0.001 A 
ATOM     44  C   UNL A   1      33.994  33.512  28.389  1.00  0.00     0.000 A 
ENDBRANCH  25  39
BRANCH  26  45
ATOM     45  C   UNL A   1      45.265  29.016  32.314  1.00  0.00    -0.014 A 
ATOM     46  C   UNL A   1      45.438  28.250  33.476  1.00  0.00     0.009 A 
ATOM     47  C   UNL A   1      46.385  29.306  31.517  1.00  0.00     0.009 A 
ATOM     48  C   UNL A   1      46.710  27.801  33.843  1.00  0.00     0.001 A 
ATOM     49  C   UNL A   1      47.650  28.831  31.870  1.00  0.00     0.001 A 
ATOM     50  C   UNL A   1      47.812  28.088  33.037  1.00  0.00     0.000 A 
ENDBRANCH  26  45
BRANCH  38  51
ATOM     51  C   UNL A   1      41.829  34.904  33.655  1.00  0.00    -0.014 A 
ATOM     52  C   UNL A   1      41.368  35.068  34.971  1.00  0.00     0.009 A 
ATOM     53  C   UNL A   1      42.658  35.885  33.093  1.00  0.00     0.009 A 
ATOM     54  C   UNL A   1      41.710  36.208  35.700  1.00  0.00     0.001 A 
ATOM     55  C   UNL A   1      43.017  37.012  33.833  1.00  0.00     0.001 A 
ATOM     56  C   UNL A   1      42.537  37.176  35.131  1.00  0.00     0.000 A 
ENDBRANCH  38  51
ENDBRANCH  12  13
ENDBRANCH   5   7
ENDBRANCH   2   3
ENDBRANCH   1   2
BRANCH   1  57
ATOM     57  C   UNL A   1      36.142  22.546  23.792  1.00  0.00     0.117 C 
BRANCH  57  58
ATOM     58  N   UNL A   1      34.796  22.098  24.110  1.00  0.00    -0.354 N 
ATOM     59  C   UNL A   1      33.657  22.788  24.381  1.00  0.00     0.242 C 
ATOM     60  H   UNL A   1      34.692  21.119  24.134  1.00  0.00     0.163 HD
ATOM     61  O   UNL A   1      32.823  22.203  25.082  1.00  0.00    -0.273 OA
BRANCH  59  62
ATOM     62  C   UNL A   1      33.388  24.240  23.933  1.00  0.00     0.176 C 
BRANCH  62  63
ATOM     63  C   UNL A   1      33.958  25.337  24.852  1.00  0.00     0.072 C 
BRANCH  63  64
ATOM     64  C   UNL A   1      33.004  26.148  25.677  1.00  0.00    -0.020 A 
ATOM     65  C   UNL A   1      31.786  25.693  26.149  1.00  0.00     0.087 A 
ATOM     66  C   UNL A   1      33.101  27.526  26.071  1.00  0.00     0.003 A 
ATOM     67  N   UNL A   1      31.198  26.690  26.878  1.00  0.00    -0.361 N 
ATOM     68  C   UNL A   1      32.001  27.804  26.887  1.00  0.00     0.046 A 
ATOM     69  C   UNL A   1      34.028  28.564  25.841  1.00  0.00     0.010 A 
ATOM     70  H   UNL A   1      30.326  26.619  27.331  1.00  0.00     0.166 HD
ATOM     71  C   UNL A   1      31.832  29.026  27.550  1.00  0.00     0.026 A 
ATOM     72  C   UNL A   1      33.876  29.792  26.496  1.00  0.00     0.001 A 
ATOM     73  C   UNL A   1      32.801  30.012  27.351  1.00  0.00     0.002 A 
ENDBRANCH  63  64
ENDBRANCH  62  63
BRANCH  62  74
ATOM     74  N   UNL A   1      33.575  24.506  22.503  1.00  0.00    -0.340 N 
ATOM     75  C   UNL A   1      33.040  25.486  21.711  1.00  0.00     0.254 C 
ATOM     76  H   UNL A   1      34.180  23.883  22.041  1.00  0.00     0.164 HD
ATOM     77  O   UNL A   1      33.278  25.482  20.501  1.00  0.00    -0.269 OA
BRANCH  75  78
ATOM     78  C   UNL A   1      32.215  26.562  22.283  1.00  0.00     0.075 A 
ATOM     79  C   UNL A   1      30.909  26.315  22.727  1.00  0.00     0.020 A 
ATOM     80  C   UNL A   1      32.767  27.837  22.429  1.00  0.00     0.138 A 
ATOM     81  C   UNL A   1      30.147  27.362  23.252  1.00  0.00     0.040 A 
ATOM     82  C   UNL A   1      32.019  28.876  22.970  1.00  0.00     0.079 A 
ATOM     83  F   UNL A   1      34.020  28.095  22.027  1.00  0.00    -0.206 F 
ATOM     84  C   UNL A   1      30.710  28.631  23.366  1.00  0.00     0.126 A 
ATOM     85  F   UNL A   1      29.976  29.630  23.872  1.00  0.00    -0.207 F 
ENDBRANCH  75  78
ENDBRANCH  62  74
ENDBRANCH  59  62
ENDBRANCH  57  58
ENDBRANCH   1  57
TORSDOF 14
ENDMDL
MODEL 3
REMARK VINA RESULT:     -11.8      2.955      8.046
REMARK SMILES O=C(NCCCNC(=O)[C@@H](Cc1c[nH]c2ccccc12)NC(=O)c1ccc(F)cc1F)c1ccc(-c2c3nc(c(-c4ccccc4)c4ccc([nH]4)c(-c4ccccc4)c4nc(c(-c5ccccc5)c5ccc2[nH]5)C=C4)C=C3)cc1
REMARK SMILES IDX 5 1 4 2 3 3 1 4 2 5 32 7 33 8 79 9 34 10 78 11 35 12 36 13
REMARK SMILES IDX 37 14 72 15 38 16 77 17 71 18 73 19 39 20 76 21 70 22 69 23
REMARK SMILES IDX 40 25 62 26 47 27 61 28 48 29 51 30 60 31 74 32 49 33 50 34
REMARK SMILES IDX 59 36 75 37 52 38 41 39 42 40 46 41 43 42 45 43 44 44 63 45
REMARK SMILES IDX 64 46 68 47 65 48 67 49 66 50 53 51 54 52 58 53 55 54 57 55
REMARK SMILES IDX 56 56 6 57 7 58 8 59 9 61 10 62 11 63 12 64 13 65 20 66
REMARK SMILES IDX 14 67 15 68 19 69 16 71 18 72 17 73 21 74 22 75 23 77 24 78
REMARK SMILES IDX 25 79 30 80 26 81 29 82 31 83 27 84 28 85
REMARK H PARENT 3 6 73 24 51 35 7 60 14 70 21 76
REMARK Flexibility Score: inf
ROOT
ATOM      1  C   UNL A   1      33.176  28.673  27.301  1.00  0.00     0.042 C 
ENDROOT
BRANCH   1   2
ATOM      2  C   UNL A   1      33.453  30.024  26.656  1.00  0.00     0.118 C 
BRANCH   2   3
ATOM      3  N   UNL A   1      33.690  31.054  27.650  1.00  0.00    -0.352 N 
ATOM      4  O   UNL A   1      34.490  32.012  29.502  1.00  0.00    -0.269 OA
ATOM      5  C   UNL A   1      34.663  31.184  28.608  1.00  0.00     0.251 C 
ATOM      6  H   UNL A   1      33.037  31.791  27.633  1.00  0.00     0.163 HD
BRANCH   5   7
ATOM      7  C   UNL A   1      35.916  30.380  28.609  1.00  0.00     0.039 A 
ATOM      8  C   UNL A   1      36.821  30.385  27.545  1.00  0.00     0.014 A 
ATOM      9  C   UNL A   1      36.280  29.730  29.798  1.00  0.00     0.014 A 
ATOM     10  C   UNL A   1      38.035  29.702  27.640  1.00  0.00     0.010 A 
ATOM     11  C   UNL A   1      37.538  29.128  29.930  1.00  0.00     0.010 A 
ATOM     12  C   UNL A   1      38.436  29.124  28.855  1.00  0.00    -0.014 A 
BRANCH  12  13
ATOM     13  C   UNL A   1      39.852  28.703  29.034  1.00  0.00     0.031 A 
ATOM     14  C   UNL A   1      40.904  29.641  29.552  1.00  0.00     0.074 A 
ATOM     15  C   UNL A   1      40.192  27.443  28.684  1.00  0.00     0.049 A 
ATOM     16  N   UNL A   1      42.179  29.412  29.751  1.00  0.00    -0.248 NA
ATOM     17  C   UNL A   1      40.481  31.010  29.883  1.00  0.00     0.031 C 
ATOM     18  C   UNL A   1      39.273  26.445  28.127  1.00  0.00     0.029 A 
ATOM     19  N   UNL A   1      41.393  26.783  28.744  1.00  0.00    -0.354 N 
ATOM     20  C   UNL A   1      42.715  30.608  30.209  1.00  0.00     0.074 A 
ATOM     21  C   UNL A   1      41.630  31.566  30.250  1.00  0.00     0.031 C 
ATOM     22  C   UNL A   1      39.933  25.294  27.935  1.00  0.00     0.029 A 
ATOM     23  C   UNL A   1      41.332  25.487  28.291  1.00  0.00     0.049 A 
ATOM     24  H   UNL A   1      42.220  27.199  29.082  1.00  0.00     0.167 HD
ATOM     25  C   UNL A   1      43.994  30.879  30.563  1.00  0.00     0.031 A 
ATOM     26  C   UNL A   1      42.295  24.558  28.145  1.00  0.00     0.031 A 
ATOM     27  C   UNL A   1      45.072  29.924  30.530  1.00  0.00     0.049 A 
ATOM     28  C   UNL A   1      43.706  24.902  28.519  1.00  0.00     0.074 A 
ATOM     29  C   UNL A   1      46.382  30.092  30.949  1.00  0.00     0.029 A 
ATOM     30  N   UNL A   1      44.973  28.635  30.037  1.00  0.00    -0.354 N 
ATOM     31  N   UNL A   1      44.173  26.013  29.030  1.00  0.00    -0.248 NA
ATOM     32  C   UNL A   1      44.723  23.867  28.283  1.00  0.00     0.031 C 
ATOM     33  C   UNL A   1      47.089  28.923  30.655  1.00  0.00     0.029 A 
ATOM     34  C   UNL A   1      46.209  28.010  30.097  1.00  0.00     0.049 A 
ATOM     35  H   UNL A   1      44.148  28.222  29.694  1.00  0.00     0.167 HD
ATOM     36  C   UNL A   1      45.538  25.813  29.178  1.00  0.00     0.074 A 
ATOM     37  C   UNL A   1      45.818  24.463  28.733  1.00  0.00     0.031 C 
ATOM     38  C   UNL A   1      46.477  26.676  29.634  1.00  0.00     0.031 A 
BRANCH  25  39
ATOM     39  C   UNL A   1      44.322  32.277  31.003  1.00  0.00    -0.014 A 
ATOM     40  C   UNL A   1      44.295  32.639  32.358  1.00  0.00     0.009 A 
ATOM     41  C   UNL A   1      44.758  33.217  30.056  1.00  0.00     0.009 A 
ATOM     42  C   UNL A   1      44.686  33.920  32.754  1.00  0.00     0.001 A 
ATOM     43  C   UNL A   1      45.164  34.491  30.457  1.00  0.00     0.001 A 
ATOM     44  C   UNL A   1      45.125  34.843  31.805  1.00  0.00     0.000 A 
ENDBRANCH  25  39
BRANCH  26  45
ATOM     45  C   UNL A   1      41.963  23.228  27.575  1.00  0.00    -0.014 A 
ATOM     46  C   UNL A   1      41.434  22.212  28.384  1.00  0.00     0.009 A 
ATOM     47  C   UNL A   1      42.184  22.968  26.212  1.00  0.00     0.009 A 
ATOM     48  C   UNL A   1      41.153  20.954  27.843  1.00  0.00     0.001 A 
ATOM     49  C   UNL A   1      41.874  21.720  25.669  1.00  0.00     0.001 A 
ATOM     50  C   UNL A   1      41.368  20.712  26.486  1.00  0.00     0.000 A 
ENDBRANCH  26  45
BRANCH  38  51
ATOM     51  C   UNL A   1      47.893  26.181  29.668  1.00  0.00    -0.014 A 
ATOM     52  C   UNL A   1      48.446  25.668  30.853  1.00  0.00     0.009 A 
ATOM     53  C   UNL A   1      48.672  26.203  28.503  1.00  0.00     0.009 A 
ATOM     54  C   UNL A   1      49.764  25.211  30.874  1.00  0.00     0.001 A 
ATOM     55  C   UNL A   1      49.983  25.724  28.523  1.00  0.00     0.001 A 
ATOM     56  C   UNL A   1      50.529  25.236  29.709  1.00  0.00     0.000 A 
ENDBRANCH  38  51
ENDBRANCH  12  13
ENDBRANCH   5   7
ENDBRANCH   2   3
ENDBRANCH   1   2
BRANCH   1  57
ATOM     57  C   UNL A   1      31.704  28.271  27.274  1.00  0.00     0.117 C 
BRANCH  57  58
ATOM     58  N   UNL A   1      31.279  28.018  25.907  1.00  0.00    -0.354 N 
ATOM     59  C   UNL A   1      31.542  26.992  25.056  1.00  0.00     0.242 C 
ATOM     60  H   UNL A   1      30.695  28.716  25.531  1.00  0.00     0.163 HD
ATOM     61  O   UNL A   1      31.480  27.259  23.850  1.00  0.00    -0.273 OA
BRANCH  59  62
ATOM     62  C   UNL A   1      31.969  25.576  25.499  1.00  0.00     0.176 C 
BRANCH  62  63
ATOM     63  C   UNL A   1      33.474  25.387  25.766  1.00  0.00     0.072 C 
BRANCH  63  64
ATOM     64  C   UNL A   1      34.267  24.533  24.822  1.00  0.00    -0.020 A 
ATOM     65  C   UNL A   1      33.938  24.307  23.497  1.00  0.00     0.087 A 
ATOM     66  C   UNL A   1      35.435  23.742  25.090  1.00  0.00     0.003 A 
ATOM     67  N   UNL A   1      34.894  23.502  22.940  1.00  0.00    -0.361 N 
ATOM     68  C   UNL A   1      35.846  23.182  23.877  1.00  0.00     0.046 A 
ATOM     69  C   UNL A   1      36.208  23.464  26.238  1.00  0.00     0.010 A 
ATOM     70  H   UNL A   1      34.899  23.197  22.004  1.00  0.00     0.166 HD
ATOM     71  C   UNL A   1      37.026  22.441  23.739  1.00  0.00     0.026 A 
ATOM     72  C   UNL A   1      37.392  22.726  26.118  1.00  0.00     0.001 A 
ATOM     73  C   UNL A   1      37.801  22.237  24.882  1.00  0.00     0.002 A 
ENDBRANCH  63  64
ENDBRANCH  62  63
BRANCH  62  74
ATOM     74  N   UNL A   1      31.104  24.938  26.496  1.00  0.00    -0.340 N 
ATOM     75  C   UNL A   1      30.919  23.613  26.785  1.00  0.00     0.254 C 
ATOM     76  H   UNL A   1      30.574  25.560  27.045  1.00  0.00     0.164 HD
ATOM     77  O   UNL A   1      30.076  23.289  27.625  1.00  0.00    -0.269 OA
BRANCH  75  78
ATOM     78  C   UNL A   1      31.729  22.571  26.134  1.00  0.00     0.075 A 
ATOM     79  C   UNL A   1      31.465  22.165  24.818  1.00  0.00     0.020 A 
ATOM     80  C   UNL A   1      32.810  22.019  26.826  1.00  0.00     0.138 A 
ATOM     81  C   UNL A   1      32.245  21.164  24.235  1.00  0.00     0.040 A 
ATOM     82  C   UNL A   1      33.600  21.037  26.240  1.00  0.00     0.079 A 
ATOM     83  F   UNL A   1      33.093  22.404  28.079  1.00  0.00    -0.206 F 
ATOM     84  C   UNL A   1      33.303  20.609  24.952  1.00  0.00     0.126 A 
ATOM     85  F   UNL A   1      34.048  19.652  24.387  1.00  0.00    -0.207 F 
ENDBRANCH  75  78
ENDBRANCH  62  74
ENDBRANCH  59  62
ENDBRANCH  57  58
ENDBRANCH   1  57
TORSDOF 14
ENDMDL
