MODEL 1
REMARK VINA RESULT:     -12.7      0.000      0.000
REMARK SMILES Cc1cc(C)n(-c2nc(C)c(C)c(Oc3cccc(C(=O)NCCCNC(=O)c4ccc(-c5c6nc(c(-c7ccccc7)c7ccc([nH]7)c(-c7ccccc7)c7nc(c(-c8ccccc8)c8ccc5[nH]8)C=C7)C=C6)cc4)c3)n2)n1
REMARK SMILES IDX 23 1 22 2 20 3 21 4 19 6 15 7 16 8 77 9 17 10 18 11 14 12
REMARK SMILES IDX 13 13 7 14 8 15 78 16 9 17 10 18 11 19 12 20 6 21 1 22 2 23
REMARK SMILES IDX 3 24 79 25 4 26 5 27 24 28 25 29 26 30 27 31 28 33 29 34
REMARK SMILES IDX 30 35 76 36 31 37 75 38 32 39 33 40 34 41 69 42 35 43 74 44
REMARK SMILES IDX 68 45 70 46 36 47 73 48 67 49 66 50 37 52 59 53 44 54 58 55
REMARK SMILES IDX 45 56 48 57 57 58 71 59 46 60 47 61 56 63 72 64 49 65 38 66
REMARK SMILES IDX 39 67 43 68 40 69 42 70 41 71 60 72 61 73 65 74 62 75 64 76
REMARK SMILES IDX 63 77 50 78 51 79 55 80 52 81 54 82 53 83
REMARK H PARENT 22 5 26 32 70 51 48 62
REMARK Flexibility Score: inf
ROOT
ATOM      1  C   UNL A   1      32.373  27.823  27.230  1.00  0.00     0.118 C 
ENDROOT
BRANCH   1   2
ATOM      2  N   UNL A   1      31.179  27.141  26.758  1.00  0.00    -0.352 N 
ATOM      3  C   UNL A   1      30.847  26.538  25.570  1.00  0.00     0.251 C 
ATOM      4  O   UNL A   1      29.725  26.032  25.504  1.00  0.00    -0.269 OA
ATOM      5  H   UNL A   1      30.460  27.104  27.429  1.00  0.00     0.163 HD
BRANCH   3   6
ATOM      6  C   UNL A   1      31.760  26.427  24.393  1.00  0.00     0.043 A 
ATOM      7  C   UNL A   1      33.137  25.219  22.801  1.00  0.00     0.130 A 
ATOM      8  C   UNL A   1      33.336  26.377  22.056  1.00  0.00     0.047 A 
ATOM      9  C   UNL A   1      32.428  25.266  24.007  1.00  0.00     0.061 A 
ATOM     10  C   UNL A   1      32.753  27.570  22.475  1.00  0.00     0.005 A 
ATOM     11  C   UNL A   1      31.952  27.587  23.621  1.00  0.00     0.014 A 
BRANCH   7  12
ATOM     12  O   UNL A   1      33.716  24.060  22.341  1.00  0.00    -0.439 OA
BRANCH  12  13
ATOM     13  C   UNL A   1      34.210  23.156  23.288  1.00  0.00     0.227 A 
ATOM     14  C   UNL A   1      35.817  22.502  24.781  1.00  0.00     0.254 A 
ATOM     15  N   UNL A   1      35.161  21.351  25.044  1.00  0.00    -0.216 NA
ATOM     16  N   UNL A   1      35.352  23.446  23.945  1.00  0.00    -0.175 NA
ATOM     17  C   UNL A   1      33.963  21.148  24.459  1.00  0.00     0.050 A 
ATOM     18  C   UNL A   1      33.201  19.971  24.998  1.00  0.00     0.067 C 
ATOM     19  C   UNL A   1      33.455  22.010  23.500  1.00  0.00     0.033 A 
ATOM     20  C   UNL A   1      32.182  21.734  22.765  1.00  0.00     0.052 C 
BRANCH  14  21
ATOM     21  N   UNL A   1      37.098  22.689  25.418  1.00  0.00    -0.203 N 
ATOM     22  C   UNL A   1      39.224  24.621  27.525  1.00  0.00     0.069 C 
ATOM     23  C   UNL A   1      38.592  23.605  26.648  1.00  0.00     0.060 A 
ATOM     24  C   UNL A   1      39.056  22.303  26.384  1.00  0.00     0.049 A 
ATOM     25  N   UNL A   1      37.469  23.880  25.975  1.00  0.00    -0.170 NA
ATOM     26  C   UNL A   1      38.107  21.739  25.561  1.00  0.00     0.045 A 
ATOM     27  C   UNL A   1      38.111  20.423  24.873  1.00  0.00     0.067 C 
ENDBRANCH  14  21
ENDBRANCH  12  13
ENDBRANCH   7  12
ENDBRANCH   3   6
ENDBRANCH   1   2
BRANCH   1  28
ATOM     28  C   UNL A   1      32.232  29.346  27.098  1.00  0.00     0.042 C 
BRANCH  28  29
ATOM     29  C   UNL A   1      33.580  30.026  26.883  1.00  0.00     0.118 C 
BRANCH  29  30
ATOM     30  N   UNL A   1      33.672  31.288  27.614  1.00  0.00    -0.352 N 
ATOM     31  C   UNL A   1      34.640  31.724  28.485  1.00  0.00     0.251 C 
ATOM     32  H   UNL A   1      32.932  31.919  27.458  1.00  0.00     0.163 HD
ATOM     33  O   UNL A   1      34.392  32.648  29.262  1.00  0.00    -0.269 OA
BRANCH  31  34
ATOM     34  C   UNL A   1      35.964  31.080  28.508  1.00  0.00     0.039 A 
ATOM     35  C   UNL A   1      37.091  31.821  28.873  1.00  0.00     0.014 A 
ATOM     36  C   UNL A   1      36.089  29.734  28.160  1.00  0.00     0.014 A 
ATOM     37  C   UNL A   1      38.319  31.175  28.974  1.00  0.00     0.010 A 
ATOM     38  C   UNL A   1      37.277  29.069  28.374  1.00  0.00     0.010 A 
ATOM     39  C   UNL A   1      38.402  29.786  28.763  1.00  0.00    -0.014 A 
BRANCH  39  40
ATOM     40  C   UNL A   1      39.626  29.076  29.123  1.00  0.00     0.031 A 
ATOM     41  C   UNL A   1      39.782  28.881  30.587  1.00  0.00     0.074 A 
ATOM     42  C   UNL A   1      40.483  28.492  28.258  1.00  0.00     0.049 A 
ATOM     43  N   UNL A   1      40.562  29.546  31.370  1.00  0.00    -0.248 NA
ATOM     44  C   UNL A   1      38.856  27.979  31.290  1.00  0.00     0.031 C 
ATOM     45  C   UNL A   1      40.333  28.339  26.807  1.00  0.00     0.029 A 
ATOM     46  N   UNL A   1      41.645  27.821  28.513  1.00  0.00    -0.354 N 
ATOM     47  C   UNL A   1      40.408  28.979  32.629  1.00  0.00     0.074 A 
ATOM     48  C   UNL A   1      39.215  28.175  32.562  1.00  0.00     0.031 C 
ATOM     49  C   UNL A   1      41.231  27.436  26.350  1.00  0.00     0.029 A 
ATOM     50  C   UNL A   1      42.131  27.090  27.434  1.00  0.00     0.049 A 
ATOM     51  H   UNL A   1      42.099  27.852  29.387  1.00  0.00     0.167 HD
ATOM     52  C   UNL A   1      41.451  28.967  33.504  1.00  0.00     0.031 A 
ATOM     53  C   UNL A   1      43.208  26.267  27.428  1.00  0.00     0.031 A 
ATOM     54  C   UNL A   1      42.516  29.827  33.048  1.00  0.00     0.049 A 
ATOM     55  C   UNL A   1      44.095  26.706  28.522  1.00  0.00     0.074 A 
ATOM     56  C   UNL A   1      42.724  31.178  32.883  1.00  0.00     0.029 A 
ATOM     57  N   UNL A   1      43.452  29.174  32.287  1.00  0.00    -0.354 N 
ATOM     58  N   UNL A   1      44.736  27.840  28.508  1.00  0.00    -0.248 NA
ATOM     59  C   UNL A   1      44.050  26.026  29.809  1.00  0.00     0.031 C 
ATOM     60  C   UNL A   1      43.659  31.300  31.812  1.00  0.00     0.029 A 
ATOM     61  C   UNL A   1      44.031  30.023  31.390  1.00  0.00     0.049 A 
ATOM     62  H   UNL A   1      43.676  28.219  32.378  1.00  0.00     0.167 HD
ATOM     63  C   UNL A   1      44.760  28.226  29.833  1.00  0.00     0.074 A 
ATOM     64  C   UNL A   1      44.514  27.005  30.590  1.00  0.00     0.031 C 
ATOM     65  C   UNL A   1      44.648  29.542  30.172  1.00  0.00     0.031 A 
BRANCH  52  66
ATOM     66  C   UNL A   1      41.772  27.796  34.414  1.00  0.00    -0.014 A 
ATOM     67  C   UNL A   1      41.770  28.023  35.806  1.00  0.00     0.009 A 
ATOM     68  C   UNL A   1      42.391  26.612  33.973  1.00  0.00     0.009 A 
ATOM     69  C   UNL A   1      42.433  27.164  36.691  1.00  0.00     0.001 A 
ATOM     70  C   UNL A   1      43.023  25.733  34.859  1.00  0.00     0.001 A 
ATOM     71  C   UNL A   1      43.070  26.025  36.214  1.00  0.00     0.000 A 
ENDBRANCH  52  66
BRANCH  53  72
ATOM     72  C   UNL A   1      43.503  25.049  26.646  1.00  0.00    -0.014 A 
ATOM     73  C   UNL A   1      42.574  23.993  26.606  1.00  0.00     0.009 A 
ATOM     74  C   UNL A   1      44.534  25.051  25.691  1.00  0.00     0.009 A 
ATOM     75  C   UNL A   1      42.626  23.022  25.598  1.00  0.00     0.001 A 
ATOM     76  C   UNL A   1      44.588  24.076  24.687  1.00  0.00     0.001 A 
ATOM     77  C   UNL A   1      43.621  23.077  24.626  1.00  0.00     0.000 A 
ENDBRANCH  53  72
BRANCH  65  78
ATOM     78  C   UNL A   1      44.992  30.569  29.131  1.00  0.00    -0.014 A 
ATOM     79  C   UNL A   1      46.302  30.984  28.845  1.00  0.00     0.009 A 
ATOM     80  C   UNL A   1      43.946  31.039  28.323  1.00  0.00     0.009 A 
ATOM     81  C   UNL A   1      46.552  31.854  27.778  1.00  0.00     0.001 A 
ATOM     82  C   UNL A   1      44.198  31.887  27.246  1.00  0.00     0.001 A 
ATOM     83  C   UNL A   1      45.502  32.295  26.973  1.00  0.00     0.000 A 
ENDBRANCH  65  78
ENDBRANCH  39  40
ENDBRANCH  31  34
ENDBRANCH  29  30
ENDBRANCH  28  29
ENDBRANCH   1  28
TORSDOF 13
ENDMDL
MODEL 2
REMARK VINA RESULT:     -12.4      1.898      5.696
REMARK SMILES Cc1cc(C)n(-c2nc(C)c(C)c(Oc3cccc(C(=O)NCCCNC(=O)c4ccc(-c5c6nc(c(-c7ccccc7)c7ccc([nH]7)c(-c7ccccc7)c7nc(c(-c8ccccc8)c8ccc5[nH]8)C=C7)C=C6)cc4)c3)n2)n1
REMARK SMILES IDX 23 1 22 2 20 3 21 4 19 6 15 7 16 8 77 9 17 10 18 11 14 12
REMARK SMILES IDX 13 13 7 14 8 15 78 16 9 17 10 18 11 19 12 20 6 21 1 22 2 23
REMARK SMILES IDX 3 24 79 25 4 26 5 27 24 28 25 29 26 30 27 31 28 33 29 34
REMARK SMILES IDX 30 35 76 36 31 37 75 38 32 39 33 40 34 41 69 42 35 43 74 44
REMARK SMILES IDX 68 45 70 46 36 47 73 48 67 49 66 50 37 52 59 53 44 54 58 55
REMARK SMILES IDX 45 56 48 57 57 58 71 59 46 60 47 61 56 63 72 64 49 65 38 66
REMARK SMILES IDX 39 67 43 68 40 69 42 70 41 71 60 72 61 73 65 74 62 75 64 76
REMARK SMILES IDX 63 77 50 78 51 79 55 80 52 81 54 82 53 83
REMARK H PARENT 22 5 26 32 70 51 48 62
REMARK Flexibility Score: inf
ROOT
ATOM      1  C   UNL A   1      33.384  28.840  25.889  1.00  0.00     0.118 C 
ENDROOT
BRANCH   1   2
ATOM      2  N   UNL A   1      32.633  27.730  26.454  1.00  0.00    -0.352 N 
ATOM      3  C   UNL A   1      32.219  26.522  25.951  1.00  0.00     0.251 C 
ATOM      4  O   UNL A   1      31.594  25.791  26.721  1.00  0.00    -0.269 OA
ATOM      5  H   UNL A   1      32.368  27.875  27.390  1.00  0.00     0.163 HD
BRANCH   3   6
ATOM      6  C   UNL A   1      32.508  26.037  24.568  1.00  0.00     0.043 A 
ATOM      7  C   UNL A   1      33.647  24.653  22.932  1.00  0.00     0.130 A 
ATOM      8  C   UNL A   1      32.814  25.120  21.920  1.00  0.00     0.047 A 
ATOM      9  C   UNL A   1      33.550  25.176  24.226  1.00  0.00     0.061 A 
ATOM     10  C   UNL A   1      31.824  26.050  22.223  1.00  0.00     0.005 A 
ATOM     11  C   UNL A   1      31.659  26.486  23.541  1.00  0.00     0.014 A 
BRANCH   7  12
ATOM     12  O   UNL A   1      34.598  23.721  22.591  1.00  0.00    -0.439 OA
BRANCH  12  13
ATOM     13  C   UNL A   1      34.923  22.743  23.537  1.00  0.00     0.227 A 
ATOM     14  C   UNL A   1      36.411  21.772  24.980  1.00  0.00     0.254 A 
ATOM     15  N   UNL A   1      35.532  20.796  25.294  1.00  0.00    -0.216 NA
ATOM     16  N   UNL A   1      36.128  22.784  24.142  1.00  0.00    -0.175 NA
ATOM     17  C   UNL A   1      34.295  20.853  24.762  1.00  0.00     0.050 A 
ATOM     18  C   UNL A   1      33.318  19.879  25.356  1.00  0.00     0.067 C 
ATOM     19  C   UNL A   1      33.946  21.793  23.805  1.00  0.00     0.033 A 
ATOM     20  C   UNL A   1      32.613  21.792  23.126  1.00  0.00     0.052 C 
BRANCH  14  21
ATOM     21  N   UNL A   1      37.728  21.682  25.562  1.00  0.00    -0.203 N 
ATOM     22  C   UNL A   1      40.752  19.859  26.046  1.00  0.00     0.069 C 
ATOM     23  C   UNL A   1      39.652  20.855  26.011  1.00  0.00     0.060 A 
ATOM     24  C   UNL A   1      39.721  22.211  26.377  1.00  0.00     0.049 A 
ATOM     25  N   UNL A   1      38.419  20.505  25.627  1.00  0.00    -0.170 NA
ATOM     26  C   UNL A   1      38.468  22.722  26.121  1.00  0.00     0.045 A 
ATOM     27  C   UNL A   1      37.917  24.070  26.410  1.00  0.00     0.067 C 
ENDBRANCH  14  21
ENDBRANCH  12  13
ENDBRANCH   7  12
ENDBRANCH   3   6
ENDBRANCH   1   2
BRANCH   1  28
ATOM     28  C   UNL A   1      33.828  29.824  26.981  1.00  0.00     0.042 C 
BRANCH  28  29
ATOM     29  C   UNL A   1      35.173  29.436  27.583  1.00  0.00     0.118 C 
BRANCH  29  30
ATOM     30  N   UNL A   1      35.380  30.055  28.891  1.00  0.00    -0.352 N 
ATOM     31  C   UNL A   1      36.406  29.882  29.787  1.00  0.00     0.251 C 
ATOM     32  H   UNL A   1      34.681  30.690  29.171  1.00  0.00     0.163 HD
ATOM     33  O   UNL A   1      36.252  30.209  30.964  1.00  0.00    -0.269 OA
BRANCH  31  34
ATOM     34  C   UNL A   1      37.682  29.289  29.350  1.00  0.00     0.039 A 
ATOM     35  C   UNL A   1      38.367  29.836  28.263  1.00  0.00     0.014 A 
ATOM     36  C   UNL A   1      38.197  28.178  30.020  1.00  0.00     0.014 A 
ATOM     37  C   UNL A   1      39.611  29.318  27.920  1.00  0.00     0.010 A 
ATOM     38  C   UNL A   1      39.479  27.743  29.758  1.00  0.00     0.010 A 
ATOM     39  C   UNL A   1      40.185  28.295  28.696  1.00  0.00    -0.014 A 
BRANCH  39  40
ATOM     40  C   UNL A   1      41.587  27.939  28.495  1.00  0.00     0.031 A 
ATOM     41  C   UNL A   1      41.770  26.705  27.689  1.00  0.00     0.074 A 
ATOM     42  C   UNL A   1      42.650  28.696  28.841  1.00  0.00     0.049 A 
ATOM     43  N   UNL A   1      42.083  25.536  28.137  1.00  0.00    -0.248 NA
ATOM     44  C   UNL A   1      41.398  26.720  26.265  1.00  0.00     0.031 C 
ATOM     45  C   UNL A   1      42.648  30.061  29.378  1.00  0.00     0.029 A 
ATOM     46  N   UNL A   1      43.982  28.433  28.695  1.00  0.00    -0.354 N 
ATOM     47  C   UNL A   1      42.191  24.719  27.019  1.00  0.00     0.074 A 
ATOM     48  C   UNL A   1      41.567  25.436  25.937  1.00  0.00     0.031 C 
ATOM     49  C   UNL A   1      43.893  30.584  29.297  1.00  0.00     0.029 A 
ATOM     50  C   UNL A   1      44.807  29.538  28.878  1.00  0.00     0.049 A 
ATOM     51  H   UNL A   1      44.329  27.537  28.479  1.00  0.00     0.167 HD
ATOM     52  C   UNL A   1      43.069  23.677  27.017  1.00  0.00     0.031 A 
ATOM     53  C   UNL A   1      46.151  29.588  28.710  1.00  0.00     0.031 A 
ATOM     54  C   UNL A   1      43.573  23.427  28.346  1.00  0.00     0.049 A 
ATOM     55  C   UNL A   1      46.659  28.213  28.877  1.00  0.00     0.074 A 
ATOM     56  C   UNL A   1      43.079  22.956  29.542  1.00  0.00     0.029 A 
ATOM     57  N   UNL A   1      44.735  24.100  28.620  1.00  0.00    -0.354 N 
ATOM     58  N   UNL A   1      46.644  27.582  30.016  1.00  0.00    -0.248 NA
ATOM     59  C   UNL A   1      46.918  27.388  27.705  1.00  0.00     0.031 C 
ATOM     60  C   UNL A   1      43.863  23.579  30.558  1.00  0.00     0.029 A 
ATOM     61  C   UNL A   1      44.840  24.370  29.954  1.00  0.00     0.049 A 
ATOM     62  H   UNL A   1      45.405  24.354  27.945  1.00  0.00     0.167 HD
ATOM     63  C   UNL A   1      46.426  26.265  29.666  1.00  0.00     0.074 A 
ATOM     64  C   UNL A   1      46.800  26.179  28.259  1.00  0.00     0.031 C 
ATOM     65  C   UNL A   1      45.656  25.458  30.451  1.00  0.00     0.031 A 
BRANCH  52  66
ATOM     66  C   UNL A   1      43.903  23.282  25.813  1.00  0.00    -0.014 A 
ATOM     67  C   UNL A   1      43.945  21.918  25.461  1.00  0.00     0.009 A 
ATOM     68  C   UNL A   1      44.887  24.109  25.240  1.00  0.00     0.009 A 
ATOM     69  C   UNL A   1      44.970  21.398  24.660  1.00  0.00     0.001 A 
ATOM     70  C   UNL A   1      45.891  23.598  24.411  1.00  0.00     0.001 A 
ATOM     71  C   UNL A   1      45.950  22.238  24.145  1.00  0.00     0.000 A 
ENDBRANCH  52  66
BRANCH  53  72
ATOM     72  C   UNL A   1      47.045  30.688  28.295  1.00  0.00    -0.014 A 
ATOM     73  C   UNL A   1      48.437  30.566  28.454  1.00  0.00     0.009 A 
ATOM     74  C   UNL A   1      46.568  31.711  27.458  1.00  0.00     0.009 A 
ATOM     75  C   UNL A   1      49.321  31.383  27.737  1.00  0.00     0.001 A 
ATOM     76  C   UNL A   1      47.453  32.531  26.746  1.00  0.00     0.001 A 
ATOM     77  C   UNL A   1      48.828  32.350  26.867  1.00  0.00     0.000 A 
ENDBRANCH  53  72
BRANCH  65  78
ATOM     78  C   UNL A   1      45.474  25.845  31.890  1.00  0.00    -0.014 A 
ATOM     79  C   UNL A   1      44.390  26.601  32.365  1.00  0.00     0.009 A 
ATOM     80  C   UNL A   1      46.378  25.309  32.819  1.00  0.00     0.009 A 
ATOM     81  C   UNL A   1      44.225  26.817  33.738  1.00  0.00     0.001 A 
ATOM     82  C   UNL A   1      46.201  25.506  34.187  1.00  0.00     0.001 A 
ATOM     83  C   UNL A   1      45.124  26.260  34.647  1.00  0.00     0.000 A 
ENDBRANCH  65  78
ENDBRANCH  39  40
ENDBRANCH  31  34
ENDBRANCH  29  30
ENDBRANCH  28  29
ENDBRANCH   1  28
TORSDOF 13
ENDMDL
MODEL 3
REMARK VINA RESULT:     -12.3      3.698      7.519
REMARK SMILES Cc1cc(C)n(-c2nc(C)c(C)c(Oc3cccc(C(=O)NCCCNC(=O)c4ccc(-c5c6nc(c(-c7ccccc7)c7ccc([nH]7)c(-c7ccccc7)c7nc(c(-c8ccccc8)c8ccc5[nH]8)C=C7)C=C6)cc4)c3)n2)n1
REMARK SMILES IDX 23 1 22 2 20 3 21 4 19 6 15 7 16 8 77 9 17 10 18 11 14 12
REMARK SMILES IDX 13 13 7 14 8 15 78 16 9 17 10 18 11 19 12 20 6 21 1 22 2 23
REMARK SMILES IDX 3 24 79 25 4 26 5 27 24 28 25 29 26 30 27 31 28 33 29 34
REMARK SMILES IDX 30 35 76 36 31 37 75 38 32 39 33 40 34 41 69 42 35 43 74 44
REMARK SMILES IDX 68 45 70 46 36 47 73 48 67 49 66 50 37 52 59 53 44 54 58 55
REMARK SMILES IDX 45 56 48 57 57 58 71 59 46 60 47 61 56 63 72 64 49 65 38 66
REMARK SMILES IDX 39 67 43 68 40 69 42 70 41 71 60 72 61 73 65 74 62 75 64 76
REMARK SMILES IDX 63 77 50 78 51 79 55 80 52 81 54 82 53 83
REMARK H PARENT 22 5 26 32 70 51 48 62
REMARK Flexibility Score: inf
ROOT
ATOM      1  C   UNL A   1      39.818  30.863  33.054  1.00  0.00     0.118 C 
ENDROOT
BRANCH   1   2
ATOM      2  N   UNL A   1      38.709  30.024  33.477  1.00  0.00    -0.352 N 
ATOM      3  C   UNL A   1      37.883  29.150  32.814  1.00  0.00     0.251 C 
ATOM      4  O   UNL A   1      37.028  28.578  33.492  1.00  0.00    -0.269 OA
ATOM      5  H   UNL A   1      38.509  30.097  34.438  1.00  0.00     0.163 HD
BRANCH   3   6
ATOM      6  C   UNL A   1      37.983  28.831  31.358  1.00  0.00     0.043 A 
ATOM      7  C   UNL A   1      37.687  29.292  28.994  1.00  0.00     0.130 A 
ATOM      8  C   UNL A   1      38.398  28.145  28.655  1.00  0.00     0.047 A 
ATOM      9  C   UNL A   1      37.408  29.582  30.334  1.00  0.00     0.061 A 
ATOM     10  C   UNL A   1      38.904  27.330  29.664  1.00  0.00     0.005 A 
ATOM     11  C   UNL A   1      38.717  27.685  31.003  1.00  0.00     0.014 A 
BRANCH   7  12
ATOM     12  O   UNL A   1      37.222  30.077  27.966  1.00  0.00    -0.439 OA
BRANCH  12  13
ATOM     13  C   UNL A   1      35.972  30.685  28.123  1.00  0.00     0.227 A 
ATOM     14  C   UNL A   1      34.618  32.250  29.103  1.00  0.00     0.254 A 
ATOM     15  N   UNL A   1      33.532  31.774  28.455  1.00  0.00    -0.216 NA
ATOM     16  N   UNL A   1      35.858  31.762  28.930  1.00  0.00    -0.175 NA
ATOM     17  C   UNL A   1      33.703  30.775  27.567  1.00  0.00     0.050 A 
ATOM     18  C   UNL A   1      32.497  30.484  26.721  1.00  0.00     0.067 C 
ATOM     19  C   UNL A   1      34.921  30.134  27.402  1.00  0.00     0.033 A 
ATOM     20  C   UNL A   1      35.092  28.951  26.503  1.00  0.00     0.052 C 
BRANCH  14  21
ATOM     21  N   UNL A   1      34.403  33.317  30.050  1.00  0.00    -0.203 N 
ATOM     22  C   UNL A   1      34.558  34.524  33.399  1.00  0.00     0.069 C 
ATOM     23  C   UNL A   1      34.401  34.331  31.936  1.00  0.00     0.060 A 
ATOM     24  C   UNL A   1      34.211  35.328  30.962  1.00  0.00     0.049 A 
ATOM     25  N   UNL A   1      34.403  33.105  31.400  1.00  0.00    -0.170 NA
ATOM     26  C   UNL A   1      34.174  34.660  29.759  1.00  0.00     0.045 A 
ATOM     27  C   UNL A   1      33.892  35.176  28.396  1.00  0.00     0.067 C 
ENDBRANCH  14  21
ENDBRANCH  12  13
ENDBRANCH   7  12
ENDBRANCH   3   6
ENDBRANCH   1   2
BRANCH   1  28
ATOM     28  C   UNL A   1      39.444  32.351  33.113  1.00  0.00     0.042 C 
BRANCH  28  29
ATOM     29  C   UNL A   1      40.675  33.249  33.104  1.00  0.00     0.118 C 
BRANCH  29  30
ATOM     30  N   UNL A   1      40.704  34.117  31.929  1.00  0.00    -0.352 N 
ATOM     31  C   UNL A   1      41.294  33.913  30.706  1.00  0.00     0.251 C 
ATOM     32  H   UNL A   1      40.231  34.975  32.028  1.00  0.00     0.163 HD
ATOM     33  O   UNL A   1      41.514  34.872  29.964  1.00  0.00    -0.269 OA
BRANCH  31  34
ATOM     34  C   UNL A   1      41.685  32.556  30.286  1.00  0.00     0.039 A 
ATOM     35  C   UNL A   1      43.023  32.164  30.359  1.00  0.00     0.014 A 
ATOM     36  C   UNL A   1      40.717  31.670  29.810  1.00  0.00     0.014 A 
ATOM     37  C   UNL A   1      43.361  30.853  30.042  1.00  0.00     0.010 A 
ATOM     38  C   UNL A   1      41.030  30.343  29.610  1.00  0.00     0.010 A 
ATOM     39  C   UNL A   1      42.353  29.930  29.705  1.00  0.00    -0.014 A 
BRANCH  39  40
ATOM     40  C   UNL A   1      42.676  28.507  29.630  1.00  0.00     0.031 A 
ATOM     41  C   UNL A   1      43.229  27.964  30.896  1.00  0.00     0.074 A 
ATOM     42  C   UNL A   1      42.378  27.684  28.602  1.00  0.00     0.049 A 
ATOM     43  N   UNL A   1      44.468  27.695  31.139  1.00  0.00    -0.248 NA
ATOM     44  C   UNL A   1      42.354  27.871  32.076  1.00  0.00     0.031 C 
ATOM     45  C   UNL A   1      41.584  27.987  27.407  1.00  0.00     0.029 A 
ATOM     46  N   UNL A   1      42.651  26.355  28.453  1.00  0.00    -0.354 N 
ATOM     47  C   UNL A   1      44.495  27.164  32.423  1.00  0.00     0.074 A 
ATOM     48  C   UNL A   1      43.222  27.485  33.016  1.00  0.00     0.031 C 
ATOM     49  C   UNL A   1      41.248  26.836  26.780  1.00  0.00     0.029 A 
ATOM     50  C   UNL A   1      41.952  25.739  27.420  1.00  0.00     0.049 A 
ATOM     51  H   UNL A   1      43.289  25.873  29.029  1.00  0.00     0.167 HD
ATOM     52  C   UNL A   1      45.432  26.233  32.756  1.00  0.00     0.031 A 
ATOM     53  C   UNL A   1      41.960  24.422  27.103  1.00  0.00     0.031 A 
ATOM     54  C   UNL A   1      46.456  26.148  31.744  1.00  0.00     0.049 A 
ATOM     55  C   UNL A   1      43.224  23.861  27.617  1.00  0.00     0.074 A 
ATOM     56  C   UNL A   1      47.474  26.943  31.268  1.00  0.00     0.029 A 
ATOM     57  N   UNL A   1      46.195  25.200  30.788  1.00  0.00    -0.354 N 
ATOM     58  N   UNL A   1      44.391  24.170  27.128  1.00  0.00    -0.248 NA
ATOM     59  C   UNL A   1      43.243  23.170  28.899  1.00  0.00     0.031 C 
ATOM     60  C   UNL A   1      47.642  26.580  29.898  1.00  0.00     0.029 A 
ATOM     61  C   UNL A   1      46.758  25.544  29.593  1.00  0.00     0.049 A 
ATOM     62  H   UNL A   1      45.672  24.381  30.943  1.00  0.00     0.167 HD
ATOM     63  C   UNL A   1      45.230  24.139  28.223  1.00  0.00     0.074 A 
ATOM     64  C   UNL A   1      44.528  23.337  29.218  1.00  0.00     0.031 C 
ATOM     65  C   UNL A   1      46.253  25.034  28.336  1.00  0.00     0.031 A 
BRANCH  52  66
ATOM     66  C   UNL A   1      45.146  25.030  33.636  1.00  0.00    -0.014 A 
ATOM     67  C   UNL A   1      44.439  23.951  33.067  1.00  0.00     0.009 A 
ATOM     68  C   UNL A   1      45.232  25.052  35.040  1.00  0.00     0.009 A 
ATOM     69  C   UNL A   1      43.778  23.006  33.861  1.00  0.00     0.001 A 
ATOM     70  C   UNL A   1      44.603  24.089  35.836  1.00  0.00     0.001 A 
ATOM     71  C   UNL A   1      43.851  23.084  35.247  1.00  0.00     0.000 A 
ENDBRANCH  52  66
BRANCH  53  72
ATOM     72  C   UNL A   1      40.926  23.554  26.502  1.00  0.00    -0.014 A 
ATOM     73  C   UNL A   1      41.201  22.197  26.251  1.00  0.00     0.009 A 
ATOM     74  C   UNL A   1      39.583  23.966  26.474  1.00  0.00     0.009 A 
ATOM     75  C   UNL A   1      40.166  21.273  26.061  1.00  0.00     0.001 A 
ATOM     76  C   UNL A   1      38.549  23.042  26.277  1.00  0.00     0.001 A 
ATOM     77  C   UNL A   1      38.840  21.693  26.096  1.00  0.00     0.000 A 
ENDBRANCH  53  72
BRANCH  65  78
ATOM     78  C   UNL A   1      46.752  25.694  27.083  1.00  0.00    -0.014 A 
ATOM     79  C   UNL A   1      46.267  26.919  26.599  1.00  0.00     0.009 A 
ATOM     80  C   UNL A   1      47.849  25.102  26.438  1.00  0.00     0.009 A 
ATOM     81  C   UNL A   1      46.866  27.529  25.491  1.00  0.00     0.001 A 
ATOM     82  C   UNL A   1      48.459  25.722  25.350  1.00  0.00     0.001 A 
ATOM     83  C   UNL A   1      47.968  26.936  24.875  1.00  0.00     0.000 A 
ENDBRANCH  65  78
ENDBRANCH  39  40
ENDBRANCH  31  34
ENDBRANCH  29  30
ENDBRANCH  28  29
ENDBRANCH   1  28
TORSDOF 13
ENDMDL
