MODEL 1
REMARK VINA RESULT:     -10.7      0.000      0.000
REMARK SMILES CC(C)(C)c1ccc(NC(=O)CCC(=O)NCCCNC(=O)c2ccc(-c3c4nc(c(-c5ccccc5)c5ccc([nH]5)c(-c5ccccc5)c5nc(c(-c6ccccc6)c6ccc3[nH]6)C=C5)C=C4)cc2)cc1
REMARK SMILES IDX 17 1 16 2 14 3 15 4 13 6 12 7 10 8 9 9 11 11 8 12 5 13 6 14
REMARK SMILES IDX 72 15 7 16 71 17 2 18 1 19 3 20 4 21 18 22 19 23 20 24 21 25
REMARK SMILES IDX 22 27 23 28 24 29 70 30 25 31 69 32 26 33 27 34 28 35 63 36
REMARK SMILES IDX 29 37 68 38 62 39 64 40 30 41 67 42 61 43 60 44 31 46 53 47
REMARK SMILES IDX 38 48 52 49 39 50 42 51 51 52 65 53 40 54 41 55 50 57 66 58
REMARK SMILES IDX 43 59 32 60 33 61 37 62 34 63 36 64 35 65 54 66 55 67 59 68
REMARK SMILES IDX 56 69 58 70 57 71 44 72 45 73 49 74 46 75 48 76 47 77
REMARK H PARENT 16 5 9 10 20 26 64 45 42 56
REMARK Flexibility Score: inf
ROOT
ATOM      1  C   UNL A   1      34.505  24.135  25.373  1.00  0.00     0.117 C 
ENDROOT
BRANCH   1   2
ATOM      2  N   UNL A   1      33.631  23.072  24.906  1.00  0.00    -0.356 N 
ATOM      3  C   UNL A   1      33.268  22.717  23.641  1.00  0.00     0.220 C 
ATOM      4  O   UNL A   1      32.703  21.636  23.474  1.00  0.00    -0.275 OA
ATOM      5  H   UNL A   1      33.237  22.517  25.618  1.00  0.00     0.163 HD
BRANCH   3   6
ATOM      6  C   UNL A   1      33.534  23.638  22.471  1.00  0.00     0.110 C 
BRANCH   6   7
ATOM      7  C   UNL A   1      32.448  24.687  22.265  1.00  0.00     0.110 C 
BRANCH   7   8
ATOM      8  C   UNL A   1      32.793  25.707  21.202  1.00  0.00     0.224 C 
ATOM      9  N   UNL A   1      32.983  27.031  21.475  1.00  0.00    -0.326 N 
ATOM     10  H   UNL A   1      33.263  27.567  20.699  1.00  0.00     0.169 HD
ATOM     11  O   UNL A   1      33.032  25.325  20.050  1.00  0.00    -0.275 OA
BRANCH   9  12
ATOM     12  C   UNL A   1      32.851  27.764  22.662  1.00  0.00     0.041 A 
ATOM     13  C   UNL A   1      32.645  28.979  25.222  1.00  0.00    -0.042 A 
ATOM     14  C   UNL A   1      31.627  29.105  24.263  1.00  0.00     0.006 A 
ATOM     15  C   UNL A   1      33.797  28.273  24.838  1.00  0.00     0.006 A 
ATOM     16  C   UNL A   1      31.734  28.515  22.997  1.00  0.00     0.026 A 
ATOM     17  C   UNL A   1      33.915  27.712  23.562  1.00  0.00     0.026 A 
BRANCH  13  18
ATOM     18  C   UNL A   1      32.501  29.554  26.641  1.00  0.00    -0.013 C 
ATOM     19  C   UNL A   1      33.908  29.760  27.238  1.00  0.00     0.016 C 
ATOM     20  C   UNL A   1      31.709  28.626  27.590  1.00  0.00     0.016 C 
ATOM     21  C   UNL A   1      31.762  30.911  26.623  1.00  0.00     0.016 C 
ENDBRANCH  13  18
ENDBRANCH   9  12
ENDBRANCH   7   8
ENDBRANCH   6   7
ENDBRANCH   3   6
ENDBRANCH   1   2
BRANCH   1  22
ATOM     22  C   UNL A   1      35.823  23.643  25.964  1.00  0.00     0.042 C 
BRANCH  22  23
ATOM     23  C   UNL A   1      37.018  23.692  25.019  1.00  0.00     0.118 C 
BRANCH  23  24
ATOM     24  N   UNL A   1      38.039  22.706  25.320  1.00  0.00    -0.352 N 
ATOM     25  C   UNL A   1      39.193  22.839  26.057  1.00  0.00     0.251 C 
ATOM     26  H   UNL A   1      37.883  21.809  24.943  1.00  0.00     0.163 HD
ATOM     27  O   UNL A   1      39.979  21.904  26.139  1.00  0.00    -0.269 OA
BRANCH  25  28
ATOM     28  C   UNL A   1      39.513  24.122  26.726  1.00  0.00     0.039 A 
ATOM     29  C   UNL A   1      39.032  24.330  28.021  1.00  0.00     0.014 A 
ATOM     30  C   UNL A   1      40.250  25.124  26.086  1.00  0.00     0.014 A 
ATOM     31  C   UNL A   1      39.327  25.519  28.693  1.00  0.00     0.010 A 
ATOM     32  C   UNL A   1      40.589  26.290  26.778  1.00  0.00     0.010 A 
ATOM     33  C   UNL A   1      40.126  26.502  28.087  1.00  0.00    -0.014 A 
BRANCH  33  34
ATOM     34  C   UNL A   1      40.466  27.751  28.819  1.00  0.00     0.031 A 
ATOM     35  C   UNL A   1      41.812  27.918  29.467  1.00  0.00     0.074 A 
ATOM     36  C   UNL A   1      39.554  28.738  28.921  1.00  0.00     0.049 A 
ATOM     37  N   UNL A   1      42.293  28.948  30.119  1.00  0.00    -0.248 NA
ATOM     38  C   UNL A   1      42.732  26.774  29.390  1.00  0.00     0.031 C 
ATOM     39  C   UNL A   1      38.197  28.696  28.375  1.00  0.00     0.029 A 
ATOM     40  N   UNL A   1      39.635  29.973  29.519  1.00  0.00    -0.354 N 
ATOM     41  C   UNL A   1      43.563  28.573  30.538  1.00  0.00     0.074 A 
ATOM     42  C   UNL A   1      43.759  27.205  30.108  1.00  0.00     0.031 C 
ATOM     43  C   UNL A   1      37.582  29.861  28.641  1.00  0.00     0.029 A 
ATOM     44  C   UNL A   1      38.489  30.720  29.396  1.00  0.00     0.049 A 
ATOM     45  H   UNL A   1      40.438  30.291  29.990  1.00  0.00     0.167 HD
ATOM     46  C   UNL A   1      44.490  29.302  31.204  1.00  0.00     0.031 A 
ATOM     47  C   UNL A   1      38.199  31.958  29.837  1.00  0.00     0.031 A 
ATOM     48  C   UNL A   1      44.306  30.665  31.629  1.00  0.00     0.049 A 
ATOM     49  C   UNL A   1      39.241  32.748  30.578  1.00  0.00     0.074 A 
ATOM     50  C   UNL A   1      45.215  31.504  32.251  1.00  0.00     0.029 A 
ATOM     51  N   UNL A   1      43.130  31.383  31.487  1.00  0.00    -0.354 N 
ATOM     52  N   UNL A   1      40.468  32.408  30.889  1.00  0.00    -0.248 NA
ATOM     53  C   UNL A   1      38.862  34.101  31.014  1.00  0.00     0.031 C 
ATOM     54  C   UNL A   1      44.572  32.714  32.530  1.00  0.00     0.029 A 
ATOM     55  C   UNL A   1      43.280  32.648  32.035  1.00  0.00     0.049 A 
ATOM     56  H   UNL A   1      42.311  31.047  31.058  1.00  0.00     0.167 HD
ATOM     57  C   UNL A   1      41.014  33.510  31.535  1.00  0.00     0.074 A 
ATOM     58  C   UNL A   1      39.990  34.534  31.559  1.00  0.00     0.031 C 
ATOM     59  C   UNL A   1      42.254  33.657  32.061  1.00  0.00     0.031 A 
BRANCH  46  60
ATOM     60  C   UNL A   1      45.795  28.625  31.527  1.00  0.00    -0.014 A 
ATOM     61  C   UNL A   1      45.973  27.919  32.727  1.00  0.00     0.009 A 
ATOM     62  C   UNL A   1      46.853  28.678  30.607  1.00  0.00     0.009 A 
ATOM     63  C   UNL A   1      47.198  27.316  33.019  1.00  0.00     0.001 A 
ATOM     64  C   UNL A   1      48.068  28.050  30.887  1.00  0.00     0.001 A 
ATOM     65  C   UNL A   1      48.244  27.380  32.097  1.00  0.00     0.000 A 
ENDBRANCH  46  60
BRANCH  47  66
ATOM     66  C   UNL A   1      36.857  32.541  29.570  1.00  0.00    -0.014 A 
ATOM     67  C   UNL A   1      36.594  33.197  28.358  1.00  0.00     0.009 A 
ATOM     68  C   UNL A   1      35.832  32.436  30.522  1.00  0.00     0.009 A 
ATOM     69  C   UNL A   1      35.336  33.753  28.114  1.00  0.00     0.001 A 
ATOM     70  C   UNL A   1      34.568  32.969  30.265  1.00  0.00     0.001 A 
ATOM     71  C   UNL A   1      34.323  33.634  29.064  1.00  0.00     0.000 A 
ENDBRANCH  47  66
BRANCH  59  72
ATOM     72  C   UNL A   1      42.585  34.983  32.688  1.00  0.00    -0.014 A 
ATOM     73  C   UNL A   1      43.320  35.955  31.990  1.00  0.00     0.009 A 
ATOM     74  C   UNL A   1      42.118  35.280  33.977  1.00  0.00     0.009 A 
ATOM     75  C   UNL A   1      43.603  37.187  32.584  1.00  0.00     0.001 A 
ATOM     76  C   UNL A   1      42.380  36.522  34.559  1.00  0.00     0.001 A 
ATOM     77  C   UNL A   1      43.130  37.471  33.865  1.00  0.00     0.000 A 
ENDBRANCH  59  72
ENDBRANCH  33  34
ENDBRANCH  25  28
ENDBRANCH  23  24
ENDBRANCH  22  23
ENDBRANCH   1  22
TORSDOF 14
ENDMDL
MODEL 2
REMARK VINA RESULT:     -10.7      3.619      8.360
REMARK SMILES CC(C)(C)c1ccc(NC(=O)CCC(=O)NCCCNC(=O)c2ccc(-c3c4nc(c(-c5ccccc5)c5ccc([nH]5)c(-c5ccccc5)c5nc(c(-c6ccccc6)c6ccc3[nH]6)C=C5)C=C4)cc2)cc1
REMARK SMILES IDX 17 1 16 2 14 3 15 4 13 6 12 7 10 8 9 9 11 11 8 12 5 13 6 14
REMARK SMILES IDX 72 15 7 16 71 17 2 18 1 19 3 20 4 21 18 22 19 23 20 24 21 25
REMARK SMILES IDX 22 27 23 28 24 29 70 30 25 31 69 32 26 33 27 34 28 35 63 36
REMARK SMILES IDX 29 37 68 38 62 39 64 40 30 41 67 42 61 43 60 44 31 46 53 47
REMARK SMILES IDX 38 48 52 49 39 50 42 51 51 52 65 53 40 54 41 55 50 57 66 58
REMARK SMILES IDX 43 59 32 60 33 61 37 62 34 63 36 64 35 65 54 66 55 67 59 68
REMARK SMILES IDX 56 69 58 70 57 71 44 72 45 73 49 74 46 75 48 76 47 77
REMARK H PARENT 16 5 9 10 20 26 64 45 42 56
REMARK Flexibility Score: inf
ROOT
ATOM      1  C   UNL A   1      37.194  21.061  24.627  1.00  0.00     0.117 C 
ENDROOT
BRANCH   1   2
ATOM      2  N   UNL A   1      37.868  22.294  24.998  1.00  0.00    -0.356 N 
ATOM      3  C   UNL A   1      37.437  23.345  25.752  1.00  0.00     0.220 C 
ATOM      4  O   UNL A   1      38.265  24.175  26.127  1.00  0.00    -0.275 OA
ATOM      5  H   UNL A   1      38.784  22.386  24.648  1.00  0.00     0.163 HD
BRANCH   3   6
ATOM      6  C   UNL A   1      35.976  23.499  26.103  1.00  0.00     0.110 C 
BRANCH   6   7
ATOM      7  C   UNL A   1      35.168  24.225  25.034  1.00  0.00     0.110 C 
BRANCH   7   8
ATOM      8  C   UNL A   1      33.749  24.537  25.460  1.00  0.00     0.224 C 
ATOM      9  N   UNL A   1      32.765  23.592  25.514  1.00  0.00    -0.326 N 
ATOM     10  H   UNL A   1      31.909  23.923  25.868  1.00  0.00     0.169 HD
ATOM     11  O   UNL A   1      33.481  25.663  25.895  1.00  0.00    -0.275 OA
BRANCH   9  12
ATOM     12  C   UNL A   1      32.754  22.238  25.155  1.00  0.00     0.041 A 
ATOM     13  C   UNL A   1      33.031  19.479  24.534  1.00  0.00    -0.042 A 
ATOM     14  C   UNL A   1      32.595  20.410  23.577  1.00  0.00     0.006 A 
ATOM     15  C   UNL A   1      33.269  19.965  25.830  1.00  0.00     0.006 A 
ATOM     16  C   UNL A   1      32.448  21.768  23.886  1.00  0.00     0.026 A 
ATOM     17  C   UNL A   1      33.091  21.316  26.146  1.00  0.00     0.026 A 
BRANCH  13  18
ATOM     18  C   UNL A   1      33.273  18.003  24.182  1.00  0.00    -0.013 C 
ATOM     19  C   UNL A   1      32.760  17.742  22.751  1.00  0.00     0.016 C 
ATOM     20  C   UNL A   1      32.545  17.028  25.136  1.00  0.00     0.016 C 
ATOM     21  C   UNL A   1      34.777  17.651  24.246  1.00  0.00     0.016 C 
ENDBRANCH  13  18
ENDBRANCH   9  12
ENDBRANCH   7   8
ENDBRANCH   6   7
ENDBRANCH   3   6
ENDBRANCH   1   2
BRANCH   1  22
ATOM     22  C   UNL A   1      37.973  19.796  24.976  1.00  0.00     0.042 C 
BRANCH  22  23
ATOM     23  C   UNL A   1      39.037  19.964  26.054  1.00  0.00     0.118 C 
BRANCH  23  24
ATOM     24  N   UNL A   1      40.133  19.020  25.942  1.00  0.00    -0.352 N 
ATOM     25  C   UNL A   1      41.487  19.233  26.067  1.00  0.00     0.251 C 
ATOM     26  H   UNL A   1      39.870  18.091  25.748  1.00  0.00     0.163 HD
ATOM     27  O   UNL A   1      42.272  18.317  25.861  1.00  0.00    -0.269 OA
BRANCH  25  28
ATOM     28  C   UNL A   1      42.007  20.576  26.416  1.00  0.00     0.039 A 
ATOM     29  C   UNL A   1      42.304  21.460  25.375  1.00  0.00     0.014 A 
ATOM     30  C   UNL A   1      42.231  20.959  27.742  1.00  0.00     0.014 A 
ATOM     31  C   UNL A   1      42.780  22.742  25.661  1.00  0.00     0.010 A 
ATOM     32  C   UNL A   1      42.656  22.259  28.030  1.00  0.00     0.010 A 
ATOM     33  C   UNL A   1      42.941  23.162  26.992  1.00  0.00    -0.014 A 
BRANCH  33  34
ATOM     34  C   UNL A   1      43.415  24.539  27.293  1.00  0.00     0.031 A 
ATOM     35  C   UNL A   1      42.448  25.605  27.728  1.00  0.00     0.074 A 
ATOM     36  C   UNL A   1      44.721  24.843  27.158  1.00  0.00     0.049 A 
ATOM     37  N   UNL A   1      42.686  26.850  28.062  1.00  0.00    -0.248 NA
ATOM     38  C   UNL A   1      41.027  25.232  27.778  1.00  0.00     0.031 C 
ATOM     39  C   UNL A   1      45.763  23.920  26.708  1.00  0.00     0.029 A 
ATOM     40  N   UNL A   1      45.394  26.018  27.390  1.00  0.00    -0.354 N 
ATOM     41  C   UNL A   1      41.448  27.409  28.348  1.00  0.00     0.074 A 
ATOM     42  C   UNL A   1      40.457  26.383  28.104  1.00  0.00     0.031 C 
ATOM     43  C   UNL A   1      46.947  24.555  26.721  1.00  0.00     0.029 A 
ATOM     44  C   UNL A   1      46.744  25.935  27.155  1.00  0.00     0.049 A 
ATOM     45  H   UNL A   1      44.950  26.842  27.696  1.00  0.00     0.167 HD
ATOM     46  C   UNL A   1      41.158  28.656  28.792  1.00  0.00     0.031 A 
ATOM     47  C   UNL A   1      47.715  26.861  27.275  1.00  0.00     0.031 A 
ATOM     48  C   UNL A   1      42.138  29.681  29.044  1.00  0.00     0.049 A 
ATOM     49  C   UNL A   1      47.371  28.240  27.765  1.00  0.00     0.074 A 
ATOM     50  C   UNL A   1      41.943  30.952  29.557  1.00  0.00     0.029 A 
ATOM     51  N   UNL A   1      43.494  29.555  28.790  1.00  0.00    -0.354 N 
ATOM     52  N   UNL A   1      46.205  28.724  28.115  1.00  0.00    -0.248 NA
ATOM     53  C   UNL A   1      48.483  29.194  27.891  1.00  0.00     0.031 C 
ATOM     54  C   UNL A   1      43.175  31.613  29.567  1.00  0.00     0.029 A 
ATOM     55  C   UNL A   1      44.145  30.736  29.110  1.00  0.00     0.049 A 
ATOM     56  H   UNL A   1      43.930  28.747  28.438  1.00  0.00     0.167 HD
ATOM     57  C   UNL A   1      46.445  30.030  28.523  1.00  0.00     0.074 A 
ATOM     58  C   UNL A   1      47.869  30.257  28.393  1.00  0.00     0.031 C 
ATOM     59  C   UNL A   1      45.561  30.956  28.968  1.00  0.00     0.031 A 
BRANCH  46  60
ATOM     60  C   UNL A   1      39.708  28.986  29.021  1.00  0.00    -0.014 A 
ATOM     61  C   UNL A   1      38.913  29.529  27.999  1.00  0.00     0.009 A 
ATOM     62  C   UNL A   1      39.125  28.727  30.270  1.00  0.00     0.009 A 
ATOM     63  C   UNL A   1      37.576  29.848  28.238  1.00  0.00     0.001 A 
ATOM     64  C   UNL A   1      37.779  29.020  30.498  1.00  0.00     0.001 A 
ATOM     65  C   UNL A   1      37.008  29.591  29.486  1.00  0.00     0.000 A 
ENDBRANCH  46  60
BRANCH  47  66
ATOM     66  C   UNL A   1      49.119  26.505  26.944  1.00  0.00    -0.014 A 
ATOM     67  C   UNL A   1      49.971  25.976  27.925  1.00  0.00     0.009 A 
ATOM     68  C   UNL A   1      49.612  26.684  25.642  1.00  0.00     0.009 A 
ATOM     69  C   UNL A   1      51.294  25.652  27.614  1.00  0.00     0.001 A 
ATOM     70  C   UNL A   1      50.926  26.336  25.327  1.00  0.00     0.001 A 
ATOM     71  C   UNL A   1      51.769  25.827  26.315  1.00  0.00     0.000 A 
ENDBRANCH  47  66
BRANCH  59  72
ATOM     72  C   UNL A   1      46.110  32.297  29.370  1.00  0.00    -0.014 A 
ATOM     73  C   UNL A   1      46.182  33.359  28.455  1.00  0.00     0.009 A 
ATOM     74  C   UNL A   1      46.520  32.512  30.695  1.00  0.00     0.009 A 
ATOM     75  C   UNL A   1      46.681  34.602  28.852  1.00  0.00     0.001 A 
ATOM     76  C   UNL A   1      46.994  33.763  31.096  1.00  0.00     0.001 A 
ATOM     77  C   UNL A   1      47.081  34.803  30.172  1.00  0.00     0.000 A 
ENDBRANCH  59  72
ENDBRANCH  33  34
ENDBRANCH  25  28
ENDBRANCH  23  24
ENDBRANCH  22  23
ENDBRANCH   1  22
TORSDOF 14
ENDMDL
MODEL 3
REMARK VINA RESULT:     -10.7      3.046      5.434
REMARK SMILES CC(C)(C)c1ccc(NC(=O)CCC(=O)NCCCNC(=O)c2ccc(-c3c4nc(c(-c5ccccc5)c5ccc([nH]5)c(-c5ccccc5)c5nc(c(-c6ccccc6)c6ccc3[nH]6)C=C5)C=C4)cc2)cc1
REMARK SMILES IDX 17 1 16 2 14 3 15 4 13 6 12 7 10 8 9 9 11 11 8 12 5 13 6 14
REMARK SMILES IDX 72 15 7 16 71 17 2 18 1 19 3 20 4 21 18 22 19 23 20 24 21 25
REMARK SMILES IDX 22 27 23 28 24 29 70 30 25 31 69 32 26 33 27 34 28 35 63 36
REMARK SMILES IDX 29 37 68 38 62 39 64 40 30 41 67 42 61 43 60 44 31 46 53 47
REMARK SMILES IDX 38 48 52 49 39 50 42 51 51 52 65 53 40 54 41 55 50 57 66 58
REMARK SMILES IDX 43 59 32 60 33 61 37 62 34 63 36 64 35 65 54 66 55 67 59 68
REMARK SMILES IDX 56 69 58 70 57 71 44 72 45 73 49 74 46 75 48 76 47 77
REMARK H PARENT 16 5 9 10 20 26 64 45 42 56
REMARK Flexibility Score: inf
ROOT
ATOM      1  C   UNL A   1      37.235  21.016  24.606  1.00  0.00     0.117 C 
ENDROOT
BRANCH   1   2
ATOM      2  N   UNL A   1      37.883  22.271  24.946  1.00  0.00    -0.356 N 
ATOM      3  C   UNL A   1      37.426  23.337  25.662  1.00  0.00     0.220 C 
ATOM      4  O   UNL A   1      38.236  24.192  26.022  1.00  0.00    -0.275 OA
ATOM      5  H   UNL A   1      38.802  22.367  24.606  1.00  0.00     0.163 HD
BRANCH   3   6
ATOM      6  C   UNL A   1      35.958  23.478  25.990  1.00  0.00     0.110 C 
BRANCH   6   7
ATOM      7  C   UNL A   1      35.185  24.305  24.970  1.00  0.00     0.110 C 
BRANCH   7   8
ATOM      8  C   UNL A   1      33.785  24.661  25.421  1.00  0.00     0.224 C 
ATOM      9  N   UNL A   1      32.770  23.749  25.485  1.00  0.00    -0.326 N 
ATOM     10  H   UNL A   1      31.931  24.106  25.855  1.00  0.00     0.169 HD
ATOM     11  O   UNL A   1      33.561  25.793  25.868  1.00  0.00    -0.275 OA
BRANCH   9  12
ATOM     12  C   UNL A   1      32.708  22.399  25.118  1.00  0.00     0.041 A 
ATOM     13  C   UNL A   1      32.886  19.639  24.465  1.00  0.00    -0.042 A 
ATOM     14  C   UNL A   1      32.431  20.588  23.536  1.00  0.00     0.006 A 
ATOM     15  C   UNL A   1      33.194  20.108  25.754  1.00  0.00     0.006 A 
ATOM     16  C   UNL A   1      32.333  21.947  23.861  1.00  0.00     0.026 A 
ATOM     17  C   UNL A   1      33.065  21.461  26.086  1.00  0.00     0.026 A 
BRANCH  13  18
ATOM     18  C   UNL A   1      33.073  18.159  24.093  1.00  0.00    -0.013 C 
ATOM     19  C   UNL A   1      32.537  17.934  22.665  1.00  0.00     0.016 C 
ATOM     20  C   UNL A   1      32.323  17.198  25.043  1.00  0.00     0.016 C 
ATOM     21  C   UNL A   1      34.565  17.756  24.137  1.00  0.00     0.016 C 
ENDBRANCH  13  18
ENDBRANCH   9  12
ENDBRANCH   7   8
ENDBRANCH   6   7
ENDBRANCH   3   6
ENDBRANCH   1   2
BRANCH   1  22
ATOM     22  C   UNL A   1      38.049  19.776  24.963  1.00  0.00     0.042 C 
BRANCH  22  23
ATOM     23  C   UNL A   1      39.127  19.988  26.020  1.00  0.00     0.118 C 
BRANCH  23  24
ATOM     24  N   UNL A   1      40.325  19.200  25.796  1.00  0.00    -0.352 N 
ATOM     25  C   UNL A   1      41.644  19.546  25.976  1.00  0.00     0.251 C 
ATOM     26  H   UNL A   1      40.171  18.284  25.468  1.00  0.00     0.163 HD
ATOM     27  O   UNL A   1      42.531  18.764  25.657  1.00  0.00    -0.269 OA
BRANCH  25  28
ATOM     28  C   UNL A   1      42.005  20.876  26.520  1.00  0.00     0.039 A 
ATOM     29  C   UNL A   1      42.289  21.904  25.617  1.00  0.00     0.014 A 
ATOM     30  C   UNL A   1      42.096  21.111  27.896  1.00  0.00     0.014 A 
ATOM     31  C   UNL A   1      42.616  23.178  26.090  1.00  0.00     0.010 A 
ATOM     32  C   UNL A   1      42.371  22.397  28.367  1.00  0.00     0.010 A 
ATOM     33  C   UNL A   1      42.640  23.443  27.469  1.00  0.00    -0.014 A 
BRANCH  33  34
ATOM     34  C   UNL A   1      42.956  24.808  27.967  1.00  0.00     0.031 A 
ATOM     35  C   UNL A   1      44.381  25.235  28.183  1.00  0.00     0.074 A 
ATOM     36  C   UNL A   1      41.957  25.667  28.247  1.00  0.00     0.049 A 
ATOM     37  N   UNL A   1      44.845  26.394  28.582  1.00  0.00    -0.248 NA
ATOM     38  C   UNL A   1      45.421  24.226  27.937  1.00  0.00     0.031 C 
ATOM     39  C   UNL A   1      40.528  25.375  28.121  1.00  0.00     0.029 A 
ATOM     40  N   UNL A   1      41.993  26.966  28.694  1.00  0.00    -0.354 N 
ATOM     41  C   UNL A   1      46.224  26.249  28.646  1.00  0.00     0.074 A 
ATOM     42  C   UNL A   1      46.520  24.878  28.290  1.00  0.00     0.031 C 
ATOM     43  C   UNL A   1      39.825  26.469  28.458  1.00  0.00     0.029 A 
ATOM     44  C   UNL A   1      40.750  27.530  28.847  1.00  0.00     0.049 A 
ATOM     45  H   UNL A   1      42.830  27.447  28.886  1.00  0.00     0.167 HD
ATOM     46  C   UNL A   1      47.165  27.175  28.954  1.00  0.00     0.031 A 
ATOM     47  C   UNL A   1      40.390  28.764  29.251  1.00  0.00     0.031 A 
ATOM     48  C   UNL A   1      46.881  28.542  29.302  1.00  0.00     0.049 A 
ATOM     49  C   UNL A   1      41.450  29.774  29.592  1.00  0.00     0.074 A 
ATOM     50  C   UNL A   1      47.774  29.568  29.564  1.00  0.00     0.029 A 
ATOM     51  N   UNL A   1      45.609  29.072  29.447  1.00  0.00    -0.354 N 
ATOM     52  N   UNL A   1      42.753  29.644  29.562  1.00  0.00    -0.248 NA
ATOM     53  C   UNL A   1      40.986  31.106  30.008  1.00  0.00     0.031 C 
ATOM     54  C   UNL A   1      47.040  30.705  29.918  1.00  0.00     0.029 A 
ATOM     55  C   UNL A   1      45.692  30.403  29.824  1.00  0.00     0.049 A 
ATOM     56  H   UNL A   1      44.771  28.577  29.302  1.00  0.00     0.167 HD
ATOM     57  C   UNL A   1      43.265  30.881  29.932  1.00  0.00     0.074 A 
ATOM     58  C   UNL A   1      42.132  31.753  30.167  1.00  0.00     0.031 C 
ATOM     59  C   UNL A   1      44.560  31.259  30.063  1.00  0.00     0.031 A 
BRANCH  46  60
ATOM     60  C   UNL A   1      48.601  26.726  28.940  1.00  0.00    -0.014 A 
ATOM     61  C   UNL A   1      49.209  26.189  30.087  1.00  0.00     0.009 A 
ATOM     62  C   UNL A   1      49.349  26.823  27.757  1.00  0.00     0.009 A 
ATOM     63  C   UNL A   1      50.549  25.800  30.060  1.00  0.00     0.001 A 
ATOM     64  C   UNL A   1      50.681  26.405  27.725  1.00  0.00     0.001 A 
ATOM     65  C   UNL A   1      51.284  25.905  28.879  1.00  0.00     0.000 A 
ENDBRANCH  46  60
BRANCH  47  66
ATOM     66  C   UNL A   1      38.950  29.121  29.336  1.00  0.00    -0.014 A 
ATOM     67  C   UNL A   1      38.243  28.951  30.536  1.00  0.00     0.009 A 
ATOM     68  C   UNL A   1      38.278  29.642  28.220  1.00  0.00     0.009 A 
ATOM     69  C   UNL A   1      36.887  29.277  30.610  1.00  0.00     0.001 A 
ATOM     70  C   UNL A   1      36.929  29.992  28.304  1.00  0.00     0.001 A 
ATOM     71  C   UNL A   1      36.233  29.803  29.497  1.00  0.00     0.000 A 
ENDBRANCH  47  66
BRANCH  59  72
ATOM     72  C   UNL A   1      44.826  32.686  30.458  1.00  0.00    -0.014 A 
ATOM     73  C   UNL A   1      44.936  33.700  29.493  1.00  0.00     0.009 A 
ATOM     74  C   UNL A   1      44.924  33.026  31.816  1.00  0.00     0.009 A 
ATOM     75  C   UNL A   1      45.167  35.022  29.881  1.00  0.00     0.001 A 
ATOM     76  C   UNL A   1      45.129  34.352  32.202  1.00  0.00     0.001 A 
ATOM     77  C   UNL A   1      45.259  35.347  31.234  1.00  0.00     0.000 A 
ENDBRANCH  59  72
ENDBRANCH  33  34
ENDBRANCH  25  28
ENDBRANCH  23  24
ENDBRANCH  22  23
ENDBRANCH   1  22
TORSDOF 14
ENDMDL
