MODEL 1
REMARK VINA RESULT:     -10.6      0.000      0.000
REMARK SMILES [NH3+][C@@H](CC(=O)NCCCNC(=O)c1ccc(-c2c3nc(c(-c4ccccc4)c4ccc([nH]4)c(-c4ccccc4)c4nc(c(-c5ccccc5)c5ccc2[nH]5)C=C4)C=C3)cc1)[NH+]1CCOCC1
REMARK SMILES IDX 8 1 7 2 6 3 4 4 5 5 3 7 2 8 1 9 61 13 62 14 66 15 63 17
REMARK SMILES IDX 65 18 64 19 9 20 10 21 11 22 12 24 13 25 14 26 60 27 15 28
REMARK SMILES IDX 59 29 16 30 17 31 18 32 53 33 19 34 58 35 52 36 54 37 20 38
REMARK SMILES IDX 57 39 51 40 50 41 21 43 43 44 28 45 42 46 29 47 32 48 41 49
REMARK SMILES IDX 55 50 30 51 31 52 40 54 56 55 33 56 22 57 23 58 27 59 24 60
REMARK SMILES IDX 26 61 25 62 44 63 45 64 49 65 46 66 48 67 47 68 34 69 35 70
REMARK SMILES IDX 39 71 36 72 38 73 37 74
REMARK H PARENT 6 6 1 10 1 11 1 12 61 16 10 23 54 42 32 53
REMARK Flexibility Score: inf
ROOT
ATOM      1  C   UNL A   1      32.155  27.946  27.195  1.00  0.00     0.042 C 
ENDROOT
BRANCH   1   2
ATOM      2  C   UNL A   1      31.871  27.179  25.907  1.00  0.00     0.117 C 
BRANCH   2   3
ATOM      3  N   UNL A   1      32.516  27.775  24.755  1.00  0.00    -0.356 N 
ATOM      4  C   UNL A   1      32.098  28.726  23.884  1.00  0.00     0.232 C 
ATOM      5  O   UNL A   1      32.931  29.130  23.069  1.00  0.00    -0.275 OA
ATOM      6  H   UNL A   1      33.419  27.427  24.573  1.00  0.00     0.163 HD
BRANCH   4   7
ATOM      7  C   UNL A   1      30.724  29.340  23.953  1.00  0.00     0.232 C 
BRANCH   7   8
ATOM      8  C   UNL A   1      29.946  29.685  22.671  1.00  0.00     0.389 C 
BRANCH   8   9
ATOM      9  N   UNL A   1      30.779  30.094  21.553  1.00  0.00    -0.308 N 
ATOM     10  H   UNL A   1      30.230  30.075  20.695  1.00  0.00     0.349 HD
ATOM     11  H   UNL A   1      31.569  29.454  21.464  1.00  0.00     0.349 HD
ATOM     12  H   UNL A   1      31.126  31.039  21.715  1.00  0.00     0.349 HD
ENDBRANCH   8   9
BRANCH   8  13
ATOM     13  N   UNL A   1      28.748  30.494  22.672  1.00  0.00    -0.282 N 
ATOM     14  C   UNL A   1      27.967  30.755  21.466  1.00  0.00     0.296 C 
ATOM     15  C   UNL A   1      28.732  31.642  23.588  1.00  0.00     0.296 C 
ATOM     16  H   UNL A   1      28.204  29.724  23.061  1.00  0.00     0.353 HD
ATOM     17  C   UNL A   1      28.148  32.149  20.853  1.00  0.00     0.222 C 
ATOM     18  C   UNL A   1      28.900  33.007  22.906  1.00  0.00     0.222 C 
ATOM     19  O   UNL A   1      27.971  33.178  21.830  1.00  0.00    -0.370 OA
ENDBRANCH   8  13
ENDBRANCH   7   8
ENDBRANCH   4   7
ENDBRANCH   2   3
ENDBRANCH   1   2
BRANCH   1  20
ATOM     20  C   UNL A   1      33.555  28.545  27.290  1.00  0.00     0.118 C 
BRANCH  20  21
ATOM     21  N   UNL A   1      33.538  29.956  27.626  1.00  0.00    -0.352 N 
ATOM     22  C   UNL A   1      34.492  30.745  28.222  1.00  0.00     0.251 C 
ATOM     23  H   UNL A   1      32.706  30.427  27.388  1.00  0.00     0.163 HD
ATOM     24  O   UNL A   1      34.182  31.871  28.603  1.00  0.00    -0.269 OA
BRANCH  22  25
ATOM     25  C   UNL A   1      35.876  30.261  28.436  1.00  0.00     0.039 A 
ATOM     26  C   UNL A   1      36.214  29.747  29.693  1.00  0.00     0.014 A 
ATOM     27  C   UNL A   1      36.862  30.374  27.452  1.00  0.00     0.014 A 
ATOM     28  C   UNL A   1      37.516  29.303  29.944  1.00  0.00     0.010 A 
ATOM     29  C   UNL A   1      38.143  29.865  27.679  1.00  0.00     0.010 A 
ATOM     30  C   UNL A   1      38.487  29.335  28.930  1.00  0.00    -0.014 A 
BRANCH  30  31
ATOM     31  C   UNL A   1      39.868  28.841  29.174  1.00  0.00     0.031 A 
ATOM     32  C   UNL A   1      40.891  29.734  29.823  1.00  0.00     0.074 A 
ATOM     33  C   UNL A   1      40.220  27.603  28.775  1.00  0.00     0.049 A 
ATOM     34  N   UNL A   1      42.160  29.506  30.055  1.00  0.00    -0.248 NA
ATOM     35  C   UNL A   1      40.435  31.067  30.253  1.00  0.00     0.031 C 
ATOM     36  C   UNL A   1      39.337  26.640  28.115  1.00  0.00     0.029 A 
ATOM     37  N   UNL A   1      41.422  26.945  28.865  1.00  0.00    -0.354 N 
ATOM     38  C   UNL A   1      42.655  30.667  30.637  1.00  0.00     0.074 A 
ATOM     39  C   UNL A   1      41.561  31.612  30.689  1.00  0.00     0.031 C 
ATOM     40  C   UNL A   1      40.021  25.507  27.880  1.00  0.00     0.029 A 
ATOM     41  C   UNL A   1      41.397  25.677  28.337  1.00  0.00     0.049 A 
ATOM     42  H   UNL A   1      42.225  27.344  29.269  1.00  0.00     0.167 HD
ATOM     43  C   UNL A   1      43.901  30.920  31.101  1.00  0.00     0.031 A 
ATOM     44  C   UNL A   1      42.372  24.755  28.225  1.00  0.00     0.031 A 
ATOM     45  C   UNL A   1      44.989  29.980  31.075  1.00  0.00     0.049 A 
ATOM     46  C   UNL A   1      43.748  25.066  28.740  1.00  0.00     0.074 A 
ATOM     47  C   UNL A   1      46.277  30.137  31.559  1.00  0.00     0.029 A 
ATOM     48  N   UNL A   1      44.917  28.705  30.539  1.00  0.00    -0.354 N 
ATOM     49  N   UNL A   1      44.186  26.157  29.323  1.00  0.00    -0.248 NA
ATOM     50  C   UNL A   1      44.764  24.014  28.589  1.00  0.00     0.031 C 
ATOM     51  C   UNL A   1      46.993  28.967  31.288  1.00  0.00     0.029 A 
ATOM     52  C   UNL A   1      46.138  28.068  30.672  1.00  0.00     0.049 A 
ATOM     53  H   UNL A   1      44.114  28.310  30.126  1.00  0.00     0.167 HD
ATOM     54  C   UNL A   1      45.518  25.910  29.631  1.00  0.00     0.074 A 
ATOM     55  C   UNL A   1      45.813  24.566  29.184  1.00  0.00     0.031 C 
ATOM     56  C   UNL A   1      46.416  26.728  30.230  1.00  0.00     0.031 A 
BRANCH  43  57
ATOM     57  C   UNL A   1      44.158  32.278  31.688  1.00  0.00    -0.014 A 
ATOM     58  C   UNL A   1      44.594  33.343  30.883  1.00  0.00     0.009 A 
ATOM     59  C   UNL A   1      43.915  32.510  33.051  1.00  0.00     0.009 A 
ATOM     60  C   UNL A   1      44.808  34.607  31.437  1.00  0.00     0.001 A 
ATOM     61  C   UNL A   1      44.107  33.781  33.597  1.00  0.00     0.001 A 
ATOM     62  C   UNL A   1      44.560  34.826  32.793  1.00  0.00     0.000 A 
ENDBRANCH  43  57
BRANCH  44  63
ATOM     63  C   UNL A   1      42.085  23.437  27.603  1.00  0.00    -0.014 A 
ATOM     64  C   UNL A   1      41.549  22.393  28.371  1.00  0.00     0.009 A 
ATOM     65  C   UNL A   1      42.370  23.210  26.248  1.00  0.00     0.009 A 
ATOM     66  C   UNL A   1      41.330  21.136  27.801  1.00  0.00     0.001 A 
ATOM     67  C   UNL A   1      42.125  21.961  25.674  1.00  0.00     0.001 A 
ATOM     68  C   UNL A   1      41.616  20.923  26.454  1.00  0.00     0.000 A 
ENDBRANCH  44  63
BRANCH  56  69
ATOM     69  C   UNL A   1      47.790  26.176  30.473  1.00  0.00    -0.014 A 
ATOM     70  C   UNL A   1      48.174  25.717  31.742  1.00  0.00     0.009 A 
ATOM     71  C   UNL A   1      48.699  26.082  29.408  1.00  0.00     0.009 A 
ATOM     72  C   UNL A   1      49.456  25.201  31.946  1.00  0.00     0.001 A 
ATOM     73  C   UNL A   1      49.970  25.545  29.610  1.00  0.00     0.001 A 
ATOM     74  C   UNL A   1      50.351  25.112  30.879  1.00  0.00     0.000 A 
ENDBRANCH  56  69
ENDBRANCH  30  31
ENDBRANCH  22  25
ENDBRANCH  20  21
ENDBRANCH   1  20
TORSDOF 13
ENDMDL
MODEL 2
REMARK VINA RESULT:     -10.5      2.689      7.299
REMARK SMILES [NH3+][C@@H](CC(=O)NCCCNC(=O)c1ccc(-c2c3nc(c(-c4ccccc4)c4ccc([nH]4)c(-c4ccccc4)c4nc(c(-c5ccccc5)c5ccc2[nH]5)C=C4)C=C3)cc1)[NH+]1CCOCC1
REMARK SMILES IDX 8 1 7 2 6 3 4 4 5 5 3 7 2 8 1 9 61 13 62 14 66 15 63 17
REMARK SMILES IDX 65 18 64 19 9 20 10 21 11 22 12 24 13 25 14 26 60 27 15 28
REMARK SMILES IDX 59 29 16 30 17 31 18 32 53 33 19 34 58 35 52 36 54 37 20 38
REMARK SMILES IDX 57 39 51 40 50 41 21 43 43 44 28 45 42 46 29 47 32 48 41 49
REMARK SMILES IDX 55 50 30 51 31 52 40 54 56 55 33 56 22 57 23 58 27 59 24 60
REMARK SMILES IDX 26 61 25 62 44 63 45 64 49 65 46 66 48 67 47 68 34 69 35 70
REMARK SMILES IDX 39 71 36 72 38 73 37 74
REMARK H PARENT 6 6 1 10 1 11 1 12 61 16 10 23 54 42 32 53
REMARK Flexibility Score: inf
ROOT
ATOM      1  C   UNL A   1      31.318  31.963  26.601  1.00  0.00     0.042 C 
ENDROOT
BRANCH   1   2
ATOM      2  C   UNL A   1      31.385  30.445  26.463  1.00  0.00     0.117 C 
BRANCH   2   3
ATOM      3  N   UNL A   1      32.261  30.027  25.387  1.00  0.00    -0.356 N 
ATOM      4  C   UNL A   1      32.001  29.425  24.200  1.00  0.00     0.232 C 
ATOM      5  O   UNL A   1      32.950  29.310  23.423  1.00  0.00    -0.275 OA
ATOM      6  H   UNL A   1      33.214  30.213  25.547  1.00  0.00     0.163 HD
BRANCH   4   7
ATOM      7  C   UNL A   1      30.614  29.002  23.794  1.00  0.00     0.232 C 
BRANCH   7   8
ATOM      8  C   UNL A   1      29.952  29.570  22.526  1.00  0.00     0.389 C 
BRANCH   8   9
ATOM      9  N   UNL A   1      30.880  30.159  21.576  1.00  0.00    -0.308 N 
ATOM     10  H   UNL A   1      30.998  31.150  21.785  1.00  0.00     0.349 HD
ATOM     11  H   UNL A   1      30.512  30.054  20.630  1.00  0.00     0.349 HD
ATOM     12  H   UNL A   1      31.782  29.687  21.643  1.00  0.00     0.349 HD
ENDBRANCH   8   9
BRANCH   8  13
ATOM     13  N   UNL A   1      28.753  30.377  22.558  1.00  0.00    -0.282 N 
ATOM     14  C   UNL A   1      28.001  30.727  21.357  1.00  0.00     0.296 C 
ATOM     15  C   UNL A   1      28.714  31.454  23.556  1.00  0.00     0.296 C 
ATOM     16  H   UNL A   1      28.202  29.581  22.877  1.00  0.00     0.353 HD
ATOM     17  C   UNL A   1      28.194  32.163  20.854  1.00  0.00     0.222 C 
ATOM     18  C   UNL A   1      28.896  32.866  22.982  1.00  0.00     0.222 C 
ATOM     19  O   UNL A   1      27.992  33.117  21.900  1.00  0.00    -0.370 OA
ENDBRANCH   8  13
ENDBRANCH   7   8
ENDBRANCH   4   7
ENDBRANCH   2   3
ENDBRANCH   1   2
BRANCH   1  20
ATOM     20  C   UNL A   1      32.645  32.637  26.939  1.00  0.00     0.118 C 
BRANCH  20  21
ATOM     21  N   UNL A   1      32.469  33.913  27.607  1.00  0.00    -0.352 N 
ATOM     22  C   UNL A   1      33.182  34.493  28.628  1.00  0.00     0.251 C 
ATOM     23  H   UNL A   1      31.716  34.453  27.273  1.00  0.00     0.163 HD
ATOM     24  O   UNL A   1      32.727  35.491  29.181  1.00  0.00    -0.269 OA
BRANCH  22  25
ATOM     25  C   UNL A   1      34.472  33.930  29.091  1.00  0.00     0.039 A 
ATOM     26  C   UNL A   1      34.466  33.079  30.202  1.00  0.00     0.014 A 
ATOM     27  C   UNL A   1      35.689  34.284  28.502  1.00  0.00     0.014 A 
ATOM     28  C   UNL A   1      35.666  32.547  30.686  1.00  0.00     0.010 A 
ATOM     29  C   UNL A   1      36.878  33.697  28.941  1.00  0.00     0.010 A 
ATOM     30  C   UNL A   1      36.881  32.831  30.044  1.00  0.00    -0.014 A 
BRANCH  30  31
ATOM     31  C   UNL A   1      38.160  32.251  30.531  1.00  0.00     0.031 A 
ATOM     32  C   UNL A   1      38.681  30.963  29.949  1.00  0.00     0.074 A 
ATOM     33  C   UNL A   1      38.838  32.855  31.526  1.00  0.00     0.049 A 
ATOM     34  N   UNL A   1      39.738  30.269  30.292  1.00  0.00    -0.248 NA
ATOM     35  C   UNL A   1      37.902  30.365  28.852  1.00  0.00     0.031 C 
ATOM     36  C   UNL A   1      38.439  34.095  32.195  1.00  0.00     0.029 A 
ATOM     37  N   UNL A   1      40.008  32.502  32.151  1.00  0.00    -0.354 N 
ATOM     38  C   UNL A   1      39.740  29.150  29.468  1.00  0.00     0.074 A 
ATOM     39  C   UNL A   1      38.560  29.235  28.635  1.00  0.00     0.031 C 
ATOM     40  C   UNL A   1      39.360  34.410  33.121  1.00  0.00     0.029 A 
ATOM     41  C   UNL A   1      40.392  33.378  33.137  1.00  0.00     0.049 A 
ATOM     42  H   UNL A   1      40.523  31.698  31.915  1.00  0.00     0.167 HD
ATOM     43  C   UNL A   1      40.649  28.149  29.397  1.00  0.00     0.031 A 
ATOM     44  C   UNL A   1      41.451  33.352  33.969  1.00  0.00     0.031 A 
ATOM     45  C   UNL A   1      41.836  28.065  30.204  1.00  0.00     0.049 A 
ATOM     46  C   UNL A   1      42.439  32.224  33.875  1.00  0.00     0.074 A 
ATOM     47  C   UNL A   1      42.835  27.106  30.173  1.00  0.00     0.029 A 
ATOM     48  N   UNL A   1      42.190  28.978  31.183  1.00  0.00    -0.354 N 
ATOM     49  N   UNL A   1      42.444  31.195  33.062  1.00  0.00    -0.248 NA
ATOM     50  C   UNL A   1      43.574  32.259  34.809  1.00  0.00     0.031 C 
ATOM     51  C   UNL A   1      43.777  27.423  31.157  1.00  0.00     0.029 A 
ATOM     52  C   UNL A   1      43.385  28.600  31.771  1.00  0.00     0.049 A 
ATOM     53  H   UNL A   1      41.668  29.778  31.425  1.00  0.00     0.167 HD
ATOM     54  C   UNL A   1      43.593  30.478  33.370  1.00  0.00     0.074 A 
ATOM     55  C   UNL A   1      44.266  31.194  34.432  1.00  0.00     0.031 C 
ATOM     56  C   UNL A   1      44.047  29.326  32.820  1.00  0.00     0.031 A 
BRANCH  43  57
ATOM     57  C   UNL A   1      40.395  27.053  28.402  1.00  0.00    -0.014 A 
ATOM     58  C   UNL A   1      39.657  25.912  28.755  1.00  0.00     0.009 A 
ATOM     59  C   UNL A   1      40.857  27.185  27.083  1.00  0.00     0.009 A 
ATOM     60  C   UNL A   1      39.410  24.911  27.813  1.00  0.00     0.001 A 
ATOM     61  C   UNL A   1      40.588  26.193  26.137  1.00  0.00     0.001 A 
ATOM     62  C   UNL A   1      39.872  25.054  26.504  1.00  0.00     0.000 A 
ENDBRANCH  43  57
BRANCH  44  63
ATOM     63  C   UNL A   1      41.644  34.436  34.965  1.00  0.00    -0.014 A 
ATOM     64  C   UNL A   1      41.033  34.357  36.226  1.00  0.00     0.009 A 
ATOM     65  C   UNL A   1      42.419  35.563  34.653  1.00  0.00     0.009 A 
ATOM     66  C   UNL A   1      41.169  35.401  37.144  1.00  0.00     0.001 A 
ATOM     67  C   UNL A   1      42.574  36.594  35.583  1.00  0.00     0.001 A 
ATOM     68  C   UNL A   1      41.941  36.516  36.823  1.00  0.00     0.000 A 
ENDBRANCH  44  63
BRANCH  56  69
ATOM     69  C   UNL A   1      45.354  28.793  33.331  1.00  0.00    -0.014 A 
ATOM     70  C   UNL A   1      46.575  29.227  32.794  1.00  0.00     0.009 A 
ATOM     71  C   UNL A   1      45.362  27.868  34.387  1.00  0.00     0.009 A 
ATOM     72  C   UNL A   1      47.781  28.722  33.288  1.00  0.00     0.001 A 
ATOM     73  C   UNL A   1      46.567  27.383  34.893  1.00  0.00     0.001 A 
ATOM     74  C   UNL A   1      47.775  27.804  34.339  1.00  0.00     0.000 A 
ENDBRANCH  56  69
ENDBRANCH  30  31
ENDBRANCH  22  25
ENDBRANCH  20  21
ENDBRANCH   1  20
TORSDOF 13
ENDMDL
MODEL 3
REMARK VINA RESULT:     -10.3      4.792      9.372
REMARK SMILES [NH3+][C@@H](CC(=O)NCCCNC(=O)c1ccc(-c2c3nc(c(-c4ccccc4)c4ccc([nH]4)c(-c4ccccc4)c4nc(c(-c5ccccc5)c5ccc2[nH]5)C=C4)C=C3)cc1)[NH+]1CCOCC1
REMARK SMILES IDX 8 1 7 2 6 3 4 4 5 5 3 7 2 8 1 9 61 13 62 14 66 15 63 17
REMARK SMILES IDX 65 18 64 19 9 20 10 21 11 22 12 24 13 25 14 26 60 27 15 28
REMARK SMILES IDX 59 29 16 30 17 31 18 32 53 33 19 34 58 35 52 36 54 37 20 38
REMARK SMILES IDX 57 39 51 40 50 41 21 43 43 44 28 45 42 46 29 47 32 48 41 49
REMARK SMILES IDX 55 50 30 51 31 52 40 54 56 55 33 56 22 57 23 58 27 59 24 60
REMARK SMILES IDX 26 61 25 62 44 63 45 64 49 65 46 66 48 67 47 68 34 69 35 70
REMARK SMILES IDX 39 71 36 72 38 73 37 74
REMARK H PARENT 6 6 1 10 1 11 1 12 61 16 10 23 54 42 32 53
REMARK Flexibility Score: inf
ROOT
ATOM      1  C   UNL A   1      37.903  19.729  24.940  1.00  0.00     0.042 C 
ENDROOT
BRANCH   1   2
ATOM      2  C   UNL A   1      36.986  20.892  24.574  1.00  0.00     0.117 C 
BRANCH   2   3
ATOM      3  N   UNL A   1      36.050  21.211  25.633  1.00  0.00    -0.356 N 
ATOM      4  C   UNL A   1      34.735  20.917  25.788  1.00  0.00     0.232 C 
ATOM      5  O   UNL A   1      34.229  21.215  26.871  1.00  0.00    -0.275 OA
ATOM      6  H   UNL A   1      36.437  21.735  26.371  1.00  0.00     0.163 HD
BRANCH   4   7
ATOM      7  C   UNL A   1      33.942  20.177  24.742  1.00  0.00     0.232 C 
BRANCH   7   8
ATOM      8  C   UNL A   1      33.142  18.913  25.103  1.00  0.00     0.389 C 
BRANCH   8   9
ATOM      9  N   UNL A   1      32.961  18.702  26.529  1.00  0.00    -0.308 N 
ATOM     10  H   UNL A   1      32.384  19.450  26.913  1.00  0.00     0.349 HD
ATOM     11  H   UNL A   1      33.870  18.703  26.992  1.00  0.00     0.349 HD
ATOM     12  H   UNL A   1      32.503  17.804  26.685  1.00  0.00     0.349 HD
ENDBRANCH   8   9
BRANCH   8  13
ATOM     13  N   UNL A   1      33.369  17.632  24.474  1.00  0.00    -0.282 N 
ATOM     14  C   UNL A   1      32.495  16.481  24.681  1.00  0.00     0.296 C 
ATOM     15  C   UNL A   1      34.769  17.226  24.300  1.00  0.00     0.296 C 
ATOM     16  H   UNL A   1      32.989  17.975  23.592  1.00  0.00     0.353 HD
ATOM     17  C   UNL A   1      33.040  15.402  25.627  1.00  0.00     0.222 C 
ATOM     18  C   UNL A   1      35.244  16.130  25.266  1.00  0.00     0.222 C 
ATOM     19  O   UNL A   1      34.362  15.002  25.258  1.00  0.00    -0.370 OA
ENDBRANCH   8  13
ENDBRANCH   7   8
ENDBRANCH   4   7
ENDBRANCH   2   3
ENDBRANCH   1   2
BRANCH   1  20
ATOM     20  C   UNL A   1      38.924  20.035  26.032  1.00  0.00     0.118 C 
BRANCH  20  21
ATOM     21  N   UNL A   1      40.152  19.279  25.877  1.00  0.00    -0.352 N 
ATOM     22  C   UNL A   1      41.463  19.675  25.974  1.00  0.00     0.251 C 
ATOM     23  H   UNL A   1      40.026  18.325  25.668  1.00  0.00     0.163 HD
ATOM     24  O   UNL A   1      42.348  18.911  25.596  1.00  0.00    -0.269 OA
BRANCH  22  25
ATOM     25  C   UNL A   1      41.834  21.009  26.504  1.00  0.00     0.039 A 
ATOM     26  C   UNL A   1      41.810  21.204  27.890  1.00  0.00     0.014 A 
ATOM     27  C   UNL A   1      42.128  22.086  25.663  1.00  0.00     0.014 A 
ATOM     28  C   UNL A   1      42.129  22.455  28.429  1.00  0.00     0.010 A 
ATOM     29  C   UNL A   1      42.515  23.314  26.204  1.00  0.00     0.010 A 
ATOM     30  C   UNL A   1      42.509  23.515  27.592  1.00  0.00    -0.014 A 
BRANCH  30  31
ATOM     31  C   UNL A   1      42.877  24.842  28.152  1.00  0.00     0.031 A 
ATOM     32  C   UNL A   1      41.821  25.890  28.380  1.00  0.00     0.074 A 
ATOM     33  C   UNL A   1      44.167  25.125  28.419  1.00  0.00     0.049 A 
ATOM     34  N   UNL A   1      41.958  27.126  28.794  1.00  0.00    -0.248 NA
ATOM     35  C   UNL A   1      40.430  25.508  28.086  1.00  0.00     0.031 C 
ATOM     36  C   UNL A   1      45.295  24.213  28.226  1.00  0.00     0.029 A 
ATOM     37  N   UNL A   1      44.746  26.271  28.907  1.00  0.00    -0.354 N 
ATOM     38  C   UNL A   1      40.679  27.670  28.793  1.00  0.00     0.074 A 
ATOM     39  C   UNL A   1      39.784  26.646  28.301  1.00  0.00     0.031 C 
ATOM     40  C   UNL A   1      46.427  24.825  28.613  1.00  0.00     0.029 A 
ATOM     41  C   UNL A   1      46.110  26.183  29.045  1.00  0.00     0.049 A 
ATOM     42  H   UNL A   1      44.233  27.078  29.138  1.00  0.00     0.167 HD
ATOM     43  C   UNL A   1      40.281  28.905  29.182  1.00  0.00     0.031 A 
ATOM     44  C   UNL A   1      47.009  27.094  29.464  1.00  0.00     0.031 A 
ATOM     45  C   UNL A   1      41.159  29.923  29.693  1.00  0.00     0.049 A 
ATOM     46  C   UNL A   1      46.540  28.460  29.880  1.00  0.00     0.074 A 
ATOM     47  C   UNL A   1      40.837  31.190  30.148  1.00  0.00     0.029 A 
ATOM     48  N   UNL A   1      42.531  29.788  29.823  1.00  0.00    -0.354 N 
ATOM     49  N   UNL A   1      45.321  28.943  29.908  1.00  0.00    -0.248 NA
ATOM     50  C   UNL A   1      47.573  29.405  30.330  1.00  0.00     0.031 C 
ATOM     51  C   UNL A   1      42.020  31.834  30.525  1.00  0.00     0.029 A 
ATOM     52  C   UNL A   1      43.072  30.952  30.341  1.00  0.00     0.049 A 
ATOM     53  H   UNL A   1      43.045  28.982  29.584  1.00  0.00     0.167 HD
ATOM     54  C   UNL A   1      45.439  30.235  30.404  1.00  0.00     0.074 A 
ATOM     55  C   UNL A   1      46.844  30.457  30.675  1.00  0.00     0.031 C 
ATOM     56  C   UNL A   1      44.469  31.156  30.614  1.00  0.00     0.031 A 
BRANCH  43  57
ATOM     57  C   UNL A   1      38.818  29.226  29.071  1.00  0.00    -0.014 A 
ATOM     58  C   UNL A   1      37.952  29.034  30.159  1.00  0.00     0.009 A 
ATOM     59  C   UNL A   1      38.309  29.772  27.883  1.00  0.00     0.009 A 
ATOM     60  C   UNL A   1      36.597  29.357  30.049  1.00  0.00     0.001 A 
ATOM     61  C   UNL A   1      36.959  30.116  27.784  1.00  0.00     0.001 A 
ATOM     62  C   UNL A   1      36.103  29.902  28.864  1.00  0.00     0.000 A 
ENDBRANCH  43  57
BRANCH  44  63
ATOM     63  C   UNL A   1      48.452  26.748  29.522  1.00  0.00    -0.014 A 
ATOM     64  C   UNL A   1      49.273  26.941  28.400  1.00  0.00     0.009 A 
ATOM     65  C   UNL A   1      49.008  26.200  30.687  1.00  0.00     0.009 A 
ATOM     66  C   UNL A   1      50.617  26.565  28.436  1.00  0.00     0.001 A 
ATOM     67  C   UNL A   1      50.359  25.849  30.728  1.00  0.00     0.001 A 
ATOM     68  C   UNL A   1      51.160  26.022  29.599  1.00  0.00     0.000 A 
ENDBRANCH  44  63
BRANCH  56  69
ATOM     69  C   UNL A   1      44.888  32.472  31.201  1.00  0.00    -0.014 A 
ATOM     70  C   UNL A   1      44.828  32.702  32.584  1.00  0.00     0.009 A 
ATOM     71  C   UNL A   1      45.383  33.481  30.360  1.00  0.00     0.009 A 
ATOM     72  C   UNL A   1      45.228  33.932  33.111  1.00  0.00     0.001 A 
ATOM     73  C   UNL A   1      45.804  34.700  30.892  1.00  0.00     0.001 A 
ATOM     74  C   UNL A   1      45.719  34.928  32.265  1.00  0.00     0.000 A 
ENDBRANCH  56  69
ENDBRANCH  30  31
ENDBRANCH  22  25
ENDBRANCH  20  21
ENDBRANCH   1  20
TORSDOF 13
ENDMDL
