MODEL 1
REMARK VINA RESULT:     -13.6      0.000      0.000
REMARK SMILES O=C(NCCCNC(=O)c1ccc(N2C(=O)[C@@H]3N=NC(c4ccccc4)=C3[C@H]2c2cccc(Br)c2)cc1)c1ccc(-c2c3nc(c(-c4ccccc4)c4ccc([nH]4)c(-c4ccccc4)c4nc(c(-c5ccccc5)c5ccc2[nH]5)C=C4)C=C3)cc1
REMARK SMILES IDX 5 1 4 2 3 3 1 4 2 5 38 7 39 8 85 9 40 10 84 11 41 12 42 13
REMARK SMILES IDX 43 14 78 15 44 16 83 17 77 18 79 19 45 20 82 21 76 22 75 23
REMARK SMILES IDX 46 25 68 26 53 27 67 28 54 29 57 30 66 31 80 32 55 33 56 34
REMARK SMILES IDX 65 36 81 37 58 38 47 39 48 40 52 41 49 42 51 43 50 44 69 45
REMARK SMILES IDX 70 46 74 47 71 48 73 49 72 50 59 51 60 52 64 53 61 54 63 55
REMARK SMILES IDX 62 56 6 57 7 58 8 59 9 61 10 62 11 63 37 64 12 65 36 66
REMARK SMILES IDX 13 67 14 68 15 69 28 70 17 71 16 72 27 73 18 74 20 75 19 76
REMARK SMILES IDX 29 77 30 78 35 79 31 80 33 81 32 82 34 83 21 84 22 85 26 86
REMARK SMILES IDX 23 87 25 88 24 89
REMARK H PARENT 3 6 79 24 57 35 7 60
REMARK Flexibility Score: inf
ROOT
ATOM      1  C   UNL A   1      37.736  21.202  25.051  1.00  0.00     0.042 C 
ENDROOT
BRANCH   1   2
ATOM      2  C   UNL A   1      38.483  22.323  25.771  1.00  0.00     0.118 C 
BRANCH   2   3
ATOM      3  N   UNL A   1      39.914  22.132  25.894  1.00  0.00    -0.352 N 
ATOM      4  O   UNL A   1      42.022  22.226  26.542  1.00  0.00    -0.269 OA
ATOM      5  C   UNL A   1      40.936  22.810  26.500  1.00  0.00     0.251 C 
ATOM      6  H   UNL A   1      40.226  21.321  25.430  1.00  0.00     0.163 HD
BRANCH   5   7
ATOM      7  C   UNL A   1      40.862  24.201  27.023  1.00  0.00     0.039 A 
ATOM      8  C   UNL A   1      40.074  25.235  26.518  1.00  0.00     0.014 A 
ATOM      9  C   UNL A   1      41.692  24.468  28.130  1.00  0.00     0.014 A 
ATOM     10  C   UNL A   1      40.180  26.523  27.050  1.00  0.00     0.010 A 
ATOM     11  C   UNL A   1      41.798  25.746  28.666  1.00  0.00     0.010 A 
ATOM     12  C   UNL A   1      41.065  26.784  28.102  1.00  0.00    -0.014 A 
BRANCH  12  13
ATOM     13  C   UNL A   1      41.062  28.106  28.729  1.00  0.00     0.031 A 
ATOM     14  C   UNL A   1      42.205  28.977  28.323  1.00  0.00     0.074 A 
ATOM     15  C   UNL A   1      40.035  28.594  29.459  1.00  0.00     0.049 A 
ATOM     16  N   UNL A   1      43.099  29.525  29.080  1.00  0.00    -0.248 NA
ATOM     17  C   UNL A   1      42.436  29.183  26.882  1.00  0.00     0.031 C 
ATOM     18  C   UNL A   1      38.726  27.980  29.694  1.00  0.00     0.029 A 
ATOM     19  N   UNL A   1      39.906  29.815  30.061  1.00  0.00    -0.354 N 
ATOM     20  C   UNL A   1      43.912  30.279  28.235  1.00  0.00     0.074 A 
ATOM     21  C   UNL A   1      43.540  29.929  26.888  1.00  0.00     0.031 C 
ATOM     22  C   UNL A   1      37.870  28.915  30.174  1.00  0.00     0.029 A 
ATOM     23  C   UNL A   1      38.600  30.150  30.407  1.00  0.00     0.049 A 
ATOM     24  H   UNL A   1      40.673  30.407  30.235  1.00  0.00     0.167 HD
ATOM     25  C   UNL A   1      44.686  31.299  28.697  1.00  0.00     0.031 A 
ATOM     26  C   UNL A   1      38.140  31.365  30.805  1.00  0.00     0.031 A 
ATOM     27  C   UNL A   1      44.889  31.220  30.118  1.00  0.00     0.049 A 
ATOM     28  C   UNL A   1      39.304  32.164  31.248  1.00  0.00     0.074 A 
ATOM     29  C   UNL A   1      45.467  30.299  30.968  1.00  0.00     0.029 A 
ATOM     30  N   UNL A   1      44.119  32.033  30.912  1.00  0.00    -0.354 N 
ATOM     31  N   UNL A   1      39.992  31.895  32.317  1.00  0.00    -0.248 NA
ATOM     32  C   UNL A   1      39.970  32.998  30.264  1.00  0.00     0.031 C 
ATOM     33  C   UNL A   1      44.626  30.290  32.119  1.00  0.00     0.029 A 
ATOM     34  C   UNL A   1      43.637  31.258  31.935  1.00  0.00     0.049 A 
ATOM     35  H   UNL A   1      43.945  32.991  30.774  1.00  0.00     0.167 HD
ATOM     36  C   UNL A   1      41.308  32.123  31.947  1.00  0.00     0.074 A 
ATOM     37  C   UNL A   1      41.226  32.891  30.705  1.00  0.00     0.031 C 
ATOM     38  C   UNL A   1      42.331  31.429  32.526  1.00  0.00     0.031 A 
BRANCH  25  39
ATOM     39  C   UNL A   1      44.917  32.574  27.926  1.00  0.00    -0.014 A 
ATOM     40  C   UNL A   1      43.853  33.482  27.771  1.00  0.00     0.009 A 
ATOM     41  C   UNL A   1      46.044  32.774  27.107  1.00  0.00     0.009 A 
ATOM     42  C   UNL A   1      43.895  34.492  26.800  1.00  0.00     0.001 A 
ATOM     43  C   UNL A   1      46.104  33.804  26.165  1.00  0.00     0.001 A 
ATOM     44  C   UNL A   1      45.017  34.648  25.993  1.00  0.00     0.000 A 
ENDBRANCH  25  39
BRANCH  26  45
ATOM     45  C   UNL A   1      36.822  32.001  30.568  1.00  0.00    -0.014 A 
ATOM     46  C   UNL A   1      35.797  31.928  31.528  1.00  0.00     0.009 A 
ATOM     47  C   UNL A   1      36.671  32.933  29.526  1.00  0.00     0.009 A 
ATOM     48  C   UNL A   1      34.685  32.783  31.467  1.00  0.00     0.001 A 
ATOM     49  C   UNL A   1      35.562  33.784  29.464  1.00  0.00     0.001 A 
ATOM     50  C   UNL A   1      34.576  33.719  30.443  1.00  0.00     0.000 A 
ENDBRANCH  26  45
BRANCH  38  51
ATOM     51  C   UNL A   1      42.015  30.573  33.729  1.00  0.00    -0.014 A 
ATOM     52  C   UNL A   1      41.579  29.238  33.637  1.00  0.00     0.009 A 
ATOM     53  C   UNL A   1      42.309  31.089  34.999  1.00  0.00     0.009 A 
ATOM     54  C   UNL A   1      41.415  28.457  34.787  1.00  0.00     0.001 A 
ATOM     55  C   UNL A   1      42.166  30.303  36.144  1.00  0.00     0.001 A 
ATOM     56  C   UNL A   1      41.713  28.990  36.039  1.00  0.00     0.000 A 
ENDBRANCH  38  51
ENDBRANCH  12  13
ENDBRANCH   5   7
ENDBRANCH   2   3
ENDBRANCH   1   2
BRANCH   1  57
ATOM     57  C   UNL A   1      36.250  21.466  24.793  1.00  0.00     0.118 C 
BRANCH  57  58
ATOM     58  N   UNL A   1      35.378  20.918  25.821  1.00  0.00    -0.352 N 
ATOM     59  C   UNL A   1      34.147  21.340  26.257  1.00  0.00     0.251 C 
ATOM     60  H   UNL A   1      35.727  20.116  26.275  1.00  0.00     0.163 HD
ATOM     61  O   UNL A   1      33.633  20.797  27.233  1.00  0.00    -0.269 OA
BRANCH  59  62
ATOM     62  C   UNL A   1      33.442  22.471  25.603  1.00  0.00     0.039 A 
ATOM     63  C   UNL A   1      33.784  23.761  26.002  1.00  0.00     0.016 A 
ATOM     64  C   UNL A   1      32.432  22.290  24.648  1.00  0.00     0.016 A 
ATOM     65  C   UNL A   1      33.187  24.859  25.378  1.00  0.00     0.027 A 
ATOM     66  C   UNL A   1      31.822  23.400  24.027  1.00  0.00     0.027 A 
ATOM     67  C   UNL A   1      32.220  24.694  24.364  1.00  0.00     0.045 A 
BRANCH  67  68
ATOM     68  N   UNL A   1      31.759  25.842  23.630  1.00  0.00    -0.299 N 
ATOM     69  C   UNL A   1      32.583  26.207  22.510  1.00  0.00     0.259 C 
ATOM     70  C   UNL A   1      31.302  27.056  24.355  1.00  0.00     0.152 C 
ATOM     71  C   UNL A   1      32.729  27.695  22.506  1.00  0.00     0.248 C 
ATOM     72  O   UNL A   1      33.133  25.436  21.728  1.00  0.00    -0.271 OA
ATOM     73  C   UNL A   1      32.410  27.932  23.931  1.00  0.00     0.021 C 
ATOM     74  N   UNL A   1      34.095  28.228  22.411  1.00  0.00    -0.170 NA
ATOM     75  C   UNL A   1      33.369  28.717  24.409  1.00  0.00     0.097 C 
ATOM     76  N   UNL A   1      34.346  28.910  23.453  1.00  0.00    -0.154 NA
BRANCH  70  77
ATOM     77  C   UNL A   1      29.957  27.686  23.913  1.00  0.00    -0.020 A 
ATOM     78  C   UNL A   1      28.738  26.959  24.021  1.00  0.00     0.006 A 
ATOM     79  C   UNL A   1      29.886  28.929  23.266  1.00  0.00     0.022 A 
ATOM     80  C   UNL A   1      27.523  27.429  23.523  1.00  0.00     0.002 A 
ATOM     81  C   UNL A   1      28.661  29.388  22.741  1.00  0.00     0.018 A 
ATOM     82  C   UNL A   1      27.486  28.644  22.864  1.00  0.00     0.016 A 
ATOM     83  Br  UNL A   1      28.588  31.026  21.796  1.00  0.00    -0.051 Br
ENDBRANCH  70  77
BRANCH  75  84
ATOM     84  C   UNL A   1      33.584  29.222  25.761  1.00  0.00     0.002 A 
ATOM     85  C   UNL A   1      32.944  30.391  26.196  1.00  0.00     0.010 A 
ATOM     86  C   UNL A   1      34.615  28.675  26.533  1.00  0.00     0.010 A 
ATOM     87  C   UNL A   1      33.408  31.060  27.332  1.00  0.00     0.001 A 
ATOM     88  C   UNL A   1      35.075  29.344  27.666  1.00  0.00     0.001 A 
ATOM     89  C   UNL A   1      34.492  30.552  28.047  1.00  0.00     0.000 A 
ENDBRANCH  75  84
ENDBRANCH  67  68
ENDBRANCH  59  62
ENDBRANCH  57  58
ENDBRANCH   1  57
TORSDOF 13
ENDMDL
MODEL 2
REMARK VINA RESULT:     -12.8      2.879      5.696
REMARK SMILES O=C(NCCCNC(=O)c1ccc(N2C(=O)[C@@H]3N=NC(c4ccccc4)=C3[C@H]2c2cccc(Br)c2)cc1)c1ccc(-c2c3nc(c(-c4ccccc4)c4ccc([nH]4)c(-c4ccccc4)c4nc(c(-c5ccccc5)c5ccc2[nH]5)C=C4)C=C3)cc1
REMARK SMILES IDX 5 1 4 2 3 3 1 4 2 5 38 7 39 8 85 9 40 10 84 11 41 12 42 13
REMARK SMILES IDX 43 14 78 15 44 16 83 17 77 18 79 19 45 20 82 21 76 22 75 23
REMARK SMILES IDX 46 25 68 26 53 27 67 28 54 29 57 30 66 31 80 32 55 33 56 34
REMARK SMILES IDX 65 36 81 37 58 38 47 39 48 40 52 41 49 42 51 43 50 44 69 45
REMARK SMILES IDX 70 46 74 47 71 48 73 49 72 50 59 51 60 52 64 53 61 54 63 55
REMARK SMILES IDX 62 56 6 57 7 58 8 59 9 61 10 62 11 63 37 64 12 65 36 66
REMARK SMILES IDX 13 67 14 68 15 69 28 70 17 71 16 72 27 73 18 74 20 75 19 76
REMARK SMILES IDX 29 77 30 78 35 79 31 80 33 81 32 82 34 83 21 84 22 85 26 86
REMARK SMILES IDX 23 87 25 88 24 89
REMARK H PARENT 3 6 79 24 57 35 7 60
REMARK Flexibility Score: inf
ROOT
ATOM      1  C   UNL A   1      43.296  23.817  26.091  1.00  0.00     0.042 C 
ENDROOT
BRANCH   1   2
ATOM      2  C   UNL A   1      43.738  23.481  27.514  1.00  0.00     0.118 C 
BRANCH   2   3
ATOM      3  N   UNL A   1      44.996  24.072  27.927  1.00  0.00    -0.352 N 
ATOM      4  O   UNL A   1      46.551  25.263  28.943  1.00  0.00    -0.269 OA
ATOM      5  C   UNL A   1      45.361  25.188  28.626  1.00  0.00     0.251 C 
ATOM      6  H   UNL A   1      45.773  23.544  27.632  1.00  0.00     0.163 HD
BRANCH   5   7
ATOM      7  C   UNL A   1      44.470  26.335  28.952  1.00  0.00     0.039 A 
ATOM      8  C   UNL A   1      44.176  26.819  30.227  1.00  0.00     0.014 A 
ATOM      9  C   UNL A   1      43.873  26.963  27.841  1.00  0.00     0.014 A 
ATOM     10  C   UNL A   1      43.241  27.845  30.390  1.00  0.00     0.010 A 
ATOM     11  C   UNL A   1      42.946  27.987  27.997  1.00  0.00     0.010 A 
ATOM     12  C   UNL A   1      42.604  28.405  29.277  1.00  0.00    -0.014 A 
BRANCH  12  13
ATOM     13  C   UNL A   1      41.730  29.566  29.462  1.00  0.00     0.031 A 
ATOM     14  C   UNL A   1      42.429  30.880  29.341  1.00  0.00     0.074 A 
ATOM     15  C   UNL A   1      40.384  29.494  29.544  1.00  0.00     0.049 A 
ATOM     16  N   UNL A   1      42.505  31.828  30.216  1.00  0.00    -0.248 NA
ATOM     17  C   UNL A   1      43.225  31.127  28.124  1.00  0.00     0.031 C 
ATOM     18  C   UNL A   1      39.534  28.313  29.378  1.00  0.00     0.029 A 
ATOM     19  N   UNL A   1      39.472  30.502  29.682  1.00  0.00    -0.354 N 
ATOM     20  C   UNL A   1      43.217  32.862  29.608  1.00  0.00     0.074 A 
ATOM     21  C   UNL A   1      43.744  32.328  28.379  1.00  0.00     0.031 C 
ATOM     22  C   UNL A   1      38.250  28.704  29.191  1.00  0.00     0.029 A 
ATOM     23  C   UNL A   1      38.166  30.145  29.357  1.00  0.00     0.049 A 
ATOM     24  H   UNL A   1      39.718  31.406  29.987  1.00  0.00     0.167 HD
ATOM     25  C   UNL A   1      43.145  34.146  30.051  1.00  0.00     0.031 A 
ATOM     26  C   UNL A   1      37.104  30.976  29.184  1.00  0.00     0.031 A 
ATOM     27  C   UNL A   1      42.636  34.228  31.392  1.00  0.00     0.049 A 
ATOM     28  C   UNL A   1      37.432  32.266  29.829  1.00  0.00     0.074 A 
ATOM     29  C   UNL A   1      43.049  33.751  32.620  1.00  0.00     0.029 A 
ATOM     30  N   UNL A   1      41.315  34.567  31.546  1.00  0.00    -0.354 N 
ATOM     31  N   UNL A   1      37.545  32.415  31.116  1.00  0.00    -0.248 NA
ATOM     32  C   UNL A   1      38.068  33.290  29.018  1.00  0.00     0.031 C 
ATOM     33  C   UNL A   1      41.848  33.358  33.279  1.00  0.00     0.029 A 
ATOM     34  C   UNL A   1      40.775  33.689  32.450  1.00  0.00     0.049 A 
ATOM     35  H   UNL A   1      40.843  35.302  31.094  1.00  0.00     0.167 HD
ATOM     36  C   UNL A   1      38.630  33.263  31.271  1.00  0.00     0.074 A 
ATOM     37  C   UNL A   1      38.852  33.844  29.947  1.00  0.00     0.031 C 
ATOM     38  C   UNL A   1      39.419  33.198  32.383  1.00  0.00     0.031 A 
BRANCH  25  39
ATOM     39  C   UNL A   1      43.157  35.338  29.127  1.00  0.00    -0.014 A 
ATOM     40  C   UNL A   1      43.828  36.508  29.527  1.00  0.00     0.009 A 
ATOM     41  C   UNL A   1      42.294  35.450  28.020  1.00  0.00     0.009 A 
ATOM     42  C   UNL A   1      43.592  37.735  28.892  1.00  0.00     0.001 A 
ATOM     43  C   UNL A   1      42.087  36.665  27.360  1.00  0.00     0.001 A 
ATOM     44  C   UNL A   1      42.717  37.814  27.814  1.00  0.00     0.000 A 
ENDBRANCH  25  39
BRANCH  26  45
ATOM     45  C   UNL A   1      35.949  30.853  28.264  1.00  0.00    -0.014 A 
ATOM     46  C   UNL A   1      35.693  29.654  27.576  1.00  0.00     0.009 A 
ATOM     47  C   UNL A   1      34.927  31.818  28.289  1.00  0.00     0.009 A 
ATOM     48  C   UNL A   1      34.447  29.416  26.972  1.00  0.00     0.001 A 
ATOM     49  C   UNL A   1      33.686  31.583  27.687  1.00  0.00     0.001 A 
ATOM     50  C   UNL A   1      33.441  30.375  27.041  1.00  0.00     0.000 A 
ENDBRANCH  26  45
BRANCH  38  51
ATOM     51  C   UNL A   1      38.952  32.340  33.533  1.00  0.00    -0.014 A 
ATOM     52  C   UNL A   1      39.272  30.975  33.662  1.00  0.00     0.009 A 
ATOM     53  C   UNL A   1      38.288  32.968  34.597  1.00  0.00     0.009 A 
ATOM     54  C   UNL A   1      38.910  30.259  34.809  1.00  0.00     0.001 A 
ATOM     55  C   UNL A   1      37.947  32.259  35.750  1.00  0.00     0.001 A 
ATOM     56  C   UNL A   1      38.252  30.904  35.854  1.00  0.00     0.000 A 
ENDBRANCH  38  51
ENDBRANCH  12  13
ENDBRANCH   5   7
ENDBRANCH   2   3
ENDBRANCH   1   2
BRANCH   1  57
ATOM     57  C   UNL A   1      42.278  22.852  25.477  1.00  0.00     0.118 C 
BRANCH  57  58
ATOM     58  N   UNL A   1      42.008  21.690  26.309  1.00  0.00    -0.352 N 
ATOM     59  C   UNL A   1      40.816  21.184  26.766  1.00  0.00     0.251 C 
ATOM     60  H   UNL A   1      42.806  21.186  26.588  1.00  0.00     0.163 HD
ATOM     61  O   UNL A   1      40.823  20.252  27.567  1.00  0.00    -0.269 OA
BRANCH  59  62
ATOM     62  C   UNL A   1      39.518  21.771  26.348  1.00  0.00     0.039 A 
ATOM     63  C   UNL A   1      38.632  20.949  25.654  1.00  0.00     0.016 A 
ATOM     64  C   UNL A   1      39.175  23.109  26.584  1.00  0.00     0.016 A 
ATOM     65  C   UNL A   1      37.377  21.439  25.286  1.00  0.00     0.027 A 
ATOM     66  C   UNL A   1      37.911  23.606  26.202  1.00  0.00     0.027 A 
ATOM     67  C   UNL A   1      36.989  22.764  25.579  1.00  0.00     0.045 A 
BRANCH  67  68
ATOM     68  N   UNL A   1      35.632  23.175  25.339  1.00  0.00    -0.299 N 
ATOM     69  C   UNL A   1      34.794  23.184  26.507  1.00  0.00     0.259 C 
ATOM     70  C   UNL A   1      34.886  22.639  24.171  1.00  0.00     0.152 C 
ATOM     71  C   UNL A   1      33.470  22.595  26.135  1.00  0.00     0.248 C 
ATOM     72  O   UNL A   1      35.119  23.545  27.636  1.00  0.00    -0.271 OA
ATOM     73  C   UNL A   1      33.914  21.841  24.943  1.00  0.00     0.021 C 
ATOM     74  N   UNL A   1      32.955  21.521  26.995  1.00  0.00    -0.170 NA
ATOM     75  C   UNL A   1      33.439  20.608  25.074  1.00  0.00     0.097 C 
ATOM     76  N   UNL A   1      32.828  20.463  26.304  1.00  0.00    -0.154 NA
BRANCH  70  77
ATOM     77  C   UNL A   1      34.121  23.656  23.286  1.00  0.00    -0.020 A 
ATOM     78  C   UNL A   1      33.462  23.238  22.096  1.00  0.00     0.006 A 
ATOM     79  C   UNL A   1      34.151  25.037  23.530  1.00  0.00     0.022 A 
ATOM     80  C   UNL A   1      32.868  24.127  21.200  1.00  0.00     0.002 A 
ATOM     81  C   UNL A   1      33.573  25.933  22.610  1.00  0.00     0.018 A 
ATOM     82  C   UNL A   1      32.937  25.486  21.449  1.00  0.00     0.016 A 
ATOM     83  Br  UNL A   1      33.691  27.800  22.901  1.00  0.00    -0.051 Br
ENDBRANCH  70  77
BRANCH  75  84
ATOM     84  C   UNL A   1      33.612  19.437  24.221  1.00  0.00     0.002 A 
ATOM     85  C   UNL A   1      32.640  19.098  23.269  1.00  0.00     0.010 A 
ATOM     86  C   UNL A   1      34.626  18.522  24.523  1.00  0.00     0.010 A 
ATOM     87  C   UNL A   1      32.625  17.816  22.712  1.00  0.00     0.001 A 
ATOM     88  C   UNL A   1      34.610  17.245  23.966  1.00  0.00     0.001 A 
ATOM     89  C   UNL A   1      33.592  16.882  23.085  1.00  0.00     0.000 A 
ENDBRANCH  75  84
ENDBRANCH  67  68
ENDBRANCH  59  62
ENDBRANCH  57  58
ENDBRANCH   1  57
TORSDOF 13
ENDMDL
MODEL 3
REMARK VINA RESULT:     -12.5      3.127      5.439
REMARK SMILES O=C(NCCCNC(=O)c1ccc(N2C(=O)[C@@H]3N=NC(c4ccccc4)=C3[C@H]2c2cccc(Br)c2)cc1)c1ccc(-c2c3nc(c(-c4ccccc4)c4ccc([nH]4)c(-c4ccccc4)c4nc(c(-c5ccccc5)c5ccc2[nH]5)C=C4)C=C3)cc1
REMARK SMILES IDX 5 1 4 2 3 3 1 4 2 5 38 7 39 8 85 9 40 10 84 11 41 12 42 13
REMARK SMILES IDX 43 14 78 15 44 16 83 17 77 18 79 19 45 20 82 21 76 22 75 23
REMARK SMILES IDX 46 25 68 26 53 27 67 28 54 29 57 30 66 31 80 32 55 33 56 34
REMARK SMILES IDX 65 36 81 37 58 38 47 39 48 40 52 41 49 42 51 43 50 44 69 45
REMARK SMILES IDX 70 46 74 47 71 48 73 49 72 50 59 51 60 52 64 53 61 54 63 55
REMARK SMILES IDX 62 56 6 57 7 58 8 59 9 61 10 62 11 63 37 64 12 65 36 66
REMARK SMILES IDX 13 67 14 68 15 69 28 70 17 71 16 72 27 73 18 74 20 75 19 76
REMARK SMILES IDX 29 77 30 78 35 79 31 80 33 81 32 82 34 83 21 84 22 85 26 86
REMARK SMILES IDX 23 87 25 88 24 89
REMARK H PARENT 3 6 79 24 57 35 7 60
REMARK Flexibility Score: inf
ROOT
ATOM      1  C   UNL A   1      43.048  22.691  27.210  1.00  0.00     0.042 C 
ENDROOT
BRANCH   1   2
ATOM      2  C   UNL A   1      43.297  22.936  28.697  1.00  0.00     0.118 C 
BRANCH   2   3
ATOM      3  N   UNL A   1      44.541  23.608  29.014  1.00  0.00    -0.352 N 
ATOM      4  O   UNL A   1      46.064  25.013  29.775  1.00  0.00    -0.269 OA
ATOM      5  C   UNL A   1      44.890  24.865  29.421  1.00  0.00     0.251 C 
ATOM      6  H   UNL A   1      45.323  23.017  28.910  1.00  0.00     0.163 HD
BRANCH   5   7
ATOM      7  C   UNL A   1      44.007  26.062  29.390  1.00  0.00     0.039 A 
ATOM      8  C   UNL A   1      43.350  26.577  28.273  1.00  0.00     0.014 A 
ATOM      9  C   UNL A   1      43.850  26.722  30.625  1.00  0.00     0.014 A 
ATOM     10  C   UNL A   1      42.629  27.770  28.371  1.00  0.00     0.010 A 
ATOM     11  C   UNL A   1      43.130  27.906  30.730  1.00  0.00     0.010 A 
ATOM     12  C   UNL A   1      42.547  28.450  29.591  1.00  0.00    -0.014 A 
BRANCH  12  13
ATOM     13  C   UNL A   1      41.678  29.623  29.700  1.00  0.00     0.031 A 
ATOM     14  C   UNL A   1      42.388  30.926  29.528  1.00  0.00     0.074 A 
ATOM     15  C   UNL A   1      40.330  29.563  29.759  1.00  0.00     0.049 A 
ATOM     16  N   UNL A   1      42.452  31.916  30.356  1.00  0.00    -0.248 NA
ATOM     17  C   UNL A   1      43.209  31.107  28.317  1.00  0.00     0.031 C 
ATOM     18  C   UNL A   1      39.475  28.380  29.635  1.00  0.00     0.029 A 
ATOM     19  N   UNL A   1      39.422  30.582  29.828  1.00  0.00    -0.354 N 
ATOM     20  C   UNL A   1      43.184  32.914  29.713  1.00  0.00     0.074 A 
ATOM     21  C   UNL A   1      43.731  32.316  28.522  1.00  0.00     0.031 C 
ATOM     22  C   UNL A   1      38.199  28.768  29.403  1.00  0.00     0.029 A 
ATOM     23  C   UNL A   1      38.120  30.217  29.495  1.00  0.00     0.049 A 
ATOM     24  H   UNL A   1      39.668  31.499  30.093  1.00  0.00     0.167 HD
ATOM     25  C   UNL A   1      43.112  34.219  30.089  1.00  0.00     0.031 A 
ATOM     26  C   UNL A   1      37.068  31.044  29.260  1.00  0.00     0.031 A 
ATOM     27  C   UNL A   1      42.576  34.370  31.414  1.00  0.00     0.049 A 
ATOM     28  C   UNL A   1      37.392  32.363  29.847  1.00  0.00     0.074 A 
ATOM     29  C   UNL A   1      42.962  33.954  32.672  1.00  0.00     0.029 A 
ATOM     30  N   UNL A   1      41.254  34.724  31.525  1.00  0.00    -0.354 N 
ATOM     31  N   UNL A   1      37.480  32.575  31.126  1.00  0.00    -0.248 NA
ATOM     32  C   UNL A   1      38.050  33.341  28.999  1.00  0.00     0.031 C 
ATOM     33  C   UNL A   1      41.745  33.600  33.326  1.00  0.00     0.029 A 
ATOM     34  C   UNL A   1      40.692  33.896  32.460  1.00  0.00     0.049 A 
ATOM     35  H   UNL A   1      40.796  35.439  31.027  1.00  0.00     0.167 HD
ATOM     36  C   UNL A   1      38.567  33.423  31.260  1.00  0.00     0.074 A 
ATOM     37  C   UNL A   1      38.819  33.936  29.914  1.00  0.00     0.031 C 
ATOM     38  C   UNL A   1      39.334  33.409  32.390  1.00  0.00     0.031 A 
BRANCH  25  39
ATOM     39  C   UNL A   1      43.150  35.364  29.107  1.00  0.00    -0.014 A 
ATOM     40  C   UNL A   1      43.911  36.506  29.416  1.00  0.00     0.009 A 
ATOM     41  C   UNL A   1      42.239  35.479  28.039  1.00  0.00     0.009 A 
ATOM     42  C   UNL A   1      43.719  37.714  28.733  1.00  0.00     0.001 A 
ATOM     43  C   UNL A   1      42.074  36.672  27.330  1.00  0.00     0.001 A 
ATOM     44  C   UNL A   1      42.796  37.798  27.695  1.00  0.00     0.000 A 
ENDBRANCH  25  39
BRANCH  26  45
ATOM     45  C   UNL A   1      35.930  30.882  28.324  1.00  0.00    -0.014 A 
ATOM     46  C   UNL A   1      35.714  29.668  27.646  1.00  0.00     0.009 A 
ATOM     47  C   UNL A   1      34.884  31.821  28.322  1.00  0.00     0.009 A 
ATOM     48  C   UNL A   1      34.484  29.393  27.027  1.00  0.00     0.001 A 
ATOM     49  C   UNL A   1      33.659  31.548  27.704  1.00  0.00     0.001 A 
ATOM     50  C   UNL A   1      33.454  30.327  27.069  1.00  0.00     0.000 A 
ENDBRANCH  26  45
BRANCH  38  51
ATOM     51  C   UNL A   1      38.838  32.612  33.572  1.00  0.00    -0.014 A 
ATOM     52  C   UNL A   1      39.164  31.260  33.787  1.00  0.00     0.009 A 
ATOM     53  C   UNL A   1      38.138  33.293  34.578  1.00  0.00     0.009 A 
ATOM     54  C   UNL A   1      38.773  30.606  34.960  1.00  0.00     0.001 A 
ATOM     55  C   UNL A   1      37.767  32.646  35.759  1.00  0.00     0.001 A 
ATOM     56  C   UNL A   1      38.079  31.302  35.947  1.00  0.00     0.000 A 
ENDBRANCH  38  51
ENDBRANCH  12  13
ENDBRANCH   5   7
ENDBRANCH   2   3
ENDBRANCH   1   2
BRANCH   1  57
ATOM     57  C   UNL A   1      41.818  23.392  26.628  1.00  0.00     0.118 C 
BRANCH  57  58
ATOM     58  N   UNL A   1      41.118  24.226  27.592  1.00  0.00    -0.352 N 
ATOM     59  C   UNL A   1      39.774  24.460  27.752  1.00  0.00     0.251 C 
ATOM     60  H   UNL A   1      41.699  24.696  28.233  1.00  0.00     0.163 HD
ATOM     61  O   UNL A   1      39.400  25.305  28.563  1.00  0.00    -0.269 OA
BRANCH  59  62
ATOM     62  C   UNL A   1      38.763  23.747  26.932  1.00  0.00     0.039 A 
ATOM     63  C   UNL A   1      37.586  24.426  26.624  1.00  0.00     0.016 A 
ATOM     64  C   UNL A   1      38.928  22.423  26.501  1.00  0.00     0.016 A 
ATOM     65  C   UNL A   1      36.628  23.816  25.810  1.00  0.00     0.027 A 
ATOM     66  C   UNL A   1      37.954  21.804  25.689  1.00  0.00     0.027 A 
ATOM     67  C   UNL A   1      36.811  22.510  25.309  1.00  0.00     0.045 A 
BRANCH  67  68
ATOM     68  N   UNL A   1      35.887  21.986  24.339  1.00  0.00    -0.299 N 
ATOM     69  C   UNL A   1      35.900  22.666  23.073  1.00  0.00     0.259 C 
ATOM     70  C   UNL A   1      34.494  21.659  24.738  1.00  0.00     0.152 C 
ATOM     71  C   UNL A   1      34.484  22.849  22.629  1.00  0.00     0.248 C 
ATOM     72  O   UNL A   1      36.891  23.089  22.482  1.00  0.00    -0.271 OA
ATOM     73  C   UNL A   1      33.840  22.725  23.954  1.00  0.00     0.021 C 
ATOM     74  N   UNL A   1      34.083  24.204  22.226  1.00  0.00    -0.170 NA
ATOM     75  C   UNL A   1      33.014  23.758  24.074  1.00  0.00     0.097 C 
ATOM     76  N   UNL A   1      33.155  24.607  22.993  1.00  0.00    -0.154 NA
BRANCH  70  77
ATOM     77  C   UNL A   1      33.930  20.285  24.297  1.00  0.00    -0.020 A 
ATOM     78  C   UNL A   1      32.672  20.189  23.637  1.00  0.00     0.006 A 
ATOM     79  C   UNL A   1      34.548  19.074  24.639  1.00  0.00     0.022 A 
ATOM     80  C   UNL A   1      32.062  18.973  23.332  1.00  0.00     0.002 A 
ATOM     81  C   UNL A   1      33.915  17.847  24.353  1.00  0.00     0.018 A 
ATOM     82  C   UNL A   1      32.679  17.793  23.706  1.00  0.00     0.016 A 
ATOM     83  Br  UNL A   1      34.714  16.218  24.893  1.00  0.00    -0.051 Br
ENDBRANCH  70  77
BRANCH  75  84
ATOM     84  C   UNL A   1      32.166  24.160  25.191  1.00  0.00     0.002 A 
ATOM     85  C   UNL A   1      31.468  23.202  25.939  1.00  0.00     0.010 A 
ATOM     86  C   UNL A   1      31.861  25.516  25.356  1.00  0.00     0.010 A 
ATOM     87  C   UNL A   1      30.406  23.593  26.758  1.00  0.00     0.001 A 
ATOM     88  C   UNL A   1      30.802  25.903  26.175  1.00  0.00     0.001 A 
ATOM     89  C   UNL A   1      30.055  24.940  26.850  1.00  0.00     0.000 A 
ENDBRANCH  75  84
ENDBRANCH  67  68
ENDBRANCH  59  62
ENDBRANCH  57  58
ENDBRANCH   1  57
TORSDOF 13
ENDMDL
