MODEL 1
REMARK VINA RESULT:     -10.9      0.000      0.000
REMARK SMILES NC(=O)C[C@@H](NC(=O)c1ccc(CO)cc1)C(=O)NCCCNC(=O)c1ccc(-c2c3nc(c(-c4ccccc4)c4ccc([nH]4)c(-c4ccccc4)c4nc(c(-c5ccccc5)c5ccc2[nH]5)C=C4)C=C3)cc1
REMARK SMILES IDX 20 1 19 2 17 3 18 4 5 6 4 7 2 8 1 9 3 12 6 13 7 14 8 16 9 17
REMARK SMILES IDX 10 18 16 19 11 20 15 21 12 22 13 23 14 24 21 26 22 27 23 28
REMARK SMILES IDX 24 29 25 31 26 32 27 33 73 34 28 35 72 36 29 37 30 38 31 39
REMARK SMILES IDX 66 40 32 41 71 42 65 43 67 44 33 45 70 46 64 47 63 48 34 50
REMARK SMILES IDX 56 51 41 52 55 53 42 54 45 55 54 56 68 57 43 58 44 59 53 61
REMARK SMILES IDX 69 62 46 63 35 64 36 65 40 66 37 67 39 68 38 69 57 70 58 71
REMARK SMILES IDX 62 72 59 73 61 74 60 75 47 76 48 77 52 78 49 79 51 80 50 81
REMARK H PARENT 19 5 1 10 1 11 6 15 14 25 23 30 67 49 45 60
REMARK Flexibility Score: inf
ROOT
ATOM      1  C   UNL A   1      36.315  20.446  25.155  1.00  0.00     0.117 C 
ENDROOT
BRANCH   1   2
ATOM      2  N   UNL A   1      36.017  21.826  25.491  1.00  0.00    -0.354 N 
ATOM      3  C   UNL A   1      34.814  22.437  25.669  1.00  0.00     0.243 C 
ATOM      4  O   UNL A   1      34.802  23.663  25.807  1.00  0.00    -0.273 OA
ATOM      5  H   UNL A   1      36.802  22.409  25.607  1.00  0.00     0.163 HD
BRANCH   3   6
ATOM      6  C   UNL A   1      33.508  21.642  25.559  1.00  0.00     0.180 C 
BRANCH   6   7
ATOM      7  C   UNL A   1      32.515  22.444  26.426  1.00  0.00     0.134 C 
BRANCH   7   8
ATOM      8  C   UNL A   1      31.198  22.737  25.768  1.00  0.00     0.220 C 
ATOM      9  N   UNL A   1      30.104  22.226  26.401  1.00  0.00    -0.370 N 
ATOM     10  H   UNL A   1      29.205  22.377  26.028  1.00  0.00     0.159 HD
ATOM     11  H   UNL A   1      30.211  21.706  27.230  1.00  0.00     0.159 HD
ATOM     12  O   UNL A   1      31.095  23.359  24.719  1.00  0.00    -0.275 OA
ENDBRANCH   7   8
ENDBRANCH   6   7
BRANCH   6  13
ATOM     13  N   UNL A   1      33.025  21.398  24.181  1.00  0.00    -0.340 N 
ATOM     14  C   UNL A   1      32.535  20.269  23.555  1.00  0.00     0.251 C 
ATOM     15  H   UNL A   1      33.059  22.192  23.601  1.00  0.00     0.164 HD
ATOM     16  O   UNL A   1      31.969  20.397  22.472  1.00  0.00    -0.269 OA
BRANCH  14  17
ATOM     17  C   UNL A   1      32.835  18.905  24.051  1.00  0.00     0.039 A 
ATOM     18  C   UNL A   1      32.467  18.598  25.369  1.00  0.00     0.014 A 
ATOM     19  C   UNL A   1      33.383  17.916  23.238  1.00  0.00     0.014 A 
ATOM     20  C   UNL A   1      32.493  17.273  25.816  1.00  0.00     0.007 A 
ATOM     21  C   UNL A   1      33.411  16.589  23.688  1.00  0.00     0.007 A 
ATOM     22  C   UNL A   1      32.919  16.251  24.958  1.00  0.00    -0.023 A 
BRANCH  22  23
ATOM     23  C   UNL A   1      32.824  14.810  25.394  1.00  0.00     0.191 C 
BRANCH  23  24
ATOM     24  O   UNL A   1      32.038  14.681  26.566  1.00  0.00    -0.392 OA
ATOM     25  H   UNL A   1      31.293  15.301  26.526  1.00  0.00     0.211 HD
ENDBRANCH  23  24
ENDBRANCH  22  23
ENDBRANCH  14  17
ENDBRANCH   6  13
ENDBRANCH   3   6
ENDBRANCH   1   2
BRANCH   1  26
ATOM     26  C   UNL A   1      37.746  20.303  24.679  1.00  0.00     0.042 C 
BRANCH  26  27
ATOM     27  C   UNL A   1      38.753  20.505  25.799  1.00  0.00     0.118 C 
BRANCH  27  28
ATOM     28  N   UNL A   1      39.788  19.479  25.818  1.00  0.00    -0.352 N 
ATOM     29  C   UNL A   1      41.124  19.603  26.100  1.00  0.00     0.251 C 
ATOM     30  H   UNL A   1      39.484  18.569  25.598  1.00  0.00     0.163 HD
ATOM     31  O   UNL A   1      41.890  18.670  25.880  1.00  0.00    -0.269 OA
BRANCH  29  32
ATOM     32  C   UNL A   1      41.632  20.878  26.643  1.00  0.00     0.039 A 
ATOM     33  C   UNL A   1      42.088  21.856  25.761  1.00  0.00     0.014 A 
ATOM     34  C   UNL A   1      41.624  21.115  28.021  1.00  0.00     0.014 A 
ATOM     35  C   UNL A   1      42.478  23.096  26.262  1.00  0.00     0.010 A 
ATOM     36  C   UNL A   1      41.896  22.386  28.503  1.00  0.00     0.010 A 
ATOM     37  C   UNL A   1      42.347  23.385  27.632  1.00  0.00    -0.014 A 
BRANCH  37  38
ATOM     38  C   UNL A   1      42.682  24.731  28.154  1.00  0.00     0.031 A 
ATOM     39  C   UNL A   1      44.114  25.133  28.369  1.00  0.00     0.074 A 
ATOM     40  C   UNL A   1      41.686  25.587  28.453  1.00  0.00     0.049 A 
ATOM     41  N   UNL A   1      44.597  26.297  28.723  1.00  0.00    -0.248 NA
ATOM     42  C   UNL A   1      45.136  24.089  28.190  1.00  0.00     0.031 C 
ATOM     43  C   UNL A   1      40.255  25.290  28.349  1.00  0.00     0.029 A 
ATOM     44  N   UNL A   1      41.727  26.890  28.876  1.00  0.00    -0.354 N 
ATOM     45  C   UNL A   1      45.973  26.121  28.812  1.00  0.00     0.074 A 
ATOM     46  C   UNL A   1      46.239  24.724  28.554  1.00  0.00     0.031 C 
ATOM     47  C   UNL A   1      39.557  26.402  28.625  1.00  0.00     0.029 A 
ATOM     48  C   UNL A   1      40.488  27.474  28.961  1.00  0.00     0.049 A 
ATOM     49  H   UNL A   1      42.563  27.360  29.098  1.00  0.00     0.167 HD
ATOM     50  C   UNL A   1      46.935  27.044  29.056  1.00  0.00     0.031 A 
ATOM     51  C   UNL A   1      40.140  28.742  29.249  1.00  0.00     0.031 A 
ATOM     52  C   UNL A   1      46.665  28.430  29.328  1.00  0.00     0.049 A 
ATOM     53  C   UNL A   1      41.219  29.748  29.528  1.00  0.00     0.074 A 
ATOM     54  C   UNL A   1      47.563  29.461  29.542  1.00  0.00     0.029 A 
ATOM     55  N   UNL A   1      45.394  28.978  29.436  1.00  0.00    -0.354 N 
ATOM     56  N   UNL A   1      42.521  29.590  29.521  1.00  0.00    -0.248 NA
ATOM     57  C   UNL A   1      40.776  31.113  29.833  1.00  0.00     0.031 C 
ATOM     58  C   UNL A   1      46.834  30.619  29.843  1.00  0.00     0.029 A 
ATOM     59  C   UNL A   1      45.483  30.327  29.743  1.00  0.00     0.049 A 
ATOM     60  H   UNL A   1      44.553  28.482  29.311  1.00  0.00     0.167 HD
ATOM     61  C   UNL A   1      43.056  30.843  29.793  1.00  0.00     0.074 A 
ATOM     62  C   UNL A   1      41.934  31.751  29.936  1.00  0.00     0.031 C 
ATOM     63  C   UNL A   1      44.356  31.211  29.906  1.00  0.00     0.031 A 
BRANCH  50  64
ATOM     64  C   UNL A   1      48.361  26.559  29.056  1.00  0.00    -0.014 A 
ATOM     65  C   UNL A   1      49.132  26.549  27.880  1.00  0.00     0.009 A 
ATOM     66  C   UNL A   1      48.940  26.088  30.245  1.00  0.00     0.009 A 
ATOM     67  C   UNL A   1      50.426  26.024  27.883  1.00  0.00     0.001 A 
ATOM     68  C   UNL A   1      50.247  25.599  30.253  1.00  0.00     0.001 A 
ATOM     69  C   UNL A   1      50.984  25.551  29.069  1.00  0.00     0.000 A 
ENDBRANCH  50  64
BRANCH  51  70
ATOM     70  C   UNL A   1      38.709  29.140  29.220  1.00  0.00    -0.014 A 
ATOM     71  C   UNL A   1      38.112  29.548  28.016  1.00  0.00     0.009 A 
ATOM     72  C   UNL A   1      37.925  29.090  30.383  1.00  0.00     0.009 A 
ATOM     73  C   UNL A   1      36.766  29.916  27.983  1.00  0.00     0.001 A 
ATOM     74  C   UNL A   1      36.572  29.430  30.340  1.00  0.00     0.001 A 
ATOM     75  C   UNL A   1      35.995  29.850  29.143  1.00  0.00     0.000 A 
ENDBRANCH  51  70
BRANCH  63  76
ATOM     76  C   UNL A   1      44.628  32.668  30.170  1.00  0.00    -0.014 A 
ATOM     77  C   UNL A   1      44.776  33.590  29.123  1.00  0.00     0.009 A 
ATOM     78  C   UNL A   1      44.738  33.122  31.494  1.00  0.00     0.009 A 
ATOM     79  C   UNL A   1      45.084  34.925  29.395  1.00  0.00     0.001 A 
ATOM     80  C   UNL A   1      45.008  34.464  31.765  1.00  0.00     0.001 A 
ATOM     81  C   UNL A   1      45.197  35.361  30.715  1.00  0.00     0.000 A 
ENDBRANCH  63  76
ENDBRANCH  37  38
ENDBRANCH  29  32
ENDBRANCH  27  28
ENDBRANCH  26  27
ENDBRANCH   1  26
TORSDOF 16
ENDMDL
MODEL 2
REMARK VINA RESULT:     -10.8      1.620      3.637
REMARK SMILES NC(=O)C[C@@H](NC(=O)c1ccc(CO)cc1)C(=O)NCCCNC(=O)c1ccc(-c2c3nc(c(-c4ccccc4)c4ccc([nH]4)c(-c4ccccc4)c4nc(c(-c5ccccc5)c5ccc2[nH]5)C=C4)C=C3)cc1
REMARK SMILES IDX 20 1 19 2 17 3 18 4 5 6 4 7 2 8 1 9 3 12 6 13 7 14 8 16 9 17
REMARK SMILES IDX 10 18 16 19 11 20 15 21 12 22 13 23 14 24 21 26 22 27 23 28
REMARK SMILES IDX 24 29 25 31 26 32 27 33 73 34 28 35 72 36 29 37 30 38 31 39
REMARK SMILES IDX 66 40 32 41 71 42 65 43 67 44 33 45 70 46 64 47 63 48 34 50
REMARK SMILES IDX 56 51 41 52 55 53 42 54 45 55 54 56 68 57 43 58 44 59 53 61
REMARK SMILES IDX 69 62 46 63 35 64 36 65 40 66 37 67 39 68 38 69 57 70 58 71
REMARK SMILES IDX 62 72 59 73 61 74 60 75 47 76 48 77 52 78 49 79 51 80 50 81
REMARK H PARENT 19 5 1 10 1 11 6 15 14 25 23 30 67 49 45 60
REMARK Flexibility Score: inf
ROOT
ATOM      1  C   UNL A   1      36.538  20.527  25.154  1.00  0.00     0.117 C 
ENDROOT
BRANCH   1   2
ATOM      2  N   UNL A   1      35.500  19.540  24.916  1.00  0.00    -0.354 N 
ATOM      3  C   UNL A   1      34.147  19.686  24.911  1.00  0.00     0.243 C 
ATOM      4  O   UNL A   1      33.456  18.667  24.829  1.00  0.00    -0.273 OA
ATOM      5  H   UNL A   1      35.823  18.629  24.732  1.00  0.00     0.163 HD
BRANCH   3   6
ATOM      6  C   UNL A   1      33.507  21.059  25.142  1.00  0.00     0.180 C 
BRANCH   6   7
ATOM      7  C   UNL A   1      32.199  20.998  24.325  1.00  0.00     0.134 C 
BRANCH   7   8
ATOM      8  C   UNL A   1      32.222  21.773  23.041  1.00  0.00     0.220 C 
ATOM      9  N   UNL A   1      31.794  21.092  21.940  1.00  0.00    -0.370 N 
ATOM     10  H   UNL A   1      31.780  21.536  21.061  1.00  0.00     0.159 HD
ATOM     11  H   UNL A   1      31.498  20.157  22.023  1.00  0.00     0.159 HD
ATOM     12  O   UNL A   1      32.625  22.926  22.959  1.00  0.00    -0.275 OA
ENDBRANCH   7   8
ENDBRANCH   6   7
BRANCH   6  13
ATOM     13  N   UNL A   1      33.299  21.435  26.560  1.00  0.00    -0.340 N 
ATOM     14  C   UNL A   1      32.718  22.538  27.153  1.00  0.00     0.251 C 
ATOM     15  H   UNL A   1      33.641  20.771  27.201  1.00  0.00     0.164 HD
ATOM     16  O   UNL A   1      32.451  22.488  28.351  1.00  0.00    -0.269 OA
BRANCH  14  17
ATOM     17  C   UNL A   1      32.582  23.830  26.441  1.00  0.00     0.039 A 
ATOM     18  C   UNL A   1      31.287  24.335  26.252  1.00  0.00     0.014 A 
ATOM     19  C   UNL A   1      33.683  24.582  26.038  1.00  0.00     0.014 A 
ATOM     20  C   UNL A   1      31.101  25.650  25.816  1.00  0.00     0.007 A 
ATOM     21  C   UNL A   1      33.495  25.900  25.598  1.00  0.00     0.007 A 
ATOM     22  C   UNL A   1      32.210  26.459  25.534  1.00  0.00    -0.023 A 
BRANCH  22  23
ATOM     23  C   UNL A   1      32.015  27.914  25.189  1.00  0.00     0.191 C 
BRANCH  23  24
ATOM     24  O   UNL A   1      31.063  28.071  24.150  1.00  0.00    -0.392 OA
ATOM     25  H   UNL A   1      30.487  28.825  24.350  1.00  0.00     0.211 HD
ENDBRANCH  23  24
ENDBRANCH  22  23
ENDBRANCH  14  17
ENDBRANCH   6  13
ENDBRANCH   3   6
ENDBRANCH   1   2
BRANCH   1  26
ATOM     26  C   UNL A   1      37.895  19.992  24.745  1.00  0.00     0.042 C 
BRANCH  26  27
ATOM     27  C   UNL A   1      38.961  20.251  25.797  1.00  0.00     0.118 C 
BRANCH  27  28
ATOM     28  N   UNL A   1      39.973  19.204  25.844  1.00  0.00    -0.352 N 
ATOM     29  C   UNL A   1      41.322  19.313  26.067  1.00  0.00     0.251 C 
ATOM     30  H   UNL A   1      39.641  18.289  25.695  1.00  0.00     0.163 HD
ATOM     31  O   UNL A   1      42.058  18.349  25.879  1.00  0.00    -0.269 OA
BRANCH  29  32
ATOM     32  C   UNL A   1      41.878  20.606  26.507  1.00  0.00     0.039 A 
ATOM     33  C   UNL A   1      42.241  21.550  25.546  1.00  0.00     0.014 A 
ATOM     34  C   UNL A   1      42.008  20.896  27.868  1.00  0.00     0.014 A 
ATOM     35  C   UNL A   1      42.676  22.808  25.958  1.00  0.00     0.010 A 
ATOM     36  C   UNL A   1      42.324  22.185  28.272  1.00  0.00     0.010 A 
ATOM     37  C   UNL A   1      42.682  23.149  27.322  1.00  0.00    -0.014 A 
BRANCH  37  38
ATOM     38  C   UNL A   1      43.065  24.513  27.756  1.00  0.00     0.031 A 
ATOM     39  C   UNL A   1      44.503  24.951  27.725  1.00  0.00     0.074 A 
ATOM     40  C   UNL A   1      42.110  25.355  28.197  1.00  0.00     0.049 A 
ATOM     41  N   UNL A   1      45.008  26.133  27.972  1.00  0.00    -0.248 NA
ATOM     42  C   UNL A   1      45.507  23.926  27.401  1.00  0.00     0.031 C 
ATOM     43  C   UNL A   1      40.689  25.025  28.335  1.00  0.00     0.029 A 
ATOM     44  N   UNL A   1      42.187  26.668  28.582  1.00  0.00    -0.354 N 
ATOM     45  C   UNL A   1      46.383  25.989  27.838  1.00  0.00     0.074 A 
ATOM     46  C   UNL A   1      46.638  24.592  27.566  1.00  0.00     0.031 C 
ATOM     47  C   UNL A   1      40.018  26.128  28.700  1.00  0.00     0.029 A 
ATOM     48  C   UNL A   1      40.965  27.227  28.858  1.00  0.00     0.049 A 
ATOM     49  H   UNL A   1      43.036  27.161  28.655  1.00  0.00     0.167 HD
ATOM     50  C   UNL A   1      47.349  26.937  27.903  1.00  0.00     0.031 A 
ATOM     51  C   UNL A   1      40.637  28.494  29.174  1.00  0.00     0.031 A 
ATOM     52  C   UNL A   1      47.092  28.324  28.188  1.00  0.00     0.049 A 
ATOM     53  C   UNL A   1      41.722  29.529  29.252  1.00  0.00     0.074 A 
ATOM     54  C   UNL A   1      47.987  29.378  28.232  1.00  0.00     0.029 A 
ATOM     55  N   UNL A   1      45.843  28.847  28.492  1.00  0.00    -0.354 N 
ATOM     56  N   UNL A   1      43.008  29.398  29.036  1.00  0.00    -0.248 NA
ATOM     57  C   UNL A   1      41.301  30.891  29.599  1.00  0.00     0.031 C 
ATOM     58  C   UNL A   1      47.289  30.527  28.625  1.00  0.00     0.029 A 
ATOM     59  C   UNL A   1      45.948  30.203  28.754  1.00  0.00     0.049 A 
ATOM     60  H   UNL A   1      45.006  28.330  28.517  1.00  0.00     0.167 HD
ATOM     61  C   UNL A   1      43.549  30.668  29.191  1.00  0.00     0.074 A 
ATOM     62  C   UNL A   1      42.443  31.555  29.499  1.00  0.00     0.031 C 
ATOM     63  C   UNL A   1      44.841  31.067  29.083  1.00  0.00     0.031 A 
BRANCH  50  64
ATOM     64  C   UNL A   1      48.768  26.484  27.678  1.00  0.00    -0.014 A 
ATOM     65  C   UNL A   1      49.334  26.459  26.392  1.00  0.00     0.009 A 
ATOM     66  C   UNL A   1      49.546  26.058  28.765  1.00  0.00     0.009 A 
ATOM     67  C   UNL A   1      50.624  25.961  26.192  1.00  0.00     0.001 A 
ATOM     68  C   UNL A   1      50.849  25.597  28.568  1.00  0.00     0.001 A 
ATOM     69  C   UNL A   1      51.381  25.533  27.281  1.00  0.00     0.000 A 
ENDBRANCH  50  64
BRANCH  51  70
ATOM     70  C   UNL A   1      39.211  28.860  29.373  1.00  0.00    -0.014 A 
ATOM     71  C   UNL A   1      38.420  29.243  28.278  1.00  0.00     0.009 A 
ATOM     72  C   UNL A   1      38.625  28.804  30.647  1.00  0.00     0.009 A 
ATOM     73  C   UNL A   1      37.077  29.582  28.458  1.00  0.00     0.001 A 
ATOM     74  C   UNL A   1      37.275  29.114  30.819  1.00  0.00     0.001 A 
ATOM     75  C   UNL A   1      36.504  29.511  29.727  1.00  0.00     0.000 A 
ENDBRANCH  51  70
BRANCH  63  76
ATOM     76  C   UNL A   1      45.116  32.535  29.270  1.00  0.00    -0.014 A 
ATOM     77  C   UNL A   1      45.437  33.069  30.528  1.00  0.00     0.009 A 
ATOM     78  C   UNL A   1      45.052  33.397  28.164  1.00  0.00     0.009 A 
ATOM     79  C   UNL A   1      45.631  34.443  30.684  1.00  0.00     0.001 A 
ATOM     80  C   UNL A   1      45.284  34.765  28.315  1.00  0.00     0.001 A 
ATOM     81  C   UNL A   1      45.557  35.289  29.578  1.00  0.00     0.000 A 
ENDBRANCH  63  76
ENDBRANCH  37  38
ENDBRANCH  29  32
ENDBRANCH  27  28
ENDBRANCH  26  27
ENDBRANCH   1  26
TORSDOF 16
ENDMDL
MODEL 3
REMARK VINA RESULT:     -10.8      3.085      7.920
REMARK SMILES NC(=O)C[C@@H](NC(=O)c1ccc(CO)cc1)C(=O)NCCCNC(=O)c1ccc(-c2c3nc(c(-c4ccccc4)c4ccc([nH]4)c(-c4ccccc4)c4nc(c(-c5ccccc5)c5ccc2[nH]5)C=C4)C=C3)cc1
REMARK SMILES IDX 20 1 19 2 17 3 18 4 5 6 4 7 2 8 1 9 3 12 6 13 7 14 8 16 9 17
REMARK SMILES IDX 10 18 16 19 11 20 15 21 12 22 13 23 14 24 21 26 22 27 23 28
REMARK SMILES IDX 24 29 25 31 26 32 27 33 73 34 28 35 72 36 29 37 30 38 31 39
REMARK SMILES IDX 66 40 32 41 71 42 65 43 67 44 33 45 70 46 64 47 63 48 34 50
REMARK SMILES IDX 56 51 41 52 55 53 42 54 45 55 54 56 68 57 43 58 44 59 53 61
REMARK SMILES IDX 69 62 46 63 35 64 36 65 40 66 37 67 39 68 38 69 57 70 58 71
REMARK SMILES IDX 62 72 59 73 61 74 60 75 47 76 48 77 52 78 49 79 51 80 50 81
REMARK H PARENT 19 5 1 10 1 11 6 15 14 25 23 30 67 49 45 60
REMARK Flexibility Score: inf
ROOT
ATOM      1  C   UNL A   1      31.927  29.204  25.862  1.00  0.00     0.117 C 
ENDROOT
BRANCH   1   2
ATOM      2  N   UNL A   1      31.337  29.662  24.617  1.00  0.00    -0.354 N 
ATOM      3  C   UNL A   1      31.088  28.976  23.469  1.00  0.00     0.243 C 
ATOM      4  O   UNL A   1      30.712  29.615  22.483  1.00  0.00    -0.273 OA
ATOM      5  H   UNL A   1      31.079  30.612  24.601  1.00  0.00     0.163 HD
BRANCH   3   6
ATOM      6  C   UNL A   1      31.402  27.479  23.368  1.00  0.00     0.180 C 
BRANCH   6   7
ATOM      7  C   UNL A   1      30.019  26.804  23.485  1.00  0.00     0.134 C 
BRANCH   7   8
ATOM      8  C   UNL A   1      30.049  25.385  23.970  1.00  0.00     0.220 C 
ATOM      9  N   UNL A   1      29.849  25.221  25.308  1.00  0.00    -0.370 N 
ATOM     10  H   UNL A   1      29.855  24.318  25.700  1.00  0.00     0.159 HD
ATOM     11  H   UNL A   1      29.700  26.006  25.884  1.00  0.00     0.159 HD
ATOM     12  O   UNL A   1      30.269  24.429  23.237  1.00  0.00    -0.275 OA
ENDBRANCH   7   8
ENDBRANCH   6   7
BRANCH   6  13
ATOM     13  N   UNL A   1      32.160  27.067  22.164  1.00  0.00    -0.340 N 
ATOM     14  C   UNL A   1      32.981  25.987  21.908  1.00  0.00     0.251 C 
ATOM     15  H   UNL A   1      32.058  27.680  21.401  1.00  0.00     0.164 HD
ATOM     16  O   UNL A   1      33.290  25.747  20.743  1.00  0.00    -0.269 OA
BRANCH  14  17
ATOM     17  C   UNL A   1      33.646  25.232  22.997  1.00  0.00     0.039 A 
ATOM     18  C   UNL A   1      33.995  25.939  24.157  1.00  0.00     0.014 A 
ATOM     19  C   UNL A   1      33.852  23.857  22.936  1.00  0.00     0.014 A 
ATOM     20  C   UNL A   1      34.393  25.250  25.306  1.00  0.00     0.007 A 
ATOM     21  C   UNL A   1      34.254  23.168  24.089  1.00  0.00     0.007 A 
ATOM     22  C   UNL A   1      34.477  23.852  25.294  1.00  0.00    -0.023 A 
BRANCH  22  23
ATOM     23  C   UNL A   1      34.779  23.101  26.566  1.00  0.00     0.191 C 
BRANCH  23  24
ATOM     24  O   UNL A   1      36.126  22.658  26.590  1.00  0.00    -0.392 OA
ATOM     25  H   UNL A   1      36.718  23.417  26.476  1.00  0.00     0.211 HD
ENDBRANCH  23  24
ENDBRANCH  22  23
ENDBRANCH  14  17
ENDBRANCH   6  13
ENDBRANCH   3   6
ENDBRANCH   1   2
BRANCH   1  26
ATOM     26  C   UNL A   1      33.437  29.300  25.812  1.00  0.00     0.042 C 
BRANCH  26  27
ATOM     27  C   UNL A   1      34.079  29.044  27.165  1.00  0.00     0.118 C 
BRANCH  27  28
ATOM     28  N   UNL A   1      34.115  30.233  28.007  1.00  0.00    -0.352 N 
ATOM     29  C   UNL A   1      35.116  30.682  28.829  1.00  0.00     0.251 C 
ATOM     30  H   UNL A   1      33.306  30.793  27.981  1.00  0.00     0.163 HD
ATOM     31  O   UNL A   1      34.904  31.600  29.616  1.00  0.00    -0.269 OA
BRANCH  29  32
ATOM     32  C   UNL A   1      36.439  30.031  28.776  1.00  0.00     0.039 A 
ATOM     33  C   UNL A   1      37.193  30.123  27.607  1.00  0.00     0.014 A 
ATOM     34  C   UNL A   1      36.946  29.362  29.895  1.00  0.00     0.014 A 
ATOM     35  C   UNL A   1      38.482  29.595  27.585  1.00  0.00     0.010 A 
ATOM     36  C   UNL A   1      38.269  28.946  29.908  1.00  0.00     0.010 A 
ATOM     37  C   UNL A   1      39.045  29.038  28.747  1.00  0.00    -0.014 A 
BRANCH  37  38
ATOM     38  C   UNL A   1      40.445  28.551  28.748  1.00  0.00     0.031 A 
ATOM     39  C   UNL A   1      40.759  27.125  28.391  1.00  0.00     0.074 A 
ATOM     40  C   UNL A   1      41.435  29.397  29.091  1.00  0.00     0.049 A 
ATOM     41  N   UNL A   1      41.926  26.553  28.243  1.00  0.00    -0.248 NA
ATOM     42  C   UNL A   1      39.617  26.216  28.201  1.00  0.00     0.031 C 
ATOM     43  C   UNL A   1      41.251  30.786  29.521  1.00  0.00     0.029 A 
ATOM     44  N   UNL A   1      42.794  29.221  29.105  1.00  0.00    -0.354 N 
ATOM     45  C   UNL A   1      41.657  25.222  27.948  1.00  0.00     0.074 A 
ATOM     46  C   UNL A   1      40.223  25.054  28.016  1.00  0.00     0.031 C 
ATOM     47  C   UNL A   1      42.455  31.357  29.681  1.00  0.00     0.029 A 
ATOM     48  C   UNL A   1      43.489  30.366  29.403  1.00  0.00     0.049 A 
ATOM     49  H   UNL A   1      43.229  28.358  28.920  1.00  0.00     0.167 HD
ATOM     50  C   UNL A   1      42.522  24.231  27.620  1.00  0.00     0.031 A 
ATOM     51  C   UNL A   1      44.814  30.601  29.424  1.00  0.00     0.031 A 
ATOM     52  C   UNL A   1      43.949  24.398  27.569  1.00  0.00     0.049 A 
ATOM     53  C   UNL A   1      45.757  29.489  29.067  1.00  0.00     0.074 A 
ATOM     54  C   UNL A   1      44.916  23.477  27.202  1.00  0.00     0.029 A 
ATOM     55  N   UNL A   1      44.618  25.566  27.907  1.00  0.00    -0.354 N 
ATOM     56  N   UNL A   1      45.486  28.258  28.704  1.00  0.00    -0.248 NA
ATOM     57  C   UNL A   1      47.188  29.808  29.105  1.00  0.00     0.031 C 
ATOM     58  C   UNL A   1      46.172  24.069  27.382  1.00  0.00     0.029 A 
ATOM     59  C   UNL A   1      45.986  25.381  27.788  1.00  0.00     0.049 A 
ATOM     60  H   UNL A   1      44.185  26.403  28.190  1.00  0.00     0.167 HD
ATOM     61  C   UNL A   1      46.713  27.663  28.440  1.00  0.00     0.074 A 
ATOM     62  C   UNL A   1      47.724  28.678  28.667  1.00  0.00     0.031 C 
ATOM     63  C   UNL A   1      46.980  26.394  28.041  1.00  0.00     0.031 A 
BRANCH  50  64
ATOM     64  C   UNL A   1      41.928  22.881  27.313  1.00  0.00    -0.014 A 
ATOM     65  C   UNL A   1      41.531  22.534  26.010  1.00  0.00     0.009 A 
ATOM     66  C   UNL A   1      41.746  21.947  28.344  1.00  0.00     0.009 A 
ATOM     67  C   UNL A   1      40.910  21.308  25.758  1.00  0.00     0.001 A 
ATOM     68  C   UNL A   1      41.160  20.707  28.083  1.00  0.00     0.001 A 
ATOM     69  C   UNL A   1      40.728  20.394  26.795  1.00  0.00     0.000 A 
ENDBRANCH  50  64
BRANCH  51  70
ATOM     70  C   UNL A   1      45.317  31.966  29.730  1.00  0.00    -0.014 A 
ATOM     71  C   UNL A   1      45.636  32.322  31.050  1.00  0.00     0.009 A 
ATOM     72  C   UNL A   1      45.509  32.907  28.707  1.00  0.00     0.009 A 
ATOM     73  C   UNL A   1      46.117  33.601  31.341  1.00  0.00     0.001 A 
ATOM     74  C   UNL A   1      46.017  34.174  28.998  1.00  0.00     0.001 A 
ATOM     75  C   UNL A   1      46.313  34.523  30.315  1.00  0.00     0.000 A 
ENDBRANCH  51  70
BRANCH  63  76
ATOM     76  C   UNL A   1      48.425  26.050  27.796  1.00  0.00    -0.014 A 
ATOM     77  C   UNL A   1      49.024  26.240  26.541  1.00  0.00     0.009 A 
ATOM     78  C   UNL A   1      49.198  25.527  28.844  1.00  0.00     0.009 A 
ATOM     79  C   UNL A   1      50.350  25.860  26.326  1.00  0.00     0.001 A 
ATOM     80  C   UNL A   1      50.535  25.182  28.638  1.00  0.00     0.001 A 
ATOM     81  C   UNL A   1      51.105  25.334  27.374  1.00  0.00     0.000 A 
ENDBRANCH  63  76
ENDBRANCH  37  38
ENDBRANCH  29  32
ENDBRANCH  27  28
ENDBRANCH  26  27
ENDBRANCH   1  26
TORSDOF 16
ENDMDL
