MODEL 1
REMARK VINA RESULT:     -11.2      0.000      0.000
REMARK SMILES Cc1cscc1C(=O)NC1(C(=O)NCCCNC(=O)c2ccc(-c3c4nc(c(-c5ccccc5)c5ccc([nH]5)c(-c5ccccc5)c5nc(c(-c6ccccc6)c6ccc3[nH]6)C=C5)C=C4)cc2)CCCC1
REMARK SMILES IDX 15 1 14 2 13 3 11 4 12 5 10 7 68 8 71 9 69 10 70 11 9 12
REMARK SMILES IDX 7 13 8 14 6 16 1 17 2 18 3 19 4 20 5 21 16 22 17 23 18 24
REMARK SMILES IDX 19 26 20 27 21 28 67 29 22 30 66 31 23 32 24 33 25 34 60 35
REMARK SMILES IDX 26 36 65 37 59 38 61 39 27 40 64 41 58 42 57 43 28 45 50 46
REMARK SMILES IDX 35 47 49 48 36 49 39 50 48 51 62 52 37 53 38 54 47 56 63 57
REMARK SMILES IDX 40 58 29 59 30 60 34 61 31 62 33 63 32 64 51 65 52 66 56 67
REMARK SMILES IDX 53 68 55 69 54 70 41 71 42 72 46 73 43 74 45 75 44 76
REMARK H PARENT 13 6 9 15 17 25 61 44 39 55
REMARK Flexibility Score: inf
ROOT
ATOM      1  C   UNL A   1      37.447  19.820  24.957  1.00  0.00     0.042 C 
ENDROOT
BRANCH   1   2
ATOM      2  C   UNL A   1      36.323  20.833  24.844  1.00  0.00     0.117 C 
BRANCH   2   3
ATOM      3  N   UNL A   1      35.654  21.038  26.106  1.00  0.00    -0.354 N 
ATOM      4  C   UNL A   1      34.673  21.870  26.518  1.00  0.00     0.245 C 
ATOM      5  O   UNL A   1      34.375  21.744  27.718  1.00  0.00    -0.272 OA
ATOM      6  H   UNL A   1      35.982  20.443  26.818  1.00  0.00     0.163 HD
BRANCH   4   7
ATOM      7  C   UNL A   1      34.002  23.018  25.685  1.00  0.00     0.119 C 
ATOM      8  C   UNL A   1      33.354  22.782  24.346  1.00  0.00     0.038 C 
ATOM      9  C   UNL A   1      35.111  24.041  25.346  1.00  0.00     0.038 C 
ATOM     10  C   UNL A   1      34.328  23.141  23.236  1.00  0.00     0.003 C 
ATOM     11  C   UNL A   1      35.540  23.740  23.914  1.00  0.00     0.003 C 
BRANCH   7  12
ATOM     12  N   UNL A   1      33.050  23.599  26.666  1.00  0.00    -0.338 N 
ATOM     13  C   UNL A   1      31.817  24.205  26.537  1.00  0.00     0.253 C 
ATOM     14  O   UNL A   1      30.958  23.784  27.318  1.00  0.00    -0.269 OA
ATOM     15  H   UNL A   1      33.363  23.542  27.598  1.00  0.00     0.164 HD
BRANCH  13  16
ATOM     16  C   UNL A   1      31.575  25.488  25.837  1.00  0.00     0.053 A 
ATOM     17  C   UNL A   1      33.553  27.250  26.299  1.00  0.00     0.046 C 
ATOM     18  C   UNL A   1      32.270  26.771  25.706  1.00  0.00    -0.028 A 
ATOM     19  C   UNL A   1      31.596  27.628  24.844  1.00  0.00     0.069 A 
ATOM     20  S   UNL A   1      30.259  26.919  24.086  1.00  0.00    -0.151 S 
ATOM     21  C   UNL A   1      30.512  25.471  24.933  1.00  0.00     0.079 A 
ENDBRANCH  13  16
ENDBRANCH   7  12
ENDBRANCH   4   7
ENDBRANCH   2   3
ENDBRANCH   1   2
BRANCH   1  22
ATOM     22  C   UNL A   1      38.698  20.416  25.578  1.00  0.00     0.118 C 
BRANCH  22  23
ATOM     23  N   UNL A   1      39.769  19.433  25.714  1.00  0.00    -0.352 N 
ATOM     24  C   UNL A   1      41.087  19.594  26.066  1.00  0.00     0.251 C 
ATOM     25  H   UNL A   1      39.504  18.505  25.521  1.00  0.00     0.163 HD
ATOM     26  O   UNL A   1      41.873  18.668  25.924  1.00  0.00    -0.269 OA
BRANCH  24  27
ATOM     27  C   UNL A   1      41.553  20.893  26.591  1.00  0.00     0.039 A 
ATOM     28  C   UNL A   1      42.037  21.853  25.699  1.00  0.00     0.014 A 
ATOM     29  C   UNL A   1      41.499  21.167  27.958  1.00  0.00     0.014 A 
ATOM     30  C   UNL A   1      42.391  23.115  26.175  1.00  0.00     0.010 A 
ATOM     31  C   UNL A   1      41.727  22.458  28.409  1.00  0.00     0.010 A 
ATOM     32  C   UNL A   1      42.196  23.440  27.527  1.00  0.00    -0.014 A 
BRANCH  32  33
ATOM     33  C   UNL A   1      42.496  24.793  28.053  1.00  0.00     0.031 A 
ATOM     34  C   UNL A   1      43.894  25.131  28.494  1.00  0.00     0.074 A 
ATOM     35  C   UNL A   1      41.499  25.686  28.208  1.00  0.00     0.049 A 
ATOM     36  N   UNL A   1      44.342  26.229  29.047  1.00  0.00    -0.248 NA
ATOM     37  C   UNL A   1      44.917  24.085  28.328  1.00  0.00     0.031 C 
ATOM     38  C   UNL A   1      40.092  25.457  27.869  1.00  0.00     0.029 A 
ATOM     39  N   UNL A   1      41.519  26.968  28.693  1.00  0.00    -0.354 N 
ATOM     40  C   UNL A   1      45.684  25.992  29.318  1.00  0.00     0.074 A 
ATOM     41  C   UNL A   1      45.961  24.627  28.933  1.00  0.00     0.031 C 
ATOM     42  C   UNL A   1      39.393  26.575  28.120  1.00  0.00     0.029 A 
ATOM     43  C   UNL A   1      40.289  27.580  28.680  1.00  0.00     0.049 A 
ATOM     44  H   UNL A   1      42.337  27.408  29.020  1.00  0.00     0.167 HD
ATOM     45  C   UNL A   1      46.613  26.842  29.816  1.00  0.00     0.031 A 
ATOM     46  C   UNL A   1      39.924  28.812  29.080  1.00  0.00     0.031 A 
ATOM     47  C   UNL A   1      46.336  28.205  30.180  1.00  0.00     0.049 A 
ATOM     48  C   UNL A   1      40.970  29.739  29.632  1.00  0.00     0.074 A 
ATOM     49  C   UNL A   1      47.217  29.172  30.629  1.00  0.00     0.029 A 
ATOM     50  N   UNL A   1      45.080  28.790  30.139  1.00  0.00    -0.354 N 
ATOM     51  N   UNL A   1      42.252  29.527  29.808  1.00  0.00    -0.248 NA
ATOM     52  C   UNL A   1      40.520  31.080  30.028  1.00  0.00     0.031 C 
ATOM     53  C   UNL A   1      46.482  30.326  30.919  1.00  0.00     0.029 A 
ATOM     54  C   UNL A   1      45.156  30.099  30.585  1.00  0.00     0.049 A 
ATOM     55  H   UNL A   1      44.256  28.342  29.838  1.00  0.00     0.167 HD
ATOM     56  C   UNL A   1      42.768  30.715  30.310  1.00  0.00     0.074 A 
ATOM     57  C   UNL A   1      41.661  31.648  30.393  1.00  0.00     0.031 C 
ATOM     58  C   UNL A   1      44.042  31.008  30.668  1.00  0.00     0.031 A 
BRANCH  45  59
ATOM     59  C   UNL A   1      48.008  26.308  30.001  1.00  0.00    -0.014 A 
ATOM     60  C   UNL A   1      48.944  26.322  28.954  1.00  0.00     0.009 A 
ATOM     61  C   UNL A   1      48.394  25.787  31.246  1.00  0.00     0.009 A 
ATOM     62  C   UNL A   1      50.219  25.782  29.135  1.00  0.00     0.001 A 
ATOM     63  C   UNL A   1      49.681  25.280  31.435  1.00  0.00     0.001 A 
ATOM     64  C   UNL A   1      50.587  25.265  30.377  1.00  0.00     0.000 A 
ENDBRANCH  45  59
BRANCH  46  65
ATOM     65  C   UNL A   1      38.507  29.244  28.948  1.00  0.00    -0.014 A 
ATOM     66  C   UNL A   1      38.016  29.709  27.719  1.00  0.00     0.009 A 
ATOM     67  C   UNL A   1      37.635  29.179  30.046  1.00  0.00     0.009 A 
ATOM     68  C   UNL A   1      36.687  30.121  27.597  1.00  0.00     0.001 A 
ATOM     69  C   UNL A   1      36.299  29.563  29.914  1.00  0.00     0.001 A 
ATOM     70  C   UNL A   1      35.828  30.042  28.693  1.00  0.00     0.000 A 
ENDBRANCH  46  65
BRANCH  58  71
ATOM     71  C   UNL A   1      44.315  32.405  31.152  1.00  0.00    -0.014 A 
ATOM     72  C   UNL A   1      44.604  33.447  30.256  1.00  0.00     0.009 A 
ATOM     73  C   UNL A   1      44.235  32.690  32.524  1.00  0.00     0.009 A 
ATOM     74  C   UNL A   1      44.841  34.738  30.730  1.00  0.00     0.001 A 
ATOM     75  C   UNL A   1      44.439  33.988  32.991  1.00  0.00     0.001 A 
ATOM     76  C   UNL A   1      44.752  35.009  32.095  1.00  0.00     0.000 A 
ENDBRANCH  58  71
ENDBRANCH  32  33
ENDBRANCH  24  27
ENDBRANCH  22  23
ENDBRANCH   1  22
TORSDOF 12
ENDMDL
MODEL 2
REMARK VINA RESULT:     -11.2      2.349      7.477
REMARK SMILES Cc1cscc1C(=O)NC1(C(=O)NCCCNC(=O)c2ccc(-c3c4nc(c(-c5ccccc5)c5ccc([nH]5)c(-c5ccccc5)c5nc(c(-c6ccccc6)c6ccc3[nH]6)C=C5)C=C4)cc2)CCCC1
REMARK SMILES IDX 15 1 14 2 13 3 11 4 12 5 10 7 68 8 71 9 69 10 70 11 9 12
REMARK SMILES IDX 7 13 8 14 6 16 1 17 2 18 3 19 4 20 5 21 16 22 17 23 18 24
REMARK SMILES IDX 19 26 20 27 21 28 67 29 22 30 66 31 23 32 24 33 25 34 60 35
REMARK SMILES IDX 26 36 65 37 59 38 61 39 27 40 64 41 58 42 57 43 28 45 50 46
REMARK SMILES IDX 35 47 49 48 36 49 39 50 48 51 62 52 37 53 38 54 47 56 63 57
REMARK SMILES IDX 40 58 29 59 30 60 34 61 31 62 33 63 32 64 51 65 52 66 56 67
REMARK SMILES IDX 53 68 55 69 54 70 41 71 42 72 46 73 43 74 45 75 44 76
REMARK H PARENT 13 6 9 15 17 25 61 44 39 55
REMARK Flexibility Score: inf
ROOT
ATOM      1  C   UNL A   1      33.741  28.300  25.954  1.00  0.00     0.042 C 
ENDROOT
BRANCH   1   2
ATOM      2  C   UNL A   1      33.745  26.801  25.720  1.00  0.00     0.117 C 
BRANCH   2   3
ATOM      3  N   UNL A   1      33.792  26.477  24.315  1.00  0.00    -0.354 N 
ATOM      4  C   UNL A   1      33.921  25.322  23.627  1.00  0.00     0.245 C 
ATOM      5  O   UNL A   1      33.929  25.466  22.392  1.00  0.00    -0.272 OA
ATOM      6  H   UNL A   1      33.711  27.267  23.732  1.00  0.00     0.163 HD
BRANCH   4   7
ATOM      7  C   UNL A   1      34.182  23.895  24.226  1.00  0.00     0.119 C 
ATOM      8  C   UNL A   1      35.156  23.646  25.347  1.00  0.00     0.038 C 
ATOM      9  C   UNL A   1      34.753  23.021  23.084  1.00  0.00     0.038 C 
ATOM     10  C   UNL A   1      36.482  23.171  24.776  1.00  0.00     0.003 C 
ATOM     11  C   UNL A   1      36.264  22.992  23.291  1.00  0.00     0.003 C 
BRANCH   7  12
ATOM     12  N   UNL A   1      32.809  23.447  24.575  1.00  0.00    -0.338 N 
ATOM     13  C   UNL A   1      32.318  22.329  25.216  1.00  0.00     0.253 C 
ATOM     14  O   UNL A   1      31.489  22.570  26.099  1.00  0.00    -0.269 OA
ATOM     15  H   UNL A   1      32.107  24.076  24.291  1.00  0.00     0.164 HD
BRANCH  13  16
ATOM     16  C   UNL A   1      32.427  20.943  24.701  1.00  0.00     0.053 A 
ATOM     17  C   UNL A   1      31.944  20.835  22.058  1.00  0.00     0.046 C 
ATOM     18  C   UNL A   1      32.287  20.283  23.401  1.00  0.00    -0.028 A 
ATOM     19  C   UNL A   1      32.570  18.925  23.489  1.00  0.00     0.069 A 
ATOM     20  S   UNL A   1      33.126  18.441  25.014  1.00  0.00    -0.151 S 
ATOM     21  C   UNL A   1      32.947  20.020  25.610  1.00  0.00     0.079 A 
ENDBRANCH  13  16
ENDBRANCH   7  12
ENDBRANCH   4   7
ENDBRANCH   2   3
ENDBRANCH   1   2
BRANCH   1  22
ATOM     22  C   UNL A   1      33.429  28.655  27.397  1.00  0.00     0.118 C 
BRANCH  22  23
ATOM     23  N   UNL A   1      33.528  30.090  27.646  1.00  0.00    -0.352 N 
ATOM     24  C   UNL A   1      34.552  30.834  28.181  1.00  0.00     0.251 C 
ATOM     25  H   UNL A   1      32.732  30.609  27.391  1.00  0.00     0.163 HD
ATOM     26  O   UNL A   1      34.359  31.999  28.495  1.00  0.00    -0.269 OA
BRANCH  24  27
ATOM     27  C   UNL A   1      35.875  30.212  28.396  1.00  0.00     0.039 A 
ATOM     28  C   UNL A   1      36.809  30.226  27.358  1.00  0.00     0.014 A 
ATOM     29  C   UNL A   1      36.193  29.629  29.622  1.00  0.00     0.014 A 
ATOM     30  C   UNL A   1      38.091  29.724  27.583  1.00  0.00     0.010 A 
ATOM     31  C   UNL A   1      37.501  29.251  29.883  1.00  0.00     0.010 A 
ATOM     32  C   UNL A   1      38.459  29.274  28.861  1.00  0.00    -0.014 A 
BRANCH  32  33
ATOM     33  C   UNL A   1      39.832  28.799  29.153  1.00  0.00     0.031 A 
ATOM     34  C   UNL A   1      40.815  29.718  29.824  1.00  0.00     0.074 A 
ATOM     35  C   UNL A   1      40.216  27.573  28.747  1.00  0.00     0.049 A 
ATOM     36  N   UNL A   1      42.079  29.517  30.098  1.00  0.00    -0.248 NA
ATOM     37  C   UNL A   1      40.327  31.056  30.201  1.00  0.00     0.031 C 
ATOM     38  C   UNL A   1      39.371  26.609  28.037  1.00  0.00     0.029 A 
ATOM     39  N   UNL A   1      41.420  26.929  28.870  1.00  0.00    -0.354 N 
ATOM     40  C   UNL A   1      42.536  30.708  30.651  1.00  0.00     0.074 A 
ATOM     41  C   UNL A   1      41.439  31.645  30.610  1.00  0.00     0.031 C 
ATOM     42  C   UNL A   1      40.071  25.484  27.825  1.00  0.00     0.029 A 
ATOM     43  C   UNL A   1      41.424  25.663  28.338  1.00  0.00     0.049 A 
ATOM     44  H   UNL A   1      42.207  27.336  29.299  1.00  0.00     0.167 HD
ATOM     45  C   UNL A   1      43.753  30.989  31.173  1.00  0.00     0.031 A 
ATOM     46  C   UNL A   1      42.411  24.750  28.267  1.00  0.00     0.031 A 
ATOM     47  C   UNL A   1      44.837  30.046  31.228  1.00  0.00     0.049 A 
ATOM     48  C   UNL A   1      43.755  25.083  28.850  1.00  0.00     0.074 A 
ATOM     49  C   UNL A   1      46.089  30.203  31.796  1.00  0.00     0.029 A 
ATOM     50  N   UNL A   1      44.796  28.769  30.690  1.00  0.00    -0.354 N 
ATOM     51  N   UNL A   1      44.149  26.185  29.441  1.00  0.00    -0.248 NA
ATOM     52  C   UNL A   1      44.786  24.040  28.768  1.00  0.00     0.031 C 
ATOM     53  C   UNL A   1      46.827  29.042  31.547  1.00  0.00     0.029 A 
ATOM     54  C   UNL A   1      46.012  28.136  30.885  1.00  0.00     0.049 A 
ATOM     55  H   UNL A   1      44.018  28.370  30.236  1.00  0.00     0.167 HD
ATOM     56  C   UNL A   1      45.465  25.960  29.825  1.00  0.00     0.074 A 
ATOM     57  C   UNL A   1      45.794  24.610  29.415  1.00  0.00     0.031 C 
ATOM     58  C   UNL A   1      46.323  26.795  30.462  1.00  0.00     0.031 A 
BRANCH  45  59
ATOM     59  C   UNL A   1      43.969  32.377  31.713  1.00  0.00    -0.014 A 
ATOM     60  C   UNL A   1      44.452  33.414  30.897  1.00  0.00     0.009 A 
ATOM     61  C   UNL A   1      43.677  32.655  33.057  1.00  0.00     0.009 A 
ATOM     62  C   UNL A   1      44.686  34.684  31.428  1.00  0.00     0.001 A 
ATOM     63  C   UNL A   1      43.877  33.935  33.577  1.00  0.00     0.001 A 
ATOM     64  C   UNL A   1      44.394  34.944  32.767  1.00  0.00     0.000 A 
ENDBRANCH  45  59
BRANCH  46  65
ATOM     65  C   UNL A   1      42.152  23.427  27.639  1.00  0.00    -0.014 A 
ATOM     66  C   UNL A   1      41.560  22.393  28.379  1.00  0.00     0.009 A 
ATOM     67  C   UNL A   1      42.481  23.197  26.295  1.00  0.00     0.009 A 
ATOM     68  C   UNL A   1      41.322  21.148  27.791  1.00  0.00     0.001 A 
ATOM     69  C   UNL A   1      42.216  21.961  25.701  1.00  0.00     0.001 A 
ATOM     70  C   UNL A   1      41.645  20.935  26.451  1.00  0.00     0.000 A 
ENDBRANCH  46  65
BRANCH  58  71
ATOM     71  C   UNL A   1      47.690  26.259  30.783  1.00  0.00    -0.014 A 
ATOM     72  C   UNL A   1      47.986  25.716  32.042  1.00  0.00     0.009 A 
ATOM     73  C   UNL A   1      48.684  26.258  29.791  1.00  0.00     0.009 A 
ATOM     74  C   UNL A   1      49.261  25.213  32.312  1.00  0.00     0.001 A 
ATOM     75  C   UNL A   1      49.945  25.725  30.052  1.00  0.00     0.001 A 
ATOM     76  C   UNL A   1      50.236  25.213  31.315  1.00  0.00     0.000 A 
ENDBRANCH  58  71
ENDBRANCH  32  33
ENDBRANCH  24  27
ENDBRANCH  22  23
ENDBRANCH   1  22
TORSDOF 12
ENDMDL
MODEL 3
REMARK VINA RESULT:     -11.0      1.143      1.691
REMARK SMILES Cc1cscc1C(=O)NC1(C(=O)NCCCNC(=O)c2ccc(-c3c4nc(c(-c5ccccc5)c5ccc([nH]5)c(-c5ccccc5)c5nc(c(-c6ccccc6)c6ccc3[nH]6)C=C5)C=C4)cc2)CCCC1
REMARK SMILES IDX 15 1 14 2 13 3 11 4 12 5 10 7 68 8 71 9 69 10 70 11 9 12
REMARK SMILES IDX 7 13 8 14 6 16 1 17 2 18 3 19 4 20 5 21 16 22 17 23 18 24
REMARK SMILES IDX 19 26 20 27 21 28 67 29 22 30 66 31 23 32 24 33 25 34 60 35
REMARK SMILES IDX 26 36 65 37 59 38 61 39 27 40 64 41 58 42 57 43 28 45 50 46
REMARK SMILES IDX 35 47 49 48 36 49 39 50 48 51 62 52 37 53 38 54 47 56 63 57
REMARK SMILES IDX 40 58 29 59 30 60 34 61 31 62 33 63 32 64 51 65 52 66 56 67
REMARK SMILES IDX 53 68 55 69 54 70 41 71 42 72 46 73 43 74 45 75 44 76
REMARK H PARENT 13 6 9 15 17 25 61 44 39 55
REMARK Flexibility Score: inf
ROOT
ATOM      1  C   UNL A   1      37.908  19.668  25.009  1.00  0.00     0.042 C 
ENDROOT
BRANCH   1   2
ATOM      2  C   UNL A   1      36.797  20.686  24.831  1.00  0.00     0.117 C 
BRANCH   2   3
ATOM      3  N   UNL A   1      35.492  20.087  24.966  1.00  0.00    -0.354 N 
ATOM      4  C   UNL A   1      34.252  20.585  25.164  1.00  0.00     0.245 C 
ATOM      5  O   UNL A   1      33.364  19.717  25.239  1.00  0.00    -0.272 OA
ATOM      6  H   UNL A   1      35.508  19.105  24.899  1.00  0.00     0.163 HD
BRANCH   4   7
ATOM      7  C   UNL A   1      33.871  22.084  25.426  1.00  0.00     0.119 C 
ATOM      8  C   UNL A   1      34.714  23.005  26.270  1.00  0.00     0.038 C 
ATOM      9  C   UNL A   1      32.519  22.085  26.177  1.00  0.00     0.038 C 
ATOM     10  C   UNL A   1      34.147  23.069  27.678  1.00  0.00     0.003 C 
ATOM     11  C   UNL A   1      32.855  22.285  27.651  1.00  0.00     0.003 C 
BRANCH   7  12
ATOM     12  N   UNL A   1      33.692  22.606  24.047  1.00  0.00    -0.338 N 
ATOM     13  C   UNL A   1      33.752  23.873  23.504  1.00  0.00     0.253 C 
ATOM     14  O   UNL A   1      34.432  23.955  22.476  1.00  0.00    -0.269 OA
ATOM     15  H   UNL A   1      33.486  21.906  23.386  1.00  0.00     0.164 HD
BRANCH  13  16
ATOM     16  C   UNL A   1      32.823  24.979  23.834  1.00  0.00     0.053 A 
ATOM     17  C   UNL A   1      33.805  26.538  25.792  1.00  0.00     0.046 C 
ATOM     18  C   UNL A   1      32.809  26.107  24.768  1.00  0.00    -0.028 A 
ATOM     19  C   UNL A   1      31.674  26.891  24.600  1.00  0.00     0.069 A 
ATOM     20  S   UNL A   1      30.707  26.419  23.292  1.00  0.00    -0.151 S 
ATOM     21  C   UNL A   1      31.748  25.123  22.955  1.00  0.00     0.079 A 
ENDBRANCH  13  16
ENDBRANCH   7  12
ENDBRANCH   4   7
ENDBRANCH   2   3
ENDBRANCH   1   2
BRANCH   1  22
ATOM     22  C   UNL A   1      39.078  20.227  25.800  1.00  0.00     0.118 C 
BRANCH  22  23
ATOM     23  N   UNL A   1      40.212  19.308  25.831  1.00  0.00    -0.352 N 
ATOM     24  C   UNL A   1      41.544  19.543  26.076  1.00  0.00     0.251 C 
ATOM     25  H   UNL A   1      39.987  18.369  25.644  1.00  0.00     0.163 HD
ATOM     26  O   UNL A   1      42.367  18.668  25.854  1.00  0.00    -0.269 OA
BRANCH  24  27
ATOM     27  C   UNL A   1      41.973  20.862  26.584  1.00  0.00     0.039 A 
ATOM     28  C   UNL A   1      42.380  21.841  25.674  1.00  0.00     0.014 A 
ATOM     29  C   UNL A   1      41.963  21.134  27.952  1.00  0.00     0.014 A 
ATOM     30  C   UNL A   1      42.699  23.117  26.138  1.00  0.00     0.010 A 
ATOM     31  C   UNL A   1      42.154  22.433  28.395  1.00  0.00     0.010 A 
ATOM     32  C   UNL A   1      42.545  23.434  27.497  1.00  0.00    -0.014 A 
BRANCH  32  33
ATOM     33  C   UNL A   1      42.807  24.798  28.012  1.00  0.00     0.031 A 
ATOM     34  C   UNL A   1      44.201  25.188  28.425  1.00  0.00     0.074 A 
ATOM     35  C   UNL A   1      41.783  25.657  28.183  1.00  0.00     0.049 A 
ATOM     36  N   UNL A   1      44.621  26.303  28.965  1.00  0.00    -0.248 NA
ATOM     37  C   UNL A   1      45.257  24.176  28.243  1.00  0.00     0.031 C 
ATOM     38  C   UNL A   1      40.379  25.378  27.873  1.00  0.00     0.029 A 
ATOM     39  N   UNL A   1      41.768  26.941  28.664  1.00  0.00    -0.354 N 
ATOM     40  C   UNL A   1      45.976  26.113  29.211  1.00  0.00     0.074 A 
ATOM     41  C   UNL A   1      46.292  24.758  28.825  1.00  0.00     0.031 C 
ATOM     42  C   UNL A   1      39.646  26.471  28.134  1.00  0.00     0.029 A 
ATOM     43  C   UNL A   1      40.517  27.509  28.673  1.00  0.00     0.049 A 
ATOM     44  H   UNL A   1      42.576  27.411  28.973  1.00  0.00     0.167 HD
ATOM     45  C   UNL A   1      46.884  26.997  29.687  1.00  0.00     0.031 A 
ATOM     46  C   UNL A   1      40.117  28.730  29.075  1.00  0.00     0.031 A 
ATOM     47  C   UNL A   1      46.567  28.351  30.052  1.00  0.00     0.049 A 
ATOM     48  C   UNL A   1      41.141  29.695  29.603  1.00  0.00     0.074 A 
ATOM     49  C   UNL A   1      47.421  29.350  30.481  1.00  0.00     0.029 A 
ATOM     50  N   UNL A   1      45.290  28.892  30.033  1.00  0.00    -0.354 N 
ATOM     51  N   UNL A   1      42.432  29.528  29.755  1.00  0.00    -0.248 NA
ATOM     52  C   UNL A   1      40.652  31.021  30.004  1.00  0.00     0.031 C 
ATOM     53  C   UNL A   1      46.653  30.479  30.781  1.00  0.00     0.029 A 
ATOM     54  C   UNL A   1      45.329  30.204  30.473  1.00  0.00     0.049 A 
ATOM     55  H   UNL A   1      44.477  28.415  29.750  1.00  0.00     0.167 HD
ATOM     56  C   UNL A   1      42.916  30.735  30.243  1.00  0.00     0.074 A 
ATOM     57  C   UNL A   1      41.780  31.630  30.344  1.00  0.00     0.031 C 
ATOM     58  C   UNL A   1      44.186  31.075  30.575  1.00  0.00     0.031 A 
BRANCH  45  59
ATOM     59  C   UNL A   1      48.299  26.513  29.847  1.00  0.00    -0.014 A 
ATOM     60  C   UNL A   1      49.251  26.676  28.827  1.00  0.00     0.009 A 
ATOM     61  C   UNL A   1      48.691  25.887  31.042  1.00  0.00     0.009 A 
ATOM     62  C   UNL A   1      50.547  26.180  28.979  1.00  0.00     0.001 A 
ATOM     63  C   UNL A   1      49.998  25.425  31.205  1.00  0.00     0.001 A 
ATOM     64  C   UNL A   1      50.920  25.559  30.169  1.00  0.00     0.000 A 
ENDBRANCH  45  59
BRANCH  46  65
ATOM     65  C   UNL A   1      38.684  29.112  28.970  1.00  0.00    -0.014 A 
ATOM     66  C   UNL A   1      37.837  29.010  30.084  1.00  0.00     0.009 A 
ATOM     67  C   UNL A   1      38.159  29.594  27.761  1.00  0.00     0.009 A 
ATOM     68  C   UNL A   1      36.489  29.363  29.983  1.00  0.00     0.001 A 
ATOM     69  C   UNL A   1      36.818  29.973  27.671  1.00  0.00     0.001 A 
ATOM     70  C   UNL A   1      35.982  29.849  28.779  1.00  0.00     0.000 A 
ENDBRANCH  46  65
BRANCH  58  71
ATOM     71  C   UNL A   1      44.419  32.482  31.048  1.00  0.00    -0.014 A 
ATOM     72  C   UNL A   1      44.344  32.819  32.409  1.00  0.00     0.009 A 
ATOM     73  C   UNL A   1      44.766  33.477  30.120  1.00  0.00     0.009 A 
ATOM     74  C   UNL A   1      44.577  34.131  32.824  1.00  0.00     0.001 A 
ATOM     75  C   UNL A   1      45.031  34.779  30.541  1.00  0.00     0.001 A 
ATOM     76  C   UNL A   1      44.926  35.107  31.892  1.00  0.00     0.000 A 
ENDBRANCH  58  71
ENDBRANCH  32  33
ENDBRANCH  24  27
ENDBRANCH  22  23
ENDBRANCH   1  22
TORSDOF 12
ENDMDL
