MODEL 1
REMARK VINA RESULT:     -10.2      0.000      0.000
REMARK SMILES C[C@H]([NH2+][C@H](C)[C@@H](C)C(=O)NCCCNC(=O)c1ccc(-c2c3nc(c(-c4ccccc4)c4ccc([nH]4)c(-c4ccccc4)c4nc(c(-c5ccccc5)c5ccc2[nH]5)C=C4)C=C3)cc1)c1ccc(F)cc1
REMARK SMILES IDX 11 1 10 2 8 3 9 4 6 6 7 7 4 8 5 9 3 10 2 13 1 14 65 15 66 16
REMARK SMILES IDX 71 17 67 18 70 19 68 20 69 21 12 22 13 23 14 24 15 25 16 27
REMARK SMILES IDX 17 28 18 29 64 30 19 31 63 32 20 33 21 34 22 35 57 36 23 37
REMARK SMILES IDX 62 38 56 39 58 40 24 41 61 42 55 43 54 44 25 46 47 47 32 48
REMARK SMILES IDX 46 49 33 50 36 51 45 52 59 53 34 54 35 55 44 57 60 58 37 59
REMARK SMILES IDX 26 60 27 61 31 62 28 63 30 64 29 65 48 66 49 67 53 68 50 69
REMARK SMILES IDX 52 70 51 71 38 72 39 73 43 74 40 75 42 76 41 77
REMARK H PARENT 10 5 3 11 3 12 14 26 58 45 36 56
REMARK Flexibility Score: inf
ROOT
ATOM      1  C   UNL A   1      36.328  19.731  25.002  1.00  0.00     0.117 C 
ENDROOT
BRANCH   1   2
ATOM      2  N   UNL A   1      35.855  20.909  25.703  1.00  0.00    -0.356 N 
ATOM      3  C   UNL A   1      35.374  22.097  25.253  1.00  0.00     0.228 C 
ATOM      4  O   UNL A   1      34.933  22.875  26.105  1.00  0.00    -0.275 OA
ATOM      5  H   UNL A   1      35.890  20.834  26.684  1.00  0.00     0.163 HD
BRANCH   3   6
ATOM      6  C   UNL A   1      35.310  22.452  23.769  1.00  0.00     0.133 C 
ATOM      7  C   UNL A   1      36.572  23.222  23.364  1.00  0.00     0.024 C 
BRANCH   6   8
ATOM      8  C   UNL A   1      33.951  23.072  23.354  1.00  0.00     0.192 C 
ATOM      9  C   UNL A   1      32.773  22.091  23.426  1.00  0.00     0.076 C 
BRANCH   8  10
ATOM     10  N   UNL A   1      33.624  24.374  23.980  1.00  0.00    -0.337 N 
ATOM     11  H   UNL A   1      32.700  24.280  24.401  1.00  0.00     0.347 HD
ATOM     12  H   UNL A   1      34.402  24.541  24.618  1.00  0.00     0.347 HD
BRANCH  10  13
ATOM     13  C   UNL A   1      33.593  25.584  23.138  1.00  0.00     0.210 C 
ATOM     14  C   UNL A   1      32.356  25.730  22.239  1.00  0.00     0.081 C 
BRANCH  13  15
ATOM     15  C   UNL A   1      33.650  26.828  24.031  1.00  0.00     0.009 A 
ATOM     16  C   UNL A   1      33.398  28.099  23.487  1.00  0.00     0.013 A 
ATOM     17  C   UNL A   1      33.878  26.717  25.416  1.00  0.00     0.013 A 
ATOM     18  C   UNL A   1      33.332  29.222  24.314  1.00  0.00     0.040 A 
ATOM     19  C   UNL A   1      33.803  27.839  26.242  1.00  0.00     0.040 A 
ATOM     20  C   UNL A   1      33.524  29.079  25.684  1.00  0.00     0.123 A 
ATOM     21  F   UNL A   1      33.428  30.154  26.479  1.00  0.00    -0.207 F 
ENDBRANCH  13  15
ENDBRANCH  10  13
ENDBRANCH   8  10
ENDBRANCH   6   8
ENDBRANCH   3   6
ENDBRANCH   1   2
BRANCH   1  22
ATOM     22  C   UNL A   1      37.786  19.837  24.582  1.00  0.00     0.042 C 
BRANCH  22  23
ATOM     23  C   UNL A   1      38.738  20.179  25.720  1.00  0.00     0.118 C 
BRANCH  23  24
ATOM     24  N   UNL A   1      39.873  19.268  25.797  1.00  0.00    -0.352 N 
ATOM     25  C   UNL A   1      41.196  19.509  26.073  1.00  0.00     0.251 C 
ATOM     26  H   UNL A   1      39.655  18.325  25.623  1.00  0.00     0.163 HD
ATOM     27  O   UNL A   1      42.028  18.631  25.872  1.00  0.00    -0.269 OA
BRANCH  25  28
ATOM     28  C   UNL A   1      41.625  20.824  26.593  1.00  0.00     0.039 A 
ATOM     29  C   UNL A   1      42.191  21.748  25.710  1.00  0.00     0.014 A 
ATOM     30  C   UNL A   1      41.494  21.140  27.947  1.00  0.00     0.014 A 
ATOM     31  C   UNL A   1      42.557  23.012  26.173  1.00  0.00     0.010 A 
ATOM     32  C   UNL A   1      41.771  22.429  28.387  1.00  0.00     0.010 A 
ATOM     33  C   UNL A   1      42.310  23.378  27.507  1.00  0.00    -0.014 A 
BRANCH  33  34
ATOM     34  C   UNL A   1      42.609  24.745  28.003  1.00  0.00     0.031 A 
ATOM     35  C   UNL A   1      44.008  25.114  28.413  1.00  0.00     0.074 A 
ATOM     36  C   UNL A   1      41.605  25.632  28.148  1.00  0.00     0.049 A 
ATOM     37  N   UNL A   1      44.448  26.234  28.929  1.00  0.00    -0.248 NA
ATOM     38  C   UNL A   1      45.044  24.081  28.247  1.00  0.00     0.031 C 
ATOM     39  C   UNL A   1      40.197  25.385  27.826  1.00  0.00     0.029 A 
ATOM     40  N   UNL A   1      41.615  26.924  28.612  1.00  0.00    -0.354 N 
ATOM     41  C   UNL A   1      45.803  26.033  29.165  1.00  0.00     0.074 A 
ATOM     42  C   UNL A   1      46.101  24.669  28.787  1.00  0.00     0.031 C 
ATOM     43  C   UNL A   1      39.487  26.497  28.073  1.00  0.00     0.029 A 
ATOM     44  C   UNL A   1      40.377  27.519  28.612  1.00  0.00     0.049 A 
ATOM     45  H   UNL A   1      42.432  27.382  28.915  1.00  0.00     0.167 HD
ATOM     46  C   UNL A   1      46.722  26.910  29.633  1.00  0.00     0.031 A 
ATOM     47  C   UNL A   1      39.997  28.748  29.012  1.00  0.00     0.031 A 
ATOM     48  C   UNL A   1      46.426  28.270  30.000  1.00  0.00     0.049 A 
ATOM     49  C   UNL A   1      41.033  29.695  29.547  1.00  0.00     0.074 A 
ATOM     50  C   UNL A   1      47.297  29.254  30.433  1.00  0.00     0.029 A 
ATOM     51  N   UNL A   1      45.160  28.833  29.982  1.00  0.00    -0.354 N 
ATOM     52  N   UNL A   1      42.322  29.514  29.697  1.00  0.00    -0.248 NA
ATOM     53  C   UNL A   1      40.561  31.025  29.961  1.00  0.00     0.031 C 
ATOM     54  C   UNL A   1      46.549  30.397  30.731  1.00  0.00     0.029 A 
ATOM     55  C   UNL A   1      45.223  30.145  30.421  1.00  0.00     0.049 A 
ATOM     56  H   UNL A   1      44.338  28.371  29.697  1.00  0.00     0.167 HD
ATOM     57  C   UNL A   1      42.821  30.713  30.190  1.00  0.00     0.074 A 
ATOM     58  C   UNL A   1      41.696  31.620  30.297  1.00  0.00     0.031 C 
ATOM     59  C   UNL A   1      44.095  31.035  30.521  1.00  0.00     0.031 A 
BRANCH  46  60
ATOM     60  C   UNL A   1      48.137  26.421  29.781  1.00  0.00    -0.014 A 
ATOM     61  C   UNL A   1      49.057  26.518  28.725  1.00  0.00     0.009 A 
ATOM     62  C   UNL A   1      48.567  25.889  31.007  1.00  0.00     0.009 A 
ATOM     63  C   UNL A   1      50.366  26.056  28.880  1.00  0.00     0.001 A 
ATOM     64  C   UNL A   1      49.886  25.458  31.170  1.00  0.00     0.001 A 
ATOM     65  C   UNL A   1      50.780  25.533  30.103  1.00  0.00     0.000 A 
ENDBRANCH  46  60
BRANCH  47  66
ATOM     66  C   UNL A   1      38.572  29.160  28.909  1.00  0.00    -0.014 A 
ATOM     67  C   UNL A   1      38.056  29.647  27.699  1.00  0.00     0.009 A 
ATOM     68  C   UNL A   1      37.723  29.079  30.024  1.00  0.00     0.009 A 
ATOM     69  C   UNL A   1      36.729  30.075  27.615  1.00  0.00     0.001 A 
ATOM     70  C   UNL A   1      36.387  29.478  29.928  1.00  0.00     0.001 A 
ATOM     71  C   UNL A   1      35.895  29.985  28.728  1.00  0.00     0.000 A 
ENDBRANCH  47  66
BRANCH  59  72
ATOM     72  C   UNL A   1      44.350  32.439  30.993  1.00  0.00    -0.014 A 
ATOM     73  C   UNL A   1      44.311  32.773  32.355  1.00  0.00     0.009 A 
ATOM     74  C   UNL A   1      44.673  33.435  30.057  1.00  0.00     0.009 A 
ATOM     75  C   UNL A   1      44.559  34.085  32.767  1.00  0.00     0.001 A 
ATOM     76  C   UNL A   1      44.952  34.736  30.474  1.00  0.00     0.001 A 
ATOM     77  C   UNL A   1      44.885  35.063  31.828  1.00  0.00     0.000 A 
ENDBRANCH  59  72
ENDBRANCH  33  34
ENDBRANCH  25  28
ENDBRANCH  23  24
ENDBRANCH  22  23
ENDBRANCH   1  22
TORSDOF 14
ENDMDL
MODEL 2
REMARK VINA RESULT:     -10.2      1.127      6.237
REMARK SMILES C[C@H]([NH2+][C@H](C)[C@@H](C)C(=O)NCCCNC(=O)c1ccc(-c2c3nc(c(-c4ccccc4)c4ccc([nH]4)c(-c4ccccc4)c4nc(c(-c5ccccc5)c5ccc2[nH]5)C=C4)C=C3)cc1)c1ccc(F)cc1
REMARK SMILES IDX 11 1 10 2 8 3 9 4 6 6 7 7 4 8 5 9 3 10 2 13 1 14 65 15 66 16
REMARK SMILES IDX 71 17 67 18 70 19 68 20 69 21 12 22 13 23 14 24 15 25 16 27
REMARK SMILES IDX 17 28 18 29 64 30 19 31 63 32 20 33 21 34 22 35 57 36 23 37
REMARK SMILES IDX 62 38 56 39 58 40 24 41 61 42 55 43 54 44 25 46 47 47 32 48
REMARK SMILES IDX 46 49 33 50 36 51 45 52 59 53 34 54 35 55 44 57 60 58 37 59
REMARK SMILES IDX 26 60 27 61 31 62 28 63 30 64 29 65 48 66 49 67 53 68 50 69
REMARK SMILES IDX 52 70 51 71 38 72 39 73 43 74 40 75 42 76 41 77
REMARK H PARENT 10 5 3 11 3 12 14 26 58 45 36 56
REMARK Flexibility Score: inf
ROOT
ATOM      1  C   UNL A   1      36.216  19.971  24.965  1.00  0.00     0.117 C 
ENDROOT
BRANCH   1   2
ATOM      2  N   UNL A   1      36.402  21.348  25.379  1.00  0.00    -0.356 N 
ATOM      3  C   UNL A   1      35.516  22.356  25.590  1.00  0.00     0.228 C 
ATOM      4  O   UNL A   1      35.971  23.404  26.059  1.00  0.00    -0.275 OA
ATOM      5  H   UNL A   1      37.341  21.597  25.536  1.00  0.00     0.163 HD
BRANCH   3   6
ATOM      6  C   UNL A   1      34.020  22.207  25.327  1.00  0.00     0.133 C 
ATOM      7  C   UNL A   1      33.712  22.545  23.864  1.00  0.00     0.024 C 
BRANCH   6   8
ATOM      8  C   UNL A   1      33.146  22.903  26.403  1.00  0.00     0.192 C 
ATOM      9  C   UNL A   1      33.233  22.252  27.789  1.00  0.00     0.076 C 
BRANCH   8  10
ATOM     10  N   UNL A   1      33.272  24.377  26.475  1.00  0.00    -0.337 N 
ATOM     11  H   UNL A   1      33.238  24.632  27.462  1.00  0.00     0.347 HD
ATOM     12  H   UNL A   1      34.144  24.572  25.983  1.00  0.00     0.347 HD
BRANCH  10  13
ATOM     13  C   UNL A   1      32.279  25.215  25.778  1.00  0.00     0.210 C 
ATOM     14  C   UNL A   1      30.810  24.860  26.050  1.00  0.00     0.081 C 
BRANCH  13  15
ATOM     15  C   UNL A   1      32.472  26.679  26.187  1.00  0.00     0.009 A 
ATOM     16  C   UNL A   1      31.449  27.362  26.868  1.00  0.00     0.013 A 
ATOM     17  C   UNL A   1      33.694  27.341  25.960  1.00  0.00     0.013 A 
ATOM     18  C   UNL A   1      31.661  28.656  27.347  1.00  0.00     0.040 A 
ATOM     19  C   UNL A   1      33.905  28.631  26.447  1.00  0.00     0.040 A 
ATOM     20  C   UNL A   1      32.890  29.273  27.142  1.00  0.00     0.123 A 
ATOM     21  F   UNL A   1      33.100  30.503  27.632  1.00  0.00    -0.207 F 
ENDBRANCH  13  15
ENDBRANCH  10  13
ENDBRANCH   8  10
ENDBRANCH   6   8
ENDBRANCH   3   6
ENDBRANCH   1   2
BRANCH   1  22
ATOM     22  C   UNL A   1      37.519  19.186  24.919  1.00  0.00     0.042 C 
BRANCH  22  23
ATOM     23  C   UNL A   1      38.736  19.972  25.389  1.00  0.00     0.118 C 
BRANCH  23  24
ATOM     24  N   UNL A   1      39.885  19.119  25.664  1.00  0.00    -0.352 N 
ATOM     25  C   UNL A   1      41.154  19.434  26.081  1.00  0.00     0.251 C 
ATOM     26  H   UNL A   1      39.724  18.157  25.528  1.00  0.00     0.163 HD
ATOM     27  O   UNL A   1      42.036  18.584  26.041  1.00  0.00    -0.269 OA
BRANCH  25  28
ATOM     28  C   UNL A   1      41.468  20.797  26.559  1.00  0.00     0.039 A 
ATOM     29  C   UNL A   1      41.368  21.074  27.925  1.00  0.00     0.014 A 
ATOM     30  C   UNL A   1      41.836  21.805  25.666  1.00  0.00     0.014 A 
ATOM     31  C   UNL A   1      41.708  22.342  28.400  1.00  0.00     0.010 A 
ATOM     32  C   UNL A   1      42.264  23.036  26.149  1.00  0.00     0.010 A 
ATOM     33  C   UNL A   1      42.200  23.321  27.520  1.00  0.00    -0.014 A 
BRANCH  33  34
ATOM     34  C   UNL A   1      42.651  24.646  28.012  1.00  0.00     0.031 A 
ATOM     35  C   UNL A   1      41.648  25.732  28.293  1.00  0.00     0.074 A 
ATOM     36  C   UNL A   1      43.969  24.894  28.140  1.00  0.00     0.049 A 
ATOM     37  N   UNL A   1      41.856  26.970  28.664  1.00  0.00    -0.248 NA
ATOM     38  C   UNL A   1      40.228  25.391  28.105  1.00  0.00     0.031 C 
ATOM     39  C   UNL A   1      45.045  23.939  27.860  1.00  0.00     0.029 A 
ATOM     40  N   UNL A   1      44.631  26.030  28.534  1.00  0.00    -0.354 N 
ATOM     41  C   UNL A   1      40.598  27.557  28.736  1.00  0.00     0.074 A 
ATOM     42  C   UNL A   1      39.639  26.559  28.319  1.00  0.00     0.031 C 
ATOM     43  C   UNL A   1      46.228  24.519  28.120  1.00  0.00     0.029 A 
ATOM     44  C   UNL A   1      45.998  25.897  28.540  1.00  0.00     0.049 A 
ATOM     45  H   UNL A   1      44.170  26.861  28.789  1.00  0.00     0.167 HD
ATOM     46  C   UNL A   1      40.268  28.808  29.135  1.00  0.00     0.031 A 
ATOM     47  C   UNL A   1      46.962  26.788  28.840  1.00  0.00     0.031 A 
ATOM     48  C   UNL A   1      41.221  29.799  29.559  1.00  0.00     0.049 A 
ATOM     49  C   UNL A   1      46.569  28.177  29.260  1.00  0.00     0.074 A 
ATOM     50  C   UNL A   1      40.983  31.077  30.034  1.00  0.00     0.029 A 
ATOM     51  N   UNL A   1      42.596  29.622  29.554  1.00  0.00    -0.354 N 
ATOM     52  N   UNL A   1      45.372  28.694  29.392  1.00  0.00    -0.248 NA
ATOM     53  C   UNL A   1      47.664  29.104  29.583  1.00  0.00     0.031 C 
ATOM     54  C   UNL A   1      42.217  31.693  30.262  1.00  0.00     0.029 A 
ATOM     55  C   UNL A   1      43.220  30.778  29.993  1.00  0.00     0.049 A 
ATOM     56  H   UNL A   1      43.060  28.797  29.280  1.00  0.00     0.167 HD
ATOM     57  C   UNL A   1      45.567  29.993  29.843  1.00  0.00     0.074 A 
ATOM     58  C   UNL A   1      46.997  30.179  29.978  1.00  0.00     0.031 C 
ATOM     59  C   UNL A   1      44.645  30.946  30.123  1.00  0.00     0.031 A 
BRANCH  46  60
ATOM     60  C   UNL A   1      38.809  29.178  29.124  1.00  0.00    -0.014 A 
ATOM     61  C   UNL A   1      38.009  29.024  30.268  1.00  0.00     0.009 A 
ATOM     62  C   UNL A   1      38.235  29.722  27.965  1.00  0.00     0.009 A 
ATOM     63  C   UNL A   1      36.656  29.371  30.238  1.00  0.00     0.001 A 
ATOM     64  C   UNL A   1      36.890  30.099  27.948  1.00  0.00     0.001 A 
ATOM     65  C   UNL A   1      36.100  29.913  29.081  1.00  0.00     0.000 A 
ENDBRANCH  46  60
BRANCH  47  66
ATOM     66  C   UNL A   1      48.394  26.394  28.769  1.00  0.00    -0.014 A 
ATOM     67  C   UNL A   1      49.125  26.572  27.586  1.00  0.00     0.009 A 
ATOM     68  C   UNL A   1      49.035  25.826  29.882  1.00  0.00     0.009 A 
ATOM     69  C   UNL A   1      50.458  26.161  27.507  1.00  0.00     0.001 A 
ATOM     70  C   UNL A   1      50.377  25.446  29.810  1.00  0.00     0.001 A 
ATOM     71  C   UNL A   1      51.083  25.603  28.619  1.00  0.00     0.000 A 
ENDBRANCH  47  66
BRANCH  59  72
ATOM     72  C   UNL A   1      45.151  32.263  30.643  1.00  0.00    -0.014 A 
ATOM     73  C   UNL A   1      45.415  32.459  32.006  1.00  0.00     0.009 A 
ATOM     74  C   UNL A   1      45.403  33.310  29.742  1.00  0.00     0.009 A 
ATOM     75  C   UNL A   1      45.892  33.691  32.462  1.00  0.00     0.001 A 
ATOM     76  C   UNL A   1      45.910  34.528  30.196  1.00  0.00     0.001 A 
ATOM     77  C   UNL A   1      46.145  34.721  31.557  1.00  0.00     0.000 A 
ENDBRANCH  59  72
ENDBRANCH  33  34
ENDBRANCH  25  28
ENDBRANCH  23  24
ENDBRANCH  22  23
ENDBRANCH   1  22
TORSDOF 14
ENDMDL
MODEL 3
REMARK VINA RESULT:     -10.1      3.644      8.953
REMARK SMILES C[C@H]([NH2+][C@H](C)[C@@H](C)C(=O)NCCCNC(=O)c1ccc(-c2c3nc(c(-c4ccccc4)c4ccc([nH]4)c(-c4ccccc4)c4nc(c(-c5ccccc5)c5ccc2[nH]5)C=C4)C=C3)cc1)c1ccc(F)cc1
REMARK SMILES IDX 11 1 10 2 8 3 9 4 6 6 7 7 4 8 5 9 3 10 2 13 1 14 65 15 66 16
REMARK SMILES IDX 71 17 67 18 70 19 68 20 69 21 12 22 13 23 14 24 15 25 16 27
REMARK SMILES IDX 17 28 18 29 64 30 19 31 63 32 20 33 21 34 22 35 57 36 23 37
REMARK SMILES IDX 62 38 56 39 58 40 24 41 61 42 55 43 54 44 25 46 47 47 32 48
REMARK SMILES IDX 46 49 33 50 36 51 45 52 59 53 34 54 35 55 44 57 60 58 37 59
REMARK SMILES IDX 26 60 27 61 31 62 28 63 30 64 29 65 48 66 49 67 53 68 50 69
REMARK SMILES IDX 52 70 51 71 38 72 39 73 43 74 40 75 42 76 41 77
REMARK H PARENT 10 5 3 11 3 12 14 26 58 45 36 56
REMARK Flexibility Score: inf
ROOT
ATOM      1  C   UNL A   1      31.430  30.456  26.132  1.00  0.00     0.117 C 
ENDROOT
BRANCH   1   2
ATOM      2  N   UNL A   1      32.377  30.144  25.079  1.00  0.00    -0.356 N 
ATOM      3  C   UNL A   1      32.874  28.962  24.631  1.00  0.00     0.228 C 
ATOM      4  O   UNL A   1      33.588  29.007  23.624  1.00  0.00    -0.275 OA
ATOM      5  H   UNL A   1      32.724  30.933  24.604  1.00  0.00     0.163 HD
BRANCH   3   6
ATOM      6  C   UNL A   1      32.529  27.624  25.280  1.00  0.00     0.133 C 
ATOM      7  C   UNL A   1      33.592  27.265  26.325  1.00  0.00     0.024 C 
BRANCH   6   8
ATOM      8  C   UNL A   1      32.168  26.526  24.247  1.00  0.00     0.192 C 
ATOM      9  C   UNL A   1      31.097  26.953  23.236  1.00  0.00     0.076 C 
BRANCH   8  10
ATOM     10  N   UNL A   1      33.319  25.864  23.588  1.00  0.00    -0.337 N 
ATOM     11  H   UNL A   1      33.348  26.205  22.627  1.00  0.00     0.347 HD
ATOM     12  H   UNL A   1      34.112  26.104  24.182  1.00  0.00     0.347 HD
BRANCH  10  13
ATOM     13  C   UNL A   1      33.357  24.392  23.525  1.00  0.00     0.210 C 
ATOM     14  C   UNL A   1      33.084  23.783  22.143  1.00  0.00     0.081 C 
BRANCH  13  15
ATOM     15  C   UNL A   1      34.739  23.899  23.969  1.00  0.00     0.009 A 
ATOM     16  C   UNL A   1      35.207  24.184  25.264  1.00  0.00     0.013 A 
ATOM     17  C   UNL A   1      35.528  23.095  23.125  1.00  0.00     0.013 A 
ATOM     18  C   UNL A   1      36.411  23.641  25.715  1.00  0.00     0.040 A 
ATOM     19  C   UNL A   1      36.727  22.546  23.582  1.00  0.00     0.040 A 
ATOM     20  C   UNL A   1      37.153  22.818  24.875  1.00  0.00     0.123 A 
ATOM     21  F   UNL A   1      38.292  22.273  25.324  1.00  0.00    -0.207 F 
ENDBRANCH  13  15
ENDBRANCH  10  13
ENDBRANCH   8  10
ENDBRANCH   6   8
ENDBRANCH   3   6
ENDBRANCH   1   2
BRANCH   1  22
ATOM     22  C   UNL A   1      31.382  31.941  26.463  1.00  0.00     0.042 C 
BRANCH  22  23
ATOM     23  C   UNL A   1      32.649  32.473  27.119  1.00  0.00     0.118 C 
BRANCH  23  24
ATOM     24  N   UNL A   1      32.476  33.811  27.673  1.00  0.00    -0.352 N 
ATOM     25  C   UNL A   1      33.185  34.476  28.642  1.00  0.00     0.251 C 
ATOM     26  H   UNL A   1      31.729  34.321  27.287  1.00  0.00     0.163 HD
ATOM     27  O   UNL A   1      32.739  35.514  29.116  1.00  0.00    -0.269 OA
BRANCH  25  28
ATOM     28  C   UNL A   1      34.471  33.937  29.132  1.00  0.00     0.039 A 
ATOM     29  C   UNL A   1      34.477  33.138  30.278  1.00  0.00     0.014 A 
ATOM     30  C   UNL A   1      35.670  34.236  28.481  1.00  0.00     0.014 A 
ATOM     31  C   UNL A   1      35.675  32.581  30.726  1.00  0.00     0.010 A 
ATOM     32  C   UNL A   1      36.845  33.606  28.872  1.00  0.00     0.010 A 
ATOM     33  C   UNL A   1      36.863  32.775  30.002  1.00  0.00    -0.014 A 
BRANCH  33  34
ATOM     34  C   UNL A   1      38.133  32.123  30.407  1.00  0.00     0.031 A 
ATOM     35  C   UNL A   1      39.051  32.796  31.390  1.00  0.00     0.074 A 
ATOM     36  C   UNL A   1      38.491  30.956  29.837  1.00  0.00     0.049 A 
ATOM     37  N   UNL A   1      40.229  32.413  31.815  1.00  0.00    -0.248 NA
ATOM     38  C   UNL A   1      38.601  34.082  31.949  1.00  0.00     0.031 C 
ATOM     39  C   UNL A   1      37.710  30.221  28.840  1.00  0.00     0.029 A 
ATOM     40  N   UNL A   1      39.613  30.183  30.012  1.00  0.00    -0.354 N 
ATOM     41  C   UNL A   1      40.665  33.416  32.673  1.00  0.00     0.074 A 
ATOM     42  C   UNL A   1      39.652  34.448  32.667  1.00  0.00     0.031 C 
ATOM     43  C   UNL A   1      38.359  29.092  28.515  1.00  0.00     0.029 A 
ATOM     44  C   UNL A   1      39.622  29.044  29.244  1.00  0.00     0.049 A 
ATOM     45  H   UNL A   1      40.341  30.422  30.630  1.00  0.00     0.167 HD
ATOM     46  C   UNL A   1      41.795  33.465  33.416  1.00  0.00     0.031 A 
ATOM     47  C   UNL A   1      40.548  28.073  29.131  1.00  0.00     0.031 A 
ATOM     48  C   UNL A   1      42.799  32.433  33.428  1.00  0.00     0.049 A 
ATOM     49  C   UNL A   1      41.804  28.162  29.951  1.00  0.00     0.074 A 
ATOM     50  C   UNL A   1      43.953  32.363  34.188  1.00  0.00     0.029 A 
ATOM     51  N   UNL A   1      42.767  31.294  32.638  1.00  0.00    -0.354 N 
ATOM     52  N   UNL A   1      42.168  29.081  30.811  1.00  0.00    -0.248 NA
ATOM     53  C   UNL A   1      42.775  27.069  29.791  1.00  0.00     0.031 C 
ATOM     54  C   UNL A   1      44.649  31.209  33.816  1.00  0.00     0.029 A 
ATOM     55  C   UNL A   1      43.896  30.528  32.874  1.00  0.00     0.049 A 
ATOM     56  H   UNL A   1      42.049  31.064  32.005  1.00  0.00     0.167 HD
ATOM     57  C   UNL A   1      43.391  28.664  31.319  1.00  0.00     0.074 A 
ATOM     58  C   UNL A   1      43.699  27.400  30.682  1.00  0.00     0.031 C 
ATOM     59  C   UNL A   1      44.188  29.272  32.233  1.00  0.00     0.031 A 
BRANCH  46  60
ATOM     60  C   UNL A   1      42.010  34.681  34.275  1.00  0.00    -0.014 A 
ATOM     61  C   UNL A   1      41.638  34.693  35.629  1.00  0.00     0.009 A 
ATOM     62  C   UNL A   1      42.626  35.819  33.732  1.00  0.00     0.009 A 
ATOM     63  C   UNL A   1      41.843  35.833  36.411  1.00  0.00     0.001 A 
ATOM     64  C   UNL A   1      42.860  36.946  34.524  1.00  0.00     0.001 A 
ATOM     65  C   UNL A   1      42.459  36.954  35.859  1.00  0.00     0.000 A 
ENDBRANCH  46  60
BRANCH  47  66
ATOM     66  C   UNL A   1      40.319  26.925  28.215  1.00  0.00    -0.014 A 
ATOM     67  C   UNL A   1      39.564  25.819  28.632  1.00  0.00     0.009 A 
ATOM     68  C   UNL A   1      40.865  26.923  26.921  1.00  0.00     0.009 A 
ATOM     69  C   UNL A   1      39.386  24.722  27.785  1.00  0.00     0.001 A 
ATOM     70  C   UNL A   1      40.658  25.838  26.066  1.00  0.00     0.001 A 
ATOM     71  C   UNL A   1      39.929  24.734  26.503  1.00  0.00     0.000 A 
ENDBRANCH  47  66
BRANCH  59  72
ATOM     72  C   UNL A   1      45.450  28.558  32.629  1.00  0.00    -0.014 A 
ATOM     73  C   UNL A   1      46.665  28.797  31.970  1.00  0.00     0.009 A 
ATOM     74  C   UNL A   1      45.426  27.661  33.709  1.00  0.00     0.009 A 
ATOM     75  C   UNL A   1      47.825  28.125  32.363  1.00  0.00     0.001 A 
ATOM     76  C   UNL A   1      46.592  27.016  34.121  1.00  0.00     0.001 A 
ATOM     77  C   UNL A   1      47.789  27.241  33.441  1.00  0.00     0.000 A 
ENDBRANCH  59  72
ENDBRANCH  33  34
ENDBRANCH  25  28
ENDBRANCH  23  24
ENDBRANCH  22  23
ENDBRANCH   1  22
TORSDOF 14
ENDMDL
