MODEL 1
REMARK VINA RESULT:     -11.5      0.000      0.000
REMARK SMILES O=C(NCCCNC(=O)c1c(F)cccc1NS(=O)(=O)C(F)(F)F)c1ccc(-c2c3nc(c(-c4ccccc4)c4ccc([nH]4)c(-c4ccccc4)c4nc(c(-c5ccccc5)c5ccc2[nH]5)C=C4)C=C3)cc1
REMARK SMILES IDX 5 1 4 2 3 3 1 4 2 5 25 7 26 8 72 9 27 10 71 11 28 12 29 13
REMARK SMILES IDX 30 14 65 15 31 16 70 17 64 18 66 19 32 20 69 21 63 22 62 23
REMARK SMILES IDX 33 25 55 26 40 27 54 28 41 29 44 30 53 31 67 32 42 33 43 34
REMARK SMILES IDX 52 36 68 37 45 38 34 39 35 40 39 41 36 42 38 43 37 44 56 45
REMARK SMILES IDX 57 46 61 47 58 48 60 49 59 50 46 51 47 52 51 53 48 54 50 55
REMARK SMILES IDX 49 56 6 57 7 58 8 59 9 61 10 62 11 63 16 64 12 65 13 66
REMARK SMILES IDX 15 67 14 68 17 69 18 71 19 72 20 73 21 74 22 75 23 76 24 77
REMARK H PARENT 3 6 66 24 44 35 7 60 17 70
REMARK Flexibility Score: inf
ROOT
ATOM      1  C   UNL A   1      37.830  19.758  24.795  1.00  0.00     0.042 C 
ENDROOT
BRANCH   1   2
ATOM      2  C   UNL A   1      38.911  20.135  25.801  1.00  0.00     0.118 C 
BRANCH   2   3
ATOM      3  N   UNL A   1      40.028  19.202  25.801  1.00  0.00    -0.352 N 
ATOM      4  O   UNL A   1      42.171  18.515  25.760  1.00  0.00    -0.269 OA
ATOM      5  C   UNL A   1      41.369  19.423  25.983  1.00  0.00     0.251 C 
ATOM      6  H   UNL A   1      39.782  18.261  25.646  1.00  0.00     0.163 HD
BRANCH   5   7
ATOM      7  C   UNL A   1      41.867  20.745  26.419  1.00  0.00     0.039 A 
ATOM      8  C   UNL A   1      42.034  21.047  27.773  1.00  0.00     0.014 A 
ATOM      9  C   UNL A   1      42.216  21.686  25.447  1.00  0.00     0.014 A 
ATOM     10  C   UNL A   1      42.410  22.331  28.158  1.00  0.00     0.010 A 
ATOM     11  C   UNL A   1      42.678  22.945  25.833  1.00  0.00     0.010 A 
ATOM     12  C   UNL A   1      42.751  23.287  27.193  1.00  0.00    -0.014 A 
BRANCH  12  13
ATOM     13  C   UNL A   1      43.238  24.628  27.602  1.00  0.00     0.031 A 
ATOM     14  C   UNL A   1      42.276  25.694  28.039  1.00  0.00     0.074 A 
ATOM     15  C   UNL A   1      44.556  24.895  27.534  1.00  0.00     0.049 A 
ATOM     16  N   UNL A   1      42.511  26.947  28.334  1.00  0.00    -0.248 NA
ATOM     17  C   UNL A   1      40.862  25.303  28.149  1.00  0.00     0.031 C 
ATOM     18  C   UNL A   1      45.590  23.941  27.130  1.00  0.00     0.029 A 
ATOM     19  N   UNL A   1      45.247  26.051  27.787  1.00  0.00    -0.354 N 
ATOM     20  C   UNL A   1      41.274  27.503  28.635  1.00  0.00     0.074 A 
ATOM     21  C   UNL A   1      40.289  26.456  28.464  1.00  0.00     0.031 C 
ATOM     22  C   UNL A   1      46.784  24.549  27.169  1.00  0.00     0.029 A 
ATOM     23  C   UNL A   1      46.593  25.948  27.532  1.00  0.00     0.049 A 
ATOM     24  H   UNL A   1      44.822  26.875  28.119  1.00  0.00     0.167 HD
ATOM     25  C   UNL A   1      40.987  28.772  29.016  1.00  0.00     0.031 A 
ATOM     26  C   UNL A   1      47.563  26.880  27.545  1.00  0.00     0.031 A 
ATOM     27  C   UNL A   1      41.973  29.812  29.166  1.00  0.00     0.049 A 
ATOM     28  C   UNL A   1      47.216  28.293  27.911  1.00  0.00     0.074 A 
ATOM     29  C   UNL A   1      41.790  31.119  29.582  1.00  0.00     0.029 A 
ATOM     30  N   UNL A   1      43.324  29.667  28.887  1.00  0.00    -0.354 N 
ATOM     31  N   UNL A   1      46.049  28.798  28.232  1.00  0.00    -0.248 NA
ATOM     32  C   UNL A   1      48.319  29.264  27.924  1.00  0.00     0.031 C 
ATOM     33  C   UNL A   1      43.016  31.783  29.488  1.00  0.00     0.029 A 
ATOM     34  C   UNL A   1      43.980  30.870  29.089  1.00  0.00     0.049 A 
ATOM     35  H   UNL A   1      43.753  28.832  28.590  1.00  0.00     0.167 HD
ATOM     36  C   UNL A   1      46.280  30.137  28.514  1.00  0.00     0.074 A 
ATOM     37  C   UNL A   1      47.698  30.366  28.328  1.00  0.00     0.031 C 
ATOM     38  C   UNL A   1      45.394  31.086  28.902  1.00  0.00     0.031 A 
BRANCH  25  39
ATOM     39  C   UNL A   1      39.538  29.116  29.240  1.00  0.00    -0.014 A 
ATOM     40  C   UNL A   1      38.731  29.621  28.208  1.00  0.00     0.009 A 
ATOM     41  C   UNL A   1      38.970  28.923  30.510  1.00  0.00     0.009 A 
ATOM     42  C   UNL A   1      37.402  29.976  28.457  1.00  0.00     0.001 A 
ATOM     43  C   UNL A   1      37.633  29.246  30.747  1.00  0.00     0.001 A 
ATOM     44  C   UNL A   1      36.855  29.787  29.726  1.00  0.00     0.000 A 
ENDBRANCH  25  39
BRANCH  26  45
ATOM     45  C   UNL A   1      48.945  26.490  27.169  1.00  0.00    -0.014 A 
ATOM     46  C   UNL A   1      49.836  25.995  28.132  1.00  0.00     0.009 A 
ATOM     47  C   UNL A   1      49.359  26.552  25.828  1.00  0.00     0.009 A 
ATOM     48  C   UNL A   1      51.116  25.578  27.760  1.00  0.00     0.001 A 
ATOM     49  C   UNL A   1      50.627  26.106  25.454  1.00  0.00     0.001 A 
ATOM     50  C   UNL A   1      51.507  25.625  26.421  1.00  0.00     0.000 A 
ENDBRANCH  26  45
BRANCH  38  51
ATOM     51  C   UNL A   1      45.930  32.457  29.205  1.00  0.00    -0.014 A 
ATOM     52  C   UNL A   1      46.424  32.789  30.475  1.00  0.00     0.009 A 
ATOM     53  C   UNL A   1      46.016  33.404  28.172  1.00  0.00     0.009 A 
ATOM     54  C   UNL A   1      46.981  34.050  30.707  1.00  0.00     0.001 A 
ATOM     55  C   UNL A   1      46.599  34.651  28.398  1.00  0.00     0.001 A 
ATOM     56  C   UNL A   1      47.077  34.975  29.667  1.00  0.00     0.000 A 
ENDBRANCH  38  51
ENDBRANCH  12  13
ENDBRANCH   5   7
ENDBRANCH   2   3
ENDBRANCH   1   2
BRANCH   1  57
ATOM     57  C   UNL A   1      36.720  20.793  24.657  1.00  0.00     0.118 C 
BRANCH  57  58
ATOM     58  N   UNL A   1      35.754  20.705  25.743  1.00  0.00    -0.352 N 
ATOM     59  C   UNL A   1      34.401  20.931  25.726  1.00  0.00     0.256 C 
ATOM     60  H   UNL A   1      36.125  20.444  26.615  1.00  0.00     0.163 HD
ATOM     61  O   UNL A   1      33.793  21.055  26.787  1.00  0.00    -0.269 OA
BRANCH  59  62
ATOM     62  C   UNL A   1      33.675  21.125  24.461  1.00  0.00     0.099 A 
ATOM     63  C   UNL A   1      33.703  22.381  23.845  1.00  0.00     0.138 A 
ATOM     64  C   UNL A   1      32.950  20.062  23.882  1.00  0.00     0.065 A 
ATOM     65  F   UNL A   1      34.429  23.386  24.357  1.00  0.00    -0.206 F 
ATOM     66  C   UNL A   1      32.933  22.643  22.720  1.00  0.00     0.040 A 
ATOM     67  C   UNL A   1      32.150  20.356  22.772  1.00  0.00     0.028 A 
ATOM     68  C   UNL A   1      32.144  21.630  22.191  1.00  0.00     0.005 A 
BRANCH  64  69
ATOM     69  N   UNL A   1      32.819  18.788  24.562  1.00  0.00    -0.275 N 
ATOM     70  H   UNL A   1      32.195  18.714  25.320  1.00  0.00     0.180 HD
BRANCH  69  71
ATOM     71  S   UNL A   1      33.714  17.413  24.087  1.00  0.00     0.333 S 
ATOM     72  O   UNL A   1      33.248  17.063  22.757  1.00  0.00    -0.197 OA
ATOM     73  O   UNL A   1      35.095  17.840  24.255  1.00  0.00    -0.197 OA
BRANCH  71  74
ATOM     74  C   UNL A   1      33.365  16.022  25.277  1.00  0.00     0.516 C 
ATOM     75  F   UNL A   1      32.540  15.074  24.744  1.00  0.00    -0.155 F 
ATOM     76  F   UNL A   1      34.506  15.376  25.658  1.00  0.00    -0.155 F 
ATOM     77  F   UNL A   1      32.770  16.456  26.424  1.00  0.00    -0.155 F 
ENDBRANCH  71  74
ENDBRANCH  69  71
ENDBRANCH  64  69
ENDBRANCH  59  62
ENDBRANCH  57  58
ENDBRANCH   1  57
TORSDOF 13
ENDMDL
MODEL 2
REMARK VINA RESULT:     -11.5      6.778     11.156
REMARK SMILES O=C(NCCCNC(=O)c1c(F)cccc1NS(=O)(=O)C(F)(F)F)c1ccc(-c2c3nc(c(-c4ccccc4)c4ccc([nH]4)c(-c4ccccc4)c4nc(c(-c5ccccc5)c5ccc2[nH]5)C=C4)C=C3)cc1
REMARK SMILES IDX 5 1 4 2 3 3 1 4 2 5 25 7 26 8 72 9 27 10 71 11 28 12 29 13
REMARK SMILES IDX 30 14 65 15 31 16 70 17 64 18 66 19 32 20 69 21 63 22 62 23
REMARK SMILES IDX 33 25 55 26 40 27 54 28 41 29 44 30 53 31 67 32 42 33 43 34
REMARK SMILES IDX 52 36 68 37 45 38 34 39 35 40 39 41 36 42 38 43 37 44 56 45
REMARK SMILES IDX 57 46 61 47 58 48 60 49 59 50 46 51 47 52 51 53 48 54 50 55
REMARK SMILES IDX 49 56 6 57 7 58 8 59 9 61 10 62 11 63 16 64 12 65 13 66
REMARK SMILES IDX 15 67 14 68 17 69 18 71 19 72 20 73 21 74 22 75 23 76 24 77
REMARK H PARENT 3 6 66 24 44 35 7 60 17 70
REMARK Flexibility Score: inf
ROOT
ATOM      1  C   UNL A   1      31.392  31.763  26.572  1.00  0.00     0.042 C 
ENDROOT
BRANCH   1   2
ATOM      2  C   UNL A   1      32.668  32.530  26.896  1.00  0.00     0.118 C 
BRANCH   2   3
ATOM      3  N   UNL A   1      32.405  33.840  27.473  1.00  0.00    -0.352 N 
ATOM      4  O   UNL A   1      32.529  35.528  28.957  1.00  0.00    -0.269 OA
ATOM      5  C   UNL A   1      33.029  34.499  28.500  1.00  0.00     0.251 C 
ATOM      6  H   UNL A   1      31.658  34.332  27.060  1.00  0.00     0.163 HD
BRANCH   5   7
ATOM      7  C   UNL A   1      34.283  33.977  29.084  1.00  0.00     0.039 A 
ATOM      8  C   UNL A   1      35.531  34.407  28.626  1.00  0.00     0.014 A 
ATOM      9  C   UNL A   1      34.204  33.069  30.144  1.00  0.00     0.014 A 
ATOM     10  C   UNL A   1      36.694  33.826  29.126  1.00  0.00     0.010 A 
ATOM     11  C   UNL A   1      35.373  32.552  30.705  1.00  0.00     0.010 A 
ATOM     12  C   UNL A   1      36.628  32.906  30.181  1.00  0.00    -0.014 A 
BRANCH  12  13
ATOM     13  C   UNL A   1      37.869  32.353  30.775  1.00  0.00     0.031 A 
ATOM     14  C   UNL A   1      38.545  31.158  30.168  1.00  0.00     0.074 A 
ATOM     15  C   UNL A   1      38.363  32.908  31.897  1.00  0.00     0.049 A 
ATOM     16  N   UNL A   1      39.576  30.481  30.606  1.00  0.00    -0.248 NA
ATOM     17  C   UNL A   1      37.983  30.650  28.907  1.00  0.00     0.031 C 
ATOM     18  C   UNL A   1      37.799  34.076  32.579  1.00  0.00     0.029 A 
ATOM     19  N   UNL A   1      39.438  32.557  32.671  1.00  0.00    -0.354 N 
ATOM     20  C   UNL A   1      39.767  29.451  29.695  1.00  0.00     0.074 A 
ATOM     21  C   UNL A   1      38.732  29.578  28.692  1.00  0.00     0.031 C 
ATOM     22  C   UNL A   1      38.537  34.347  33.664  1.00  0.00     0.029 A 
ATOM     23  C   UNL A   1      39.580  33.335  33.793  1.00  0.00     0.049 A 
ATOM     24  H   UNL A   1      40.050  31.819  32.444  1.00  0.00     0.167 HD
ATOM     25  C   UNL A   1      40.719  28.485  29.697  1.00  0.00     0.031 A 
ATOM     26  C   UNL A   1      40.425  33.229  34.835  1.00  0.00     0.031 A 
ATOM     27  C   UNL A   1      41.735  28.355  30.710  1.00  0.00     0.049 A 
ATOM     28  C   UNL A   1      41.433  32.117  34.850  1.00  0.00     0.074 A 
ATOM     29  C   UNL A   1      42.766  27.436  30.784  1.00  0.00     0.029 A 
ATOM     30  N   UNL A   1      41.836  29.161  31.836  1.00  0.00    -0.354 N 
ATOM     31  N   UNL A   1      41.630  31.173  33.962  1.00  0.00    -0.248 NA
ATOM     32  C   UNL A   1      42.339  32.060  36.004  1.00  0.00     0.031 C 
ATOM     33  C   UNL A   1      43.447  27.639  31.988  1.00  0.00     0.029 A 
ATOM     34  C   UNL A   1      42.891  28.736  32.627  1.00  0.00     0.049 A 
ATOM     35  H   UNL A   1      41.246  29.921  32.041  1.00  0.00     0.167 HD
ATOM     36  C   UNL A   1      42.700  30.426  34.433  1.00  0.00     0.074 A 
ATOM     37  C   UNL A   1      43.111  31.029  35.685  1.00  0.00     0.031 C 
ATOM     38  C   UNL A   1      43.292  29.345  33.871  1.00  0.00     0.031 A 
BRANCH  25  39
ATOM     39  C   UNL A   1      40.665  27.459  28.596  1.00  0.00    -0.014 A 
ATOM     40  C   UNL A   1      41.383  27.622  27.400  1.00  0.00     0.009 A 
ATOM     41  C   UNL A   1      39.885  26.303  28.764  1.00  0.00     0.009 A 
ATOM     42  C   UNL A   1      41.277  26.677  26.376  1.00  0.00     0.001 A 
ATOM     43  C   UNL A   1      39.808  25.344  27.753  1.00  0.00     0.001 A 
ATOM     44  C   UNL A   1      40.490  25.538  26.554  1.00  0.00     0.000 A 
ENDBRANCH  25  39
BRANCH  26  45
ATOM     45  C   UNL A   1      40.317  34.197  35.955  1.00  0.00    -0.014 A 
ATOM     46  C   UNL A   1      41.043  35.396  35.937  1.00  0.00     0.009 A 
ATOM     47  C   UNL A   1      39.434  33.953  37.020  1.00  0.00     0.009 A 
ATOM     48  C   UNL A   1      40.894  36.327  36.968  1.00  0.00     0.001 A 
ATOM     49  C   UNL A   1      39.264  34.898  38.032  1.00  0.00     0.001 A 
ATOM     50  C   UNL A   1      39.997  36.082  38.009  1.00  0.00     0.000 A 
ENDBRANCH  26  45
BRANCH  38  51
ATOM     51  C   UNL A   1      44.486  28.761  34.573  1.00  0.00    -0.014 A 
ATOM     52  C   UNL A   1      44.359  27.708  35.490  1.00  0.00     0.009 A 
ATOM     53  C   UNL A   1      45.770  29.224  34.243  1.00  0.00     0.009 A 
ATOM     54  C   UNL A   1      45.495  27.141  36.074  1.00  0.00     0.001 A 
ATOM     55  C   UNL A   1      46.904  28.637  34.804  1.00  0.00     0.001 A 
ATOM     56  C   UNL A   1      46.766  27.598  35.723  1.00  0.00     0.000 A 
ENDBRANCH  38  51
ENDBRANCH  12  13
ENDBRANCH   5   7
ENDBRANCH   2   3
ENDBRANCH   1   2
BRANCH   1  57
ATOM     57  C   UNL A   1      31.613  30.285  26.272  1.00  0.00     0.118 C 
BRANCH  57  58
ATOM     58  N   UNL A   1      32.203  30.078  24.956  1.00  0.00    -0.352 N 
ATOM     59  C   UNL A   1      32.021  29.046  24.072  1.00  0.00     0.256 C 
ATOM     60  H   UNL A   1      32.822  30.783  24.658  1.00  0.00     0.163 HD
ATOM     61  O   UNL A   1      32.793  28.915  23.126  1.00  0.00    -0.269 OA
BRANCH  59  62
ATOM     62  C   UNL A   1      30.977  28.031  24.287  1.00  0.00     0.099 A 
ATOM     63  C   UNL A   1      31.182  27.036  25.250  1.00  0.00     0.138 A 
ATOM     64  C   UNL A   1      29.789  28.055  23.526  1.00  0.00     0.065 A 
ATOM     65  F   UNL A   1      32.282  27.032  26.016  1.00  0.00    -0.206 F 
ATOM     66  C   UNL A   1      30.281  25.990  25.398  1.00  0.00     0.040 A 
ATOM     67  C   UNL A   1      28.915  26.971  23.663  1.00  0.00     0.028 A 
ATOM     68  C   UNL A   1      29.152  25.951  24.592  1.00  0.00     0.005 A 
BRANCH  64  69
ATOM     69  N   UNL A   1      29.610  29.010  22.450  1.00  0.00    -0.275 N 
ATOM     70  H   UNL A   1      30.338  29.139  21.800  1.00  0.00     0.180 HD
BRANCH  69  71
ATOM     71  S   UNL A   1      28.172  29.917  22.277  1.00  0.00     0.333 S 
ATOM     72  O   UNL A   1      28.020  30.173  20.857  1.00  0.00    -0.197 OA
ATOM     73  O   UNL A   1      27.178  29.095  22.952  1.00  0.00    -0.197 OA
BRANCH  71  74
ATOM     74  C   UNL A   1      28.354  31.523  23.205  1.00  0.00     0.516 C 
ATOM     75  F   UNL A   1      28.620  32.575  22.377  1.00  0.00    -0.155 F 
ATOM     76  F   UNL A   1      27.222  31.846  23.895  1.00  0.00    -0.155 F 
ATOM     77  F   UNL A   1      29.362  31.483  24.121  1.00  0.00    -0.155 F 
ENDBRANCH  71  74
ENDBRANCH  69  71
ENDBRANCH  64  69
ENDBRANCH  59  62
ENDBRANCH  57  58
ENDBRANCH   1  57
TORSDOF 13
ENDMDL
MODEL 3
REMARK VINA RESULT:     -11.3      1.471      6.136
REMARK SMILES O=C(NCCCNC(=O)c1c(F)cccc1NS(=O)(=O)C(F)(F)F)c1ccc(-c2c3nc(c(-c4ccccc4)c4ccc([nH]4)c(-c4ccccc4)c4nc(c(-c5ccccc5)c5ccc2[nH]5)C=C4)C=C3)cc1
REMARK SMILES IDX 5 1 4 2 3 3 1 4 2 5 25 7 26 8 72 9 27 10 71 11 28 12 29 13
REMARK SMILES IDX 30 14 65 15 31 16 70 17 64 18 66 19 32 20 69 21 63 22 62 23
REMARK SMILES IDX 33 25 55 26 40 27 54 28 41 29 44 30 53 31 67 32 42 33 43 34
REMARK SMILES IDX 52 36 68 37 45 38 34 39 35 40 39 41 36 42 38 43 37 44 56 45
REMARK SMILES IDX 57 46 61 47 58 48 60 49 59 50 46 51 47 52 51 53 48 54 50 55
REMARK SMILES IDX 49 56 6 57 7 58 8 59 9 61 10 62 11 63 16 64 12 65 13 66
REMARK SMILES IDX 15 67 14 68 17 69 18 71 19 72 20 73 21 74 22 75 23 76 24 77
REMARK H PARENT 3 6 66 24 44 35 7 60 17 70
REMARK Flexibility Score: inf
ROOT
ATOM      1  C   UNL A   1      37.831  19.807  24.781  1.00  0.00     0.042 C 
ENDROOT
BRANCH   1   2
ATOM      2  C   UNL A   1      38.807  20.131  25.906  1.00  0.00     0.118 C 
BRANCH   2   3
ATOM      3  N   UNL A   1      40.020  19.330  25.847  1.00  0.00    -0.352 N 
ATOM      4  O   UNL A   1      42.226  18.889  25.770  1.00  0.00    -0.269 OA
ATOM      5  C   UNL A   1      41.329  19.683  26.053  1.00  0.00     0.251 C 
ATOM      6  H   UNL A   1      39.880  18.381  25.621  1.00  0.00     0.163 HD
BRANCH   5   7
ATOM      7  C   UNL A   1      41.677  21.016  26.589  1.00  0.00     0.039 A 
ATOM      8  C   UNL A   1      41.672  21.271  27.962  1.00  0.00     0.014 A 
ATOM      9  C   UNL A   1      42.060  22.020  25.695  1.00  0.00     0.014 A 
ATOM     10  C   UNL A   1      41.909  22.560  28.433  1.00  0.00     0.010 A 
ATOM     11  C   UNL A   1      42.383  23.291  26.175  1.00  0.00     0.010 A 
ATOM     12  C   UNL A   1      42.282  23.578  27.546  1.00  0.00    -0.014 A 
BRANCH  12  13
ATOM     13  C   UNL A   1      42.622  24.930  28.053  1.00  0.00     0.031 A 
ATOM     14  C   UNL A   1      44.021  25.258  28.487  1.00  0.00     0.074 A 
ATOM     15  C   UNL A   1      41.648  25.853  28.163  1.00  0.00     0.049 A 
ATOM     16  N   UNL A   1      44.478  26.350  29.047  1.00  0.00    -0.248 NA
ATOM     17  C   UNL A   1      45.040  24.219  28.274  1.00  0.00     0.031 C 
ATOM     18  C   UNL A   1      40.252  25.656  27.769  1.00  0.00     0.029 A 
ATOM     19  N   UNL A   1      41.681  27.133  28.653  1.00  0.00    -0.354 N 
ATOM     20  C   UNL A   1      45.827  26.120  29.280  1.00  0.00     0.074 A 
ATOM     21  C   UNL A   1      46.110  24.776  28.823  1.00  0.00     0.031 C 
ATOM     22  C   UNL A   1      39.563  26.777  28.026  1.00  0.00     0.029 A 
ATOM     23  C   UNL A   1      40.450  27.743  28.665  1.00  0.00     0.049 A 
ATOM     24  H   UNL A   1      42.505  27.573  28.965  1.00  0.00     0.167 HD
ATOM     25  C   UNL A   1      46.745  26.953  29.829  1.00  0.00     0.031 A 
ATOM     26  C   UNL A   1      40.063  28.928  29.170  1.00  0.00     0.031 A 
ATOM     27  C   UNL A   1      46.449  28.283  30.298  1.00  0.00     0.049 A 
ATOM     28  C   UNL A   1      41.081  29.812  29.828  1.00  0.00     0.074 A 
ATOM     29  C   UNL A   1      47.315  29.219  30.835  1.00  0.00     0.029 A 
ATOM     30  N   UNL A   1      45.186  28.858  30.300  1.00  0.00    -0.354 N 
ATOM     31  N   UNL A   1      42.363  29.600  30.007  1.00  0.00    -0.248 NA
ATOM     32  C   UNL A   1      40.604  31.102  30.346  1.00  0.00     0.031 C 
ATOM     33  C   UNL A   1      46.565  30.332  31.227  1.00  0.00     0.029 A 
ATOM     34  C   UNL A   1      45.244  30.122  30.863  1.00  0.00     0.049 A 
ATOM     35  H   UNL A   1      44.370  28.430  29.954  1.00  0.00     0.167 HD
ATOM     36  C   UNL A   1      42.852  30.738  30.632  1.00  0.00     0.074 A 
ATOM     37  C   UNL A   1      41.730  31.639  30.799  1.00  0.00     0.031 C 
ATOM     38  C   UNL A   1      44.120  31.011  31.022  1.00  0.00     0.031 A 
BRANCH  25  39
ATOM     39  C   UNL A   1      48.143  26.422  30.004  1.00  0.00    -0.014 A 
ATOM     40  C   UNL A   1      49.113  26.553  28.996  1.00  0.00     0.009 A 
ATOM     41  C   UNL A   1      48.497  25.785  31.204  1.00  0.00     0.009 A 
ATOM     42  C   UNL A   1      50.389  26.008  29.166  1.00  0.00     0.001 A 
ATOM     43  C   UNL A   1      49.783  25.273  31.385  1.00  0.00     0.001 A 
ATOM     44  C   UNL A   1      50.723  25.370  30.362  1.00  0.00     0.000 A 
ENDBRANCH  25  39
BRANCH  26  45
ATOM     45  C   UNL A   1      38.633  29.316  29.087  1.00  0.00    -0.014 A 
ATOM     46  C   UNL A   1      37.788  29.177  30.197  1.00  0.00     0.009 A 
ATOM     47  C   UNL A   1      38.120  29.890  27.911  1.00  0.00     0.009 A 
ATOM     48  C   UNL A   1      36.457  29.595  30.128  1.00  0.00     0.001 A 
ATOM     49  C   UNL A   1      36.799  30.335  27.855  1.00  0.00     0.001 A 
ATOM     50  C   UNL A   1      35.967  30.183  28.961  1.00  0.00     0.000 A 
ENDBRANCH  26  45
BRANCH  38  51
ATOM     51  C   UNL A   1      44.387  32.362  31.625  1.00  0.00    -0.014 A 
ATOM     52  C   UNL A   1      44.342  32.571  33.012  1.00  0.00     0.009 A 
ATOM     53  C   UNL A   1      44.772  33.423  30.790  1.00  0.00     0.009 A 
ATOM     54  C   UNL A   1      44.663  33.821  33.547  1.00  0.00     0.001 A 
ATOM     55  C   UNL A   1      45.121  34.661  31.329  1.00  0.00     0.001 A 
ATOM     56  C   UNL A   1      45.062  34.861  32.707  1.00  0.00     0.000 A 
ENDBRANCH  38  51
ENDBRANCH  12  13
ENDBRANCH   5   7
ENDBRANCH   2   3
ENDBRANCH   1   2
BRANCH   1  57
ATOM     57  C   UNL A   1      36.690  20.807  24.639  1.00  0.00     0.118 C 
BRANCH  57  58
ATOM     58  N   UNL A   1      35.736  20.706  25.735  1.00  0.00    -0.352 N 
ATOM     59  C   UNL A   1      34.382  20.921  25.733  1.00  0.00     0.256 C 
ATOM     60  H   UNL A   1      36.119  20.443  26.602  1.00  0.00     0.163 HD
ATOM     61  O   UNL A   1      33.785  21.035  26.800  1.00  0.00    -0.269 OA
BRANCH  59  62
ATOM     62  C   UNL A   1      33.641  21.116  24.477  1.00  0.00     0.099 A 
ATOM     63  C   UNL A   1      33.647  22.378  23.871  1.00  0.00     0.138 A 
ATOM     64  C   UNL A   1      32.925  20.049  23.895  1.00  0.00     0.065 A 
ATOM     65  F   UNL A   1      34.365  23.387  24.384  1.00  0.00    -0.206 F 
ATOM     66  C   UNL A   1      32.863  22.638  22.756  1.00  0.00     0.040 A 
ATOM     67  C   UNL A   1      32.111  20.342  22.795  1.00  0.00     0.028 A 
ATOM     68  C   UNL A   1      32.082  21.620  22.226  1.00  0.00     0.005 A 
BRANCH  64  69
ATOM     69  N   UNL A   1      32.817  18.768  24.566  1.00  0.00    -0.275 N 
ATOM     70  H   UNL A   1      32.209  18.682  25.336  1.00  0.00     0.180 HD
BRANCH  69  71
ATOM     71  S   UNL A   1      33.711  17.404  24.059  1.00  0.00     0.333 S 
ATOM     72  O   UNL A   1      33.228  17.070  22.732  1.00  0.00    -0.197 OA
ATOM     73  O   UNL A   1      35.092  17.835  24.214  1.00  0.00    -0.197 OA
BRANCH  71  74
ATOM     74  C   UNL A   1      33.385  15.995  25.235  1.00  0.00     0.516 C 
ATOM     75  F   UNL A   1      32.730  16.397  26.362  1.00  0.00    -0.155 F 
ATOM     76  F   UNL A   1      32.618  15.020  24.665  1.00  0.00    -0.155 F 
ATOM     77  F   UNL A   1      34.533  15.386  25.648  1.00  0.00    -0.155 F 
ENDBRANCH  71  74
ENDBRANCH  69  71
ENDBRANCH  64  69
ENDBRANCH  59  62
ENDBRANCH  57  58
ENDBRANCH   1  57
TORSDOF 13
ENDMDL
