MODEL 1
REMARK VINA RESULT:      -9.1      0.000      0.000
REMARK SMILES O=C(CCCS(=O)(=O)Nc1ccc(Cl)cc1F)NCCCNC(=O)c1ccc(-c2c3nc(c(-c4ccccc4)c4ccc([nH]4)c(-c4ccccc4)c4nc(c(-c5ccccc5)c5ccc2[nH]5)C=C4)C=C3)cc1
REMARK SMILES IDX 1 1 2 2 18 3 3 5 4 6 5 7 6 8 7 9 8 10 9 11 10 13 11 14 16 15
REMARK SMILES IDX 12 16 15 17 17 18 13 19 14 20 19 21 20 22 21 23 22 24 23 25
REMARK SMILES IDX 24 27 25 28 26 29 72 30 27 31 71 32 28 33 29 34 30 35 65 36
REMARK SMILES IDX 31 37 70 38 64 39 66 40 32 41 69 42 63 43 62 44 33 46 55 47
REMARK SMILES IDX 40 48 54 49 41 50 44 51 53 52 67 53 42 54 43 55 52 57 68 58
REMARK SMILES IDX 45 59 34 60 35 61 39 62 36 63 38 64 37 65 56 66 57 67 61 68
REMARK SMILES IDX 58 69 60 70 59 71 46 72 47 73 51 74 48 75 50 76 49 77
REMARK H PARENT 18 4 9 12 22 26 66 45 44 56
REMARK Flexibility Score: inf
ROOT
ATOM      1  O   UNL A   1      46.016  22.025  26.191  1.00  0.00    -0.275 OA
ATOM      2  C   UNL A   1      46.011  22.169  24.974  1.00  0.00     0.220 C 
ATOM      3  N   UNL A   1      46.062  21.108  24.096  1.00  0.00    -0.356 N 
ATOM      4  H   UNL A   1      46.017  21.278  23.127  1.00  0.00     0.163 HD
ENDROOT
BRANCH   2   5
ATOM      5  C   UNL A   1      45.910  23.537  24.327  1.00  0.00     0.101 C 
BRANCH   5   6
ATOM      6  C   UNL A   1      46.677  24.661  25.010  1.00  0.00     0.028 C 
BRANCH   6   7
ATOM      7  C   UNL A   1      46.028  26.042  25.094  1.00  0.00     0.160 C 
BRANCH   7   8
ATOM      8  S   UNL A   1      47.091  27.476  24.849  1.00  0.00     0.232 S 
ATOM      9  O   UNL A   1      48.407  27.064  24.444  1.00  0.00    -0.207 OA
ATOM     10  O   UNL A   1      46.326  28.380  24.005  1.00  0.00    -0.207 OA
BRANCH   8  11
ATOM     11  N   UNL A   1      47.110  28.290  26.305  1.00  0.00    -0.281 N 
ATOM     12  H   UNL A   1      47.801  28.000  26.942  1.00  0.00     0.180 HD
BRANCH  11  13
ATOM     13  C   UNL A   1      46.266  29.349  26.759  1.00  0.00     0.084 A 
ATOM     14  C   UNL A   1      46.934  30.535  27.091  1.00  0.00     0.031 A 
ATOM     15  C   UNL A   1      44.869  29.349  26.818  1.00  0.00     0.148 A 
ATOM     16  C   UNL A   1      46.227  31.730  27.263  1.00  0.00     0.023 A 
ATOM     17  C   UNL A   1      44.156  30.538  26.985  1.00  0.00     0.062 A 
ATOM     18  F   UNL A   1      44.154  28.243  26.608  1.00  0.00    -0.205 F 
ATOM     19  C   UNL A   1      44.841  31.733  27.157  1.00  0.00     0.044 A 
ATOM     20  Cl  UNL A   1      43.983  33.219  27.199  1.00  0.00    -0.084 Cl
ENDBRANCH  11  13
ENDBRANCH   8  11
ENDBRANCH   7   8
ENDBRANCH   6   7
ENDBRANCH   5   6
ENDBRANCH   2   5
BRANCH   3  21
ATOM     21  C   UNL A   1      46.181  19.747  24.578  1.00  0.00     0.117 C 
BRANCH  21  22
ATOM     22  C   UNL A   1      44.885  18.943  24.509  1.00  0.00     0.042 C 
BRANCH  22  23
ATOM     23  C   UNL A   1      44.090  18.866  25.809  1.00  0.00     0.118 C 
BRANCH  23  24
ATOM     24  N   UNL A   1      42.661  18.754  25.593  1.00  0.00    -0.352 N 
ATOM     25  C   UNL A   1      41.643  19.607  25.944  1.00  0.00     0.251 C 
ATOM     26  H   UNL A   1      42.375  17.939  25.120  1.00  0.00     0.163 HD
ATOM     27  O   UNL A   1      40.479  19.233  25.831  1.00  0.00    -0.269 OA
BRANCH  25  28
ATOM     28  C   UNL A   1      41.926  20.960  26.477  1.00  0.00     0.039 A 
ATOM     29  C   UNL A   1      41.780  21.176  27.851  1.00  0.00     0.014 A 
ATOM     30  C   UNL A   1      42.278  22.024  25.643  1.00  0.00     0.014 A 
ATOM     31  C   UNL A   1      42.038  22.439  28.392  1.00  0.00     0.010 A 
ATOM     32  C   UNL A   1      42.604  23.266  26.193  1.00  0.00     0.010 A 
ATOM     33  C   UNL A   1      42.484  23.489  27.574  1.00  0.00    -0.014 A 
BRANCH  33  34
ATOM     34  C   UNL A   1      42.828  24.815  28.156  1.00  0.00     0.031 A 
ATOM     35  C   UNL A   1      41.770  25.870  28.349  1.00  0.00     0.074 A 
ATOM     36  C   UNL A   1      44.108  25.091  28.479  1.00  0.00     0.049 A 
ATOM     37  N   UNL A   1      41.894  27.088  28.817  1.00  0.00    -0.248 NA
ATOM     38  C   UNL A   1      40.398  25.519  27.949  1.00  0.00     0.031 C 
ATOM     39  C   UNL A   1      45.238  24.174  28.318  1.00  0.00     0.029 A 
ATOM     40  N   UNL A   1      44.675  26.224  29.008  1.00  0.00    -0.354 N 
ATOM     41  C   UNL A   1      40.624  27.649  28.756  1.00  0.00     0.074 A 
ATOM     42  C   UNL A   1      39.755  26.658  28.159  1.00  0.00     0.031 C 
ATOM     43  C   UNL A   1      46.354  24.768  28.771  1.00  0.00     0.029 A 
ATOM     44  C   UNL A   1      46.030  26.121  29.208  1.00  0.00     0.049 A 
ATOM     45  H   UNL A   1      44.158  27.034  29.225  1.00  0.00     0.167 HD
ATOM     46  C   UNL A   1      40.210  28.870  29.175  1.00  0.00     0.031 A 
ATOM     47  C   UNL A   1      46.919  27.016  29.685  1.00  0.00     0.031 A 
ATOM     48  C   UNL A   1      41.070  29.859  29.770  1.00  0.00     0.049 A 
ATOM     49  C   UNL A   1      46.441  28.377  30.109  1.00  0.00     0.074 A 
ATOM     50  C   UNL A   1      40.732  31.106  30.270  1.00  0.00     0.029 A 
ATOM     51  N   UNL A   1      42.439  29.719  29.942  1.00  0.00    -0.354 N 
ATOM     52  N   UNL A   1      45.224  28.865  30.105  1.00  0.00    -0.248 NA
ATOM     53  C   UNL A   1      47.460  29.306  30.616  1.00  0.00     0.031 C 
ATOM     54  C   UNL A   1      41.905  31.745  30.685  1.00  0.00     0.029 A 
ATOM     55  C   UNL A   1      42.964  30.869  30.509  1.00  0.00     0.049 A 
ATOM     56  H   UNL A   1      42.960  28.921  29.696  1.00  0.00     0.167 HD
ATOM     57  C   UNL A   1      45.328  30.144  30.636  1.00  0.00     0.074 A 
ATOM     58  C   UNL A   1      46.723  30.349  30.968  1.00  0.00     0.031 C 
ATOM     59  C   UNL A   1      44.354  31.066  30.833  1.00  0.00     0.031 A 
BRANCH  46  60
ATOM     60  C   UNL A   1      38.756  29.213  28.989  1.00  0.00    -0.014 A 
ATOM     61  C   UNL A   1      37.834  29.080  30.040  1.00  0.00     0.009 A 
ATOM     62  C   UNL A   1      38.309  29.718  27.758  1.00  0.00     0.009 A 
ATOM     63  C   UNL A   1      36.490  29.407  29.849  1.00  0.00     0.001 A 
ATOM     64  C   UNL A   1      36.971  30.075  27.580  1.00  0.00     0.001 A 
ATOM     65  C   UNL A   1      36.061  29.908  28.622  1.00  0.00     0.000 A 
ENDBRANCH  46  60
BRANCH  47  66
ATOM     66  C   UNL A   1      48.357  26.653  29.792  1.00  0.00    -0.014 A 
ATOM     67  C   UNL A   1      49.255  26.978  28.763  1.00  0.00     0.009 A 
ATOM     68  C   UNL A   1      48.838  25.964  30.916  1.00  0.00     0.009 A 
ATOM     69  C   UNL A   1      50.596  26.595  28.845  1.00  0.00     0.001 A 
ATOM     70  C   UNL A   1      50.186  25.612  31.011  1.00  0.00     0.001 A 
ATOM     71  C   UNL A   1      51.061  25.916  29.970  1.00  0.00     0.000 A 
ENDBRANCH  47  66
BRANCH  59  72
ATOM     72  C   UNL A   1      44.753  32.368  31.473  1.00  0.00    -0.014 A 
ATOM     73  C   UNL A   1      44.794  32.517  32.868  1.00  0.00     0.009 A 
ATOM     74  C   UNL A   1      45.127  33.452  30.664  1.00  0.00     0.009 A 
ATOM     75  C   UNL A   1      45.165  33.737  33.437  1.00  0.00     0.001 A 
ATOM     76  C   UNL A   1      45.530  34.659  31.235  1.00  0.00     0.001 A 
ATOM     77  C   UNL A   1      45.539  34.805  32.622  1.00  0.00     0.000 A 
ENDBRANCH  59  72
ENDBRANCH  33  34
ENDBRANCH  25  28
ENDBRANCH  23  24
ENDBRANCH  22  23
ENDBRANCH  21  22
ENDBRANCH   3  21
TORSDOF 15
ENDMDL
MODEL 2
REMARK VINA RESULT:      -8.3      6.427     11.820
REMARK SMILES O=C(CCCS(=O)(=O)Nc1ccc(Cl)cc1F)NCCCNC(=O)c1ccc(-c2c3nc(c(-c4ccccc4)c4ccc([nH]4)c(-c4ccccc4)c4nc(c(-c5ccccc5)c5ccc2[nH]5)C=C4)C=C3)cc1
REMARK SMILES IDX 1 1 2 2 18 3 3 5 4 6 5 7 6 8 7 9 8 10 9 11 10 13 11 14 16 15
REMARK SMILES IDX 12 16 15 17 17 18 13 19 14 20 19 21 20 22 21 23 22 24 23 25
REMARK SMILES IDX 24 27 25 28 26 29 72 30 27 31 71 32 28 33 29 34 30 35 65 36
REMARK SMILES IDX 31 37 70 38 64 39 66 40 32 41 69 42 63 43 62 44 33 46 55 47
REMARK SMILES IDX 40 48 54 49 41 50 44 51 53 52 67 53 42 54 43 55 52 57 68 58
REMARK SMILES IDX 45 59 34 60 35 61 39 62 36 63 38 64 37 65 56 66 57 67 61 68
REMARK SMILES IDX 58 69 60 70 59 71 46 72 47 73 51 74 48 75 50 76 49 77
REMARK H PARENT 18 4 9 12 22 26 66 45 44 56
REMARK Flexibility Score: inf
ROOT
ATOM      1  O   UNL A   1      33.586  29.118  24.309  1.00  0.00    -0.275 OA
ATOM      2  C   UNL A   1      33.145  28.656  25.355  1.00  0.00     0.220 C 
ATOM      3  N   UNL A   1      32.064  29.198  26.014  1.00  0.00    -0.356 N 
ATOM      4  H   UNL A   1      31.727  28.764  26.831  1.00  0.00     0.163 HD
ENDROOT
BRANCH   2   5
ATOM      5  C   UNL A   1      33.737  27.416  25.997  1.00  0.00     0.101 C 
BRANCH   5   6
ATOM      6  C   UNL A   1      33.457  26.096  25.293  1.00  0.00     0.028 C 
BRANCH   6   7
ATOM      7  C   UNL A   1      32.689  25.013  26.050  1.00  0.00     0.160 C 
BRANCH   7   8
ATOM      8  S   UNL A   1      30.894  25.156  26.110  1.00  0.00     0.232 S 
ATOM      9  O   UNL A   1      30.323  24.048  26.826  1.00  0.00    -0.207 OA
ATOM     10  O   UNL A   1      30.633  26.515  26.557  1.00  0.00    -0.207 OA
BRANCH   8  11
ATOM     11  N   UNL A   1      30.382  25.206  24.522  1.00  0.00    -0.281 N 
ATOM     12  H   UNL A   1      30.439  24.354  24.033  1.00  0.00     0.180 HD
BRANCH  11  13
ATOM     13  C   UNL A   1      29.873  26.310  23.773  1.00  0.00     0.084 A 
ATOM     14  C   UNL A   1      28.503  26.552  23.936  1.00  0.00     0.031 A 
ATOM     15  C   UNL A   1      30.603  27.203  22.984  1.00  0.00     0.148 A 
ATOM     16  C   UNL A   1      27.932  27.755  23.507  1.00  0.00     0.023 A 
ATOM     17  C   UNL A   1      30.043  28.408  22.555  1.00  0.00     0.062 A 
ATOM     18  F   UNL A   1      31.891  27.003  22.698  1.00  0.00    -0.205 F 
ATOM     19  C   UNL A   1      28.722  28.701  22.863  1.00  0.00     0.044 A 
ATOM     20  Cl  UNL A   1      28.071  30.245  22.487  1.00  0.00    -0.084 Cl
ENDBRANCH  11  13
ENDBRANCH   8  11
ENDBRANCH   7   8
ENDBRANCH   6   7
ENDBRANCH   5   6
ENDBRANCH   2   5
BRANCH   3  21
ATOM     21  C   UNL A   1      31.414  30.396  25.522  1.00  0.00     0.117 C 
BRANCH  21  22
ATOM     22  C   UNL A   1      31.297  31.514  26.555  1.00  0.00     0.042 C 
BRANCH  22  23
ATOM     23  C   UNL A   1      32.606  32.204  26.926  1.00  0.00     0.118 C 
BRANCH  23  24
ATOM     24  N   UNL A   1      32.413  33.550  27.431  1.00  0.00    -0.352 N 
ATOM     25  C   UNL A   1      33.136  34.260  28.358  1.00  0.00     0.251 C 
ATOM     26  H   UNL A   1      31.642  34.029  27.050  1.00  0.00     0.163 HD
ATOM     27  O   UNL A   1      32.691  35.322  28.783  1.00  0.00    -0.269 OA
BRANCH  25  28
ATOM     28  C   UNL A   1      34.432  33.756  28.870  1.00  0.00     0.039 A 
ATOM     29  C   UNL A   1      34.428  32.962  30.020  1.00  0.00     0.014 A 
ATOM     30  C   UNL A   1      35.646  34.094  28.267  1.00  0.00     0.014 A 
ATOM     31  C   UNL A   1      35.630  32.466  30.534  1.00  0.00     0.010 A 
ATOM     32  C   UNL A   1      36.840  33.541  28.739  1.00  0.00     0.010 A 
ATOM     33  C   UNL A   1      36.845  32.724  29.880  1.00  0.00    -0.014 A 
BRANCH  33  34
ATOM     34  C   UNL A   1      38.120  32.140  30.382  1.00  0.00     0.031 A 
ATOM     35  C   UNL A   1      38.642  30.840  29.829  1.00  0.00     0.074 A 
ATOM     36  C   UNL A   1      38.796  32.761  31.369  1.00  0.00     0.049 A 
ATOM     37  N   UNL A   1      39.718  30.173  30.165  1.00  0.00    -0.248 NA
ATOM     38  C   UNL A   1      37.842  30.196  28.775  1.00  0.00     0.031 C 
ATOM     39  C   UNL A   1      38.391  34.011  32.016  1.00  0.00     0.029 A 
ATOM     40  N   UNL A   1      39.967  32.426  32.003  1.00  0.00    -0.354 N 
ATOM     41  C   UNL A   1      39.718  29.029  29.375  1.00  0.00     0.074 A 
ATOM     42  C   UNL A   1      38.509  29.068  28.581  1.00  0.00     0.031 C 
ATOM     43  C   UNL A   1      39.315  34.353  32.929  1.00  0.00     0.029 A 
ATOM     44  C   UNL A   1      40.350  33.326  32.968  1.00  0.00     0.049 A 
ATOM     45  H   UNL A   1      40.484  31.616  31.786  1.00  0.00     0.167 HD
ATOM     46  C   UNL A   1      40.647  28.044  29.301  1.00  0.00     0.031 A 
ATOM     47  C   UNL A   1      41.412  33.326  33.797  1.00  0.00     0.031 A 
ATOM     48  C   UNL A   1      41.852  28.002  30.087  1.00  0.00     0.049 A 
ATOM     49  C   UNL A   1      42.409  32.203  33.720  1.00  0.00     0.074 A 
ATOM     50  C   UNL A   1      42.875  27.069  30.047  1.00  0.00     0.029 A 
ATOM     51  N   UNL A   1      42.194  28.927  31.062  1.00  0.00    -0.354 N 
ATOM     52  N   UNL A   1      42.426  31.165  32.920  1.00  0.00    -0.248 NA
ATOM     53  C   UNL A   1      43.543  32.261  34.655  1.00  0.00     0.031 C 
ATOM     54  C   UNL A   1      43.804  27.395  31.039  1.00  0.00     0.029 A 
ATOM     55  C   UNL A   1      43.396  28.569  31.651  1.00  0.00     0.049 A 
ATOM     56  H   UNL A   1      41.661  29.720  31.300  1.00  0.00     0.167 HD
ATOM     57  C   UNL A   1      43.583  30.464  33.234  1.00  0.00     0.074 A 
ATOM     58  C   UNL A   1      44.252  31.205  34.283  1.00  0.00     0.031 C 
ATOM     59  C   UNL A   1      44.052  29.311  32.698  1.00  0.00     0.031 A 
BRANCH  46  60
ATOM     60  C   UNL A   1      40.388  26.915  28.338  1.00  0.00    -0.014 A 
ATOM     61  C   UNL A   1      39.616  25.802  28.710  1.00  0.00     0.009 A 
ATOM     62  C   UNL A   1      40.886  26.986  27.028  1.00  0.00     0.009 A 
ATOM     63  C   UNL A   1      39.384  24.767  27.801  1.00  0.00     0.001 A 
ATOM     64  C   UNL A   1      40.625  25.966  26.113  1.00  0.00     0.001 A 
ATOM     65  C   UNL A   1      39.884  24.852  26.503  1.00  0.00     0.000 A 
ENDBRANCH  46  60
BRANCH  47  66
ATOM     66  C   UNL A   1      41.594  34.432  34.775  1.00  0.00    -0.014 A 
ATOM     67  C   UNL A   1      41.073  34.329  36.075  1.00  0.00     0.009 A 
ATOM     68  C   UNL A   1      42.275  35.603  34.410  1.00  0.00     0.009 A 
ATOM     69  C   UNL A   1      41.204  35.388  36.976  1.00  0.00     0.001 A 
ATOM     70  C   UNL A   1      42.434  36.647  35.325  1.00  0.00     0.001 A 
ATOM     71  C   UNL A   1      41.888  36.544  36.602  1.00  0.00     0.000 A 
ENDBRANCH  47  66
BRANCH  59  72
ATOM     72  C   UNL A   1      45.371  28.797  33.208  1.00  0.00    -0.014 A 
ATOM     73  C   UNL A   1      45.446  27.950  34.325  1.00  0.00     0.009 A 
ATOM     74  C   UNL A   1      46.555  29.139  32.536  1.00  0.00     0.009 A 
ATOM     75  C   UNL A   1      46.683  27.489  34.780  1.00  0.00     0.001 A 
ATOM     76  C   UNL A   1      47.787  28.649  32.972  1.00  0.00     0.001 A 
ATOM     77  C   UNL A   1      47.851  27.833  34.100  1.00  0.00     0.000 A 
ENDBRANCH  59  72
ENDBRANCH  33  34
ENDBRANCH  25  28
ENDBRANCH  23  24
ENDBRANCH  22  23
ENDBRANCH  21  22
ENDBRANCH   3  21
TORSDOF 15
ENDMDL
MODEL 3
REMARK VINA RESULT:      -8.2      5.200     10.207
REMARK SMILES O=C(CCCS(=O)(=O)Nc1ccc(Cl)cc1F)NCCCNC(=O)c1ccc(-c2c3nc(c(-c4ccccc4)c4ccc([nH]4)c(-c4ccccc4)c4nc(c(-c5ccccc5)c5ccc2[nH]5)C=C4)C=C3)cc1
REMARK SMILES IDX 1 1 2 2 18 3 3 5 4 6 5 7 6 8 7 9 8 10 9 11 10 13 11 14 16 15
REMARK SMILES IDX 12 16 15 17 17 18 13 19 14 20 19 21 20 22 21 23 22 24 23 25
REMARK SMILES IDX 24 27 25 28 26 29 72 30 27 31 71 32 28 33 29 34 30 35 65 36
REMARK SMILES IDX 31 37 70 38 64 39 66 40 32 41 69 42 63 43 62 44 33 46 55 47
REMARK SMILES IDX 40 48 54 49 41 50 44 51 53 52 67 53 42 54 43 55 52 57 68 58
REMARK SMILES IDX 45 59 34 60 35 61 39 62 36 63 38 64 37 65 56 66 57 67 61 68
REMARK SMILES IDX 58 69 60 70 59 71 46 72 47 73 51 74 48 75 50 76 49 77
REMARK H PARENT 18 4 9 12 22 26 66 45 44 56
REMARK Flexibility Score: inf
ROOT
ATOM      1  O   UNL A   1      29.960  26.183  25.352  1.00  0.00    -0.275 OA
ATOM      2  C   UNL A   1      30.371  27.243  24.894  1.00  0.00     0.220 C 
ATOM      3  N   UNL A   1      31.326  28.008  25.526  1.00  0.00    -0.356 N 
ATOM      4  H   UNL A   1      31.649  28.833  25.095  1.00  0.00     0.163 HD
ENDROOT
BRANCH   2   5
ATOM      5  C   UNL A   1      29.885  27.786  23.564  1.00  0.00     0.101 C 
BRANCH   5   6
ATOM      6  C   UNL A   1      30.774  27.511  22.360  1.00  0.00     0.028 C 
BRANCH   6   7
ATOM      7  C   UNL A   1      31.342  26.104  22.177  1.00  0.00     0.160 C 
BRANCH   7   8
ATOM      8  S   UNL A   1      33.105  25.876  22.470  1.00  0.00     0.232 S 
ATOM      9  O   UNL A   1      33.831  25.914  21.229  1.00  0.00    -0.207 OA
ATOM     10  O   UNL A   1      33.441  26.810  23.532  1.00  0.00    -0.207 OA
BRANCH   8  11
ATOM     11  N   UNL A   1      33.258  24.403  23.239  1.00  0.00    -0.281 N 
ATOM     12  H   UNL A   1      32.493  23.792  23.139  1.00  0.00     0.180 HD
BRANCH  11  13
ATOM     13  C   UNL A   1      34.342  23.902  24.022  1.00  0.00     0.084 A 
ATOM     14  C   UNL A   1      35.362  23.281  23.289  1.00  0.00     0.031 A 
ATOM     15  C   UNL A   1      34.525  24.045  25.400  1.00  0.00     0.148 A 
ATOM     16  C   UNL A   1      36.603  23.011  23.875  1.00  0.00     0.023 A 
ATOM     17  C   UNL A   1      35.761  23.782  25.993  1.00  0.00     0.062 A 
ATOM     18  F   UNL A   1      33.571  24.540  26.191  1.00  0.00    -0.205 F 
ATOM     19  C   UNL A   1      36.812  23.313  25.216  1.00  0.00     0.044 A 
ATOM     20  Cl  UNL A   1      38.378  23.143  25.897  1.00  0.00    -0.084 Cl
ENDBRANCH  11  13
ENDBRANCH   8  11
ENDBRANCH   7   8
ENDBRANCH   6   7
ENDBRANCH   5   6
ENDBRANCH   2   5
BRANCH   3  21
ATOM     21  C   UNL A   1      31.864  27.618  26.813  1.00  0.00     0.117 C 
BRANCH  21  22
ATOM     22  C   UNL A   1      33.371  27.818  26.949  1.00  0.00     0.042 C 
BRANCH  22  23
ATOM     23  C   UNL A   1      33.940  29.035  26.227  1.00  0.00     0.118 C 
BRANCH  23  24
ATOM     24  N   UNL A   1      33.756  30.269  26.967  1.00  0.00    -0.352 N 
ATOM     25  C   UNL A   1      34.526  30.831  27.955  1.00  0.00     0.251 C 
ATOM     26  H   UNL A   1      32.952  30.783  26.724  1.00  0.00     0.163 HD
ATOM     27  O   UNL A   1      34.091  31.792  28.584  1.00  0.00    -0.269 OA
BRANCH  25  28
ATOM     28  C   UNL A   1      35.862  30.286  28.290  1.00  0.00     0.039 A 
ATOM     29  C   UNL A   1      36.870  30.357  27.324  1.00  0.00     0.014 A 
ATOM     30  C   UNL A   1      36.120  29.662  29.514  1.00  0.00     0.014 A 
ATOM     31  C   UNL A   1      38.145  29.854  27.603  1.00  0.00     0.010 A 
ATOM     32  C   UNL A   1      37.411  29.225  29.818  1.00  0.00     0.010 A 
ATOM     33  C   UNL A   1      38.437  29.312  28.865  1.00  0.00    -0.014 A 
BRANCH  33  34
ATOM     34  C   UNL A   1      39.811  28.840  29.192  1.00  0.00     0.031 A 
ATOM     35  C   UNL A   1      40.774  29.729  29.934  1.00  0.00     0.074 A 
ATOM     36  C   UNL A   1      40.212  27.619  28.787  1.00  0.00     0.049 A 
ATOM     37  N   UNL A   1      42.016  29.493  30.280  1.00  0.00    -0.248 NA
ATOM     38  C   UNL A   1      40.287  31.062  30.322  1.00  0.00     0.031 C 
ATOM     39  C   UNL A   1      39.393  26.665  28.036  1.00  0.00     0.029 A 
ATOM     40  N   UNL A   1      41.411  26.969  28.948  1.00  0.00    -0.354 N 
ATOM     41  C   UNL A   1      42.459  30.649  30.914  1.00  0.00     0.074 A 
ATOM     42  C   UNL A   1      41.372  31.601  30.858  1.00  0.00     0.031 C 
ATOM     43  C   UNL A   1      40.101  25.542  27.832  1.00  0.00     0.029 A 
ATOM     44  C   UNL A   1      41.437  25.712  28.393  1.00  0.00     0.049 A 
ATOM     45  H   UNL A   1      42.180  27.366  29.418  1.00  0.00     0.167 HD
ATOM     46  C   UNL A   1      43.655  30.891  31.505  1.00  0.00     0.031 A 
ATOM     47  C   UNL A   1      42.425  24.797  28.335  1.00  0.00     0.031 A 
ATOM     48  C   UNL A   1      44.739  29.946  31.565  1.00  0.00     0.049 A 
ATOM     49  C   UNL A   1      43.754  25.105  28.967  1.00  0.00     0.074 A 
ATOM     50  C   UNL A   1      45.970  30.085  32.184  1.00  0.00     0.029 A 
ATOM     51  N   UNL A   1      44.728  28.690  30.978  1.00  0.00    -0.354 N 
ATOM     52  N   UNL A   1      44.132  26.177  29.619  1.00  0.00    -0.248 NA
ATOM     53  C   UNL A   1      44.790  24.067  28.866  1.00  0.00     0.031 C 
ATOM     54  C   UNL A   1      46.726  28.939  31.919  1.00  0.00     0.029 A 
ATOM     55  C   UNL A   1      45.941  28.057  31.194  1.00  0.00     0.049 A 
ATOM     56  H   UNL A   1      43.970  28.306  30.481  1.00  0.00     0.167 HD
ATOM     57  C   UNL A   1      45.435  25.931  30.031  1.00  0.00     0.074 A 
ATOM     58  C   UNL A   1      45.776  24.600  29.571  1.00  0.00     0.031 C 
ATOM     59  C   UNL A   1      46.274  26.734  30.729  1.00  0.00     0.031 A 
BRANCH  46  60
ATOM     60  C   UNL A   1      43.860  32.247  32.128  1.00  0.00    -0.014 A 
ATOM     61  C   UNL A   1      44.462  33.295  31.414  1.00  0.00     0.009 A 
ATOM     62  C   UNL A   1      43.405  32.491  33.434  1.00  0.00     0.009 A 
ATOM     63  C   UNL A   1      44.640  34.547  32.009  1.00  0.00     0.001 A 
ATOM     64  C   UNL A   1      43.555  33.752  34.013  1.00  0.00     0.001 A 
ATOM     65  C   UNL A   1      44.182  34.775  33.305  1.00  0.00     0.000 A 
ENDBRANCH  46  60
BRANCH  47  66
ATOM     66  C   UNL A   1      42.195  23.495  27.654  1.00  0.00    -0.014 A 
ATOM     67  C   UNL A   1      42.529  23.328  26.300  1.00  0.00     0.009 A 
ATOM     68  C   UNL A   1      41.627  22.416  28.348  1.00  0.00     0.009 A 
ATOM     69  C   UNL A   1      42.269  22.119  25.651  1.00  0.00     0.001 A 
ATOM     70  C   UNL A   1      41.399  21.198  27.705  1.00  0.00     0.001 A 
ATOM     71  C   UNL A   1      41.709  21.054  26.355  1.00  0.00     0.000 A 
ENDBRANCH  47  66
BRANCH  59  72
ATOM     72  C   UNL A   1      47.630  26.184  31.076  1.00  0.00    -0.014 A 
ATOM     73  C   UNL A   1      47.887  25.597  32.326  1.00  0.00     0.009 A 
ATOM     74  C   UNL A   1      48.659  26.222  30.122  1.00  0.00     0.009 A 
ATOM     75  C   UNL A   1      49.156  25.096  32.623  1.00  0.00     0.001 A 
ATOM     76  C   UNL A   1      49.916  25.690  30.409  1.00  0.00     0.001 A 
ATOM     77  C   UNL A   1      50.167  25.137  31.664  1.00  0.00     0.000 A 
ENDBRANCH  59  72
ENDBRANCH  33  34
ENDBRANCH  25  28
ENDBRANCH  23  24
ENDBRANCH  22  23
ENDBRANCH  21  22
ENDBRANCH   3  21
TORSDOF 15
ENDMDL
