MODEL 1
REMARK VINA RESULT:     -10.9      0.000      0.000
REMARK SMILES O=C(NCCCNC(=O)c1ccc(-c2c(F)cccc2F)cn1)c1ccc(-c2c3nc(c(-c4ccccc4)c4ccc([nH]4)c(-c4ccccc4)c4nc(c(-c5ccccc5)c5ccc2[nH]5)C=C4)C=C3)cc1
REMARK SMILES IDX 4 1 3 2 1 3 2 4 24 6 25 7 71 8 26 9 70 10 27 11 28 12 29 13
REMARK SMILES IDX 64 14 30 15 69 16 63 17 65 18 31 19 68 20 62 21 61 22 32 24
REMARK SMILES IDX 54 25 39 26 53 27 40 28 43 29 52 30 66 31 41 32 42 33 51 35
REMARK SMILES IDX 67 36 44 37 33 38 34 39 38 40 35 41 37 42 36 43 55 44 56 45
REMARK SMILES IDX 60 46 57 47 59 48 58 49 45 50 46 51 50 52 47 53 49 54 48 55
REMARK SMILES IDX 5 56 6 57 7 58 8 59 9 61 10 62 11 63 23 64 12 65 22 66 13 67
REMARK SMILES IDX 14 68 15 69 20 70 16 71 17 72 19 73 21 74 18 75
REMARK H PARENT 3 5 65 23 43 34 7 60
REMARK Flexibility Score: inf
ROOT
ATOM      1  C   UNL A   1      33.669  28.426  27.260  1.00  0.00     0.118 C 
ENDROOT
BRANCH   1   2
ATOM      2  N   UNL A   1      33.627  29.857  27.532  1.00  0.00    -0.352 N 
ATOM      3  O   UNL A   1      34.241  31.822  28.445  1.00  0.00    -0.269 OA
ATOM      4  C   UNL A   1      34.553  30.671  28.130  1.00  0.00     0.251 C 
ATOM      5  H   UNL A   1      32.804  30.311  27.239  1.00  0.00     0.163 HD
BRANCH   4   6
ATOM      6  C   UNL A   1      35.914  30.178  28.419  1.00  0.00     0.039 A 
ATOM      7  C   UNL A   1      36.240  29.658  29.674  1.00  0.00     0.014 A 
ATOM      8  C   UNL A   1      36.873  30.202  27.402  1.00  0.00     0.014 A 
ATOM      9  C   UNL A   1      37.553  29.298  29.958  1.00  0.00     0.010 A 
ATOM     10  C   UNL A   1      38.169  29.754  27.662  1.00  0.00     0.010 A 
ATOM     11  C   UNL A   1      38.526  29.325  28.949  1.00  0.00    -0.014 A 
BRANCH  11  12
ATOM     12  C   UNL A   1      39.898  28.837  29.228  1.00  0.00     0.031 A 
ATOM     13  C   UNL A   1      40.925  29.738  29.847  1.00  0.00     0.074 A 
ATOM     14  C   UNL A   1      40.223  27.577  28.882  1.00  0.00     0.049 A 
ATOM     15  N   UNL A   1      42.191  29.505  30.083  1.00  0.00    -0.248 NA
ATOM     16  C   UNL A   1      40.475  31.081  30.243  1.00  0.00     0.031 C 
ATOM     17  C   UNL A   1      39.311  26.607  28.271  1.00  0.00     0.029 A 
ATOM     18  N   UNL A   1      41.412  26.900  28.980  1.00  0.00    -0.354 N 
ATOM     19  C   UNL A   1      42.698  30.677  30.628  1.00  0.00     0.074 A 
ATOM     20  C   UNL A   1      41.606  31.628  30.666  1.00  0.00     0.031 C 
ATOM     21  C   UNL A   1      39.969  25.459  28.060  1.00  0.00     0.029 A 
ATOM     22  C   UNL A   1      41.362  25.634  28.454  1.00  0.00     0.049 A 
ATOM     23  H   UNL A   1      42.221  27.285  29.388  1.00  0.00     0.167 HD
ATOM     24  C   UNL A   1      43.957  30.936  31.053  1.00  0.00     0.031 A 
ATOM     25  C   UNL A   1      42.334  24.723  28.266  1.00  0.00     0.031 A 
ATOM     26  C   UNL A   1      45.039  29.987  30.999  1.00  0.00     0.049 A 
ATOM     27  C   UNL A   1      43.732  25.047  28.698  1.00  0.00     0.074 A 
ATOM     28  C   UNL A   1      46.340  30.137  31.445  1.00  0.00     0.029 A 
ATOM     29  N   UNL A   1      44.948  28.716  30.449  1.00  0.00    -0.354 N 
ATOM     30  N   UNL A   1      44.188  26.144  29.254  1.00  0.00    -0.248 NA
ATOM     31  C   UNL A   1      44.751  24.011  28.481  1.00  0.00     0.031 C 
ATOM     32  C   UNL A   1      47.053  28.983  31.103  1.00  0.00     0.029 A 
ATOM     33  C   UNL A   1      46.179  28.085  30.510  1.00  0.00     0.049 A 
ATOM     34  H   UNL A   1      44.129  28.321  30.071  1.00  0.00     0.167 HD
ATOM     35  C   UNL A   1      45.539  25.922  29.477  1.00  0.00     0.074 A 
ATOM     36  C   UNL A   1      45.828  24.584  29.002  1.00  0.00     0.031 C 
ATOM     37  C   UNL A   1      46.454  26.753  30.032  1.00  0.00     0.031 A 
BRANCH  24  38
ATOM     38  C   UNL A   1      44.242  32.322  31.567  1.00  0.00    -0.014 A 
ATOM     39  C   UNL A   1      44.662  33.355  30.714  1.00  0.00     0.009 A 
ATOM     40  C   UNL A   1      44.075  32.600  32.934  1.00  0.00     0.009 A 
ATOM     41  C   UNL A   1      44.958  34.621  31.227  1.00  0.00     0.001 A 
ATOM     42  C   UNL A   1      44.340  33.875  33.439  1.00  0.00     0.001 A 
ATOM     43  C   UNL A   1      44.795  34.880  32.588  1.00  0.00     0.000 A 
ENDBRANCH  24  38
BRANCH  25  44
ATOM     44  C   UNL A   1      41.999  23.435  27.608  1.00  0.00    -0.014 A 
ATOM     45  C   UNL A   1      42.251  23.239  26.244  1.00  0.00     0.009 A 
ATOM     46  C   UNL A   1      41.482  22.369  28.365  1.00  0.00     0.009 A 
ATOM     47  C   UNL A   1      41.985  22.004  25.648  1.00  0.00     0.001 A 
ATOM     48  C   UNL A   1      41.247  21.128  27.774  1.00  0.00     0.001 A 
ATOM     49  C   UNL A   1      41.493  20.947  26.414  1.00  0.00     0.000 A 
ENDBRANCH  25  44
BRANCH  37  50
ATOM     50  C   UNL A   1      47.853  26.231  30.200  1.00  0.00    -0.014 A 
ATOM     51  C   UNL A   1      48.786  26.290  29.154  1.00  0.00     0.009 A 
ATOM     52  C   UNL A   1      48.262  25.742  31.451  1.00  0.00     0.009 A 
ATOM     53  C   UNL A   1      50.098  25.854  29.356  1.00  0.00     0.001 A 
ATOM     54  C   UNL A   1      49.580  25.336  31.658  1.00  0.00     0.001 A 
ATOM     55  C   UNL A   1      50.496  25.386  30.609  1.00  0.00     0.000 A 
ENDBRANCH  37  50
ENDBRANCH  11  12
ENDBRANCH   4   6
ENDBRANCH   1   2
BRANCH   1  56
ATOM     56  C   UNL A   1      32.318  27.871  26.832  1.00  0.00     0.042 C 
BRANCH  56  57
ATOM     57  C   UNL A   1      32.037  28.007  25.343  1.00  0.00     0.118 C 
BRANCH  57  58
ATOM     58  N   UNL A   1      30.974  27.121  24.900  1.00  0.00    -0.351 N 
ATOM     59  C   UNL A   1      31.040  25.801  24.511  1.00  0.00     0.269 C 
ATOM     60  H   UNL A   1      30.076  27.522  24.872  1.00  0.00     0.163 HD
ATOM     61  O   UNL A   1      30.046  25.277  24.015  1.00  0.00    -0.268 OA
BRANCH  59  62
ATOM     62  C   UNL A   1      32.291  25.024  24.726  1.00  0.00     0.128 A 
ATOM     63  C   UNL A   1      32.552  24.464  25.970  1.00  0.00     0.035 A 
ATOM     64  N   UNL A   1      33.112  24.886  23.659  1.00  0.00    -0.250 NA
ATOM     65  C   UNL A   1      33.741  23.762  26.143  1.00  0.00     0.013 A 
ATOM     66  C   UNL A   1      34.242  24.165  23.854  1.00  0.00     0.120 A 
ATOM     67  C   UNL A   1      34.622  23.580  25.067  1.00  0.00     0.006 A 
BRANCH  67  68
ATOM     68  C   UNL A   1      35.858  22.793  25.206  1.00  0.00     0.055 A 
ATOM     69  C   UNL A   1      35.921  21.450  24.804  1.00  0.00     0.134 A 
ATOM     70  C   UNL A   1      37.034  23.341  25.739  1.00  0.00     0.134 A 
ATOM     71  F   UNL A   1      34.842  20.850  24.274  1.00  0.00    -0.206 F 
ATOM     72  C   UNL A   1      37.087  20.692  24.920  1.00  0.00     0.040 A 
ATOM     73  C   UNL A   1      38.210  22.597  25.862  1.00  0.00     0.040 A 
ATOM     74  F   UNL A   1      37.054  24.614  26.163  1.00  0.00    -0.206 F 
ATOM     75  C   UNL A   1      38.238  21.267  25.450  1.00  0.00     0.006 A 
ENDBRANCH  67  68
ENDBRANCH  59  62
ENDBRANCH  57  58
ENDBRANCH  56  57
ENDBRANCH   1  56
TORSDOF 11
ENDMDL
MODEL 2
REMARK VINA RESULT:     -10.8      2.610      7.545
REMARK SMILES O=C(NCCCNC(=O)c1ccc(-c2c(F)cccc2F)cn1)c1ccc(-c2c3nc(c(-c4ccccc4)c4ccc([nH]4)c(-c4ccccc4)c4nc(c(-c5ccccc5)c5ccc2[nH]5)C=C4)C=C3)cc1
REMARK SMILES IDX 4 1 3 2 1 3 2 4 24 6 25 7 71 8 26 9 70 10 27 11 28 12 29 13
REMARK SMILES IDX 64 14 30 15 69 16 63 17 65 18 31 19 68 20 62 21 61 22 32 24
REMARK SMILES IDX 54 25 39 26 53 27 40 28 43 29 52 30 66 31 41 32 42 33 51 35
REMARK SMILES IDX 67 36 44 37 33 38 34 39 38 40 35 41 37 42 36 43 55 44 56 45
REMARK SMILES IDX 60 46 57 47 59 48 58 49 45 50 46 51 50 52 47 53 49 54 48 55
REMARK SMILES IDX 5 56 6 57 7 58 8 59 9 61 10 62 11 63 23 64 12 65 22 66 13 67
REMARK SMILES IDX 14 68 15 69 20 70 16 71 17 72 19 73 21 74 18 75
REMARK H PARENT 3 5 65 23 43 34 7 60
REMARK Flexibility Score: inf
ROOT
ATOM      1  C   UNL A   1      38.790  20.195  25.559  1.00  0.00     0.118 C 
ENDROOT
BRANCH   1   2
ATOM      2  N   UNL A   1      39.917  19.282  25.697  1.00  0.00    -0.352 N 
ATOM      3  O   UNL A   1      42.065  18.645  25.921  1.00  0.00    -0.269 OA
ATOM      4  C   UNL A   1      41.215  19.528  26.059  1.00  0.00     0.251 C 
ATOM      5  H   UNL A   1      39.714  18.339  25.497  1.00  0.00     0.163 HD
BRANCH   4   6
ATOM      6  C   UNL A   1      41.611  20.845  26.596  1.00  0.00     0.039 A 
ATOM      7  C   UNL A   1      41.605  21.095  27.970  1.00  0.00     0.014 A 
ATOM      8  C   UNL A   1      42.032  21.839  25.707  1.00  0.00     0.014 A 
ATOM      9  C   UNL A   1      41.878  22.372  28.447  1.00  0.00     0.010 A 
ATOM     10  C   UNL A   1      42.396  23.094  26.195  1.00  0.00     0.010 A 
ATOM     11  C   UNL A   1      42.294  23.380  27.565  1.00  0.00    -0.014 A 
BRANCH  11  12
ATOM     12  C   UNL A   1      42.690  24.708  28.090  1.00  0.00     0.031 A 
ATOM     13  C   UNL A   1      41.663  25.773  28.346  1.00  0.00     0.074 A 
ATOM     14  C   UNL A   1      43.996  24.962  28.302  1.00  0.00     0.049 A 
ATOM     15  N   UNL A   1      41.839  27.013  28.724  1.00  0.00    -0.248 NA
ATOM     16  C   UNL A   1      40.256  25.398  28.140  1.00  0.00     0.031 C 
ATOM     17  C   UNL A   1      45.086  24.008  28.088  1.00  0.00     0.029 A 
ATOM     18  N   UNL A   1      44.628  26.101  28.729  1.00  0.00    -0.354 N 
ATOM     19  C   UNL A   1      40.571  27.577  28.774  1.00  0.00     0.074 A 
ATOM     20  C   UNL A   1      39.637  26.549  28.365  1.00  0.00     0.031 C 
ATOM     21  C   UNL A   1      46.250  24.597  28.396  1.00  0.00     0.029 A 
ATOM     22  C   UNL A   1      45.995  25.986  28.759  1.00  0.00     0.049 A 
ATOM     23  H   UNL A   1      44.148  26.921  28.989  1.00  0.00     0.167 HD
ATOM     24  C   UNL A   1      40.220  28.838  29.125  1.00  0.00     0.031 A 
ATOM     25  C   UNL A   1      46.947  26.903  29.008  1.00  0.00     0.031 A 
ATOM     26  C   UNL A   1      41.159  29.857  29.517  1.00  0.00     0.049 A 
ATOM     27  C   UNL A   1      46.540  28.306  29.345  1.00  0.00     0.074 A 
ATOM     28  C   UNL A   1      40.901  31.152  29.933  1.00  0.00     0.029 A 
ATOM     29  N   UNL A   1      42.537  29.702  29.525  1.00  0.00    -0.354 N 
ATOM     30  N   UNL A   1      45.335  28.814  29.434  1.00  0.00    -0.248 NA
ATOM     31  C   UNL A   1      47.622  29.262  29.622  1.00  0.00     0.031 C 
ATOM     32  C   UNL A   1      42.126  31.799  30.127  1.00  0.00     0.029 A 
ATOM     33  C   UNL A   1      43.146  30.887  29.902  1.00  0.00     0.049 A 
ATOM     34  H   UNL A   1      43.014  28.870  29.296  1.00  0.00     0.167 HD
ATOM     35  C   UNL A   1      45.509  30.141  29.799  1.00  0.00     0.074 A 
ATOM     36  C   UNL A   1      46.937  30.357  29.923  1.00  0.00     0.031 C 
ATOM     37  C   UNL A   1      44.567  31.090  30.019  1.00  0.00     0.031 A 
BRANCH  24  38
ATOM     38  C   UNL A   1      38.760  29.195  29.048  1.00  0.00    -0.014 A 
ATOM     39  C   UNL A   1      37.919  29.106  30.169  1.00  0.00     0.009 A 
ATOM     40  C   UNL A   1      38.220  29.642  27.831  1.00  0.00     0.009 A 
ATOM     41  C   UNL A   1      36.558  29.406  30.057  1.00  0.00     0.001 A 
ATOM     42  C   UNL A   1      36.868  29.974  27.731  1.00  0.00     0.001 A 
ATOM     43  C   UNL A   1      36.035  29.842  28.840  1.00  0.00     0.000 A 
ENDBRANCH  24  38
BRANCH  25  44
ATOM     44  C   UNL A   1      48.375  26.505  28.911  1.00  0.00    -0.014 A 
ATOM     45  C   UNL A   1      49.046  25.966  30.017  1.00  0.00     0.009 A 
ATOM     46  C   UNL A   1      49.054  26.606  27.685  1.00  0.00     0.009 A 
ATOM     47  C   UNL A   1      50.371  25.542  29.899  1.00  0.00     0.001 A 
ATOM     48  C   UNL A   1      50.368  26.153  27.563  1.00  0.00     0.001 A 
ATOM     49  C   UNL A   1      51.028  25.627  28.672  1.00  0.00     0.000 A 
ENDBRANCH  25  44
BRANCH  37  50
ATOM     50  C   UNL A   1      45.041  32.447  30.458  1.00  0.00    -0.014 A 
ATOM     51  C   UNL A   1      45.289  32.734  31.809  1.00  0.00     0.009 A 
ATOM     52  C   UNL A   1      45.315  33.428  29.491  1.00  0.00     0.009 A 
ATOM     53  C   UNL A   1      45.788  33.985  32.182  1.00  0.00     0.001 A 
ATOM     54  C   UNL A   1      45.841  34.664  29.865  1.00  0.00     0.001 A 
ATOM     55  C   UNL A   1      46.072  34.944  31.210  1.00  0.00     0.000 A 
ENDBRANCH  37  50
ENDBRANCH  11  12
ENDBRANCH   4   6
ENDBRANCH   1   2
BRANCH   1  56
ATOM     56  C   UNL A   1      37.579  19.538  24.913  1.00  0.00     0.042 C 
BRANCH  56  57
ATOM     57  C   UNL A   1      36.319  20.389  24.950  1.00  0.00     0.118 C 
BRANCH  57  58
ATOM     58  N   UNL A   1      35.109  19.585  24.920  1.00  0.00    -0.351 N 
ATOM     59  C   UNL A   1      33.818  19.936  25.247  1.00  0.00     0.269 C 
ATOM     60  H   UNL A   1      35.229  18.654  24.624  1.00  0.00     0.163 HD
ATOM     61  O   UNL A   1      32.960  19.058  25.307  1.00  0.00    -0.268 OA
BRANCH  59  62
ATOM     62  C   UNL A   1      33.472  21.364  25.486  1.00  0.00     0.128 A 
ATOM     63  C   UNL A   1      33.450  21.862  26.782  1.00  0.00     0.035 A 
ATOM     64  N   UNL A   1      33.215  22.118  24.392  1.00  0.00    -0.250 NA
ATOM     65  C   UNL A   1      33.102  23.196  26.971  1.00  0.00     0.013 A 
ATOM     66  C   UNL A   1      32.916  23.421  24.612  1.00  0.00     0.120 A 
ATOM     67  C   UNL A   1      32.836  24.025  25.872  1.00  0.00     0.006 A 
BRANCH  67  68
ATOM     68  C   UNL A   1      32.523  25.452  26.039  1.00  0.00     0.055 A 
ATOM     69  C   UNL A   1      33.525  26.435  25.990  1.00  0.00     0.134 A 
ATOM     70  C   UNL A   1      31.213  25.908  26.250  1.00  0.00     0.134 A 
ATOM     71  F   UNL A   1      34.805  26.086  25.783  1.00  0.00    -0.206 F 
ATOM     72  C   UNL A   1      33.243  27.793  26.137  1.00  0.00     0.040 A 
ATOM     73  C   UNL A   1      30.914  27.264  26.398  1.00  0.00     0.040 A 
ATOM     74  F   UNL A   1      30.199  25.033  26.326  1.00  0.00    -0.206 F 
ATOM     75  C   UNL A   1      31.932  28.212  26.341  1.00  0.00     0.006 A 
ENDBRANCH  67  68
ENDBRANCH  59  62
ENDBRANCH  57  58
ENDBRANCH  56  57
ENDBRANCH   1  56
TORSDOF 11
ENDMDL
MODEL 3
REMARK VINA RESULT:     -10.8      2.701      7.879
REMARK SMILES O=C(NCCCNC(=O)c1ccc(-c2c(F)cccc2F)cn1)c1ccc(-c2c3nc(c(-c4ccccc4)c4ccc([nH]4)c(-c4ccccc4)c4nc(c(-c5ccccc5)c5ccc2[nH]5)C=C4)C=C3)cc1
REMARK SMILES IDX 4 1 3 2 1 3 2 4 24 6 25 7 71 8 26 9 70 10 27 11 28 12 29 13
REMARK SMILES IDX 64 14 30 15 69 16 63 17 65 18 31 19 68 20 62 21 61 22 32 24
REMARK SMILES IDX 54 25 39 26 53 27 40 28 43 29 52 30 66 31 41 32 42 33 51 35
REMARK SMILES IDX 67 36 44 37 33 38 34 39 38 40 35 41 37 42 36 43 55 44 56 45
REMARK SMILES IDX 60 46 57 47 59 48 58 49 45 50 46 51 50 52 47 53 49 54 48 55
REMARK SMILES IDX 5 56 6 57 7 58 8 59 9 61 10 62 11 63 23 64 12 65 22 66 13 67
REMARK SMILES IDX 14 68 15 69 20 70 16 71 17 72 19 73 21 74 18 75
REMARK H PARENT 3 5 65 23 43 34 7 60
REMARK Flexibility Score: inf
ROOT
ATOM      1  C   UNL A   1      37.066  23.741  25.232  1.00  0.00     0.118 C 
ENDROOT
BRANCH   1   2
ATOM      2  N   UNL A   1      38.102  22.763  25.537  1.00  0.00    -0.352 N 
ATOM      3  O   UNL A   1      40.132  22.001  26.145  1.00  0.00    -0.269 OA
ATOM      4  C   UNL A   1      39.311  22.921  26.162  1.00  0.00     0.251 C 
ATOM      5  H   UNL A   1      37.902  21.843  25.249  1.00  0.00     0.163 HD
BRANCH   4   6
ATOM      6  C   UNL A   1      39.648  24.189  26.840  1.00  0.00     0.039 A 
ATOM      7  C   UNL A   1      39.290  24.412  28.172  1.00  0.00     0.014 A 
ATOM      8  C   UNL A   1      40.372  25.159  26.140  1.00  0.00     0.014 A 
ATOM      9  C   UNL A   1      39.523  25.652  28.757  1.00  0.00     0.010 A 
ATOM     10  C   UNL A   1      40.687  26.369  26.759  1.00  0.00     0.010 A 
ATOM     11  C   UNL A   1      40.240  26.635  28.062  1.00  0.00    -0.014 A 
BRANCH  11  12
ATOM     12  C   UNL A   1      40.582  27.914  28.730  1.00  0.00     0.031 A 
ATOM     13  C   UNL A   1      41.912  28.103  29.398  1.00  0.00     0.074 A 
ATOM     14  C   UNL A   1      39.663  28.898  28.761  1.00  0.00     0.049 A 
ATOM     15  N   UNL A   1      42.346  29.121  30.098  1.00  0.00    -0.248 NA
ATOM     16  C   UNL A   1      42.878  27.001  29.273  1.00  0.00     0.031 C 
ATOM     17  C   UNL A   1      38.334  28.831  28.148  1.00  0.00     0.029 A 
ATOM     18  N   UNL A   1      39.700  30.140  29.342  1.00  0.00    -0.354 N 
ATOM     19  C   UNL A   1      43.622  28.773  30.522  1.00  0.00     0.074 A 
ATOM     20  C   UNL A   1      43.883  27.440  30.019  1.00  0.00     0.031 C 
ATOM     21  C   UNL A   1      37.689  29.983  28.376  1.00  0.00     0.029 A 
ATOM     22  C   UNL A   1      38.527  30.839  29.207  1.00  0.00     0.049 A 
ATOM     23  H   UNL A   1      40.491  30.494  29.810  1.00  0.00     0.167 HD
ATOM     24  C   UNL A   1      44.492  29.498  31.265  1.00  0.00     0.031 A 
ATOM     25  C   UNL A   1      38.144  32.019  29.727  1.00  0.00     0.031 A 
ATOM     26  C   UNL A   1      44.217  30.818  31.771  1.00  0.00     0.049 A 
ATOM     27  C   UNL A   1      39.105  32.783  30.588  1.00  0.00     0.074 A 
ATOM     28  C   UNL A   1      45.049  31.653  32.496  1.00  0.00     0.029 A 
ATOM     29  N   UNL A   1      43.011  31.487  31.619  1.00  0.00    -0.354 N 
ATOM     30  N   UNL A   1      40.325  32.463  30.944  1.00  0.00    -0.248 NA
ATOM     31  C   UNL A   1      38.639  34.073  31.118  1.00  0.00     0.031 C 
ATOM     32  C   UNL A   1      44.323  32.798  32.840  1.00  0.00     0.029 A 
ATOM     33  C   UNL A   1      43.063  32.709  32.269  1.00  0.00     0.049 A 
ATOM     34  H   UNL A   1      42.233  31.144  31.122  1.00  0.00     0.167 HD
ATOM     35  C   UNL A   1      40.784  33.519  31.718  1.00  0.00     0.074 A 
ATOM     36  C   UNL A   1      39.712  34.493  31.774  1.00  0.00     0.031 C 
ATOM     37  C   UNL A   1      41.989  33.669  32.319  1.00  0.00     0.031 A 
BRANCH  24  38
ATOM     38  C   UNL A   1      45.805  28.852  31.617  1.00  0.00    -0.014 A 
ATOM     39  C   UNL A   1      45.962  28.084  32.781  1.00  0.00     0.009 A 
ATOM     40  C   UNL A   1      46.905  29.009  30.756  1.00  0.00     0.009 A 
ATOM     41  C   UNL A   1      47.205  27.530  33.102  1.00  0.00     0.001 A 
ATOM     42  C   UNL A   1      48.137  28.426  31.063  1.00  0.00     0.001 A 
ATOM     43  C   UNL A   1      48.290  27.700  32.242  1.00  0.00     0.000 A 
ENDBRANCH  24  38
BRANCH  25  44
ATOM     44  C   UNL A   1      36.771  32.515  29.457  1.00  0.00    -0.014 A 
ATOM     45  C   UNL A   1      35.738  32.303  30.380  1.00  0.00     0.009 A 
ATOM     46  C   UNL A   1      36.506  33.264  28.298  1.00  0.00     0.009 A 
ATOM     47  C   UNL A   1      34.464  32.825  30.143  1.00  0.00     0.001 A 
ATOM     48  C   UNL A   1      35.241  33.809  28.080  1.00  0.00     0.001 A 
ATOM     49  C   UNL A   1      34.219  33.584  29.000  1.00  0.00     0.000 A 
ENDBRANCH  25  44
BRANCH  37  50
ATOM     50  C   UNL A   1      42.238  34.951  33.062  1.00  0.00    -0.014 A 
ATOM     51  C   UNL A   1      41.727  35.161  34.352  1.00  0.00     0.009 A 
ATOM     52  C   UNL A   1      43.063  35.931  32.488  1.00  0.00     0.009 A 
ATOM     53  C   UNL A   1      42.026  36.337  35.044  1.00  0.00     0.001 A 
ATOM     54  C   UNL A   1      43.383  37.091  33.194  1.00  0.00     0.001 A 
ATOM     55  C   UNL A   1      42.860  37.296  34.469  1.00  0.00     0.000 A 
ENDBRANCH  37  50
ENDBRANCH  11  12
ENDBRANCH   4   6
ENDBRANCH   1   2
BRANCH   1  56
ATOM     56  C   UNL A   1      36.073  23.238  24.195  1.00  0.00     0.042 C 
BRANCH  56  57
ATOM     57  C   UNL A   1      34.951  22.388  24.773  1.00  0.00     0.118 C 
BRANCH  57  58
ATOM     58  N   UNL A   1      33.822  22.274  23.866  1.00  0.00    -0.351 N 
ATOM     59  C   UNL A   1      32.757  23.127  23.682  1.00  0.00     0.269 C 
ATOM     60  H   UNL A   1      33.817  21.468  23.299  1.00  0.00     0.163 HD
ATOM     61  O   UNL A   1      31.820  22.766  22.975  1.00  0.00    -0.268 OA
BRANCH  59  62
ATOM     62  C   UNL A   1      32.770  24.478  24.307  1.00  0.00     0.128 A 
ATOM     63  C   UNL A   1      32.271  24.651  25.592  1.00  0.00     0.035 A 
ATOM     64  N   UNL A   1      33.304  25.482  23.573  1.00  0.00    -0.250 NA
ATOM     65  C   UNL A   1      32.280  25.931  26.138  1.00  0.00     0.013 A 
ATOM     66  C   UNL A   1      33.328  26.707  24.151  1.00  0.00     0.120 A 
ATOM     67  C   UNL A   1      32.830  27.004  25.424  1.00  0.00     0.006 A 
BRANCH  67  68
ATOM     68  C   UNL A   1      32.905  28.357  25.999  1.00  0.00     0.055 A 
ATOM     69  C   UNL A   1      31.888  29.301  25.787  1.00  0.00     0.134 A 
ATOM     70  C   UNL A   1      33.986  28.773  26.790  1.00  0.00     0.134 A 
ATOM     71  F   UNL A   1      30.811  28.983  25.050  1.00  0.00    -0.206 F 
ATOM     72  C   UNL A   1      31.938  30.584  26.333  1.00  0.00     0.040 A 
ATOM     73  C   UNL A   1      34.052  30.053  27.344  1.00  0.00     0.040 A 
ATOM     74  F   UNL A   1      35.009  27.936  27.027  1.00  0.00    -0.206 F 
ATOM     75  C   UNL A   1      33.024  30.963  27.116  1.00  0.00     0.006 A 
ENDBRANCH  67  68
ENDBRANCH  59  62
ENDBRANCH  57  58
ENDBRANCH  56  57
ENDBRANCH   1  56
TORSDOF 11
ENDMDL
