MODEL 1
REMARK VINA RESULT:     -11.8      0.000      0.000
REMARK SMILES COc1cc([C@H]2CC(c3ccc(S(C)(=O)=O)cc3)=NN2c2ccc(C(=O)NCCCNC(=O)c3ccc(-c4c5nc(c(-c6ccccc6)c6ccc([nH]6)c(-c6ccccc6)c6nc(c(-c7ccccc7)c7ccc4[nH]7)C=C6)C=C5)cc3)cc2)cc(OC)c1OC
REMARK SMILES IDX 28 1 27 2 25 3 26 4 24 6 21 7 22 8 83 9 23 10 82 11 20 12
REMARK SMILES IDX 6 13 7 14 8 15 19 16 5 17 3 18 4 19 88 20 85 21 84 22 2 23
REMARK SMILES IDX 1 24 89 25 90 26 86 27 87 28 9 29 10 30 18 31 11 32 17 33
REMARK SMILES IDX 12 34 13 35 14 36 15 37 16 38 29 39 30 40 31 41 32 42 33 44
REMARK SMILES IDX 34 45 35 46 81 47 36 48 80 49 37 50 38 51 39 52 74 53 40 54
REMARK SMILES IDX 79 55 73 56 75 57 41 58 78 59 72 60 71 61 42 63 64 64 49 65
REMARK SMILES IDX 63 66 50 67 53 68 62 69 76 70 51 71 52 72 61 74 77 75 54 76
REMARK SMILES IDX 43 77 44 78 48 79 45 80 47 81 46 82 65 83 66 84 70 85 67 86
REMARK SMILES IDX 69 87 68 88 55 89 56 90 60 91 57 92 59 93 58 94
REMARK H PARENT 27 5 31 43 75 62 53 73
REMARK Flexibility Score: inf
ROOT
ATOM      1  C   UNL A   1      40.059  24.705  26.361  1.00  0.00     0.118 C 
ENDROOT
BRANCH   1   2
ATOM      2  N   UNL A   1      40.038  23.258  26.292  1.00  0.00    -0.352 N 
ATOM      3  C   UNL A   1      39.070  22.369  25.900  1.00  0.00     0.251 C 
ATOM      4  O   UNL A   1      39.363  21.174  25.921  1.00  0.00    -0.269 OA
ATOM      5  H   UNL A   1      40.877  22.831  26.581  1.00  0.00     0.163 HD
BRANCH   3   6
ATOM      6  C   UNL A   1      37.722  22.782  25.418  1.00  0.00     0.039 A 
ATOM      7  C   UNL A   1      35.190  23.448  24.348  1.00  0.00     0.060 A 
ATOM      8  C   UNL A   1      36.024  22.529  23.702  1.00  0.00     0.029 A 
ATOM      9  C   UNL A   1      35.623  24.003  25.551  1.00  0.00     0.029 A 
ATOM     10  C   UNL A   1      37.283  22.213  24.216  1.00  0.00     0.016 A 
ATOM     11  C   UNL A   1      36.860  23.645  26.099  1.00  0.00     0.016 A 
BRANCH   7  12
ATOM     12  N   UNL A   1      33.953  23.751  23.816  1.00  0.00    -0.257 N 
ATOM     13  C   UNL A   1      33.148  22.871  22.969  1.00  0.00     0.144 C 
ATOM     14  C   UNL A   1      31.940  23.766  22.626  1.00  0.00     0.091 C 
ATOM     15  C   UNL A   1      32.363  25.048  23.292  1.00  0.00     0.071 C 
ATOM     16  N   UNL A   1      33.475  25.008  23.951  1.00  0.00    -0.176 NA
BRANCH  13  17
ATOM     17  C   UNL A   1      32.810  21.588  23.714  1.00  0.00    -0.015 A 
ATOM     18  C   UNL A   1      32.243  19.210  23.705  1.00  0.00     0.164 A 
ATOM     19  C   UNL A   1      32.411  20.434  23.028  1.00  0.00     0.056 A 
ATOM     20  C   UNL A   1      32.497  19.095  25.086  1.00  0.00     0.203 A 
ATOM     21  C   UNL A   1      32.878  20.261  25.781  1.00  0.00     0.164 A 
ATOM     22  C   UNL A   1      33.021  21.480  25.094  1.00  0.00     0.056 A 
BRANCH  18  23
ATOM     23  O   UNL A   1      31.949  18.113  22.931  1.00  0.00    -0.493 OA
ATOM     24  C   UNL A   1      33.130  17.508  22.402  1.00  0.00     0.278 C 
ENDBRANCH  18  23
BRANCH  20  25
ATOM     25  O   UNL A   1      32.432  17.948  25.826  1.00  0.00    -0.490 OA
ATOM     26  C   UNL A   1      33.478  16.995  25.803  1.00  0.00     0.278 C 
ENDBRANCH  20  25
BRANCH  21  27
ATOM     27  O   UNL A   1      33.152  20.412  27.118  1.00  0.00    -0.493 OA
ATOM     28  C   UNL A   1      33.960  21.500  27.539  1.00  0.00     0.278 C 
ENDBRANCH  21  27
ENDBRANCH  13  17
BRANCH  15  29
ATOM     29  C   UNL A   1      31.599  26.294  23.162  1.00  0.00    -0.002 A 
ATOM     30  C   UNL A   1      30.279  26.305  23.632  1.00  0.00     0.011 A 
ATOM     31  C   UNL A   1      32.142  27.409  22.523  1.00  0.00     0.011 A 
ATOM     32  C   UNL A   1      29.496  27.448  23.478  1.00  0.00     0.021 A 
ATOM     33  C   UNL A   1      31.348  28.547  22.343  1.00  0.00     0.021 A 
ATOM     34  C   UNL A   1      30.030  28.557  22.819  1.00  0.00     0.067 A 
BRANCH  34  35
ATOM     35  S   UNL A   1      29.018  30.004  22.606  1.00  0.00     0.175 S 
ATOM     36  C   UNL A   1      27.358  29.423  22.857  1.00  0.00     0.163 C 
ATOM     37  O   UNL A   1      29.354  30.908  23.693  1.00  0.00    -0.224 OA
ATOM     38  O   UNL A   1      29.131  30.422  21.226  1.00  0.00    -0.224 OA
ENDBRANCH  34  35
ENDBRANCH  15  29
ENDBRANCH   7  12
ENDBRANCH   3   6
ENDBRANCH   1   2
BRANCH   1  39
ATOM     39  C   UNL A   1      39.848  25.185  27.796  1.00  0.00     0.042 C 
BRANCH  39  40
ATOM     40  C   UNL A   1      41.148  25.290  28.586  1.00  0.00     0.118 C 
BRANCH  40  41
ATOM     41  N   UNL A   1      41.933  24.067  28.498  1.00  0.00    -0.352 N 
ATOM     42  C   UNL A   1      43.193  23.875  27.992  1.00  0.00     0.251 C 
ATOM     43  H   UNL A   1      41.495  23.261  28.855  1.00  0.00     0.163 HD
ATOM     44  O   UNL A   1      43.607  22.736  27.799  1.00  0.00    -0.269 OA
BRANCH  42  45
ATOM     45  C   UNL A   1      44.051  25.035  27.669  1.00  0.00     0.039 A 
ATOM     46  C   UNL A   1      44.759  25.659  28.700  1.00  0.00     0.014 A 
ATOM     47  C   UNL A   1      44.120  25.535  26.366  1.00  0.00     0.014 A 
ATOM     48  C   UNL A   1      45.570  26.761  28.419  1.00  0.00     0.010 A 
ATOM     49  C   UNL A   1      44.978  26.591  26.075  1.00  0.00     0.010 A 
ATOM     50  C   UNL A   1      45.699  27.222  27.101  1.00  0.00    -0.014 A 
BRANCH  50  51
ATOM     51  C   UNL A   1      46.545  28.392  26.764  1.00  0.00     0.031 A 
ATOM     52  C   UNL A   1      48.006  28.194  26.469  1.00  0.00     0.074 A 
ATOM     53  C   UNL A   1      46.024  29.632  26.797  1.00  0.00     0.049 A 
ATOM     54  N   UNL A   1      48.942  29.088  26.277  1.00  0.00    -0.248 NA
ATOM     55  C   UNL A   1      48.480  26.801  26.406  1.00  0.00     0.031 C 
ATOM     56  C   UNL A   1      44.624  29.959  27.075  1.00  0.00     0.029 A 
ATOM     57  N   UNL A   1      46.620  30.852  26.604  1.00  0.00    -0.354 N 
ATOM     58  C   UNL A   1      50.117  28.369  26.102  1.00  0.00     0.074 A 
ATOM     59  C   UNL A   1      49.783  26.969  26.250  1.00  0.00     0.031 C 
ATOM     60  C   UNL A   1      44.466  31.292  27.012  1.00  0.00     0.029 A 
ATOM     61  C   UNL A   1      45.757  31.912  26.735  1.00  0.00     0.049 A 
ATOM     62  H   UNL A   1      47.575  30.958  26.391  1.00  0.00     0.167 HD
ATOM     63  C   UNL A   1      51.361  28.830  25.829  1.00  0.00     0.031 A 
ATOM     64  C   UNL A   1      45.985  33.236  26.653  1.00  0.00     0.031 A 
ATOM     65  C   UNL A   1      51.689  30.221  25.672  1.00  0.00     0.049 A 
ATOM     66  C   UNL A   1      47.380  33.728  26.382  1.00  0.00     0.074 A 
ATOM     67  C   UNL A   1      52.909  30.790  25.356  1.00  0.00     0.029 A 
ATOM     68  N   UNL A   1      50.785  31.262  25.817  1.00  0.00    -0.354 N 
ATOM     69  N   UNL A   1      48.476  33.036  26.188  1.00  0.00    -0.248 NA
ATOM     70  C   UNL A   1      47.564  35.184  26.315  1.00  0.00     0.031 C 
ATOM     71  C   UNL A   1      52.752  32.181  25.348  1.00  0.00     0.029 A 
ATOM     72  C   UNL A   1      51.424  32.473  25.610  1.00  0.00     0.049 A 
ATOM     73  H   UNL A   1      49.831  31.156  26.033  1.00  0.00     0.167 HD
ATOM     74  C   UNL A   1      49.473  33.970  25.941  1.00  0.00     0.074 A 
ATOM     75  C   UNL A   1      48.852  35.277  26.008  1.00  0.00     0.031 C 
ATOM     76  C   UNL A   1      50.785  33.762  25.671  1.00  0.00     0.031 A 
BRANCH  63  77
ATOM     77  C   UNL A   1      52.456  27.809  25.704  1.00  0.00    -0.014 A 
ATOM     78  C   UNL A   1      53.217  27.416  26.817  1.00  0.00     0.009 A 
ATOM     79  C   UNL A   1      52.735  27.233  24.455  1.00  0.00     0.009 A 
ATOM     80  C   UNL A   1      54.266  26.506  26.672  1.00  0.00     0.001 A 
ATOM     81  C   UNL A   1      53.765  26.300  24.318  1.00  0.00     0.001 A 
ATOM     82  C   UNL A   1      54.538  25.947  25.424  1.00  0.00     0.000 A 
ENDBRANCH  63  77
BRANCH  64  83
ATOM     83  C   UNL A   1      44.857  34.191  26.798  1.00  0.00    -0.014 A 
ATOM     84  C   UNL A   1      44.061  34.511  25.689  1.00  0.00     0.009 A 
ATOM     85  C   UNL A   1      44.562  34.774  28.039  1.00  0.00     0.009 A 
ATOM     86  C   UNL A   1      43.000  35.410  25.815  1.00  0.00     0.001 A 
ATOM     87  C   UNL A   1      43.485  35.655  28.167  1.00  0.00     0.001 A 
ATOM     88  C   UNL A   1      42.709  35.977  27.055  1.00  0.00     0.000 A 
ENDBRANCH  64  83
BRANCH  76  89
ATOM     89  C   UNL A   1      51.627  34.969  25.376  1.00  0.00    -0.014 A 
ATOM     90  C   UNL A   1      52.322  35.642  26.392  1.00  0.00     0.009 A 
ATOM     91  C   UNL A   1      51.766  35.404  24.048  1.00  0.00     0.009 A 
ATOM     92  C   UNL A   1      53.126  36.742  26.083  1.00  0.00     0.001 A 
ATOM     93  C   UNL A   1      52.588  36.489  23.742  1.00  0.00     0.001 A 
ATOM     94  C   UNL A   1      53.262  37.160  24.760  1.00  0.00     0.000 A 
ENDBRANCH  76  89
ENDBRANCH  50  51
ENDBRANCH  42  45
ENDBRANCH  40  41
ENDBRANCH  39  40
ENDBRANCH   1  39
TORSDOF 17
ENDMDL
MODEL 2
REMARK VINA RESULT:     -11.4      0.487      5.414
REMARK SMILES COc1cc([C@H]2CC(c3ccc(S(C)(=O)=O)cc3)=NN2c2ccc(C(=O)NCCCNC(=O)c3ccc(-c4c5nc(c(-c6ccccc6)c6ccc([nH]6)c(-c6ccccc6)c6nc(c(-c7ccccc7)c7ccc4[nH]7)C=C6)C=C5)cc3)cc2)cc(OC)c1OC
REMARK SMILES IDX 28 1 27 2 25 3 26 4 24 6 21 7 22 8 83 9 23 10 82 11 20 12
REMARK SMILES IDX 6 13 7 14 8 15 19 16 5 17 3 18 4 19 88 20 85 21 84 22 2 23
REMARK SMILES IDX 1 24 89 25 90 26 86 27 87 28 9 29 10 30 18 31 11 32 17 33
REMARK SMILES IDX 12 34 13 35 14 36 15 37 16 38 29 39 30 40 31 41 32 42 33 44
REMARK SMILES IDX 34 45 35 46 81 47 36 48 80 49 37 50 38 51 39 52 74 53 40 54
REMARK SMILES IDX 79 55 73 56 75 57 41 58 78 59 72 60 71 61 42 63 64 64 49 65
REMARK SMILES IDX 63 66 50 67 53 68 62 69 76 70 51 71 52 72 61 74 77 75 54 76
REMARK SMILES IDX 43 77 44 78 48 79 45 80 47 81 46 82 65 83 66 84 70 85 67 86
REMARK SMILES IDX 69 87 68 88 55 89 56 90 60 91 57 92 59 93 58 94
REMARK H PARENT 27 5 31 43 75 62 53 73
REMARK Flexibility Score: inf
ROOT
ATOM      1  C   UNL A   1      39.903  24.804  26.561  1.00  0.00     0.118 C 
ENDROOT
BRANCH   1   2
ATOM      2  N   UNL A   1      39.924  23.367  26.379  1.00  0.00    -0.352 N 
ATOM      3  C   UNL A   1      38.984  22.485  25.912  1.00  0.00     0.251 C 
ATOM      4  O   UNL A   1      39.311  21.300  25.842  1.00  0.00    -0.269 OA
ATOM      5  H   UNL A   1      40.773  22.943  26.641  1.00  0.00     0.163 HD
BRANCH   3   6
ATOM      6  C   UNL A   1      37.628  22.896  25.453  1.00  0.00     0.039 A 
ATOM      7  C   UNL A   1      35.081  23.566  24.422  1.00  0.00     0.060 A 
ATOM      8  C   UNL A   1      35.929  22.694  23.731  1.00  0.00     0.029 A 
ATOM      9  C   UNL A   1      35.508  24.071  25.649  1.00  0.00     0.029 A 
ATOM     10  C   UNL A   1      37.195  22.377  24.227  1.00  0.00     0.016 A 
ATOM     11  C   UNL A   1      36.753  23.709  26.177  1.00  0.00     0.016 A 
BRANCH   7  12
ATOM     12  N   UNL A   1      33.837  23.872  23.908  1.00  0.00    -0.257 N 
ATOM     13  C   UNL A   1      33.045  23.019  23.022  1.00  0.00     0.144 C 
ATOM     14  C   UNL A   1      31.820  23.907  22.725  1.00  0.00     0.091 C 
ATOM     15  C   UNL A   1      32.222  25.164  23.449  1.00  0.00     0.071 C 
ATOM     16  N   UNL A   1      33.337  25.113  24.104  1.00  0.00    -0.176 NA
BRANCH  13  17
ATOM     17  C   UNL A   1      32.732  21.696  23.706  1.00  0.00    -0.015 A 
ATOM     18  C   UNL A   1      32.186  19.316  23.584  1.00  0.00     0.164 A 
ATOM     19  C   UNL A   1      32.331  20.575  22.969  1.00  0.00     0.056 A 
ATOM     20  C   UNL A   1      32.467  19.134  24.953  1.00  0.00     0.203 A 
ATOM     21  C   UNL A   1      32.850  20.266  25.700  1.00  0.00     0.164 A 
ATOM     22  C   UNL A   1      32.969  21.520  25.075  1.00  0.00     0.056 A 
BRANCH  18  23
ATOM     23  O   UNL A   1      31.888  18.257  22.761  1.00  0.00    -0.493 OA
ATOM     24  C   UNL A   1      33.065  17.555  22.356  1.00  0.00     0.278 C 
ENDBRANCH  18  23
BRANCH  20  25
ATOM     25  O   UNL A   1      32.426  17.949  25.634  1.00  0.00    -0.490 OA
ATOM     26  C   UNL A   1      33.536  17.072  25.658  1.00  0.00     0.278 C 
ENDBRANCH  20  25
BRANCH  21  27
ATOM     27  O   UNL A   1      33.148  20.351  27.038  1.00  0.00    -0.493 OA
ATOM     28  C   UNL A   1      33.794  21.515  27.530  1.00  0.00     0.278 C 
ENDBRANCH  21  27
ENDBRANCH  13  17
BRANCH  15  29
ATOM     29  C   UNL A   1      31.436  26.401  23.381  1.00  0.00    -0.002 A 
ATOM     30  C   UNL A   1      31.258  26.996  22.126  1.00  0.00     0.011 A 
ATOM     31  C   UNL A   1      30.945  27.007  24.538  1.00  0.00     0.011 A 
ATOM     32  C   UNL A   1      30.567  28.202  22.019  1.00  0.00     0.021 A 
ATOM     33  C   UNL A   1      30.276  28.231  24.436  1.00  0.00     0.021 A 
ATOM     34  C   UNL A   1      30.095  28.821  23.178  1.00  0.00     0.067 A 
BRANCH  34  35
ATOM     35  S   UNL A   1      29.234  30.371  23.037  1.00  0.00     0.175 S 
ATOM     36  C   UNL A   1      27.522  29.948  23.248  1.00  0.00     0.163 C 
ATOM     37  O   UNL A   1      29.647  31.179  24.172  1.00  0.00    -0.224 OA
ATOM     38  O   UNL A   1      29.403  30.847  21.681  1.00  0.00    -0.224 OA
ENDBRANCH  34  35
ENDBRANCH  15  29
ENDBRANCH   7  12
ENDBRANCH   3   6
ENDBRANCH   1   2
BRANCH   1  39
ATOM     39  C   UNL A   1      40.104  25.170  28.032  1.00  0.00     0.042 C 
BRANCH  39  40
ATOM     40  C   UNL A   1      41.573  25.243  28.432  1.00  0.00     0.118 C 
BRANCH  40  41
ATOM     41  N   UNL A   1      42.288  24.024  28.082  1.00  0.00    -0.352 N 
ATOM     42  C   UNL A   1      43.506  23.874  27.469  1.00  0.00     0.251 C 
ATOM     43  H   UNL A   1      41.831  23.185  28.320  1.00  0.00     0.163 HD
ATOM     44  O   UNL A   1      43.850  22.772  27.054  1.00  0.00    -0.269 OA
BRANCH  42  45
ATOM     45  C   UNL A   1      44.403  25.038  27.298  1.00  0.00     0.039 A 
ATOM     46  C   UNL A   1      45.021  25.585  28.427  1.00  0.00     0.014 A 
ATOM     47  C   UNL A   1      44.596  25.615  26.042  1.00  0.00     0.014 A 
ATOM     48  C   UNL A   1      45.866  26.689  28.290  1.00  0.00     0.010 A 
ATOM     49  C   UNL A   1      45.488  26.673  25.896  1.00  0.00     0.010 A 
ATOM     50  C   UNL A   1      46.119  27.228  27.020  1.00  0.00    -0.014 A 
BRANCH  50  51
ATOM     51  C   UNL A   1      47.005  28.402  26.836  1.00  0.00     0.031 A 
ATOM     52  C   UNL A   1      46.415  29.785  26.827  1.00  0.00     0.074 A 
ATOM     53  C   UNL A   1      48.319  28.225  26.602  1.00  0.00     0.049 A 
ATOM     54  N   UNL A   1      46.990  30.929  26.557  1.00  0.00    -0.248 NA
ATOM     55  C   UNL A   1      44.981  29.889  27.139  1.00  0.00     0.031 C 
ATOM     56  C   UNL A   1      49.012  26.936  26.579  1.00  0.00     0.029 A 
ATOM     57  N   UNL A   1      49.304  29.140  26.327  1.00  0.00    -0.354 N 
ATOM     58  C   UNL A   1      45.983  31.882  26.637  1.00  0.00     0.074 A 
ATOM     59  C   UNL A   1      44.756  31.178  26.941  1.00  0.00     0.031 C 
ATOM     60  C   UNL A   1      50.315  27.145  26.327  1.00  0.00     0.029 A 
ATOM     61  C   UNL A   1      50.538  28.573  26.127  1.00  0.00     0.049 A 
ATOM     62  H   UNL A   1      49.141  30.109  26.279  1.00  0.00     0.167 HD
ATOM     63  C   UNL A   1      46.071  33.225  26.486  1.00  0.00     0.031 A 
ATOM     64  C   UNL A   1      51.715  29.142  25.806  1.00  0.00     0.031 A 
ATOM     65  C   UNL A   1      47.293  33.925  26.194  1.00  0.00     0.049 A 
ATOM     66  C   UNL A   1      51.785  30.631  25.610  1.00  0.00     0.074 A 
ATOM     67  C   UNL A   1      47.498  35.286  26.060  1.00  0.00     0.029 A 
ATOM     68  N   UNL A   1      48.521  33.312  25.996  1.00  0.00    -0.354 N 
ATOM     69  N   UNL A   1      50.831  31.523  25.718  1.00  0.00    -0.248 NA
ATOM     70  C   UNL A   1      53.096  31.187  25.250  1.00  0.00     0.031 C 
ATOM     71  C   UNL A   1      48.845  35.495  25.741  1.00  0.00     0.029 A 
ATOM     72  C   UNL A   1      49.486  34.267  25.727  1.00  0.00     0.049 A 
ATOM     73  H   UNL A   1      48.682  32.342  26.041  1.00  0.00     0.167 HD
ATOM     74  C   UNL A   1      51.433  32.751  25.477  1.00  0.00     0.074 A 
ATOM     75  C   UNL A   1      52.834  32.488  25.216  1.00  0.00     0.031 C 
ATOM     76  C   UNL A   1      50.877  33.986  25.480  1.00  0.00     0.031 A 
BRANCH  63  77
ATOM     77  C   UNL A   1      44.799  34.013  26.617  1.00  0.00    -0.014 A 
ATOM     78  C   UNL A   1      43.957  34.227  25.512  1.00  0.00     0.009 A 
ATOM     79  C   UNL A   1      44.436  34.554  27.860  1.00  0.00     0.009 A 
ATOM     80  C   UNL A   1      42.806  35.007  25.641  1.00  0.00     0.001 A 
ATOM     81  C   UNL A   1      43.268  35.308  27.992  1.00  0.00     0.001 A 
ATOM     82  C   UNL A   1      42.462  35.545  26.879  1.00  0.00     0.000 A 
ENDBRANCH  63  77
BRANCH  64  83
ATOM     83  C   UNL A   1      52.933  28.301  25.681  1.00  0.00    -0.014 A 
ATOM     84  C   UNL A   1      53.277  27.743  24.441  1.00  0.00     0.009 A 
ATOM     85  C   UNL A   1      53.761  28.063  26.788  1.00  0.00     0.009 A 
ATOM     86  C   UNL A   1      54.419  26.949  24.314  1.00  0.00     0.001 A 
ATOM     87  C   UNL A   1      54.915  27.287  26.653  1.00  0.00     0.001 A 
ATOM     88  C   UNL A   1      55.239  26.726  25.419  1.00  0.00     0.000 A 
ENDBRANCH  64  83
BRANCH  76  89
ATOM     89  C   UNL A   1      51.791  35.153  25.248  1.00  0.00    -0.014 A 
ATOM     90  C   UNL A   1      52.463  35.778  26.309  1.00  0.00     0.009 A 
ATOM     91  C   UNL A   1      52.022  35.598  23.936  1.00  0.00     0.009 A 
ATOM     92  C   UNL A   1      53.335  36.841  26.060  1.00  0.00     0.001 A 
ATOM     93  C   UNL A   1      52.911  36.644  23.690  1.00  0.00     0.001 A 
ATOM     94  C   UNL A   1      53.562  37.269  24.753  1.00  0.00     0.000 A 
ENDBRANCH  76  89
ENDBRANCH  50  51
ENDBRANCH  42  45
ENDBRANCH  40  41
ENDBRANCH  39  40
ENDBRANCH   1  39
TORSDOF 17
ENDMDL
MODEL 3
REMARK VINA RESULT:     -11.3      7.898     14.103
REMARK SMILES COc1cc([C@H]2CC(c3ccc(S(C)(=O)=O)cc3)=NN2c2ccc(C(=O)NCCCNC(=O)c3ccc(-c4c5nc(c(-c6ccccc6)c6ccc([nH]6)c(-c6ccccc6)c6nc(c(-c7ccccc7)c7ccc4[nH]7)C=C6)C=C5)cc3)cc2)cc(OC)c1OC
REMARK SMILES IDX 28 1 27 2 25 3 26 4 24 6 21 7 22 8 83 9 23 10 82 11 20 12
REMARK SMILES IDX 6 13 7 14 8 15 19 16 5 17 3 18 4 19 88 20 85 21 84 22 2 23
REMARK SMILES IDX 1 24 89 25 90 26 86 27 87 28 9 29 10 30 18 31 11 32 17 33
REMARK SMILES IDX 12 34 13 35 14 36 15 37 16 38 29 39 30 40 31 41 32 42 33 44
REMARK SMILES IDX 34 45 35 46 81 47 36 48 80 49 37 50 38 51 39 52 74 53 40 54
REMARK SMILES IDX 79 55 73 56 75 57 41 58 78 59 72 60 71 61 42 63 64 64 49 65
REMARK SMILES IDX 63 66 50 67 53 68 62 69 76 70 51 71 52 72 61 74 77 75 54 76
REMARK SMILES IDX 43 77 44 78 48 79 45 80 47 81 46 82 65 83 66 84 70 85 67 86
REMARK SMILES IDX 69 87 68 88 55 89 56 90 60 91 57 92 59 93 58 94
REMARK H PARENT 27 5 31 43 75 62 53 73
REMARK Flexibility Score: inf
ROOT
ATOM      1  C   UNL A   1      34.812  33.001  30.725  1.00  0.00     0.118 C 
ENDROOT
BRANCH   1   2
ATOM      2  N   UNL A   1      34.581  34.249  31.423  1.00  0.00    -0.352 N 
ATOM      3  C   UNL A   1      35.224  34.847  32.476  1.00  0.00     0.251 C 
ATOM      4  O   UNL A   1      34.808  35.948  32.837  1.00  0.00    -0.269 OA
ATOM      5  H   UNL A   1      33.819  34.766  31.076  1.00  0.00     0.163 HD
BRANCH   3   6
ATOM      6  C   UNL A   1      36.408  34.255  33.159  1.00  0.00     0.039 A 
ATOM      7  C   UNL A   1      38.534  32.999  34.539  1.00  0.00     0.060 A 
ATOM      8  C   UNL A   1      37.222  32.528  34.659  1.00  0.00     0.029 A 
ATOM      9  C   UNL A   1      38.773  34.082  33.696  1.00  0.00     0.029 A 
ATOM     10  C   UNL A   1      36.167  33.158  33.995  1.00  0.00     0.016 A 
ATOM     11  C   UNL A   1      37.727  34.679  32.984  1.00  0.00     0.016 A 
BRANCH   7  12
ATOM     12  N   UNL A   1      39.559  32.365  35.211  1.00  0.00    -0.257 N 
ATOM     13  C   UNL A   1      40.282  32.897  36.366  1.00  0.00     0.144 C 
ATOM     14  C   UNL A   1      41.341  31.805  36.618  1.00  0.00     0.091 C 
ATOM     15  C   UNL A   1      41.057  30.887  35.459  1.00  0.00     0.071 C 
ATOM     16  N   UNL A   1      40.060  31.216  34.703  1.00  0.00    -0.176 NA
BRANCH  13  17
ATOM     17  C   UNL A   1      39.322  33.145  37.520  1.00  0.00    -0.015 A 
ATOM     18  C   UNL A   1      37.350  32.513  38.818  1.00  0.00     0.164 A 
ATOM     19  C   UNL A   1      38.158  32.382  37.672  1.00  0.00     0.056 A 
ATOM     20  C   UNL A   1      37.697  33.392  39.862  1.00  0.00     0.203 A 
ATOM     21  C   UNL A   1      38.858  34.177  39.700  1.00  0.00     0.164 A 
ATOM     22  C   UNL A   1      39.642  34.049  38.540  1.00  0.00     0.056 A 
BRANCH  18  23
ATOM     23  O   UNL A   1      36.286  31.650  38.924  1.00  0.00    -0.493 OA
ATOM     24  C   UNL A   1      36.716  30.306  39.147  1.00  0.00     0.278 C 
ENDBRANCH  18  23
BRANCH  20  25
ATOM     25  O   UNL A   1      37.026  33.548  41.043  1.00  0.00    -0.490 OA
ATOM     26  C   UNL A   1      37.249  32.681  42.139  1.00  0.00     0.278 C 
ENDBRANCH  20  25
BRANCH  21  27
ATOM     27  O   UNL A   1      39.385  35.115  40.553  1.00  0.00    -0.493 OA
ATOM     28  C   UNL A   1      38.972  36.467  40.434  1.00  0.00     0.278 C 
ENDBRANCH  21  27
ENDBRANCH  13  17
BRANCH  15  29
ATOM     29  C   UNL A   1      41.887  29.716  35.157  1.00  0.00    -0.002 A 
ATOM     30  C   UNL A   1      41.556  28.950  34.033  1.00  0.00     0.011 A 
ATOM     31  C   UNL A   1      42.926  29.332  36.005  1.00  0.00     0.011 A 
ATOM     32  C   UNL A   1      42.280  27.796  33.739  1.00  0.00     0.021 A 
ATOM     33  C   UNL A   1      43.637  28.160  35.728  1.00  0.00     0.021 A 
ATOM     34  C   UNL A   1      43.307  27.398  34.599  1.00  0.00     0.067 A 
BRANCH  34  35
ATOM     35  S   UNL A   1      44.212  25.913  34.230  1.00  0.00     0.175 S 
ATOM     36  C   UNL A   1      45.914  26.360  34.473  1.00  0.00     0.163 C 
ATOM     37  O   UNL A   1      43.846  24.941  35.247  1.00  0.00    -0.224 OA
ATOM     38  O   UNL A   1      44.032  25.624  32.823  1.00  0.00    -0.224 OA
ENDBRANCH  34  35
ENDBRANCH  15  29
ENDBRANCH   7  12
ENDBRANCH   3   6
ENDBRANCH   1   2
BRANCH   1  39
ATOM     39  C   UNL A   1      35.912  33.159  29.676  1.00  0.00     0.042 C 
BRANCH  39  40
ATOM     40  C   UNL A   1      35.398  33.022  28.248  1.00  0.00     0.118 C 
BRANCH  40  41
ATOM     41  N   UNL A   1      34.488  31.894  28.108  1.00  0.00    -0.352 N 
ATOM     42  C   UNL A   1      34.767  30.553  28.038  1.00  0.00     0.251 C 
ATOM     43  H   UNL A   1      33.533  32.128  28.057  1.00  0.00     0.163 HD
ATOM     44  O   UNL A   1      33.891  29.764  27.699  1.00  0.00    -0.269 OA
BRANCH  42  45
ATOM     45  C   UNL A   1      36.121  30.056  28.362  1.00  0.00     0.039 A 
ATOM     46  C   UNL A   1      36.357  29.516  29.630  1.00  0.00     0.014 A 
ATOM     47  C   UNL A   1      37.164  30.164  27.439  1.00  0.00     0.014 A 
ATOM     48  C   UNL A   1      37.631  29.047  29.960  1.00  0.00     0.010 A 
ATOM     49  C   UNL A   1      38.416  29.638  27.744  1.00  0.00     0.010 A 
ATOM     50  C   UNL A   1      38.663  29.088  29.012  1.00  0.00    -0.014 A 
BRANCH  50  51
ATOM     51  C   UNL A   1      40.030  28.605  29.327  1.00  0.00     0.031 A 
ATOM     52  C   UNL A   1      40.971  29.488  30.097  1.00  0.00     0.074 A 
ATOM     53  C   UNL A   1      40.448  27.414  28.859  1.00  0.00     0.049 A 
ATOM     54  N   UNL A   1      42.239  29.311  30.367  1.00  0.00    -0.248 NA
ATOM     55  C   UNL A   1      40.415  30.750  30.612  1.00  0.00     0.031 C 
ATOM     56  C   UNL A   1      39.634  26.468  28.094  1.00  0.00     0.029 A 
ATOM     57  N   UNL A   1      41.673  26.804  28.952  1.00  0.00    -0.354 N 
ATOM     58  C   UNL A   1      42.639  30.450  31.054  1.00  0.00     0.074 A 
ATOM     59  C   UNL A   1      41.490  31.327  31.124  1.00  0.00     0.031 C 
ATOM     60  C   UNL A   1      40.377  25.386  27.808  1.00  0.00     0.029 A 
ATOM     61  C   UNL A   1      41.726  25.583  28.327  1.00  0.00     0.049 A 
ATOM     62  H   UNL A   1      42.440  27.203  29.423  1.00  0.00     0.167 HD
ATOM     63  C   UNL A   1      43.849  30.737  31.591  1.00  0.00     0.031 A 
ATOM     64  C   UNL A   1      42.752  24.724  28.180  1.00  0.00     0.031 A 
ATOM     65  C   UNL A   1      44.987  29.859  31.529  1.00  0.00     0.049 A 
ATOM     66  C   UNL A   1      44.096  25.076  28.755  1.00  0.00     0.074 A 
ATOM     67  C   UNL A   1      46.245  30.038  32.074  1.00  0.00     0.029 A 
ATOM     68  N   UNL A   1      44.998  28.633  30.883  1.00  0.00    -0.354 N 
ATOM     69  N   UNL A   1      44.452  26.143  29.428  1.00  0.00    -0.248 NA
ATOM     70  C   UNL A   1      45.176  24.101  28.551  1.00  0.00     0.031 C 
ATOM     71  C   UNL A   1      47.032  28.935  31.724  1.00  0.00     0.029 A 
ATOM     72  C   UNL A   1      46.247  28.049  31.005  1.00  0.00     0.049 A 
ATOM     73  H   UNL A   1      44.232  28.236  30.410  1.00  0.00     0.167 HD
ATOM     74  C   UNL A   1      45.786  25.952  29.760  1.00  0.00     0.074 A 
ATOM     75  C   UNL A   1      46.176  24.668  29.215  1.00  0.00     0.031 C 
ATOM     76  C   UNL A   1      46.612  26.765  30.463  1.00  0.00     0.031 A 
BRANCH  63  77
ATOM     77  C   UNL A   1      43.996  32.067  32.274  1.00  0.00    -0.014 A 
ATOM     78  C   UNL A   1      43.717  32.218  33.642  1.00  0.00     0.009 A 
ATOM     79  C   UNL A   1      44.418  33.187  31.540  1.00  0.00     0.009 A 
ATOM     80  C   UNL A   1      43.807  33.473  34.248  1.00  0.00     0.001 A 
ATOM     81  C   UNL A   1      44.537  34.434  32.156  1.00  0.00     0.001 A 
ATOM     82  C   UNL A   1      44.219  34.579  33.506  1.00  0.00     0.000 A 
ENDBRANCH  63  77
BRANCH  64  83
ATOM     83  C   UNL A   1      42.539  23.430  27.484  1.00  0.00    -0.014 A 
ATOM     84  C   UNL A   1      42.077  22.315  28.199  1.00  0.00     0.009 A 
ATOM     85  C   UNL A   1      42.780  23.304  26.107  1.00  0.00     0.009 A 
ATOM     86  C   UNL A   1      41.877  21.093  27.553  1.00  0.00     0.001 A 
ATOM     87  C   UNL A   1      42.556  22.086  25.460  1.00  0.00     0.001 A 
ATOM     88  C   UNL A   1      42.111  20.981  26.183  1.00  0.00     0.000 A 
ENDBRANCH  64  83
BRANCH  76  89
ATOM     89  C   UNL A   1      48.003  26.268  30.730  1.00  0.00    -0.014 A 
ATOM     90  C   UNL A   1      49.048  26.498  29.823  1.00  0.00     0.009 A 
ATOM     91  C   UNL A   1      48.279  25.607  31.937  1.00  0.00     0.009 A 
ATOM     92  C   UNL A   1      50.341  26.054  30.112  1.00  0.00     0.001 A 
ATOM     93  C   UNL A   1      49.576  25.186  32.233  1.00  0.00     0.001 A 
ATOM     94  C   UNL A   1      50.603  25.405  31.318  1.00  0.00     0.000 A 
ENDBRANCH  76  89
ENDBRANCH  50  51
ENDBRANCH  42  45
ENDBRANCH  40  41
ENDBRANCH  39  40
ENDBRANCH   1  39
TORSDOF 17
ENDMDL
