MODEL 1
REMARK VINA RESULT:     -12.0      0.000      0.000
REMARK SMILES C[C@@H](NC(=O)CNC(=O)N1CC(=O)Nc2ccccc21)C(=O)NCCCNC(=O)c1ccc(-c2c3nc(c(-c4ccccc4)c4ccc([nH]4)c(-c4ccccc4)c4nc(c(-c5ccccc5)c5ccc2[nH]5)C=C4)C=C3)cc1
REMARK SMILES IDX 24 1 23 2 21 3 22 4 2 6 1 7 3 8 4 9 5 11 6 12 7 13 8 14 9 16
REMARK SMILES IDX 10 17 11 18 20 19 12 20 15 21 19 22 13 23 14 24 16 25 18 26
REMARK SMILES IDX 17 28 25 29 26 30 27 31 28 32 29 34 30 35 31 36 77 37 32 38
REMARK SMILES IDX 76 39 33 40 34 41 35 42 70 43 36 44 75 45 69 46 71 47 37 48
REMARK SMILES IDX 74 49 68 50 67 51 38 53 60 54 45 55 59 56 46 57 49 58 58 59
REMARK SMILES IDX 72 60 47 61 48 62 57 64 73 65 50 66 39 67 40 68 44 69 41 70
REMARK SMILES IDX 43 71 42 72 61 73 62 74 66 75 63 76 65 77 64 78 51 79 52 80
REMARK SMILES IDX 56 81 53 82 55 83 54 84
REMARK H PARENT 23 5 3 10 7 15 14 27 27 33 71 52 49 63
REMARK Flexibility Score: inf
ROOT
ATOM      1  C   UNL A   1      31.607  28.535  25.829  1.00  0.00     0.117 C 
ENDROOT
BRANCH   1   2
ATOM      2  N   UNL A   1      32.482  29.127  24.833  1.00  0.00    -0.354 N 
ATOM      3  C   UNL A   1      32.557  28.870  23.498  1.00  0.00     0.242 C 
ATOM      4  O   UNL A   1      33.511  29.330  22.868  1.00  0.00    -0.273 OA
ATOM      5  H   UNL A   1      33.107  29.808  25.171  1.00  0.00     0.163 HD
BRANCH   3   6
ATOM      6  C   UNL A   1      31.601  27.878  22.818  1.00  0.00     0.168 C 
ATOM      7  C   UNL A   1      30.371  28.685  22.399  1.00  0.00     0.041 C 
BRANCH   6   8
ATOM      8  N   UNL A   1      32.164  27.153  21.679  1.00  0.00    -0.343 N 
ATOM      9  C   UNL A   1      32.540  25.843  21.597  1.00  0.00     0.240 C 
ATOM     10  H   UNL A   1      32.289  27.683  20.858  1.00  0.00     0.164 HD
ATOM     11  O   UNL A   1      33.061  25.460  20.547  1.00  0.00    -0.273 OA
BRANCH   9  12
ATOM     12  C   UNL A   1      32.478  24.934  22.829  1.00  0.00     0.218 C 
BRANCH  12  13
ATOM     13  N   UNL A   1      31.960  23.605  22.504  1.00  0.00    -0.329 N 
ATOM     14  C   UNL A   1      32.362  22.409  23.044  1.00  0.00     0.322 C 
ATOM     15  H   UNL A   1      31.248  23.564  21.826  1.00  0.00     0.165 HD
ATOM     16  O   UNL A   1      32.238  21.395  22.360  1.00  0.00    -0.248 OA
BRANCH  14  17
ATOM     17  N   UNL A   1      32.937  22.466  24.294  1.00  0.00    -0.283 N 
ATOM     18  C   UNL A   1      32.137  22.227  25.492  1.00  0.00     0.227 C 
ATOM     19  C   UNL A   1      34.320  22.737  24.515  1.00  0.00     0.070 A 
ATOM     20  C   UNL A   1      32.392  23.257  26.577  1.00  0.00     0.244 C 
ATOM     21  C   UNL A   1      34.665  23.406  25.709  1.00  0.00     0.065 A 
ATOM     22  C   UNL A   1      35.316  22.510  23.562  1.00  0.00     0.028 A 
ATOM     23  O   UNL A   1      31.556  23.547  27.429  1.00  0.00    -0.273 OA
ATOM     24  N   UNL A   1      33.681  23.715  26.662  1.00  0.00    -0.323 N 
ATOM     25  C   UNL A   1      35.966  23.863  25.925  1.00  0.00     0.028 A 
ATOM     26  C   UNL A   1      36.625  22.949  23.791  1.00  0.00     0.002 A 
ATOM     27  H   UNL A   1      33.928  24.286  27.426  1.00  0.00     0.170 HD
ATOM     28  C   UNL A   1      36.945  23.634  24.962  1.00  0.00     0.002 A 
ENDBRANCH  14  17
ENDBRANCH  12  13
ENDBRANCH   9  12
ENDBRANCH   6   8
ENDBRANCH   3   6
ENDBRANCH   1   2
BRANCH   1  29
ATOM     29  C   UNL A   1      32.083  28.809  27.241  1.00  0.00     0.042 C 
BRANCH  29  30
ATOM     30  C   UNL A   1      33.511  29.330  27.289  1.00  0.00     0.118 C 
BRANCH  30  31
ATOM     31  N   UNL A   1      33.635  30.623  27.951  1.00  0.00    -0.352 N 
ATOM     32  C   UNL A   1      34.734  31.126  28.612  1.00  0.00     0.251 C 
ATOM     33  H   UNL A   1      32.841  31.205  27.925  1.00  0.00     0.163 HD
ATOM     34  O   UNL A   1      34.697  32.206  29.192  1.00  0.00    -0.269 OA
BRANCH  32  35
ATOM     35  C   UNL A   1      35.949  30.291  28.659  1.00  0.00     0.039 A 
ATOM     36  C   UNL A   1      36.824  30.319  27.574  1.00  0.00     0.014 A 
ATOM     37  C   UNL A   1      36.288  29.631  29.843  1.00  0.00     0.014 A 
ATOM     38  C   UNL A   1      38.096  29.760  27.708  1.00  0.00     0.010 A 
ATOM     39  C   UNL A   1      37.582  29.149  30.001  1.00  0.00     0.010 A 
ATOM     40  C   UNL A   1      38.501  29.220  28.940  1.00  0.00    -0.014 A 
BRANCH  40  41
ATOM     41  C   UNL A   1      39.883  28.722  29.150  1.00  0.00     0.031 A 
ATOM     42  C   UNL A   1      40.922  29.645  29.719  1.00  0.00     0.074 A 
ATOM     43  C   UNL A   1      40.225  27.479  28.756  1.00  0.00     0.049 A 
ATOM     44  N   UNL A   1      42.206  29.447  29.877  1.00  0.00    -0.248 NA
ATOM     45  C   UNL A   1      40.461  30.979  30.138  1.00  0.00     0.031 C 
ATOM     46  C   UNL A   1      39.320  26.494  28.159  1.00  0.00     0.029 A 
ATOM     47  N   UNL A   1      41.438  26.836  28.788  1.00  0.00    -0.354 N 
ATOM     48  C   UNL A   1      42.707  30.638  30.388  1.00  0.00     0.074 A 
ATOM     49  C   UNL A   1      41.601  31.566  30.469  1.00  0.00     0.031 C 
ATOM     50  C   UNL A   1      40.004  25.366  27.904  1.00  0.00     0.029 A 
ATOM     51  C   UNL A   1      41.402  25.562  28.276  1.00  0.00     0.049 A 
ATOM     52  H   UNL A   1      42.257  27.250  29.145  1.00  0.00     0.167 HD
ATOM     53  C   UNL A   1      43.972  30.928  30.774  1.00  0.00     0.031 A 
ATOM     54  C   UNL A   1      42.386  24.657  28.113  1.00  0.00     0.031 A 
ATOM     55  C   UNL A   1      45.068  30.001  30.710  1.00  0.00     0.049 A 
ATOM     56  C   UNL A   1      43.786  25.009  28.536  1.00  0.00     0.074 A 
ATOM     57  C   UNL A   1      46.375  30.186  31.123  1.00  0.00     0.029 A 
ATOM     58  N   UNL A   1      44.984  28.715  30.202  1.00  0.00    -0.354 N 
ATOM     59  N   UNL A   1      44.234  26.120  29.069  1.00  0.00    -0.248 NA
ATOM     60  C   UNL A   1      44.815  23.975  28.346  1.00  0.00     0.031 C 
ATOM     61  C   UNL A   1      47.094  29.024  30.824  1.00  0.00     0.029 A 
ATOM     62  C   UNL A   1      46.221  28.098  30.275  1.00  0.00     0.049 A 
ATOM     63  H   UNL A   1      44.166  28.302  29.842  1.00  0.00     0.167 HD
ATOM     64  C   UNL A   1      45.586  25.907  29.309  1.00  0.00     0.074 A 
ATOM     65  C   UNL A   1      45.884  24.560  28.870  1.00  0.00     0.031 C 
ATOM     66  C   UNL A   1      46.497  26.752  29.848  1.00  0.00     0.031 A 
BRANCH  53  67
ATOM     67  C   UNL A   1      44.230  32.313  31.292  1.00  0.00    -0.014 A 
ATOM     68  C   UNL A   1      44.191  32.595  32.667  1.00  0.00     0.009 A 
ATOM     69  C   UNL A   1      44.535  33.348  30.395  1.00  0.00     0.009 A 
ATOM     70  C   UNL A   1      44.413  33.893  33.130  1.00  0.00     0.001 A 
ATOM     71  C   UNL A   1      44.787  34.639  30.863  1.00  0.00     0.001 A 
ATOM     72  C   UNL A   1      44.716  34.911  32.228  1.00  0.00     0.000 A 
ENDBRANCH  53  67
BRANCH  54  73
ATOM     73  C   UNL A   1      42.088  23.322  27.532  1.00  0.00    -0.014 A 
ATOM     74  C   UNL A   1      41.587  22.290  28.341  1.00  0.00     0.009 A 
ATOM     75  C   UNL A   1      42.316  23.065  26.171  1.00  0.00     0.009 A 
ATOM     76  C   UNL A   1      41.349  21.022  27.807  1.00  0.00     0.001 A 
ATOM     77  C   UNL A   1      42.049  21.803  25.633  1.00  0.00     0.001 A 
ATOM     78  C   UNL A   1      41.576  20.780  26.453  1.00  0.00     0.000 A 
ENDBRANCH  54  73
BRANCH  66  79
ATOM     79  C   UNL A   1      47.891  26.232  30.048  1.00  0.00    -0.014 A 
ATOM     80  C   UNL A   1      48.838  26.257  29.013  1.00  0.00     0.009 A 
ATOM     81  C   UNL A   1      48.277  25.764  31.314  1.00  0.00     0.009 A 
ATOM     82  C   UNL A   1      50.138  25.799  29.237  1.00  0.00     0.001 A 
ATOM     83  C   UNL A   1      49.583  25.333  31.542  1.00  0.00     0.001 A 
ATOM     84  C   UNL A   1      50.511  25.343  30.502  1.00  0.00     0.000 A 
ENDBRANCH  66  79
ENDBRANCH  40  41
ENDBRANCH  32  35
ENDBRANCH  30  31
ENDBRANCH  29  30
ENDBRANCH   1  29
TORSDOF 14
ENDMDL
MODEL 2
REMARK VINA RESULT:     -12.0      2.247      6.670
REMARK SMILES C[C@@H](NC(=O)CNC(=O)N1CC(=O)Nc2ccccc21)C(=O)NCCCNC(=O)c1ccc(-c2c3nc(c(-c4ccccc4)c4ccc([nH]4)c(-c4ccccc4)c4nc(c(-c5ccccc5)c5ccc2[nH]5)C=C4)C=C3)cc1
REMARK SMILES IDX 24 1 23 2 21 3 22 4 2 6 1 7 3 8 4 9 5 11 6 12 7 13 8 14 9 16
REMARK SMILES IDX 10 17 11 18 20 19 12 20 15 21 19 22 13 23 14 24 16 25 18 26
REMARK SMILES IDX 17 28 25 29 26 30 27 31 28 32 29 34 30 35 31 36 77 37 32 38
REMARK SMILES IDX 76 39 33 40 34 41 35 42 70 43 36 44 75 45 69 46 71 47 37 48
REMARK SMILES IDX 74 49 68 50 67 51 38 53 60 54 45 55 59 56 46 57 49 58 58 59
REMARK SMILES IDX 72 60 47 61 48 62 57 64 73 65 50 66 39 67 40 68 44 69 41 70
REMARK SMILES IDX 43 71 42 72 61 73 62 74 66 75 63 76 65 77 64 78 51 79 52 80
REMARK SMILES IDX 56 81 53 82 55 83 54 84
REMARK H PARENT 23 5 3 10 7 15 14 27 27 33 71 52 49 63
REMARK Flexibility Score: inf
ROOT
ATOM      1  C   UNL A   1      31.844  29.727  25.441  1.00  0.00     0.117 C 
ENDROOT
BRANCH   1   2
ATOM      2  N   UNL A   1      32.999  29.726  24.560  1.00  0.00    -0.354 N 
ATOM      3  C   UNL A   1      33.200  29.021  23.413  1.00  0.00     0.242 C 
ATOM      4  O   UNL A   1      34.334  29.005  22.929  1.00  0.00    -0.273 OA
ATOM      5  H   UNL A   1      33.738  30.318  24.831  1.00  0.00     0.163 HD
BRANCH   3   6
ATOM      6  C   UNL A   1      32.111  28.106  22.833  1.00  0.00     0.168 C 
ATOM      7  C   UNL A   1      30.967  29.023  22.399  1.00  0.00     0.041 C 
BRANCH   6   8
ATOM      8  N   UNL A   1      32.542  27.249  21.729  1.00  0.00    -0.343 N 
ATOM      9  C   UNL A   1      32.600  25.885  21.674  1.00  0.00     0.240 C 
ATOM     10  H   UNL A   1      32.830  27.719  20.913  1.00  0.00     0.164 HD
ATOM     11  O   UNL A   1      33.067  25.371  20.655  1.00  0.00    -0.273 OA
BRANCH   9  12
ATOM     12  C   UNL A   1      32.264  25.038  22.906  1.00  0.00     0.218 C 
BRANCH  12  13
ATOM     13  N   UNL A   1      31.794  23.702  22.541  1.00  0.00    -0.329 N 
ATOM     14  C   UNL A   1      32.261  22.505  23.022  1.00  0.00     0.322 C 
ATOM     15  H   UNL A   1      31.067  23.656  21.879  1.00  0.00     0.165 HD
ATOM     16  O   UNL A   1      32.162  21.513  22.302  1.00  0.00    -0.248 OA
BRANCH  14  17
ATOM     17  N   UNL A   1      32.865  22.538  24.260  1.00  0.00    -0.283 N 
ATOM     18  C   UNL A   1      32.089  22.293  25.473  1.00  0.00     0.227 C 
ATOM     19  C   UNL A   1      34.255  22.789  24.453  1.00  0.00     0.070 A 
ATOM     20  C   UNL A   1      32.382  23.306  26.565  1.00  0.00     0.244 C 
ATOM     21  C   UNL A   1      34.636  23.437  25.647  1.00  0.00     0.065 A 
ATOM     22  C   UNL A   1      35.227  22.562  23.474  1.00  0.00     0.028 A 
ATOM     23  O   UNL A   1      31.570  23.595  27.440  1.00  0.00    -0.273 OA
ATOM     24  N   UNL A   1      33.679  23.747  26.627  1.00  0.00    -0.323 N 
ATOM     25  C   UNL A   1      35.947  23.876  25.839  1.00  0.00     0.028 A 
ATOM     26  C   UNL A   1      36.546  22.982  23.678  1.00  0.00     0.002 A 
ATOM     27  H   UNL A   1      33.950  24.304  27.392  1.00  0.00     0.170 HD
ATOM     28  C   UNL A   1      36.901  23.648  24.851  1.00  0.00     0.002 A 
ENDBRANCH  14  17
ENDBRANCH  12  13
ENDBRANCH   9  12
ENDBRANCH   6   8
ENDBRANCH   3   6
ENDBRANCH   1   2
BRANCH   1  29
ATOM     29  C   UNL A   1      32.238  29.867  26.897  1.00  0.00     0.042 C 
BRANCH  29  30
ATOM     30  C   UNL A   1      33.222  31.004  27.132  1.00  0.00     0.118 C 
BRANCH  30  31
ATOM     31  N   UNL A   1      32.579  32.303  27.298  1.00  0.00    -0.352 N 
ATOM     32  C   UNL A   1      33.059  33.395  27.984  1.00  0.00     0.251 C 
ATOM     33  H   UNL A   1      31.698  32.411  26.871  1.00  0.00     0.163 HD
ATOM     34  O   UNL A   1      32.394  34.418  28.112  1.00  0.00    -0.269 OA
BRANCH  32  35
ATOM     35  C   UNL A   1      34.383  33.278  28.624  1.00  0.00     0.039 A 
ATOM     36  C   UNL A   1      34.476  32.639  29.860  1.00  0.00     0.014 A 
ATOM     37  C   UNL A   1      35.528  33.647  27.914  1.00  0.00     0.014 A 
ATOM     38  C   UNL A   1      35.732  32.278  30.348  1.00  0.00     0.010 A 
ATOM     39  C   UNL A   1      36.770  33.215  28.363  1.00  0.00     0.010 A 
ATOM     40  C   UNL A   1      36.883  32.516  29.577  1.00  0.00    -0.014 A 
BRANCH  40  41
ATOM     41  C   UNL A   1      38.219  32.042  30.015  1.00  0.00     0.031 A 
ATOM     42  C   UNL A   1      38.744  30.733  29.499  1.00  0.00     0.074 A 
ATOM     43  C   UNL A   1      38.920  32.738  30.932  1.00  0.00     0.049 A 
ATOM     44  N   UNL A   1      39.830  30.087  29.839  1.00  0.00    -0.248 NA
ATOM     45  C   UNL A   1      37.924  30.045  28.489  1.00  0.00     0.031 C 
ATOM     46  C   UNL A   1      38.509  34.007  31.537  1.00  0.00     0.029 A 
ATOM     47  N   UNL A   1      40.128  32.465  31.525  1.00  0.00    -0.354 N 
ATOM     48  C   UNL A   1      39.808  28.908  29.105  1.00  0.00     0.074 A 
ATOM     49  C   UNL A   1      38.582  28.905  28.339  1.00  0.00     0.031 C 
ATOM     50  C   UNL A   1      39.458  34.413  32.397  1.00  0.00     0.029 A 
ATOM     51  C   UNL A   1      40.522  33.414  32.438  1.00  0.00     0.049 A 
ATOM     52  H   UNL A   1      40.662  31.665  31.316  1.00  0.00     0.167 HD
ATOM     53  C   UNL A   1      40.736  27.923  29.056  1.00  0.00     0.031 A 
ATOM     54  C   UNL A   1      41.611  33.467  33.229  1.00  0.00     0.031 A 
ATOM     55  C   UNL A   1      41.963  27.931  29.804  1.00  0.00     0.049 A 
ATOM     56  C   UNL A   1      42.620  32.353  33.168  1.00  0.00     0.074 A 
ATOM     57  C   UNL A   1      42.988  27.003  29.785  1.00  0.00     0.029 A 
ATOM     58  N   UNL A   1      42.330  28.920  30.702  1.00  0.00    -0.354 N 
ATOM     59  N   UNL A   1      42.612  31.270  32.428  1.00  0.00    -0.248 NA
ATOM     60  C   UNL A   1      43.794  32.473  34.044  1.00  0.00     0.031 C 
ATOM     61  C   UNL A   1      43.959  27.408  30.707  1.00  0.00     0.029 A 
ATOM     62  C   UNL A   1      43.561  28.616  31.258  1.00  0.00     0.049 A 
ATOM     63  H   UNL A   1      41.796  29.719  30.915  1.00  0.00     0.167 HD
ATOM     64  C   UNL A   1      43.793  30.601  32.722  1.00  0.00     0.074 A 
ATOM     65  C   UNL A   1      44.495  31.401  33.704  1.00  0.00     0.031 C 
ATOM     66  C   UNL A   1      44.254  29.430  32.222  1.00  0.00     0.031 A 
BRANCH  53  67
ATOM     67  C   UNL A   1      40.443  26.749  28.166  1.00  0.00    -0.014 A 
ATOM     68  C   UNL A   1      40.957  26.681  26.861  1.00  0.00     0.009 A 
ATOM     69  C   UNL A   1      39.660  25.688  28.646  1.00  0.00     0.009 A 
ATOM     70  C   UNL A   1      40.658  25.592  26.040  1.00  0.00     0.001 A 
ATOM     71  C   UNL A   1      39.389  24.586  27.833  1.00  0.00     0.001 A 
ATOM     72  C   UNL A   1      39.880  24.544  26.529  1.00  0.00     0.000 A 
ENDBRANCH  53  67
BRANCH  54  73
ATOM     73  C   UNL A   1      41.818  34.621  34.142  1.00  0.00    -0.014 A 
ATOM     74  C   UNL A   1      42.478  35.775  33.692  1.00  0.00     0.009 A 
ATOM     75  C   UNL A   1      41.373  34.572  35.472  1.00  0.00     0.009 A 
ATOM     76  C   UNL A   1      42.714  36.842  34.560  1.00  0.00     0.001 A 
ATOM     77  C   UNL A   1      41.585  35.654  36.332  1.00  0.00     0.001 A 
ATOM     78  C   UNL A   1      42.264  36.783  35.878  1.00  0.00     0.000 A 
ENDBRANCH  54  73
BRANCH  66  79
ATOM     79  C   UNL A   1      45.606  28.966  32.680  1.00  0.00    -0.014 A 
ATOM     80  C   UNL A   1      45.749  28.077  33.756  1.00  0.00     0.009 A 
ATOM     81  C   UNL A   1      46.751  29.380  31.981  1.00  0.00     0.009 A 
ATOM     82  C   UNL A   1      47.017  27.633  34.140  1.00  0.00     0.001 A 
ATOM     83  C   UNL A   1      48.013  28.914  32.348  1.00  0.00     0.001 A 
ATOM     84  C   UNL A   1      48.146  28.047  33.432  1.00  0.00     0.000 A 
ENDBRANCH  66  79
ENDBRANCH  40  41
ENDBRANCH  32  35
ENDBRANCH  30  31
ENDBRANCH  29  30
ENDBRANCH   1  29
TORSDOF 14
ENDMDL
MODEL 3
REMARK VINA RESULT:     -12.0      2.592      7.989
REMARK SMILES C[C@@H](NC(=O)CNC(=O)N1CC(=O)Nc2ccccc21)C(=O)NCCCNC(=O)c1ccc(-c2c3nc(c(-c4ccccc4)c4ccc([nH]4)c(-c4ccccc4)c4nc(c(-c5ccccc5)c5ccc2[nH]5)C=C4)C=C3)cc1
REMARK SMILES IDX 24 1 23 2 21 3 22 4 2 6 1 7 3 8 4 9 5 11 6 12 7 13 8 14 9 16
REMARK SMILES IDX 10 17 11 18 20 19 12 20 15 21 19 22 13 23 14 24 16 25 18 26
REMARK SMILES IDX 17 28 25 29 26 30 27 31 28 32 29 34 30 35 31 36 77 37 32 38
REMARK SMILES IDX 76 39 33 40 34 41 35 42 70 43 36 44 75 45 69 46 71 47 37 48
REMARK SMILES IDX 74 49 68 50 67 51 38 53 60 54 45 55 59 56 46 57 49 58 58 59
REMARK SMILES IDX 72 60 47 61 48 62 57 64 73 65 50 66 39 67 40 68 44 69 41 70
REMARK SMILES IDX 43 71 42 72 61 73 62 74 66 75 63 76 65 77 64 78 51 79 52 80
REMARK SMILES IDX 56 81 53 82 55 83 54 84
REMARK H PARENT 23 5 3 10 7 15 14 27 27 33 71 52 49 63
REMARK Flexibility Score: inf
ROOT
ATOM      1  C   UNL A   1      35.243  22.392  24.369  1.00  0.00     0.117 C 
ENDROOT
BRANCH   1   2
ATOM      2  N   UNL A   1      35.037  21.883  25.713  1.00  0.00    -0.354 N 
ATOM      3  C   UNL A   1      33.872  21.547  26.332  1.00  0.00     0.242 C 
ATOM      4  O   UNL A   1      33.896  21.333  27.546  1.00  0.00    -0.273 OA
ATOM      5  H   UNL A   1      35.853  21.766  26.251  1.00  0.00     0.163 HD
BRANCH   3   6
ATOM      6  C   UNL A   1      32.525  21.616  25.597  1.00  0.00     0.168 C 
ATOM      7  C   UNL A   1      32.333  20.258  24.922  1.00  0.00     0.041 C 
BRANCH   6   8
ATOM      8  N   UNL A   1      31.375  21.951  26.436  1.00  0.00    -0.343 N 
ATOM      9  C   UNL A   1      30.675  23.122  26.507  1.00  0.00     0.240 C 
ATOM     10  H   UNL A   1      31.062  21.232  27.033  1.00  0.00     0.164 HD
ATOM     11  O   UNL A   1      29.775  23.203  27.346  1.00  0.00    -0.273 OA
BRANCH   9  12
ATOM     12  C   UNL A   1      31.115  24.344  25.694  1.00  0.00     0.218 C 
BRANCH  12  13
ATOM     13  N   UNL A   1      30.032  24.867  24.861  1.00  0.00    -0.329 N 
ATOM     14  C   UNL A   1      29.944  26.123  24.317  1.00  0.00     0.322 C 
ATOM     15  H   UNL A   1      29.287  24.253  24.671  1.00  0.00     0.165 HD
ATOM     16  O   UNL A   1      28.825  26.583  24.098  1.00  0.00    -0.248 OA
BRANCH  14  17
ATOM     17  N   UNL A   1      31.134  26.790  24.124  1.00  0.00    -0.283 N 
ATOM     18  C   UNL A   1      31.749  26.846  22.800  1.00  0.00     0.227 C 
ATOM     19  C   UNL A   1      31.834  27.472  25.163  1.00  0.00     0.070 A 
ATOM     20  C   UNL A   1      33.236  26.545  22.837  1.00  0.00     0.244 C 
ATOM     21  C   UNL A   1      33.241  27.527  25.067  1.00  0.00     0.065 A 
ATOM     22  C   UNL A   1      31.221  27.953  26.323  1.00  0.00     0.028 A 
ATOM     23  O   UNL A   1      33.845  26.083  21.876  1.00  0.00    -0.273 OA
ATOM     24  N   UNL A   1      33.901  26.992  23.950  1.00  0.00    -0.323 N 
ATOM     25  C   UNL A   1      34.013  28.019  26.121  1.00  0.00     0.028 A 
ATOM     26  C   UNL A   1      31.996  28.468  27.369  1.00  0.00     0.002 A 
ATOM     27  H   UNL A   1      34.884  26.935  23.965  1.00  0.00     0.170 HD
ATOM     28  C   UNL A   1      33.387  28.489  27.273  1.00  0.00     0.002 A 
ENDBRANCH  14  17
ENDBRANCH  12  13
ENDBRANCH   9  12
ENDBRANCH   6   8
ENDBRANCH   3   6
ENDBRANCH   1   2
BRANCH   1  29
ATOM     29  C   UNL A   1      36.690  22.764  24.116  1.00  0.00     0.042 C 
BRANCH  29  30
ATOM     30  C   UNL A   1      37.416  23.194  25.382  1.00  0.00     0.118 C 
BRANCH  30  31
ATOM     31  N   UNL A   1      38.690  22.512  25.581  1.00  0.00    -0.352 N 
ATOM     32  C   UNL A   1      39.807  22.992  26.226  1.00  0.00     0.251 C 
ATOM     33  H   UNL A   1      38.760  21.603  25.210  1.00  0.00     0.163 HD
ATOM     34  O   UNL A   1      40.850  22.348  26.272  1.00  0.00    -0.269 OA
BRANCH  32  35
ATOM     35  C   UNL A   1      39.736  24.345  26.810  1.00  0.00     0.039 A 
ATOM     36  C   UNL A   1      39.226  24.492  28.101  1.00  0.00     0.014 A 
ATOM     37  C   UNL A   1      40.331  25.418  26.143  1.00  0.00     0.014 A 
ATOM     38  C   UNL A   1      39.400  25.704  28.769  1.00  0.00     0.010 A 
ATOM     39  C   UNL A   1      40.575  26.596  26.840  1.00  0.00     0.010 A 
ATOM     40  C   UNL A   1      40.123  26.745  28.162  1.00  0.00    -0.014 A 
BRANCH  40  41
ATOM     41  C   UNL A   1      40.424  28.003  28.889  1.00  0.00     0.031 A 
ATOM     42  C   UNL A   1      41.724  28.137  29.628  1.00  0.00     0.074 A 
ATOM     43  C   UNL A   1      39.504  28.986  28.955  1.00  0.00     0.049 A 
ATOM     44  N   UNL A   1      42.134  29.100  30.413  1.00  0.00    -0.248 NA
ATOM     45  C   UNL A   1      42.679  27.024  29.490  1.00  0.00     0.031 C 
ATOM     46  C   UNL A   1      38.189  28.970  28.310  1.00  0.00     0.029 A 
ATOM     47  N   UNL A   1      39.534  30.192  29.613  1.00  0.00    -0.354 N 
ATOM     48  C   UNL A   1      43.378  28.697  30.881  1.00  0.00     0.074 A 
ATOM     49  C   UNL A   1      43.636  27.385  30.331  1.00  0.00     0.031 C 
ATOM     50  C   UNL A   1      37.550  30.119  28.585  1.00  0.00     0.029 A 
ATOM     51  C   UNL A   1      38.388  30.934  29.460  1.00  0.00     0.049 A 
ATOM     52  H   UNL A   1      40.306  30.496  30.144  1.00  0.00     0.167 HD
ATOM     53  C   UNL A   1      44.240  29.368  31.681  1.00  0.00     0.031 A 
ATOM     54  C   UNL A   1      38.044  32.129  29.977  1.00  0.00     0.031 A 
ATOM     55  C   UNL A   1      43.993  30.679  32.215  1.00  0.00     0.049 A 
ATOM     56  C   UNL A   1      39.013  32.847  30.875  1.00  0.00     0.074 A 
ATOM     57  C   UNL A   1      44.826  31.460  32.995  1.00  0.00     0.029 A 
ATOM     58  N   UNL A   1      42.827  31.401  32.020  1.00  0.00    -0.354 N 
ATOM     59  N   UNL A   1      40.210  32.478  31.264  1.00  0.00    -0.248 NA
ATOM     60  C   UNL A   1      38.588  34.155  31.398  1.00  0.00     0.031 C 
ATOM     61  C   UNL A   1      44.145  32.641  33.310  1.00  0.00     0.029 A 
ATOM     62  C   UNL A   1      42.911  32.615  32.680  1.00  0.00     0.049 A 
ATOM     63  H   UNL A   1      42.054  31.097  31.492  1.00  0.00     0.167 HD
ATOM     64  C   UNL A   1      40.693  33.520  32.046  1.00  0.00     0.074 A 
ATOM     65  C   UNL A   1      39.664  34.538  32.072  1.00  0.00     0.031 C 
ATOM     66  C   UNL A   1      41.884  33.623  32.683  1.00  0.00     0.031 A 
BRANCH  53  67
ATOM     67  C   UNL A   1      45.528  28.679  32.031  1.00  0.00    -0.014 A 
ATOM     68  C   UNL A   1      46.654  28.775  31.197  1.00  0.00     0.009 A 
ATOM     69  C   UNL A   1      45.623  27.940  33.220  1.00  0.00     0.009 A 
ATOM     70  C   UNL A   1      47.837  28.112  31.528  1.00  0.00     0.001 A 
ATOM     71  C   UNL A   1      46.818  27.304  33.563  1.00  0.00     0.001 A 
ATOM     72  C   UNL A   1      47.919  27.382  32.711  1.00  0.00     0.000 A 
ENDBRANCH  53  67
BRANCH  54  73
ATOM     73  C   UNL A   1      36.727  32.736  29.651  1.00  0.00    -0.014 A 
ATOM     74  C   UNL A   1      35.647  32.609  30.538  1.00  0.00     0.009 A 
ATOM     75  C   UNL A   1      36.536  33.430  28.446  1.00  0.00     0.009 A 
ATOM     76  C   UNL A   1      34.397  33.139  30.214  1.00  0.00     0.001 A 
ATOM     77  C   UNL A   1      35.291  33.985  28.137  1.00  0.00     0.001 A 
ATOM     78  C   UNL A   1      34.220  33.830  29.015  1.00  0.00     0.000 A 
ENDBRANCH  54  73
BRANCH  66  79
ATOM     79  C   UNL A   1      42.168  34.903  33.415  1.00  0.00    -0.014 A 
ATOM     80  C   UNL A   1      41.717  35.111  34.728  1.00  0.00     0.009 A 
ATOM     81  C   UNL A   1      42.954  35.891  32.800  1.00  0.00     0.009 A 
ATOM     82  C   UNL A   1      42.026  36.296  35.399  1.00  0.00     0.001 A 
ATOM     83  C   UNL A   1      43.283  37.061  33.482  1.00  0.00     0.001 A 
ATOM     84  C   UNL A   1      42.813  37.266  34.779  1.00  0.00     0.000 A 
ENDBRANCH  66  79
ENDBRANCH  40  41
ENDBRANCH  32  35
ENDBRANCH  30  31
ENDBRANCH  29  30
ENDBRANCH   1  29
TORSDOF 14
ENDMDL
