MODEL 1
REMARK VINA RESULT:      -8.7      0.000      0.000
REMARK SMILES C[C@H](Oc1ccc(/C=C2/SC(=S)N(c3ccc(F)c(Cl)c3)C2=O)cc1)C(=O)NCCCNC(=O)c1ccc(-c2c3nc(c(-c4ccccc4)c4ccc([nH]4)c(-c4ccccc4)c4nc(c(-c5ccccc5)c5ccc2[nH]5)C=C4)C=C3)cc1
REMARK SMILES IDX 29 1 28 2 26 3 27 4 2 6 1 7 3 8 4 9 5 10 25 11 6 12 24 13
REMARK SMILES IDX 7 14 8 15 9 16 10 17 22 18 11 19 13 20 23 21 12 22 14 23
REMARK SMILES IDX 15 24 21 25 16 26 19 27 17 28 20 29 18 30 30 31 31 32 32 33
REMARK SMILES IDX 33 34 34 36 35 37 36 38 82 39 37 40 81 41 38 42 39 43 40 44
REMARK SMILES IDX 75 45 41 46 80 47 74 48 76 49 42 50 79 51 73 52 72 53 43 55
REMARK SMILES IDX 65 56 50 57 64 58 51 59 54 60 63 61 77 62 52 63 53 64 62 66
REMARK SMILES IDX 78 67 55 68 44 69 45 70 49 71 46 72 48 73 47 74 66 75 67 76
REMARK SMILES IDX 71 77 68 78 70 79 69 80 56 81 57 82 61 83 58 84 60 85 59 86
REMARK H PARENT 28 5 32 35 76 54 54 65
REMARK Flexibility Score: inf
ROOT
ATOM      1  C   UNL A   1      35.510  34.403  29.449  1.00  0.00     0.118 C 
ENDROOT
BRANCH   1   2
ATOM      2  N   UNL A   1      35.424  34.585  30.890  1.00  0.00    -0.353 N 
ATOM      3  C   UNL A   1      36.279  34.140  31.868  1.00  0.00     0.260 C 
ATOM      4  O   UNL A   1      36.045  34.468  33.034  1.00  0.00    -0.271 OA
ATOM      5  H   UNL A   1      34.646  35.097  31.208  1.00  0.00     0.163 HD
BRANCH   3   6
ATOM      6  C   UNL A   1      37.509  33.293  31.500  1.00  0.00     0.258 C 
ATOM      7  C   UNL A   1      37.339  31.896  32.105  1.00  0.00     0.064 C 
BRANCH   6   8
ATOM      8  O   UNL A   1      38.602  34.114  31.917  1.00  0.00    -0.481 OA
BRANCH   8   9
ATOM      9  C   UNL A   1      39.691  34.381  31.157  1.00  0.00     0.120 A 
ATOM     10  C   UNL A   1      40.997  34.575  31.589  1.00  0.00     0.047 A 
ATOM     11  C   UNL A   1      39.399  34.509  29.797  1.00  0.00     0.047 A 
ATOM     12  C   UNL A   1      41.964  35.057  30.695  1.00  0.00     0.012 A 
ATOM     13  C   UNL A   1      40.368  34.943  28.897  1.00  0.00     0.012 A 
ATOM     14  C   UNL A   1      41.637  35.301  29.357  1.00  0.00    -0.024 A 
BRANCH  14  15
ATOM     15  C   UNL A   1      42.620  35.922  28.461  1.00  0.00     0.029 C 
ATOM     16  C   UNL A   1      43.637  35.289  27.850  1.00  0.00     0.081 C 
ATOM     17  S   UNL A   1      44.802  36.126  26.899  1.00  0.00    -0.054 SA
ATOM     18  C   UNL A   1      43.989  33.836  27.908  1.00  0.00     0.270 C 
ATOM     19  C   UNL A   1      45.828  34.703  26.715  1.00  0.00     0.152 C 
ATOM     20  N   UNL A   1      45.264  33.622  27.382  1.00  0.00    -0.261 N 
ATOM     21  O   UNL A   1      43.243  32.985  28.376  1.00  0.00    -0.268 OA
ATOM     22  S   UNL A   1      47.196  34.774  25.754  1.00  0.00    -0.051 S 
BRANCH  20  23
ATOM     23  C   UNL A   1      45.901  32.349  27.567  1.00  0.00     0.052 A 
ATOM     24  C   UNL A   1      46.795  32.133  28.632  1.00  0.00     0.030 A 
ATOM     25  C   UNL A   1      45.726  31.313  26.634  1.00  0.00     0.050 A 
ATOM     26  C   UNL A   1      47.487  30.924  28.764  1.00  0.00     0.043 A 
ATOM     27  C   UNL A   1      46.418  30.105  26.767  1.00  0.00     0.078 A 
ATOM     28  C   UNL A   1      47.298  29.916  27.828  1.00  0.00     0.141 A 
ATOM     29  Cl  UNL A   1      46.191  28.871  25.589  1.00  0.00    -0.081 Cl
ATOM     30  F   UNL A   1      47.986  28.774  27.959  1.00  0.00    -0.205 F 
ENDBRANCH  20  23
ENDBRANCH  14  15
ENDBRANCH   8   9
ENDBRANCH   6   8
ENDBRANCH   3   6
ENDBRANCH   1   2
BRANCH   1  31
ATOM     31  C   UNL A   1      34.401  33.524  28.890  1.00  0.00     0.042 C 
BRANCH  31  32
ATOM     32  C   UNL A   1      34.431  32.083  29.387  1.00  0.00     0.118 C 
BRANCH  32  33
ATOM     33  N   UNL A   1      34.033  31.121  28.366  1.00  0.00    -0.352 N 
ATOM     34  C   UNL A   1      34.768  30.160  27.715  1.00  0.00     0.251 C 
ATOM     35  H   UNL A   1      33.086  31.166  28.102  1.00  0.00     0.163 HD
ATOM     36  O   UNL A   1      34.276  29.556  26.766  1.00  0.00    -0.269 OA
BRANCH  34  37
ATOM     37  C   UNL A   1      36.158  29.866  28.127  1.00  0.00     0.039 A 
ATOM     38  C   UNL A   1      36.384  29.328  29.398  1.00  0.00     0.014 A 
ATOM     39  C   UNL A   1      37.236  30.126  27.279  1.00  0.00     0.014 A 
ATOM     40  C   UNL A   1      37.678  28.971  29.782  1.00  0.00     0.010 A 
ATOM     41  C   UNL A   1      38.516  29.704  27.633  1.00  0.00     0.010 A 
ATOM     42  C   UNL A   1      38.748  29.114  28.884  1.00  0.00    -0.014 A 
BRANCH  42  43
ATOM     43  C   UNL A   1      40.109  28.626  29.217  1.00  0.00     0.031 A 
ATOM     44  C   UNL A   1      41.073  29.507  29.962  1.00  0.00     0.074 A 
ATOM     45  C   UNL A   1      40.507  27.418  28.773  1.00  0.00     0.049 A 
ATOM     46  N   UNL A   1      42.331  29.291  30.256  1.00  0.00    -0.248 NA
ATOM     47  C   UNL A   1      40.565  30.810  30.418  1.00  0.00     0.031 C 
ATOM     48  C   UNL A   1      39.684  26.479  28.005  1.00  0.00     0.029 A 
ATOM     49  N   UNL A   1      41.715  26.778  28.893  1.00  0.00    -0.354 N 
ATOM     50  C   UNL A   1      42.769  30.436  30.907  1.00  0.00     0.074 A 
ATOM     51  C   UNL A   1      41.654  31.359  30.934  1.00  0.00     0.031 C 
ATOM     52  C   UNL A   1      40.405  25.377  27.740  1.00  0.00     0.029 A 
ATOM     53  C   UNL A   1      41.749  25.549  28.282  1.00  0.00     0.049 A 
ATOM     54  H   UNL A   1      42.484  27.163  29.373  1.00  0.00     0.167 HD
ATOM     55  C   UNL A   1      43.985  30.693  31.446  1.00  0.00     0.031 A 
ATOM     56  C   UNL A   1      42.754  24.663  28.158  1.00  0.00     0.031 A 
ATOM     57  C   UNL A   1      45.090  29.774  31.437  1.00  0.00     0.049 A 
ATOM     58  C   UNL A   1      44.094  24.976  28.758  1.00  0.00     0.074 A 
ATOM     59  C   UNL A   1      46.339  29.919  32.017  1.00  0.00     0.029 A 
ATOM     60  N   UNL A   1      45.080  28.535  30.814  1.00  0.00    -0.354 N 
ATOM     61  N   UNL A   1      44.474  26.040  29.421  1.00  0.00    -0.248 NA
ATOM     62  C   UNL A   1      45.144  23.960  28.594  1.00  0.00     0.031 C 
ATOM     63  C   UNL A   1      47.099  28.786  31.708  1.00  0.00     0.029 A 
ATOM     64  C   UNL A   1      46.308  27.917  30.973  1.00  0.00     0.049 A 
ATOM     65  H   UNL A   1      44.313  28.153  30.329  1.00  0.00     0.167 HD
ATOM     66  C   UNL A   1      45.799  25.815  29.768  1.00  0.00     0.074 A 
ATOM     67  C   UNL A   1      46.153  24.507  29.257  1.00  0.00     0.031 C 
ATOM     68  C   UNL A   1      46.648  26.621  30.450  1.00  0.00     0.031 A 
BRANCH  55  69
ATOM     69  C   UNL A   1      44.184  32.036  32.091  1.00  0.00    -0.014 A 
ATOM     70  C   UNL A   1      44.837  33.077  31.414  1.00  0.00     0.009 A 
ATOM     71  C   UNL A   1      43.681  32.272  33.380  1.00  0.00     0.009 A 
ATOM     72  C   UNL A   1      45.010  34.319  32.027  1.00  0.00     0.001 A 
ATOM     73  C   UNL A   1      43.834  33.523  33.981  1.00  0.00     0.001 A 
ATOM     74  C   UNL A   1      44.505  34.542  33.308  1.00  0.00     0.000 A 
ENDBRANCH  55  69
BRANCH  56  75
ATOM     75  C   UNL A   1      42.536  23.387  27.432  1.00  0.00    -0.014 A 
ATOM     76  C   UNL A   1      42.051  22.260  28.111  1.00  0.00     0.009 A 
ATOM     77  C   UNL A   1      42.831  23.285  26.064  1.00  0.00     0.009 A 
ATOM     78  C   UNL A   1      41.893  21.046  27.440  1.00  0.00     0.001 A 
ATOM     79  C   UNL A   1      42.650  22.076  25.390  1.00  0.00     0.001 A 
ATOM     80  C   UNL A   1      42.193  20.955  26.082  1.00  0.00     0.000 A 
ENDBRANCH  56  75
BRANCH  68  81
ATOM     81  C   UNL A   1      48.034  26.100  30.693  1.00  0.00    -0.014 A 
ATOM     82  C   UNL A   1      48.401  25.579  31.944  1.00  0.00     0.009 A 
ATOM     83  C   UNL A   1      48.975  26.106  29.652  1.00  0.00     0.009 A 
ATOM     84  C   UNL A   1      49.696  25.100  32.154  1.00  0.00     0.001 A 
ATOM     85  C   UNL A   1      50.260  25.604  29.859  1.00  0.00     0.001 A 
ATOM     86  C   UNL A   1      50.622  25.110  31.111  1.00  0.00     0.000 A 
ENDBRANCH  68  81
ENDBRANCH  42  43
ENDBRANCH  34  37
ENDBRANCH  32  33
ENDBRANCH  31  32
ENDBRANCH   1  31
TORSDOF 14
ENDMDL
MODEL 2
REMARK VINA RESULT:      -8.6      3.940      9.813
REMARK SMILES C[C@H](Oc1ccc(/C=C2/SC(=S)N(c3ccc(F)c(Cl)c3)C2=O)cc1)C(=O)NCCCNC(=O)c1ccc(-c2c3nc(c(-c4ccccc4)c4ccc([nH]4)c(-c4ccccc4)c4nc(c(-c5ccccc5)c5ccc2[nH]5)C=C4)C=C3)cc1
REMARK SMILES IDX 29 1 28 2 26 3 27 4 2 6 1 7 3 8 4 9 5 10 25 11 6 12 24 13
REMARK SMILES IDX 7 14 8 15 9 16 10 17 22 18 11 19 13 20 23 21 12 22 14 23
REMARK SMILES IDX 15 24 21 25 16 26 19 27 17 28 20 29 18 30 30 31 31 32 32 33
REMARK SMILES IDX 33 34 34 36 35 37 36 38 82 39 37 40 81 41 38 42 39 43 40 44
REMARK SMILES IDX 75 45 41 46 80 47 74 48 76 49 42 50 79 51 73 52 72 53 43 55
REMARK SMILES IDX 65 56 50 57 64 58 51 59 54 60 63 61 77 62 52 63 53 64 62 66
REMARK SMILES IDX 78 67 55 68 44 69 45 70 49 71 46 72 48 73 47 74 66 75 67 76
REMARK SMILES IDX 71 77 68 78 70 79 69 80 56 81 57 82 61 83 58 84 60 85 59 86
REMARK H PARENT 28 5 32 35 76 54 54 65
REMARK Flexibility Score: inf
ROOT
ATOM      1  C   UNL A   1      45.262  21.680  25.784  1.00  0.00     0.118 C 
ENDROOT
BRANCH   1   2
ATOM      2  N   UNL A   1      46.084  22.391  24.816  1.00  0.00    -0.353 N 
ATOM      3  C   UNL A   1      46.378  23.731  24.753  1.00  0.00     0.260 C 
ATOM      4  O   UNL A   1      47.155  24.112  23.874  1.00  0.00    -0.271 OA
ATOM      5  H   UNL A   1      46.483  21.835  24.108  1.00  0.00     0.163 HD
BRANCH   3   6
ATOM      6  C   UNL A   1      45.779  24.707  25.778  1.00  0.00     0.258 C 
ATOM      7  C   UNL A   1      45.734  26.106  25.154  1.00  0.00     0.064 C 
BRANCH   6   8
ATOM      8  O   UNL A   1      46.575  24.481  26.943  1.00  0.00    -0.481 OA
BRANCH   8   9
ATOM      9  C   UNL A   1      46.165  24.728  28.210  1.00  0.00     0.120 A 
ATOM     10  C   UNL A   1      46.813  25.485  29.177  1.00  0.00     0.047 A 
ATOM     11  C   UNL A   1      44.971  24.083  28.540  1.00  0.00     0.047 A 
ATOM     12  C   UNL A   1      46.360  25.460  30.504  1.00  0.00     0.012 A 
ATOM     13  C   UNL A   1      44.492  24.093  29.847  1.00  0.00     0.012 A 
ATOM     14  C   UNL A   1      45.230  24.713  30.856  1.00  0.00    -0.024 A 
BRANCH  14  15
ATOM     15  C   UNL A   1      44.839  24.593  32.265  1.00  0.00     0.029 C 
ATOM     16  C   UNL A   1      44.156  25.511  32.973  1.00  0.00     0.081 C 
ATOM     17  S   UNL A   1      43.834  25.323  34.653  1.00  0.00    -0.054 SA
ATOM     18  C   UNL A   1      43.620  26.827  32.505  1.00  0.00     0.270 C 
ATOM     19  C   UNL A   1      43.187  26.956  34.818  1.00  0.00     0.152 C 
ATOM     20  N   UNL A   1      43.231  27.609  33.592  1.00  0.00    -0.261 N 
ATOM     21  O   UNL A   1      43.563  27.144  31.323  1.00  0.00    -0.268 OA
ATOM     22  S   UNL A   1      42.548  27.461  36.280  1.00  0.00    -0.051 S 
BRANCH  20  23
ATOM     23  C   UNL A   1      42.925  28.998  33.392  1.00  0.00     0.052 A 
ATOM     24  C   UNL A   1      43.947  29.960  33.298  1.00  0.00     0.030 A 
ATOM     25  C   UNL A   1      41.594  29.448  33.381  1.00  0.00     0.050 A 
ATOM     26  C   UNL A   1      43.652  31.324  33.193  1.00  0.00     0.043 A 
ATOM     27  C   UNL A   1      41.300  30.812  33.277  1.00  0.00     0.078 A 
ATOM     28  C   UNL A   1      42.329  31.744  33.187  1.00  0.00     0.141 A 
ATOM     29  Cl  UNL A   1      39.657  31.322  33.291  1.00  0.00    -0.081 Cl
ATOM     30  F   UNL A   1      42.067  33.056  33.107  1.00  0.00    -0.205 F 
ENDBRANCH  20  23
ENDBRANCH  14  15
ENDBRANCH   8   9
ENDBRANCH   6   8
ENDBRANCH   3   6
ENDBRANCH   1   2
BRANCH   1  31
ATOM     31  C   UNL A   1      43.859  21.383  25.275  1.00  0.00     0.042 C 
BRANCH  31  32
ATOM     32  C   UNL A   1      42.879  22.539  25.427  1.00  0.00     0.118 C 
BRANCH  32  33
ATOM     33  N   UNL A   1      41.508  22.096  25.656  1.00  0.00    -0.352 N 
ATOM     34  C   UNL A   1      40.489  22.688  26.363  1.00  0.00     0.251 C 
ATOM     35  H   UNL A   1      41.276  21.236  25.238  1.00  0.00     0.163 HD
ATOM     36  O   UNL A   1      39.450  22.066  26.569  1.00  0.00    -0.269 OA
BRANCH  34  37
ATOM     37  C   UNL A   1      40.641  24.056  26.903  1.00  0.00     0.039 A 
ATOM     38  C   UNL A   1      41.029  24.214  28.238  1.00  0.00     0.014 A 
ATOM     39  C   UNL A   1      40.395  25.180  26.112  1.00  0.00     0.014 A 
ATOM     40  C   UNL A   1      41.253  25.493  28.751  1.00  0.00     0.010 A 
ATOM     41  C   UNL A   1      40.688  26.451  26.601  1.00  0.00     0.010 A 
ATOM     42  C   UNL A   1      41.128  26.620  27.922  1.00  0.00    -0.014 A 
BRANCH  42  43
ATOM     43  C   UNL A   1      41.484  27.977  28.404  1.00  0.00     0.031 A 
ATOM     44  C   UNL A   1      40.409  28.941  28.826  1.00  0.00     0.074 A 
ATOM     45  C   UNL A   1      42.771  28.373  28.380  1.00  0.00     0.049 A 
ATOM     46  N   UNL A   1      40.520  30.197  29.180  1.00  0.00    -0.248 NA
ATOM     47  C   UNL A   1      39.028  28.435  28.828  1.00  0.00     0.031 C 
ATOM     48  C   UNL A   1      43.908  27.550  27.957  1.00  0.00     0.029 A 
ATOM     49  N   UNL A   1      43.339  29.578  28.709  1.00  0.00    -0.354 N 
ATOM     50  C   UNL A   1      39.226  30.636  29.424  1.00  0.00     0.074 A 
ATOM     51  C   UNL A   1      38.342  29.524  29.142  1.00  0.00     0.031 C 
ATOM     52  C   UNL A   1      45.037  28.269  28.070  1.00  0.00     0.029 A 
ATOM     53  C   UNL A   1      44.700  29.611  28.533  1.00  0.00     0.049 A 
ATOM     54  H   UNL A   1      42.819  30.346  29.041  1.00  0.00     0.167 HD
ATOM     55  C   UNL A   1      38.808  31.851  29.856  1.00  0.00     0.031 A 
ATOM     56  C   UNL A   1      45.580  30.613  28.710  1.00  0.00     0.031 A 
ATOM     57  C   UNL A   1      39.683  32.952  30.153  1.00  0.00     0.049 A 
ATOM     58  C   UNL A   1      45.090  31.952  29.182  1.00  0.00     0.074 A 
ATOM     59  C   UNL A   1      39.358  34.199  30.660  1.00  0.00     0.029 A 
ATOM     60  N   UNL A   1      41.057  32.941  29.968  1.00  0.00    -0.354 N 
ATOM     61  N   UNL A   1      43.869  32.332  29.463  1.00  0.00    -0.248 NA
ATOM     62  C   UNL A   1      46.107  32.999  29.364  1.00  0.00     0.031 C 
ATOM     63  C   UNL A   1      40.532  34.957  30.743  1.00  0.00     0.029 A 
ATOM     64  C   UNL A   1      41.591  34.166  30.327  1.00  0.00     0.049 A 
ATOM     65  H   UNL A   1      41.575  32.174  29.631  1.00  0.00     0.167 HD
ATOM     66  C   UNL A   1      43.971  33.655  29.872  1.00  0.00     0.074 A 
ATOM     67  C   UNL A   1      45.375  34.006  29.818  1.00  0.00     0.031 C 
ATOM     68  C   UNL A   1      42.988  34.504  30.257  1.00  0.00     0.031 A 
BRANCH  55  69
ATOM     69  C   UNL A   1      37.329  32.051  30.029  1.00  0.00    -0.014 A 
ATOM     70  C   UNL A   1      36.702  31.803  31.259  1.00  0.00     0.009 A 
ATOM     71  C   UNL A   1      36.561  32.529  28.956  1.00  0.00     0.009 A 
ATOM     72  C   UNL A   1      35.327  31.999  31.402  1.00  0.00     0.001 A 
ATOM     73  C   UNL A   1      35.190  32.747  29.109  1.00  0.00     0.001 A 
ATOM     74  C   UNL A   1      34.573  32.474  30.329  1.00  0.00     0.000 A 
ENDBRANCH  55  69
BRANCH  56  75
ATOM     75  C   UNL A   1      47.023  30.394  28.439  1.00  0.00    -0.014 A 
ATOM     76  C   UNL A   1      47.544  30.616  27.157  1.00  0.00     0.009 A 
ATOM     77  C   UNL A   1      47.879  29.945  29.456  1.00  0.00     0.009 A 
ATOM     78  C   UNL A   1      48.890  30.364  26.889  1.00  0.00     0.001 A 
ATOM     79  C   UNL A   1      49.230  29.716  29.192  1.00  0.00     0.001 A 
ATOM     80  C   UNL A   1      49.732  29.913  27.905  1.00  0.00     0.000 A 
ENDBRANCH  56  75
BRANCH  68  81
ATOM     81  C   UNL A   1      43.403  35.887  30.665  1.00  0.00    -0.014 A 
ATOM     82  C   UNL A   1      43.750  36.176  31.994  1.00  0.00     0.009 A 
ATOM     83  C   UNL A   1      43.475  36.906  29.703  1.00  0.00     0.009 A 
ATOM     84  C   UNL A   1      44.132  37.469  32.357  1.00  0.00     0.001 A 
ATOM     85  C   UNL A   1      43.881  38.191  30.064  1.00  0.00     0.001 A 
ATOM     86  C   UNL A   1      44.201  38.473  31.391  1.00  0.00     0.000 A 
ENDBRANCH  68  81
ENDBRANCH  42  43
ENDBRANCH  34  37
ENDBRANCH  32  33
ENDBRANCH  31  32
ENDBRANCH   1  31
TORSDOF 14
ENDMDL
MODEL 3
REMARK VINA RESULT:      -8.5      5.729      9.243
REMARK SMILES C[C@H](Oc1ccc(/C=C2/SC(=S)N(c3ccc(F)c(Cl)c3)C2=O)cc1)C(=O)NCCCNC(=O)c1ccc(-c2c3nc(c(-c4ccccc4)c4ccc([nH]4)c(-c4ccccc4)c4nc(c(-c5ccccc5)c5ccc2[nH]5)C=C4)C=C3)cc1
REMARK SMILES IDX 29 1 28 2 26 3 27 4 2 6 1 7 3 8 4 9 5 10 25 11 6 12 24 13
REMARK SMILES IDX 7 14 8 15 9 16 10 17 22 18 11 19 13 20 23 21 12 22 14 23
REMARK SMILES IDX 15 24 21 25 16 26 19 27 17 28 20 29 18 30 30 31 31 32 32 33
REMARK SMILES IDX 33 34 34 36 35 37 36 38 82 39 37 40 81 41 38 42 39 43 40 44
REMARK SMILES IDX 75 45 41 46 80 47 74 48 76 49 42 50 79 51 73 52 72 53 43 55
REMARK SMILES IDX 65 56 50 57 64 58 51 59 54 60 63 61 77 62 52 63 53 64 62 66
REMARK SMILES IDX 78 67 55 68 44 69 45 70 49 71 46 72 48 73 47 74 66 75 67 76
REMARK SMILES IDX 71 77 68 78 70 79 69 80 56 81 57 82 61 83 58 84 60 85 59 86
REMARK H PARENT 28 5 32 35 76 54 54 65
REMARK Flexibility Score: inf
ROOT
ATOM      1  C   UNL A   1      34.397  34.915  28.274  1.00  0.00     0.118 C 
ENDROOT
BRANCH   1   2
ATOM      2  N   UNL A   1      34.670  33.732  29.076  1.00  0.00    -0.353 N 
ATOM      3  C   UNL A   1      34.418  32.414  28.784  1.00  0.00     0.260 C 
ATOM      4  O   UNL A   1      34.795  31.560  29.591  1.00  0.00    -0.271 OA
ATOM      5  H   UNL A   1      35.093  33.899  29.949  1.00  0.00     0.163 HD
BRANCH   3   6
ATOM      6  C   UNL A   1      33.721  32.029  27.469  1.00  0.00     0.258 C 
ATOM      7  C   UNL A   1      32.308  32.621  27.471  1.00  0.00     0.064 C 
BRANCH   6   8
ATOM      8  O   UNL A   1      33.890  30.611  27.417  1.00  0.00    -0.481 OA
BRANCH   8   9
ATOM      9  C   UNL A   1      33.012  29.755  26.842  1.00  0.00     0.120 A 
ATOM     10  C   UNL A   1      32.123  28.899  27.479  1.00  0.00     0.047 A 
ATOM     11  C   UNL A   1      33.087  29.742  25.447  1.00  0.00     0.047 A 
ATOM     12  C   UNL A   1      31.439  27.925  26.738  1.00  0.00     0.012 A 
ATOM     13  C   UNL A   1      32.374  28.806  24.703  1.00  0.00     0.012 A 
ATOM     14  C   UNL A   1      31.609  27.835  25.352  1.00  0.00    -0.024 A 
BRANCH  14  15
ATOM     15  C   UNL A   1      30.988  26.735  24.605  1.00  0.00     0.029 C 
ATOM     16  C   UNL A   1      31.511  25.509  24.430  1.00  0.00     0.081 C 
ATOM     17  S   UNL A   1      30.753  24.317  23.447  1.00  0.00    -0.054 SA
ATOM     18  C   UNL A   1      32.802  24.971  24.961  1.00  0.00     0.270 C 
ATOM     19  C   UNL A   1      32.122  23.209  23.551  1.00  0.00     0.152 C 
ATOM     20  N   UNL A   1      33.127  23.770  24.330  1.00  0.00    -0.261 N 
ATOM     21  O   UNL A   1      33.463  25.544  25.819  1.00  0.00    -0.268 OA
ATOM     22  S   UNL A   1      32.029  21.693  22.850  1.00  0.00    -0.051 S 
BRANCH  20  23
ATOM     23  C   UNL A   1      34.439  23.212  24.502  1.00  0.00     0.052 A 
ATOM     24  C   UNL A   1      35.590  24.012  24.382  1.00  0.00     0.030 A 
ATOM     25  C   UNL A   1      34.615  21.832  24.698  1.00  0.00     0.050 A 
ATOM     26  C   UNL A   1      36.872  23.456  24.459  1.00  0.00     0.043 A 
ATOM     27  C   UNL A   1      35.896  21.277  24.775  1.00  0.00     0.078 A 
ATOM     28  C   UNL A   1      37.018  22.089  24.652  1.00  0.00     0.141 A 
ATOM     29  Cl  UNL A   1      36.065  19.579  24.994  1.00  0.00    -0.081 Cl
ATOM     30  F   UNL A   1      38.254  21.572  24.702  1.00  0.00    -0.205 F 
ENDBRANCH  20  23
ENDBRANCH  14  15
ENDBRANCH   8   9
ENDBRANCH   6   8
ENDBRANCH   3   6
ENDBRANCH   1   2
BRANCH   1  31
ATOM     31  C   UNL A   1      33.582  35.965  29.015  1.00  0.00     0.042 C 
BRANCH  31  32
ATOM     32  C   UNL A   1      32.583  35.395  30.014  1.00  0.00     0.118 C 
BRANCH  32  33
ATOM     33  N   UNL A   1      32.462  36.201  31.222  1.00  0.00    -0.352 N 
ATOM     34  C   UNL A   1      33.128  36.113  32.421  1.00  0.00     0.251 C 
ATOM     35  H   UNL A   1      31.797  36.925  31.172  1.00  0.00     0.163 HD
ATOM     36  O   UNL A   1      32.760  36.794  33.374  1.00  0.00    -0.269 OA
BRANCH  34  37
ATOM     37  C   UNL A   1      34.267  35.183  32.584  1.00  0.00     0.039 A 
ATOM     38  C   UNL A   1      35.532  35.585  32.146  1.00  0.00     0.014 A 
ATOM     39  C   UNL A   1      34.095  33.918  33.151  1.00  0.00     0.014 A 
ATOM     40  C   UNL A   1      36.637  34.757  32.357  1.00  0.00     0.010 A 
ATOM     41  C   UNL A   1      35.206  33.125  33.426  1.00  0.00     0.010 A 
ATOM     42  C   UNL A   1      36.489  33.540  33.041  1.00  0.00    -0.014 A 
BRANCH  42  43
ATOM     43  C   UNL A   1      37.662  32.701  33.392  1.00  0.00     0.031 A 
ATOM     44  C   UNL A   1      38.427  32.955  34.661  1.00  0.00     0.074 A 
ATOM     45  C   UNL A   1      38.091  31.765  32.523  1.00  0.00     0.049 A 
ATOM     46  N   UNL A   1      39.531  32.392  35.086  1.00  0.00    -0.248 NA
ATOM     47  C   UNL A   1      37.895  33.991  35.560  1.00  0.00     0.031 C 
ATOM     48  C   UNL A   1      37.463  31.444  31.238  1.00  0.00     0.029 A 
ATOM     49  N   UNL A   1      39.168  30.918  32.586  1.00  0.00    -0.354 N 
ATOM     50  C   UNL A   1      39.837  33.020  36.285  1.00  0.00     0.074 A 
ATOM     51  C   UNL A   1      38.824  34.031  36.504  1.00  0.00     0.031 C 
ATOM     52  C   UNL A   1      38.156  30.458  30.645  1.00  0.00     0.029 A 
ATOM     53  C   UNL A   1      39.296  30.108  31.485  1.00  0.00     0.049 A 
ATOM     54  H   UNL A   1      39.791  30.894  33.349  1.00  0.00     0.167 HD
ATOM     55  C   UNL A   1      40.861  32.771  37.137  1.00  0.00     0.031 A 
ATOM     56  C   UNL A   1      40.234  29.194  31.178  1.00  0.00     0.031 A 
ATOM     57  C   UNL A   1      41.860  31.757  36.932  1.00  0.00     0.049 A 
ATOM     58  C   UNL A   1      41.364  28.943  32.135  1.00  0.00     0.074 A 
ATOM     59  C   UNL A   1      42.897  31.386  37.772  1.00  0.00     0.029 A 
ATOM     60  N   UNL A   1      41.948  30.952  35.807  1.00  0.00    -0.354 N 
ATOM     61  N   UNL A   1      41.606  29.506  33.292  1.00  0.00    -0.248 NA
ATOM     62  C   UNL A   1      42.348  27.924  31.741  1.00  0.00     0.031 C 
ATOM     63  C   UNL A   1      43.638  30.384  37.135  1.00  0.00     0.029 A 
ATOM     64  C   UNL A   1      43.036  30.104  35.918  1.00  0.00     0.049 A 
ATOM     65  H   UNL A   1      41.329  30.982  35.042  1.00  0.00     0.167 HD
ATOM     66  C   UNL A   1      42.758  28.898  33.773  1.00  0.00     0.074 A 
ATOM     67  C   UNL A   1      43.157  27.912  32.790  1.00  0.00     0.031 C 
ATOM     68  C   UNL A   1      43.426  29.137  34.927  1.00  0.00     0.031 A 
BRANCH  55  69
ATOM     69  C   UNL A   1      40.954  33.620  38.373  1.00  0.00    -0.014 A 
ATOM     70  C   UNL A   1      40.322  33.237  39.566  1.00  0.00     0.009 A 
ATOM     71  C   UNL A   1      41.714  34.801  38.352  1.00  0.00     0.009 A 
ATOM     72  C   UNL A   1      40.422  34.037  40.706  1.00  0.00     0.001 A 
ATOM     73  C   UNL A   1      41.832  35.586  39.501  1.00  0.00     0.001 A 
ATOM     74  C   UNL A   1      41.180  35.208  40.673  1.00  0.00     0.000 A 
ENDBRANCH  55  69
BRANCH  56  75
ATOM     75  C   UNL A   1      40.151  28.442  29.901  1.00  0.00    -0.014 A 
ATOM     76  C   UNL A   1      39.451  27.229  29.838  1.00  0.00     0.009 A 
ATOM     77  C   UNL A   1      40.788  28.924  28.746  1.00  0.00     0.009 A 
ATOM     78  C   UNL A   1      39.414  26.497  28.650  1.00  0.00     0.001 A 
ATOM     79  C   UNL A   1      40.729  28.201  27.554  1.00  0.00     0.001 A 
ATOM     80  C   UNL A   1      40.053  26.982  27.511  1.00  0.00     0.000 A 
ENDBRANCH  56  75
BRANCH  68  81
ATOM     81  C   UNL A   1      44.647  28.305  35.192  1.00  0.00    -0.014 A 
ATOM     82  C   UNL A   1      44.551  27.068  35.848  1.00  0.00     0.009 A 
ATOM     83  C   UNL A   1      45.904  28.751  34.755  1.00  0.00     0.009 A 
ATOM     84  C   UNL A   1      45.697  26.308  36.088  1.00  0.00     0.001 A 
ATOM     85  C   UNL A   1      47.043  27.977  34.974  1.00  0.00     0.001 A 
ATOM     86  C   UNL A   1      46.941  26.761  35.648  1.00  0.00     0.000 A 
ENDBRANCH  68  81
ENDBRANCH  42  43
ENDBRANCH  34  37
ENDBRANCH  32  33
ENDBRANCH  31  32
ENDBRANCH   1  31
TORSDOF 14
ENDMDL
