MODEL 1
REMARK VINA RESULT:     -12.7      0.000      0.000
REMARK SMILES Cc1ccc(NC(=O)C[C@H]2SC[C@H](C(=O)NCCCNC(=O)c3ccc(-c4c5nc(c(-c6ccccc6)c6ccc([nH]6)c(-c6ccccc6)c6nc(c(-c7ccccc7)c7ccc4[nH]7)C=C6)C=C5)cc3)NC2=O)cc1
REMARK SMILES IDX 17 1 16 2 14 3 15 4 13 6 10 7 11 8 72 9 12 10 71 11 73 12
REMARK SMILES IDX 9 14 7 15 6 16 8 18 5 19 1 20 2 21 3 22 75 23 4 24 74 25
REMARK SMILES IDX 18 26 19 27 20 28 21 29 22 31 23 32 24 33 70 34 25 35 69 36
REMARK SMILES IDX 26 37 27 38 28 39 63 40 29 41 68 42 62 43 64 44 30 45 67 46
REMARK SMILES IDX 61 47 60 48 31 50 53 51 38 52 52 53 39 54 42 55 51 56 65 57
REMARK SMILES IDX 40 58 41 59 50 61 66 62 43 63 32 64 33 65 37 66 34 67 36 68
REMARK SMILES IDX 35 69 54 70 55 71 59 72 56 73 58 74 57 75 44 76 45 77 49 78
REMARK SMILES IDX 46 79 48 80 47 81
REMARK H PARENT 16 5 71 13 6 17 20 30 64 49 42 60
REMARK Flexibility Score: inf
ROOT
ATOM      1  C   UNL A   1      38.002  22.978  25.791  1.00  0.00     0.117 C 
ENDROOT
BRANCH   1   2
ATOM      2  N   UNL A   1      37.428  23.354  24.505  1.00  0.00    -0.354 N 
ATOM      3  C   UNL A   1      36.163  23.225  24.006  1.00  0.00     0.243 C 
ATOM      4  O   UNL A   1      35.993  23.544  22.826  1.00  0.00    -0.273 OA
ATOM      5  H   UNL A   1      38.066  23.776  23.885  1.00  0.00     0.163 HD
BRANCH   3   6
ATOM      6  C   UNL A   1      35.002  22.625  24.823  1.00  0.00     0.181 C 
ATOM      7  C   UNL A   1      32.005  22.784  25.248  1.00  0.00     0.145 C 
ATOM      8  S   UNL A   1      33.035  23.048  26.754  1.00  0.00    -0.145 SA
ATOM      9  C   UNL A   1      32.697  21.751  24.349  1.00  0.00     0.234 C 
ATOM     10  C   UNL A   1      34.528  23.610  25.889  1.00  0.00     0.105 C 
ATOM     11  N   UNL A   1      33.979  22.049  23.950  1.00  0.00    -0.343 N 
ATOM     12  O   UNL A   1      32.168  20.749  23.880  1.00  0.00    -0.274 OA
ATOM     13  H   UNL A   1      34.225  21.862  23.015  1.00  0.00     0.164 HD
BRANCH   7  14
ATOM     14  C   UNL A   1      30.542  22.580  25.647  1.00  0.00     0.124 C 
BRANCH  14  15
ATOM     15  C   UNL A   1      29.979  23.401  26.785  1.00  0.00     0.226 C 
ATOM     16  N   UNL A   1      29.774  24.742  26.713  1.00  0.00    -0.326 N 
ATOM     17  H   UNL A   1      29.302  25.104  27.499  1.00  0.00     0.169 HD
ATOM     18  O   UNL A   1      29.682  22.838  27.845  1.00  0.00    -0.275 OA
BRANCH  16  19
ATOM     19  C   UNL A   1      30.088  25.719  25.763  1.00  0.00     0.041 A 
ATOM     20  C   UNL A   1      31.302  28.834  23.034  1.00  0.00     0.044 C 
ATOM     21  C   UNL A   1      30.893  27.742  23.976  1.00  0.00    -0.051 A 
ATOM     22  C   UNL A   1      29.728  27.002  23.741  1.00  0.00     0.005 A 
ATOM     23  C   UNL A   1      31.662  27.451  25.104  1.00  0.00     0.005 A 
ATOM     24  C   UNL A   1      29.329  25.991  24.628  1.00  0.00     0.026 A 
ATOM     25  C   UNL A   1      31.271  26.435  25.977  1.00  0.00     0.026 A 
ENDBRANCH  16  19
ENDBRANCH  14  15
ENDBRANCH   7  14
ENDBRANCH   3   6
ENDBRANCH   1   2
BRANCH   1  26
ATOM     26  C   UNL A   1      38.667  21.602  25.752  1.00  0.00     0.042 C 
BRANCH  26  27
ATOM     27  C   UNL A   1      40.011  21.530  26.463  1.00  0.00     0.118 C 
BRANCH  27  28
ATOM     28  N   UNL A   1      40.969  20.621  25.846  1.00  0.00    -0.352 N 
ATOM     29  C   UNL A   1      42.355  20.653  25.908  1.00  0.00     0.251 C 
ATOM     30  H   UNL A   1      40.582  19.888  25.315  1.00  0.00     0.163 HD
ATOM     31  O   UNL A   1      43.021  19.787  25.370  1.00  0.00    -0.269 OA
BRANCH  29  32
ATOM     32  C   UNL A   1      43.002  21.684  26.755  1.00  0.00     0.039 A 
ATOM     33  C   UNL A   1      42.784  21.620  28.134  1.00  0.00     0.014 A 
ATOM     34  C   UNL A   1      43.588  22.811  26.184  1.00  0.00     0.014 A 
ATOM     35  C   UNL A   1      42.904  22.780  28.892  1.00  0.00     0.010 A 
ATOM     36  C   UNL A   1      43.612  23.986  26.910  1.00  0.00     0.010 A 
ATOM     37  C   UNL A   1      43.195  23.983  28.245  1.00  0.00    -0.014 A 
BRANCH  37  38
ATOM     38  C   UNL A   1      42.920  25.281  28.851  1.00  0.00     0.031 A 
ATOM     39  C   UNL A   1      41.720  26.055  28.485  1.00  0.00     0.074 A 
ATOM     40  C   UNL A   1      43.779  25.784  29.766  1.00  0.00     0.049 A 
ATOM     41  N   UNL A   1      41.657  27.345  28.519  1.00  0.00    -0.248 NA
ATOM     42  C   UNL A   1      40.496  25.427  28.001  1.00  0.00     0.031 C 
ATOM     43  C   UNL A   1      43.580  26.937  30.638  1.00  0.00     0.029 A 
ATOM     44  N   UNL A   1      45.123  25.459  29.927  1.00  0.00    -0.354 N 
ATOM     45  C   UNL A   1      40.342  27.695  28.341  1.00  0.00     0.074 A 
ATOM     46  C   UNL A   1      39.671  26.476  27.947  1.00  0.00     0.031 C 
ATOM     47  C   UNL A   1      44.779  27.374  31.061  1.00  0.00     0.029 A 
ATOM     48  C   UNL A   1      45.798  26.607  30.363  1.00  0.00     0.049 A 
ATOM     49  H   UNL A   1      45.529  24.577  29.765  1.00  0.00     0.167 HD
ATOM     50  C   UNL A   1      39.913  28.942  28.680  1.00  0.00     0.031 A 
ATOM     51  C   UNL A   1      46.812  27.149  29.627  1.00  0.00     0.031 A 
ATOM     52  C   UNL A   1      40.993  29.782  29.182  1.00  0.00     0.049 A 
ATOM     53  C   UNL A   1      46.523  28.549  29.130  1.00  0.00     0.074 A 
ATOM     54  C   UNL A   1      41.412  30.106  30.462  1.00  0.00     0.029 A 
ATOM     55  N   UNL A   1      42.009  30.179  28.322  1.00  0.00    -0.354 N 
ATOM     56  N   UNL A   1      45.335  29.085  29.108  1.00  0.00    -0.248 NA
ATOM     57  C   UNL A   1      47.542  29.435  28.570  1.00  0.00     0.031 C 
ATOM     58  C   UNL A   1      42.726  30.630  30.374  1.00  0.00     0.029 A 
ATOM     59  C   UNL A   1      43.090  30.654  29.040  1.00  0.00     0.049 A 
ATOM     60  H   UNL A   1      41.966  30.127  27.339  1.00  0.00     0.167 HD
ATOM     61  C   UNL A   1      45.403  30.328  28.539  1.00  0.00     0.074 A 
ATOM     62  C   UNL A   1      46.809  30.511  28.232  1.00  0.00     0.031 C 
ATOM     63  C   UNL A   1      44.293  31.099  28.353  1.00  0.00     0.031 A 
BRANCH  50  64
ATOM     64  C   UNL A   1      38.451  29.262  28.845  1.00  0.00    -0.014 A 
ATOM     65  C   UNL A   1      37.718  29.764  27.755  1.00  0.00     0.009 A 
ATOM     66  C   UNL A   1      37.758  29.144  30.062  1.00  0.00     0.009 A 
ATOM     67  C   UNL A   1      36.404  30.225  27.897  1.00  0.00     0.001 A 
ATOM     68  C   UNL A   1      36.458  29.643  30.222  1.00  0.00     0.001 A 
ATOM     69  C   UNL A   1      35.785  30.197  29.140  1.00  0.00     0.000 A 
ENDBRANCH  50  64
BRANCH  51  70
ATOM     70  C   UNL A   1      47.617  26.142  28.882  1.00  0.00    -0.014 A 
ATOM     71  C   UNL A   1      47.352  25.955  27.510  1.00  0.00     0.009 A 
ATOM     72  C   UNL A   1      48.822  25.653  29.403  1.00  0.00     0.009 A 
ATOM     73  C   UNL A   1      48.313  25.394  26.664  1.00  0.00     0.001 A 
ATOM     74  C   UNL A   1      49.779  25.083  28.553  1.00  0.00     0.001 A 
ATOM     75  C   UNL A   1      49.538  24.986  27.183  1.00  0.00     0.000 A 
ENDBRANCH  51  70
BRANCH  63  76
ATOM     76  C   UNL A   1      44.235  32.381  27.565  1.00  0.00    -0.014 A 
ATOM     77  C   UNL A   1      44.347  32.450  26.170  1.00  0.00     0.009 A 
ATOM     78  C   UNL A   1      43.912  33.580  28.240  1.00  0.00     0.009 A 
ATOM     79  C   UNL A   1      44.190  33.665  25.489  1.00  0.00     0.001 A 
ATOM     80  C   UNL A   1      43.713  34.783  27.561  1.00  0.00     0.001 A 
ATOM     81  C   UNL A   1      43.863  34.828  26.182  1.00  0.00     0.000 A 
ENDBRANCH  63  76
ENDBRANCH  37  38
ENDBRANCH  29  32
ENDBRANCH  27  28
ENDBRANCH  26  27
ENDBRANCH   1  26
TORSDOF 13
ENDMDL
MODEL 2
REMARK VINA RESULT:     -12.0      3.976      8.906
REMARK SMILES Cc1ccc(NC(=O)C[C@H]2SC[C@H](C(=O)NCCCNC(=O)c3ccc(-c4c5nc(c(-c6ccccc6)c6ccc([nH]6)c(-c6ccccc6)c6nc(c(-c7ccccc7)c7ccc4[nH]7)C=C6)C=C5)cc3)NC2=O)cc1
REMARK SMILES IDX 17 1 16 2 14 3 15 4 13 6 10 7 11 8 72 9 12 10 71 11 73 12
REMARK SMILES IDX 9 14 7 15 6 16 8 18 5 19 1 20 2 21 3 22 75 23 4 24 74 25
REMARK SMILES IDX 18 26 19 27 20 28 21 29 22 31 23 32 24 33 70 34 25 35 69 36
REMARK SMILES IDX 26 37 27 38 28 39 63 40 29 41 68 42 62 43 64 44 30 45 67 46
REMARK SMILES IDX 61 47 60 48 31 50 53 51 38 52 52 53 39 54 42 55 51 56 65 57
REMARK SMILES IDX 40 58 41 59 50 61 66 62 43 63 32 64 33 65 37 66 34 67 36 68
REMARK SMILES IDX 35 69 54 70 55 71 59 72 56 73 58 74 57 75 44 76 45 77 49 78
REMARK SMILES IDX 46 79 48 80 47 81
REMARK H PARENT 16 5 71 13 6 17 20 30 64 49 42 60
REMARK Flexibility Score: inf
ROOT
ATOM      1  C   UNL A   1      33.989  29.772  26.578  1.00  0.00     0.117 C 
ENDROOT
BRANCH   1   2
ATOM      2  N   UNL A   1      33.655  29.711  25.161  1.00  0.00    -0.354 N 
ATOM      3  C   UNL A   1      33.320  28.661  24.355  1.00  0.00     0.243 C 
ATOM      4  O   UNL A   1      33.190  28.900  23.151  1.00  0.00    -0.273 OA
ATOM      5  H   UNL A   1      33.676  30.582  24.703  1.00  0.00     0.163 HD
BRANCH   3   6
ATOM      6  C   UNL A   1      33.193  27.216  24.877  1.00  0.00     0.181 C 
ATOM      7  C   UNL A   1      31.717  24.605  24.443  1.00  0.00     0.145 C 
ATOM      8  S   UNL A   1      31.591  25.315  26.139  1.00  0.00    -0.145 SA
ATOM      9  C   UNL A   1      33.109  24.915  23.878  1.00  0.00     0.234 C 
ATOM     10  C   UNL A   1      31.898  27.040  25.666  1.00  0.00     0.105 C 
ATOM     11  N   UNL A   1      33.464  26.242  23.818  1.00  0.00    -0.343 N 
ATOM     12  O   UNL A   1      33.874  24.094  23.384  1.00  0.00    -0.274 OA
ATOM     13  H   UNL A   1      33.929  26.559  23.011  1.00  0.00     0.164 HD
BRANCH   7  14
ATOM     14  C   UNL A   1      31.204  23.163  24.442  1.00  0.00     0.124 C 
BRANCH  14  15
ATOM     15  C   UNL A   1      31.131  22.420  25.756  1.00  0.00     0.226 C 
ATOM     16  N   UNL A   1      32.222  21.958  26.420  1.00  0.00    -0.326 N 
ATOM     17  H   UNL A   1      32.009  21.593  27.310  1.00  0.00     0.169 HD
ATOM     18  O   UNL A   1      30.025  22.215  26.271  1.00  0.00    -0.275 OA
BRANCH  16  19
ATOM     19  C   UNL A   1      33.585  21.888  26.110  1.00  0.00     0.041 A 
ATOM     20  C   UNL A   1      37.732  21.367  25.036  1.00  0.00     0.044 C 
ATOM     21  C   UNL A   1      36.288  21.552  25.393  1.00  0.00    -0.051 A 
ATOM     22  C   UNL A   1      35.876  22.668  26.132  1.00  0.00     0.005 A 
ATOM     23  C   UNL A   1      35.332  20.613  25.000  1.00  0.00     0.005 A 
ATOM     24  C   UNL A   1      34.531  22.838  26.486  1.00  0.00     0.026 A 
ATOM     25  C   UNL A   1      33.991  20.792  25.340  1.00  0.00     0.026 A 
ENDBRANCH  16  19
ENDBRANCH  14  15
ENDBRANCH   7  14
ENDBRANCH   3   6
ENDBRANCH   1   2
BRANCH   1  26
ATOM     26  C   UNL A   1      33.242  30.890  27.305  1.00  0.00     0.042 C 
BRANCH  26  27
ATOM     27  C   UNL A   1      34.140  31.882  28.031  1.00  0.00     0.118 C 
BRANCH  27  28
ATOM     28  N   UNL A   1      33.439  33.036  28.581  1.00  0.00    -0.352 N 
ATOM     29  C   UNL A   1      33.896  33.967  29.504  1.00  0.00     0.251 C 
ATOM     30  H   UNL A   1      32.520  33.174  28.254  1.00  0.00     0.163 HD
ATOM     31  O   UNL A   1      33.199  34.909  29.832  1.00  0.00    -0.269 OA
BRANCH  29  32
ATOM     32  C   UNL A   1      35.298  33.864  29.977  1.00  0.00     0.039 A 
ATOM     33  C   UNL A   1      36.305  34.324  29.125  1.00  0.00     0.014 A 
ATOM     34  C   UNL A   1      35.615  33.112  31.105  1.00  0.00     0.014 A 
ATOM     35  C   UNL A   1      37.589  33.808  29.256  1.00  0.00     0.010 A 
ATOM     36  C   UNL A   1      36.862  32.521  31.178  1.00  0.00     0.010 A 
ATOM     37  C   UNL A   1      37.824  32.812  30.207  1.00  0.00    -0.014 A 
BRANCH  37  38
ATOM     38  C   UNL A   1      38.977  31.921  30.135  1.00  0.00     0.031 A 
ATOM     39  C   UNL A   1      38.835  30.524  29.688  1.00  0.00     0.074 A 
ATOM     40  C   UNL A   1      40.199  32.385  30.483  1.00  0.00     0.049 A 
ATOM     41  N   UNL A   1      39.601  29.561  30.083  1.00  0.00    -0.248 NA
ATOM     42  C   UNL A   1      37.775  30.090  28.786  1.00  0.00     0.031 C 
ATOM     43  C   UNL A   1      41.491  31.739  30.275  1.00  0.00     0.029 A 
ATOM     44  N   UNL A   1      40.485  33.468  31.309  1.00  0.00    -0.354 N 
ATOM     45  C   UNL A   1      39.325  28.470  29.295  1.00  0.00     0.074 A 
ATOM     46  C   UNL A   1      38.132  28.823  28.558  1.00  0.00     0.031 C 
ATOM     47  C   UNL A   1      42.386  32.276  31.122  1.00  0.00     0.029 A 
ATOM     48  C   UNL A   1      41.669  33.184  32.003  1.00  0.00     0.049 A 
ATOM     49  H   UNL A   1      39.949  34.290  31.392  1.00  0.00     0.167 HD
ATOM     50  C   UNL A   1      40.203  27.432  29.231  1.00  0.00     0.031 A 
ATOM     51  C   UNL A   1      41.688  33.124  33.366  1.00  0.00     0.031 A 
ATOM     52  C   UNL A   1      41.364  27.634  30.089  1.00  0.00     0.049 A 
ATOM     53  C   UNL A   1      42.053  31.760  33.910  1.00  0.00     0.074 A 
ATOM     54  C   UNL A   1      42.645  28.099  29.841  1.00  0.00     0.029 A 
ATOM     55  N   UNL A   1      41.204  27.636  31.469  1.00  0.00    -0.354 N 
ATOM     56  N   UNL A   1      42.037  30.664  33.204  1.00  0.00    -0.248 NA
ATOM     57  C   UNL A   1      42.410  31.515  35.307  1.00  0.00     0.031 C 
ATOM     58  C   UNL A   1      43.229  28.458  31.081  1.00  0.00     0.029 A 
ATOM     59  C   UNL A   1      42.317  28.180  32.082  1.00  0.00     0.049 A 
ATOM     60  H   UNL A   1      40.409  27.300  31.943  1.00  0.00     0.167 HD
ATOM     61  C   UNL A   1      42.349  29.598  34.005  1.00  0.00     0.074 A 
ATOM     62  C   UNL A   1      42.589  30.183  35.310  1.00  0.00     0.031 C 
ATOM     63  C   UNL A   1      42.366  28.320  33.529  1.00  0.00     0.031 A 
BRANCH  50  64
ATOM     64  C   UNL A   1      40.134  26.399  28.138  1.00  0.00    -0.014 A 
ATOM     65  C   UNL A   1      40.928  26.545  26.986  1.00  0.00     0.009 A 
ATOM     66  C   UNL A   1      39.266  25.295  28.161  1.00  0.00     0.009 A 
ATOM     67  C   UNL A   1      40.784  25.702  25.877  1.00  0.00     0.001 A 
ATOM     68  C   UNL A   1      39.085  24.474  27.040  1.00  0.00     0.001 A 
ATOM     69  C   UNL A   1      39.837  24.687  25.891  1.00  0.00     0.000 A 
ENDBRANCH  50  64
BRANCH  51  70
ATOM     70  C   UNL A   1      40.738  34.064  34.022  1.00  0.00    -0.014 A 
ATOM     71  C   UNL A   1      39.521  33.552  34.512  1.00  0.00     0.009 A 
ATOM     72  C   UNL A   1      41.161  35.324  34.465  1.00  0.00     0.009 A 
ATOM     73  C   UNL A   1      38.802  34.232  35.501  1.00  0.00     0.001 A 
ATOM     74  C   UNL A   1      40.434  36.006  35.451  1.00  0.00     0.001 A 
ATOM     75  C   UNL A   1      39.278  35.445  35.991  1.00  0.00     0.000 A 
ENDBRANCH  51  70
BRANCH  63  76
ATOM     76  C   UNL A   1      42.499  27.073  34.364  1.00  0.00    -0.014 A 
ATOM     77  C   UNL A   1      41.512  26.611  35.245  1.00  0.00     0.009 A 
ATOM     78  C   UNL A   1      43.617  26.234  34.160  1.00  0.00     0.009 A 
ATOM     79  C   UNL A   1      41.658  25.392  35.922  1.00  0.00     0.001 A 
ATOM     80  C   UNL A   1      43.745  25.000  34.801  1.00  0.00     0.001 A 
ATOM     81  C   UNL A   1      42.768  24.584  35.693  1.00  0.00     0.000 A 
ENDBRANCH  63  76
ENDBRANCH  37  38
ENDBRANCH  29  32
ENDBRANCH  27  28
ENDBRANCH  26  27
ENDBRANCH   1  26
TORSDOF 13
ENDMDL
MODEL 3
REMARK VINA RESULT:     -11.9      3.254      8.229
REMARK SMILES Cc1ccc(NC(=O)C[C@H]2SC[C@H](C(=O)NCCCNC(=O)c3ccc(-c4c5nc(c(-c6ccccc6)c6ccc([nH]6)c(-c6ccccc6)c6nc(c(-c7ccccc7)c7ccc4[nH]7)C=C6)C=C5)cc3)NC2=O)cc1
REMARK SMILES IDX 17 1 16 2 14 3 15 4 13 6 10 7 11 8 72 9 12 10 71 11 73 12
REMARK SMILES IDX 9 14 7 15 6 16 8 18 5 19 1 20 2 21 3 22 75 23 4 24 74 25
REMARK SMILES IDX 18 26 19 27 20 28 21 29 22 31 23 32 24 33 70 34 25 35 69 36
REMARK SMILES IDX 26 37 27 38 28 39 63 40 29 41 68 42 62 43 64 44 30 45 67 46
REMARK SMILES IDX 61 47 60 48 31 50 53 51 38 52 52 53 39 54 42 55 51 56 65 57
REMARK SMILES IDX 40 58 41 59 50 61 66 62 43 63 32 64 33 65 37 66 34 67 36 68
REMARK SMILES IDX 35 69 54 70 55 71 59 72 56 73 58 74 57 75 44 76 45 77 49 78
REMARK SMILES IDX 46 79 48 80 47 81
REMARK H PARENT 16 5 71 13 6 17 20 30 64 49 42 60
REMARK Flexibility Score: inf
ROOT
ATOM      1  C   UNL A   1      32.853  28.769  26.477  1.00  0.00     0.117 C 
ENDROOT
BRANCH   1   2
ATOM      2  N   UNL A   1      33.310  29.268  25.187  1.00  0.00    -0.354 N 
ATOM      3  C   UNL A   1      33.242  28.731  23.933  1.00  0.00     0.243 C 
ATOM      4  O   UNL A   1      33.816  29.345  23.030  1.00  0.00    -0.273 OA
ATOM      5  H   UNL A   1      33.746  30.150  25.226  1.00  0.00     0.163 HD
BRANCH   3   6
ATOM      6  C   UNL A   1      32.568  27.376  23.643  1.00  0.00     0.181 C 
ATOM      7  C   UNL A   1      31.400  24.916  24.975  1.00  0.00     0.145 C 
ATOM      8  S   UNL A   1      32.751  24.596  23.763  1.00  0.00    -0.145 SA
ATOM      9  C   UNL A   1      30.570  26.111  24.488  1.00  0.00     0.234 C 
ATOM     10  C   UNL A   1      33.539  26.225  23.894  1.00  0.00     0.105 C 
ATOM     11  N   UNL A   1      31.254  27.287  24.281  1.00  0.00    -0.343 N 
ATOM     12  O   UNL A   1      29.350  26.130  24.374  1.00  0.00    -0.274 OA
ATOM     13  H   UNL A   1      30.832  28.124  24.583  1.00  0.00     0.164 HD
BRANCH   7  14
ATOM     14  C   UNL A   1      30.698  23.604  25.333  1.00  0.00     0.124 C 
BRANCH  14  15
ATOM     15  C   UNL A   1      30.825  23.075  26.743  1.00  0.00     0.226 C 
ATOM     16  N   UNL A   1      31.969  22.545  27.246  1.00  0.00    -0.326 N 
ATOM     17  H   UNL A   1      31.914  22.349  28.211  1.00  0.00     0.169 HD
ATOM     18  O   UNL A   1      29.844  23.123  27.494  1.00  0.00    -0.275 OA
BRANCH  16  19
ATOM     19  C   UNL A   1      33.210  22.216  26.690  1.00  0.00     0.041 A 
ATOM     20  C   UNL A   1      36.906  20.912  24.884  1.00  0.00     0.044 C 
ATOM     21  C   UNL A   1      35.616  21.369  25.496  1.00  0.00    -0.051 A 
ATOM     22  C   UNL A   1      35.562  22.559  26.232  1.00  0.00     0.005 A 
ATOM     23  C   UNL A   1      34.451  20.614  25.348  1.00  0.00     0.005 A 
ATOM     24  C   UNL A   1      34.364  22.984  26.823  1.00  0.00     0.026 A 
ATOM     25  C   UNL A   1      33.256  21.046  25.924  1.00  0.00     0.026 A 
ENDBRANCH  16  19
ENDBRANCH  14  15
ENDBRANCH   7  14
ENDBRANCH   3   6
ENDBRANCH   1   2
BRANCH   1  26
ATOM     26  C   UNL A   1      33.546  29.464  27.650  1.00  0.00     0.042 C 
BRANCH  26  27
ATOM     27  C   UNL A   1      34.111  30.840  27.324  1.00  0.00     0.118 C 
BRANCH  27  28
ATOM     28  N   UNL A   1      34.604  31.576  28.481  1.00  0.00    -0.352 N 
ATOM     29  C   UNL A   1      35.719  31.310  29.265  1.00  0.00     0.251 C 
ATOM     30  H   UNL A   1      34.078  32.367  28.740  1.00  0.00     0.163 HD
ATOM     31  O   UNL A   1      36.026  32.054  30.178  1.00  0.00    -0.269 OA
BRANCH  29  32
ATOM     32  C   UNL A   1      36.600  30.180  28.882  1.00  0.00     0.039 A 
ATOM     33  C   UNL A   1      36.860  29.206  29.849  1.00  0.00     0.014 A 
ATOM     34  C   UNL A   1      37.338  30.220  27.702  1.00  0.00     0.014 A 
ATOM     35  C   UNL A   1      38.025  28.452  29.751  1.00  0.00     0.010 A 
ATOM     36  C   UNL A   1      38.542  29.546  27.650  1.00  0.00     0.010 A 
ATOM     37  C   UNL A   1      38.920  28.721  28.714  1.00  0.00    -0.014 A 
BRANCH  37  38
ATOM     38  C   UNL A   1      40.319  28.313  28.766  1.00  0.00     0.031 A 
ATOM     39  C   UNL A   1      40.759  27.020  28.213  1.00  0.00     0.074 A 
ATOM     40  C   UNL A   1      41.232  29.138  29.329  1.00  0.00     0.049 A 
ATOM     41  N   UNL A   1      41.772  26.353  28.660  1.00  0.00    -0.248 NA
ATOM     42  C   UNL A   1      40.052  26.345  27.130  1.00  0.00     0.031 C 
ATOM     43  C   UNL A   1      42.685  29.023  29.285  1.00  0.00     0.029 A 
ATOM     44  N   UNL A   1      40.995  30.147  30.258  1.00  0.00    -0.354 N 
ATOM     45  C   UNL A   1      42.016  25.336  27.770  1.00  0.00     0.074 A 
ATOM     46  C   UNL A   1      40.877  25.324  26.880  1.00  0.00     0.031 C 
ATOM     47  C   UNL A   1      43.209  29.740  30.294  1.00  0.00     0.029 A 
ATOM     48  C   UNL A   1      42.106  30.224  31.108  1.00  0.00     0.049 A 
ATOM     49  H   UNL A   1      40.188  30.709  30.309  1.00  0.00     0.167 HD
ATOM     50  C   UNL A   1      43.216  24.694  27.777  1.00  0.00     0.031 A 
ATOM     51  C   UNL A   1      41.980  30.016  32.451  1.00  0.00     0.031 A 
ATOM     52  C   UNL A   1      44.107  25.193  28.818  1.00  0.00     0.049 A 
ATOM     53  C   UNL A   1      42.753  28.817  32.957  1.00  0.00     0.074 A 
ATOM     54  C   UNL A   1      45.145  26.110  28.802  1.00  0.00     0.029 A 
ATOM     55  N   UNL A   1      43.790  24.977  30.152  1.00  0.00    -0.354 N 
ATOM     56  N   UNL A   1      43.229  27.879  32.187  1.00  0.00    -0.248 NA
ATOM     57  C   UNL A   1      43.002  28.554  34.373  1.00  0.00     0.031 C 
ATOM     58  C   UNL A   1      45.400  26.505  30.139  1.00  0.00     0.029 A 
ATOM     59  C   UNL A   1      44.540  25.806  30.965  1.00  0.00     0.049 A 
ATOM     60  H   UNL A   1      43.124  24.327  30.474  1.00  0.00     0.167 HD
ATOM     61  C   UNL A   1      43.812  26.907  32.957  1.00  0.00     0.074 A 
ATOM     62  C   UNL A   1      43.659  27.382  34.319  1.00  0.00     0.031 C 
ATOM     63  C   UNL A   1      44.357  25.784  32.409  1.00  0.00     0.031 A 
BRANCH  50  64
ATOM     64  C   UNL A   1      43.666  23.839  26.623  1.00  0.00    -0.014 A 
ATOM     65  C   UNL A   1      43.404  22.457  26.631  1.00  0.00     0.009 A 
ATOM     66  C   UNL A   1      44.400  24.328  25.529  1.00  0.00     0.009 A 
ATOM     67  C   UNL A   1      43.937  21.597  25.664  1.00  0.00     0.001 A 
ATOM     68  C   UNL A   1      44.974  23.468  24.582  1.00  0.00     0.001 A 
ATOM     69  C   UNL A   1      44.752  22.099  24.658  1.00  0.00     0.000 A 
ENDBRANCH  50  64
BRANCH  51  70
ATOM     70  C   UNL A   1      40.678  30.473  33.010  1.00  0.00    -0.014 A 
ATOM     71  C   UNL A   1      39.577  29.597  32.944  1.00  0.00     0.009 A 
ATOM     72  C   UNL A   1      40.612  31.566  33.883  1.00  0.00     0.009 A 
ATOM     73  C   UNL A   1      38.487  29.747  33.808  1.00  0.00     0.001 A 
ATOM     74  C   UNL A   1      39.515  31.719  34.742  1.00  0.00     0.001 A 
ATOM     75  C   UNL A   1      38.472  30.792  34.728  1.00  0.00     0.000 A 
ENDBRANCH  51  70
BRANCH  63  76
ATOM     76  C   UNL A   1      44.838  24.578  33.172  1.00  0.00    -0.014 A 
ATOM     77  C   UNL A   1      46.135  24.436  33.680  1.00  0.00     0.009 A 
ATOM     78  C   UNL A   1      43.901  23.580  33.526  1.00  0.00     0.009 A 
ATOM     79  C   UNL A   1      46.492  23.330  34.463  1.00  0.00     0.001 A 
ATOM     80  C   UNL A   1      44.241  22.499  34.341  1.00  0.00     0.001 A 
ATOM     81  C   UNL A   1      45.544  22.368  34.802  1.00  0.00     0.000 A 
ENDBRANCH  63  76
ENDBRANCH  37  38
ENDBRANCH  29  32
ENDBRANCH  27  28
ENDBRANCH  26  27
ENDBRANCH   1  26
TORSDOF 13
ENDMDL
