MODEL 1
REMARK VINA RESULT:     -11.0      0.000      0.000
REMARK SMILES CC(C)[C@@H](CNC(=O)NCC1C(C)(C)C1(C)C)C(=O)NCCCNC(=O)c1ccc(-c2c3nc(c(-c4ccccc4)c4ccc([nH]4)c(-c4ccccc4)c4nc(c(-c5ccccc5)c5ccc2[nH]5)C=C4)C=C3)cc1
REMARK SMILES IDX 21 1 20 2 18 3 19 4 4 6 2 7 1 8 3 9 5 10 6 11 7 12 8 14 9 15
REMARK SMILES IDX 10 17 11 18 12 19 15 20 13 21 14 22 16 23 17 24 22 25 23 26
REMARK SMILES IDX 24 27 25 28 26 30 27 31 28 32 74 33 29 34 73 35 30 36 31 37
REMARK SMILES IDX 32 38 67 39 33 40 72 41 66 42 68 43 34 44 71 45 65 46 64 47
REMARK SMILES IDX 35 49 57 50 42 51 56 52 43 53 46 54 55 55 69 56 44 57 45 58
REMARK SMILES IDX 54 60 70 61 47 62 36 63 37 64 41 65 38 66 40 67 39 68 58 69
REMARK SMILES IDX 59 70 63 71 60 72 62 73 61 74 48 75 49 76 53 77 50 78 52 79
REMARK SMILES IDX 51 80
REMARK H PARENT 20 5 6 13 9 16 24 29 68 48 46 59
REMARK Flexibility Score: inf
ROOT
ATOM      1  C   UNL A   1      36.290  21.554  24.848  1.00  0.00     0.117 C 
ENDROOT
BRANCH   1   2
ATOM      2  N   UNL A   1      35.444  21.467  26.023  1.00  0.00    -0.356 N 
ATOM      3  C   UNL A   1      34.116  21.221  26.138  1.00  0.00     0.225 C 
ATOM      4  O   UNL A   1      33.664  21.059  27.275  1.00  0.00    -0.275 OA
ATOM      5  H   UNL A   1      35.911  21.611  26.878  1.00  0.00     0.163 HD
BRANCH   3   6
ATOM      6  C   UNL A   1      33.190  21.127  24.929  1.00  0.00     0.100 C 
BRANCH   6   7
ATOM      7  C   UNL A   1      32.753  19.695  24.540  1.00  0.00    -0.003 C 
ATOM      8  C   UNL A   1      32.164  19.636  23.126  1.00  0.00     0.008 C 
ATOM      9  C   UNL A   1      33.959  18.744  24.615  1.00  0.00     0.008 C 
ENDBRANCH   6   7
BRANCH   6  10
ATOM     10  C   UNL A   1      32.129  22.234  24.964  1.00  0.00     0.131 C 
BRANCH  10  11
ATOM     11  N   UNL A   1      31.092  22.162  25.967  1.00  0.00    -0.337 N 
ATOM     12  C   UNL A   1      30.485  23.061  26.754  1.00  0.00     0.314 C 
ATOM     13  H   UNL A   1      30.754  21.247  26.102  1.00  0.00     0.165 HD
ATOM     14  O   UNL A   1      29.795  22.621  27.679  1.00  0.00    -0.249 OA
ATOM     15  N   UNL A   1      30.541  24.384  26.600  1.00  0.00    -0.338 N 
ATOM     16  H   UNL A   1      30.142  24.857  27.366  1.00  0.00     0.165 HD
BRANCH  15  17
ATOM     17  C   UNL A   1      31.035  25.305  25.600  1.00  0.00     0.122 C 
BRANCH  17  18
ATOM     18  C   UNL A   1      32.443  25.764  25.850  1.00  0.00     0.021 C 
ATOM     19  C   UNL A   1      33.607  25.632  24.847  1.00  0.00    -0.025 C 
ATOM     20  C   UNL A   1      33.137  27.023  25.326  1.00  0.00    -0.025 C 
ATOM     21  C   UNL A   1      34.897  25.048  25.377  1.00  0.00     0.012 C 
ATOM     22  C   UNL A   1      33.408  25.271  23.392  1.00  0.00     0.012 C 
ATOM     23  C   UNL A   1      32.489  27.964  24.336  1.00  0.00     0.012 C 
ATOM     24  C   UNL A   1      33.970  27.790  26.332  1.00  0.00     0.012 C 
ENDBRANCH  17  18
ENDBRANCH  15  17
ENDBRANCH  10  11
ENDBRANCH   6  10
ENDBRANCH   3   6
ENDBRANCH   1   2
BRANCH   1  25
ATOM     25  C   UNL A   1      37.352  20.478  24.812  1.00  0.00     0.042 C 
BRANCH  25  26
ATOM     26  C   UNL A   1      38.554  20.831  25.669  1.00  0.00     0.118 C 
BRANCH  26  27
ATOM     27  N   UNL A   1      39.560  19.773  25.698  1.00  0.00    -0.352 N 
ATOM     28  C   UNL A   1      40.897  19.814  26.016  1.00  0.00     0.251 C 
ATOM     29  H   UNL A   1      39.225  18.881  25.446  1.00  0.00     0.163 HD
ATOM     30  O   UNL A   1      41.615  18.847  25.808  1.00  0.00    -0.269 OA
BRANCH  28  31
ATOM     31  C   UNL A   1      41.472  21.048  26.587  1.00  0.00     0.039 A 
ATOM     32  C   UNL A   1      41.998  22.019  25.731  1.00  0.00     0.014 A 
ATOM     33  C   UNL A   1      41.471  21.254  27.966  1.00  0.00     0.014 A 
ATOM     34  C   UNL A   1      42.441  23.232  26.260  1.00  0.00     0.010 A 
ATOM     35  C   UNL A   1      41.780  22.506  28.471  1.00  0.00     0.010 A 
ATOM     36  C   UNL A   1      42.289  23.502  27.629  1.00  0.00    -0.014 A 
BRANCH  36  37
ATOM     37  C   UNL A   1      42.680  24.803  28.221  1.00  0.00     0.031 A 
ATOM     38  C   UNL A   1      41.635  25.863  28.446  1.00  0.00     0.074 A 
ATOM     39  C   UNL A   1      43.978  25.066  28.464  1.00  0.00     0.049 A 
ATOM     40  N   UNL A   1      41.784  27.100  28.846  1.00  0.00    -0.248 NA
ATOM     41  C   UNL A   1      40.242  25.499  28.132  1.00  0.00     0.031 C 
ATOM     42  C   UNL A   1      45.093  24.146  28.227  1.00  0.00     0.029 A 
ATOM     43  N   UNL A   1      44.579  26.196  28.957  1.00  0.00    -0.354 N 
ATOM     44  C   UNL A   1      40.516  27.666  28.790  1.00  0.00     0.074 A 
ATOM     45  C   UNL A   1      39.623  26.661  28.261  1.00  0.00     0.031 C 
ATOM     46  C   UNL A   1      46.238  24.735  28.612  1.00  0.00     0.029 A 
ATOM     47  C   UNL A   1      45.943  26.085  29.079  1.00  0.00     0.049 A 
ATOM     48  H   UNL A   1      44.081  27.009  29.202  1.00  0.00     0.167 HD
ATOM     49  C   UNL A   1      40.122  28.903  29.172  1.00  0.00     0.031 A 
ATOM     50  C   UNL A   1      46.853  26.973  29.518  1.00  0.00     0.031 A 
ATOM     51  C   UNL A   1      41.007  29.885  29.738  1.00  0.00     0.049 A 
ATOM     52  C   UNL A   1      46.390  28.327  29.973  1.00  0.00     0.074 A 
ATOM     53  C   UNL A   1      40.698  31.137  30.239  1.00  0.00     0.029 A 
ATOM     54  N   UNL A   1      42.375  29.718  29.882  1.00  0.00    -0.354 N 
ATOM     55  N   UNL A   1      45.177  28.823  29.987  1.00  0.00    -0.248 NA
ATOM     56  C   UNL A   1      47.422  29.240  30.484  1.00  0.00     0.031 C 
ATOM     57  C   UNL A   1      41.890  31.745  30.647  1.00  0.00     0.029 A 
ATOM     58  C   UNL A   1      42.931  30.852  30.446  1.00  0.00     0.049 A 
ATOM     59  H   UNL A   1      42.877  28.912  29.622  1.00  0.00     0.167 HD
ATOM     60  C   UNL A   1      45.293  30.096  30.528  1.00  0.00     0.074 A 
ATOM     61  C   UNL A   1      46.695  30.288  30.845  1.00  0.00     0.031 C 
ATOM     62  C   UNL A   1      44.328  31.023  30.747  1.00  0.00     0.031 A 
BRANCH  49  63
ATOM     63  C   UNL A   1      38.673  29.253  28.984  1.00  0.00    -0.014 A 
ATOM     64  C   UNL A   1      38.188  29.723  27.752  1.00  0.00     0.009 A 
ATOM     65  C   UNL A   1      37.777  29.114  30.055  1.00  0.00     0.009 A 
ATOM     66  C   UNL A   1      36.849  30.094  27.613  1.00  0.00     0.001 A 
ATOM     67  C   UNL A   1      36.432  29.454  29.903  1.00  0.00     0.001 A 
ATOM     68  C   UNL A   1      35.971  29.955  28.687  1.00  0.00     0.000 A 
ENDBRANCH  49  63
BRANCH  50  69
ATOM     69  C   UNL A   1      48.287  26.593  29.577  1.00  0.00    -0.014 A 
ATOM     70  C   UNL A   1      48.804  25.956  30.717  1.00  0.00     0.009 A 
ATOM     71  C   UNL A   1      49.142  26.841  28.493  1.00  0.00     0.009 A 
ATOM     72  C   UNL A   1      50.152  25.595  30.776  1.00  0.00     0.001 A 
ATOM     73  C   UNL A   1      50.484  26.455  28.545  1.00  0.00     0.001 A 
ATOM     74  C   UNL A   1      50.989  25.838  29.689  1.00  0.00     0.000 A 
ENDBRANCH  50  69
BRANCH  62  75
ATOM     75  C   UNL A   1      44.754  32.317  31.378  1.00  0.00    -0.014 A 
ATOM     76  C   UNL A   1      45.127  33.420  30.596  1.00  0.00     0.009 A 
ATOM     77  C   UNL A   1      44.736  32.445  32.775  1.00  0.00     0.009 A 
ATOM     78  C   UNL A   1      45.505  34.618  31.204  1.00  0.00     0.001 A 
ATOM     79  C   UNL A   1      45.087  33.652  33.380  1.00  0.00     0.001 A 
ATOM     80  C   UNL A   1      45.480  34.735  32.593  1.00  0.00     0.000 A 
ENDBRANCH  62  75
ENDBRANCH  36  37
ENDBRANCH  28  31
ENDBRANCH  26  27
ENDBRANCH  25  26
ENDBRANCH   1  25
TORSDOF 15
ENDMDL
MODEL 2
REMARK VINA RESULT:     -11.0      0.899      6.131
REMARK SMILES CC(C)[C@@H](CNC(=O)NCC1C(C)(C)C1(C)C)C(=O)NCCCNC(=O)c1ccc(-c2c3nc(c(-c4ccccc4)c4ccc([nH]4)c(-c4ccccc4)c4nc(c(-c5ccccc5)c5ccc2[nH]5)C=C4)C=C3)cc1
REMARK SMILES IDX 21 1 20 2 18 3 19 4 4 6 2 7 1 8 3 9 5 10 6 11 7 12 8 14 9 15
REMARK SMILES IDX 10 17 11 18 12 19 15 20 13 21 14 22 16 23 17 24 22 25 23 26
REMARK SMILES IDX 24 27 25 28 26 30 27 31 28 32 74 33 29 34 73 35 30 36 31 37
REMARK SMILES IDX 32 38 67 39 33 40 72 41 66 42 68 43 34 44 71 45 65 46 64 47
REMARK SMILES IDX 35 49 57 50 42 51 56 52 43 53 46 54 55 55 69 56 44 57 45 58
REMARK SMILES IDX 54 60 70 61 47 62 36 63 37 64 41 65 38 66 40 67 39 68 58 69
REMARK SMILES IDX 59 70 63 71 60 72 62 73 61 74 48 75 49 76 53 77 50 78 52 79
REMARK SMILES IDX 51 80
REMARK H PARENT 20 5 6 13 9 16 24 29 68 48 46 59
REMARK Flexibility Score: inf
ROOT
ATOM      1  C   UNL A   1      36.583  20.820  24.907  1.00  0.00     0.117 C 
ENDROOT
BRANCH   1   2
ATOM      2  N   UNL A   1      35.334  20.179  25.273  1.00  0.00    -0.356 N 
ATOM      3  C   UNL A   1      34.091  20.694  25.437  1.00  0.00     0.225 C 
ATOM      4  O   UNL A   1      33.164  19.898  25.615  1.00  0.00    -0.275 OA
ATOM      5  H   UNL A   1      35.400  19.208  25.430  1.00  0.00     0.163 HD
BRANCH   3   6
ATOM      6  C   UNL A   1      33.812  22.193  25.394  1.00  0.00     0.100 C 
BRANCH   6   7
ATOM      7  C   UNL A   1      33.356  22.743  24.023  1.00  0.00    -0.003 C 
ATOM      8  C   UNL A   1      34.542  23.157  23.144  1.00  0.00     0.008 C 
ATOM      9  C   UNL A   1      32.538  21.673  23.279  1.00  0.00     0.008 C 
ENDBRANCH   6   7
BRANCH   6  10
ATOM     10  C   UNL A   1      33.061  22.647  26.653  1.00  0.00     0.131 C 
BRANCH  10  11
ATOM     11  N   UNL A   1      31.649  22.359  26.753  1.00  0.00    -0.337 N 
ATOM     12  C   UNL A   1      30.544  23.110  26.859  1.00  0.00     0.314 C 
ATOM     13  H   UNL A   1      31.455  21.394  26.740  1.00  0.00     0.165 HD
ATOM     14  O   UNL A   1      29.499  22.528  27.164  1.00  0.00    -0.249 OA
ATOM     15  N   UNL A   1      30.478  24.422  26.632  1.00  0.00    -0.338 N 
ATOM     16  H   UNL A   1      29.608  24.795  26.903  1.00  0.00     0.165 HD
BRANCH  15  17
ATOM     17  C   UNL A   1      31.352  25.439  26.090  1.00  0.00     0.122 C 
BRANCH  17  18
ATOM     18  C   UNL A   1      31.046  25.796  24.664  1.00  0.00     0.021 C 
ATOM     19  C   UNL A   1      30.904  27.233  24.124  1.00  0.00    -0.025 C 
ATOM     20  C   UNL A   1      32.007  26.297  23.585  1.00  0.00    -0.025 C 
ATOM     21  C   UNL A   1      29.683  27.525  23.281  1.00  0.00     0.012 C 
ATOM     22  C   UNL A   1      31.323  28.457  24.908  1.00  0.00     0.012 C 
ATOM     23  C   UNL A   1      33.456  26.626  23.866  1.00  0.00     0.012 C 
ATOM     24  C   UNL A   1      31.853  25.670  22.214  1.00  0.00     0.012 C 
ENDBRANCH  17  18
ENDBRANCH  15  17
ENDBRANCH  10  11
ENDBRANCH   6  10
ENDBRANCH   3   6
ENDBRANCH   1   2
BRANCH   1  25
ATOM     25  C   UNL A   1      37.750  19.858  24.891  1.00  0.00     0.042 C 
BRANCH  25  26
ATOM     26  C   UNL A   1      38.907  20.348  25.743  1.00  0.00     0.118 C 
BRANCH  26  27
ATOM     27  N   UNL A   1      40.007  19.390  25.811  1.00  0.00    -0.352 N 
ATOM     28  C   UNL A   1      41.338  19.570  26.105  1.00  0.00     0.251 C 
ATOM     29  H   UNL A   1      39.753  18.459  25.613  1.00  0.00     0.163 HD
ATOM     30  O   UNL A   1      42.139  18.663  25.937  1.00  0.00    -0.269 OA
BRANCH  28  31
ATOM     31  C   UNL A   1      41.803  20.881  26.600  1.00  0.00     0.039 A 
ATOM     32  C   UNL A   1      42.246  21.841  25.687  1.00  0.00     0.014 A 
ATOM     33  C   UNL A   1      41.780  21.168  27.964  1.00  0.00     0.014 A 
ATOM     34  C   UNL A   1      42.581  23.117  26.142  1.00  0.00     0.010 A 
ATOM     35  C   UNL A   1      41.979  22.469  28.394  1.00  0.00     0.010 A 
ATOM     36  C   UNL A   1      42.403  23.454  27.493  1.00  0.00    -0.014 A 
BRANCH  36  37
ATOM     37  C   UNL A   1      42.678  24.817  28.006  1.00  0.00     0.031 A 
ATOM     38  C   UNL A   1      44.074  25.183  28.435  1.00  0.00     0.074 A 
ATOM     39  C   UNL A   1      41.664  25.686  28.177  1.00  0.00     0.049 A 
ATOM     40  N   UNL A   1      44.501  26.277  29.012  1.00  0.00    -0.248 NA
ATOM     41  C   UNL A   1      45.119  24.164  28.234  1.00  0.00     0.031 C 
ATOM     42  C   UNL A   1      40.257  25.428  27.861  1.00  0.00     0.029 A 
ATOM     43  N   UNL A   1      41.664  26.966  28.671  1.00  0.00    -0.354 N 
ATOM     44  C   UNL A   1      45.848  26.058  29.277  1.00  0.00     0.074 A 
ATOM     45  C   UNL A   1      46.151  24.709  28.857  1.00  0.00     0.031 C 
ATOM     46  C   UNL A   1      39.536  26.529  28.133  1.00  0.00     0.029 A 
ATOM     47  C   UNL A   1      40.421  27.550  28.682  1.00  0.00     0.049 A 
ATOM     48  H   UNL A   1      42.477  27.421  28.987  1.00  0.00     0.167 HD
ATOM     49  C   UNL A   1      46.759  26.912  29.798  1.00  0.00     0.031 A 
ATOM     50  C   UNL A   1      40.038  28.774  29.090  1.00  0.00     0.031 A 
ATOM     51  C   UNL A   1      46.462  28.266  30.175  1.00  0.00     0.049 A 
ATOM     52  C   UNL A   1      41.072  29.720  29.629  1.00  0.00     0.074 A 
ATOM     53  C   UNL A   1      47.328  29.245  30.631  1.00  0.00     0.029 A 
ATOM     54  N   UNL A   1      45.198  28.833  30.132  1.00  0.00    -0.354 N 
ATOM     55  N   UNL A   1      42.357  29.526  29.803  1.00  0.00    -0.248 NA
ATOM     56  C   UNL A   1      40.604  31.057  30.017  1.00  0.00     0.031 C 
ATOM     57  C   UNL A   1      46.577  30.392  30.906  1.00  0.00     0.029 A 
ATOM     58  C   UNL A   1      45.255  30.144  30.572  1.00  0.00     0.049 A 
ATOM     59  H   UNL A   1      44.381  28.373  29.832  1.00  0.00     0.167 HD
ATOM     60  C   UNL A   1      42.857  30.723  30.299  1.00  0.00     0.074 A 
ATOM     61  C   UNL A   1      41.738  31.641  30.381  1.00  0.00     0.031 C 
ATOM     62  C   UNL A   1      44.128  31.036  30.652  1.00  0.00     0.031 A 
BRANCH  49  63
ATOM     63  C   UNL A   1      48.158  26.394  29.987  1.00  0.00    -0.014 A 
ATOM     64  C   UNL A   1      48.560  25.798  31.194  1.00  0.00     0.009 A 
ATOM     65  C   UNL A   1      49.090  26.507  28.944  1.00  0.00     0.009 A 
ATOM     66  C   UNL A   1      49.878  25.373  31.369  1.00  0.00     0.001 A 
ATOM     67  C   UNL A   1      50.399  26.051  29.110  1.00  0.00     0.001 A 
ATOM     68  C   UNL A   1      50.796  25.496  30.326  1.00  0.00     0.000 A 
ENDBRANCH  49  63
BRANCH  50  69
ATOM     69  C   UNL A   1      38.614  29.181  28.970  1.00  0.00    -0.014 A 
ATOM     70  C   UNL A   1      37.757  29.088  30.078  1.00  0.00     0.009 A 
ATOM     71  C   UNL A   1      38.110  29.683  27.762  1.00  0.00     0.009 A 
ATOM     72  C   UNL A   1      36.418  29.472  29.970  1.00  0.00     0.001 A 
ATOM     73  C   UNL A   1      36.777  30.090  27.664  1.00  0.00     0.001 A 
ATOM     74  C   UNL A   1      35.931  29.978  28.767  1.00  0.00     0.000 A 
ENDBRANCH  50  69
BRANCH  62  75
ATOM     75  C   UNL A   1      44.377  32.435  31.137  1.00  0.00    -0.014 A 
ATOM     76  C   UNL A   1      44.682  33.472  30.242  1.00  0.00     0.009 A 
ATOM     77  C   UNL A   1      44.260  32.725  32.505  1.00  0.00     0.009 A 
ATOM     78  C   UNL A   1      44.896  34.767  30.713  1.00  0.00     0.001 A 
ATOM     79  C   UNL A   1      44.447  34.027  32.970  1.00  0.00     0.001 A 
ATOM     80  C   UNL A   1      44.773  35.045  32.074  1.00  0.00     0.000 A 
ENDBRANCH  62  75
ENDBRANCH  36  37
ENDBRANCH  28  31
ENDBRANCH  26  27
ENDBRANCH  25  26
ENDBRANCH   1  25
TORSDOF 15
ENDMDL
MODEL 3
REMARK VINA RESULT:     -10.9      3.626      8.638
REMARK SMILES CC(C)[C@@H](CNC(=O)NCC1C(C)(C)C1(C)C)C(=O)NCCCNC(=O)c1ccc(-c2c3nc(c(-c4ccccc4)c4ccc([nH]4)c(-c4ccccc4)c4nc(c(-c5ccccc5)c5ccc2[nH]5)C=C4)C=C3)cc1
REMARK SMILES IDX 21 1 20 2 18 3 19 4 4 6 2 7 1 8 3 9 5 10 6 11 7 12 8 14 9 15
REMARK SMILES IDX 10 17 11 18 12 19 15 20 13 21 14 22 16 23 17 24 22 25 23 26
REMARK SMILES IDX 24 27 25 28 26 30 27 31 28 32 74 33 29 34 73 35 30 36 31 37
REMARK SMILES IDX 32 38 67 39 33 40 72 41 66 42 68 43 34 44 71 45 65 46 64 47
REMARK SMILES IDX 35 49 57 50 42 51 56 52 43 53 46 54 55 55 69 56 44 57 45 58
REMARK SMILES IDX 54 60 70 61 47 62 36 63 37 64 41 65 38 66 40 67 39 68 58 69
REMARK SMILES IDX 59 70 63 71 60 72 62 73 61 74 48 75 49 76 53 77 50 78 52 79
REMARK SMILES IDX 51 80
REMARK H PARENT 20 5 6 13 9 16 24 29 68 48 46 59
REMARK Flexibility Score: inf
ROOT
ATOM      1  C   UNL A   1      31.689  30.564  25.967  1.00  0.00     0.117 C 
ENDROOT
BRANCH   1   2
ATOM      2  N   UNL A   1      31.571  29.503  26.950  1.00  0.00    -0.356 N 
ATOM      3  C   UNL A   1      31.688  28.159  26.818  1.00  0.00     0.225 C 
ATOM      4  O   UNL A   1      31.682  27.484  27.851  1.00  0.00    -0.275 OA
ATOM      5  H   UNL A   1      31.373  29.811  27.865  1.00  0.00     0.163 HD
BRANCH   3   6
ATOM      6  C   UNL A   1      31.837  27.478  25.461  1.00  0.00     0.100 C 
BRANCH   6   7
ATOM      7  C   UNL A   1      33.267  27.005  25.112  1.00  0.00    -0.003 C 
ATOM      8  C   UNL A   1      33.642  25.713  25.847  1.00  0.00     0.008 C 
ATOM      9  C   UNL A   1      33.380  26.764  23.597  1.00  0.00     0.008 C 
ENDBRANCH   6   7
BRANCH   6  10
ATOM     10  C   UNL A   1      30.664  26.526  25.194  1.00  0.00     0.131 C 
BRANCH  10  11
ATOM     11  N   UNL A   1      30.230  25.652  26.260  1.00  0.00    -0.337 N 
ATOM     12  C   UNL A   1      29.987  24.338  26.353  1.00  0.00     0.314 C 
ATOM     13  H   UNL A   1      30.080  26.129  27.108  1.00  0.00     0.165 HD
ATOM     14  O   UNL A   1      29.395  23.948  27.365  1.00  0.00    -0.249 OA
ATOM     15  N   UNL A   1      30.358  23.418  25.462  1.00  0.00    -0.338 N 
ATOM     16  H   UNL A   1      29.957  22.540  25.656  1.00  0.00     0.165 HD
BRANCH  15  17
ATOM     17  C   UNL A   1      31.197  23.376  24.285  1.00  0.00     0.122 C 
BRANCH  17  18
ATOM     18  C   UNL A   1      32.362  22.438  24.411  1.00  0.00     0.021 C 
ATOM     19  C   UNL A   1      32.627  21.229  23.490  1.00  0.00    -0.025 C 
ATOM     20  C   UNL A   1      33.639  22.392  23.570  1.00  0.00    -0.025 C 
ATOM     21  C   UNL A   1      32.935  19.913  24.168  1.00  0.00     0.012 C 
ATOM     22  C   UNL A   1      31.893  21.006  22.186  1.00  0.00     0.012 C 
ATOM     23  C   UNL A   1      33.852  23.268  22.356  1.00  0.00     0.012 C 
ATOM     24  C   UNL A   1      34.933  22.208  24.336  1.00  0.00     0.012 C 
ENDBRANCH  17  18
ENDBRANCH  15  17
ENDBRANCH  10  11
ENDBRANCH   6  10
ENDBRANCH   3   6
ENDBRANCH   1   2
BRANCH   1  25
ATOM     25  C   UNL A   1      31.456  31.937  26.558  1.00  0.00     0.042 C 
BRANCH  25  26
ATOM     26  C   UNL A   1      32.706  32.498  27.210  1.00  0.00     0.118 C 
BRANCH  26  27
ATOM     27  N   UNL A   1      32.551  33.889  27.628  1.00  0.00    -0.352 N 
ATOM     28  C   UNL A   1      33.252  34.633  28.548  1.00  0.00     0.251 C 
ATOM     29  H   UNL A   1      31.823  34.374  27.177  1.00  0.00     0.163 HD
ATOM     30  O   UNL A   1      32.854  35.738  28.885  1.00  0.00    -0.269 OA
BRANCH  28  31
ATOM     31  C   UNL A   1      34.480  34.077  29.150  1.00  0.00     0.039 A 
ATOM     32  C   UNL A   1      34.393  33.364  30.348  1.00  0.00     0.014 A 
ATOM     33  C   UNL A   1      35.712  34.243  28.519  1.00  0.00     0.014 A 
ATOM     34  C   UNL A   1      35.534  32.745  30.862  1.00  0.00     0.010 A 
ATOM     35  C   UNL A   1      36.808  33.515  28.954  1.00  0.00     0.010 A 
ATOM     36  C   UNL A   1      36.739  32.775  30.141  1.00  0.00    -0.014 A 
BRANCH  36  37
ATOM     37  C   UNL A   1      37.954  32.073  30.613  1.00  0.00     0.031 A 
ATOM     38  C   UNL A   1      38.784  32.676  31.715  1.00  0.00     0.074 A 
ATOM     39  C   UNL A   1      38.365  30.951  29.989  1.00  0.00     0.049 A 
ATOM     40  N   UNL A   1      39.935  32.281  32.194  1.00  0.00    -0.248 NA
ATOM     41  C   UNL A   1      38.273  33.916  32.327  1.00  0.00     0.031 C 
ATOM     42  C   UNL A   1      37.685  30.303  28.866  1.00  0.00     0.029 A 
ATOM     43  N   UNL A   1      39.465  30.163  30.211  1.00  0.00    -0.354 N 
ATOM     44  C   UNL A   1      40.301  33.244  33.127  1.00  0.00     0.074 A 
ATOM     45  C   UNL A   1      39.284  34.270  33.103  1.00  0.00     0.031 C 
ATOM     46  C   UNL A   1      38.362  29.195  28.522  1.00  0.00     0.029 A 
ATOM     47  C   UNL A   1      39.543  29.080  29.369  1.00  0.00     0.049 A 
ATOM     48  H   UNL A   1      40.134  30.354  30.907  1.00  0.00     0.167 HD
ATOM     49  C   UNL A   1      41.374  33.260  33.953  1.00  0.00     0.031 A 
ATOM     50  C   UNL A   1      40.466  28.104  29.290  1.00  0.00     0.031 A 
ATOM     51  C   UNL A   1      42.360  32.216  34.003  1.00  0.00     0.049 A 
ATOM     52  C   UNL A   1      41.629  28.120  30.241  1.00  0.00     0.074 A 
ATOM     53  C   UNL A   1      43.438  32.089  34.861  1.00  0.00     0.029 A 
ATOM     54  N   UNL A   1      42.381  31.115  33.161  1.00  0.00    -0.354 N 
ATOM     55  N   UNL A   1      41.922  28.996  31.171  1.00  0.00    -0.248 NA
ATOM     56  C   UNL A   1      42.580  27.005  30.139  1.00  0.00     0.031 C 
ATOM     57  C   UNL A   1      44.138  30.930  34.507  1.00  0.00     0.029 A 
ATOM     58  C   UNL A   1      43.465  30.312  33.464  1.00  0.00     0.049 A 
ATOM     59  H   UNL A   1      41.722  30.932  32.453  1.00  0.00     0.167 HD
ATOM     60  C   UNL A   1      43.078  28.529  31.781  1.00  0.00     0.074 A 
ATOM     61  C   UNL A   1      43.422  27.283  31.125  1.00  0.00     0.031 C 
ATOM     62  C   UNL A   1      43.791  29.080  32.794  1.00  0.00     0.031 A 
BRANCH  49  63
ATOM     63  C   UNL A   1      41.525  34.449  34.860  1.00  0.00    -0.014 A 
ATOM     64  C   UNL A   1      42.295  35.563  34.484  1.00  0.00     0.009 A 
ATOM     65  C   UNL A   1      40.893  34.455  36.113  1.00  0.00     0.009 A 
ATOM     66  C   UNL A   1      42.469  36.633  35.363  1.00  0.00     0.001 A 
ATOM     67  C   UNL A   1      41.041  35.542  36.976  1.00  0.00     0.001 A 
ATOM     68  C   UNL A   1      41.838  36.624  36.607  1.00  0.00     0.000 A 
ENDBRANCH  49  63
BRANCH  50  69
ATOM     69  C   UNL A   1      40.305  27.014  28.294  1.00  0.00    -0.014 A 
ATOM     70  C   UNL A   1      39.584  25.856  28.623  1.00  0.00     0.009 A 
ATOM     71  C   UNL A   1      40.849  27.132  27.006  1.00  0.00     0.009 A 
ATOM     72  C   UNL A   1      39.429  24.830  27.688  1.00  0.00     0.001 A 
ATOM     73  C   UNL A   1      40.669  26.116  26.065  1.00  0.00     0.001 A 
ATOM     74  C   UNL A   1      39.965  24.963  26.409  1.00  0.00     0.000 A 
ENDBRANCH  50  69
BRANCH  62  75
ATOM     75  C   UNL A   1      44.999  28.324  33.269  1.00  0.00    -0.014 A 
ATOM     76  C   UNL A   1      46.253  28.504  32.666  1.00  0.00     0.009 A 
ATOM     77  C   UNL A   1      44.886  27.455  34.365  1.00  0.00     0.009 A 
ATOM     78  C   UNL A   1      47.365  27.803  33.133  1.00  0.00     0.001 A 
ATOM     79  C   UNL A   1      46.005  26.777  34.847  1.00  0.00     0.001 A 
ATOM     80  C   UNL A   1      47.242  26.945  34.226  1.00  0.00     0.000 A 
ENDBRANCH  62  75
ENDBRANCH  36  37
ENDBRANCH  28  31
ENDBRANCH  26  27
ENDBRANCH  25  26
ENDBRANCH   1  25
TORSDOF 15
ENDMDL
