MODEL 1
REMARK VINA RESULT:     -12.0      0.000      0.000
REMARK SMILES CC1(C)[C@H](C(=O)Nc2ccc(NC(=O)C[NH+]3CCCCC3)cc2)[C@@H]1C(=O)NCCCNC(=O)c1ccc(-c2c3nc(c(-c4ccccc4)c4ccc([nH]4)c(-c4ccccc4)c4nc(c(-c5ccccc5)c5ccc2[nH]5)C=C4)C=C3)cc1
REMARK SMILES IDX 25 1 26 2 27 3 24 5 1 6 2 7 3 8 4 9 5 10 6 11 7 12 8 14 9 15
REMARK SMILES IDX 23 16 10 17 22 18 11 19 12 20 13 21 14 23 15 24 16 25 17 26
REMARK SMILES IDX 21 27 18 29 20 30 19 31 28 32 29 33 30 34 31 35 32 36 33 38
REMARK SMILES IDX 34 39 35 40 81 41 36 42 80 43 37 44 38 45 39 46 74 47 40 48
REMARK SMILES IDX 79 49 73 50 75 51 41 52 78 53 72 54 71 55 42 57 64 58 49 59
REMARK SMILES IDX 63 60 50 61 53 62 62 63 76 64 51 65 52 66 61 68 77 69 54 70
REMARK SMILES IDX 43 71 44 72 48 73 45 74 47 75 46 76 65 77 66 78 70 79 67 80
REMARK SMILES IDX 69 81 68 82 55 83 56 84 60 85 57 86 59 87 58 88
REMARK H PARENT 27 4 7 13 12 22 16 28 31 37 75 56 53 67
REMARK Flexibility Score: inf
ROOT
ATOM      1  C   UNL A   1      35.374  21.472  25.941  1.00  0.00     0.224 C 
ATOM      2  O   UNL A   1      34.633  21.429  26.910  1.00  0.00    -0.275 OA
ATOM      3  N   UNL A   1      36.730  21.529  26.124  1.00  0.00    -0.356 N 
ATOM      4  H   UNL A   1      37.035  21.540  27.061  1.00  0.00     0.163 HD
ENDROOT
BRANCH   1   5
ATOM      5  C   UNL A   1      34.848  21.628  24.571  1.00  0.00     0.098 C 
ATOM      6  C   UNL A   1      34.665  23.286  22.573  1.00  0.00     0.013 C 
ATOM      7  C   UNL A   1      34.309  22.950  24.010  1.00  0.00    -0.011 C 
ATOM      8  C   UNL A   1      34.227  24.184  24.853  1.00  0.00     0.013 C 
ATOM      9  C   UNL A   1      33.401  21.751  24.176  1.00  0.00     0.098 C 
BRANCH   9  10
ATOM     10  C   UNL A   1      32.179  21.459  24.985  1.00  0.00     0.228 C 
ATOM     11  O   UNL A   1      32.096  20.305  25.419  1.00  0.00    -0.274 OA
ATOM     12  N   UNL A   1      31.269  22.339  25.511  1.00  0.00    -0.326 N 
ATOM     13  H   UNL A   1      30.864  22.028  26.353  1.00  0.00     0.169 HD
BRANCH  12  14
ATOM     14  C   UNL A   1      30.805  23.577  25.096  1.00  0.00     0.041 A 
ATOM     15  C   UNL A   1      30.767  23.839  23.734  1.00  0.00     0.028 A 
ATOM     16  C   UNL A   1      30.505  24.589  25.996  1.00  0.00     0.028 A 
ATOM     17  C   UNL A   1      30.193  25.019  23.271  1.00  0.00     0.028 A 
ATOM     18  C   UNL A   1      29.984  25.801  25.526  1.00  0.00     0.028 A 
ATOM     19  C   UNL A   1      29.801  26.018  24.156  1.00  0.00     0.041 A 
BRANCH  19  20
ATOM     20  N   UNL A   1      29.186  27.220  23.768  1.00  0.00    -0.321 N 
ATOM     21  C   UNL A   1      29.685  28.404  23.289  1.00  0.00     0.279 C 
ATOM     22  H   UNL A   1      28.206  27.211  23.856  1.00  0.00     0.170 HD
ATOM     23  O   UNL A   1      28.876  29.236  22.858  1.00  0.00    -0.268 OA
BRANCH  21  24
ATOM     24  C   UNL A   1      31.185  28.736  23.312  1.00  0.00     0.363 C 
BRANCH  24  25
ATOM     25  N   UNL A   1      31.748  28.512  24.653  1.00  0.00    -0.327 N 
ATOM     26  C   UNL A   1      33.131  28.040  24.631  1.00  0.00     0.262 C 
ATOM     27  C   UNL A   1      31.587  29.673  25.532  1.00  0.00     0.262 C 
ATOM     28  H   UNL A   1      31.194  27.752  25.050  1.00  0.00     0.348 HD
ATOM     29  C   UNL A   1      33.516  27.562  26.032  1.00  0.00     0.062 C 
ATOM     30  C   UNL A   1      31.953  29.296  26.969  1.00  0.00     0.062 C 
ATOM     31  C   UNL A   1      33.346  28.678  27.058  1.00  0.00     0.012 C 
ENDBRANCH  24  25
ENDBRANCH  21  24
ENDBRANCH  19  20
ENDBRANCH  12  14
ENDBRANCH   9  10
ENDBRANCH   1   5
BRANCH   3  32
ATOM     32  C   UNL A   1      37.775  21.574  25.121  1.00  0.00     0.117 C 
BRANCH  32  33
ATOM     33  C   UNL A   1      38.363  20.206  24.824  1.00  0.00     0.042 C 
BRANCH  33  34
ATOM     34  C   UNL A   1      38.920  19.473  26.038  1.00  0.00     0.118 C 
BRANCH  34  35
ATOM     35  N   UNL A   1      40.250  18.912  25.836  1.00  0.00    -0.352 N 
ATOM     36  C   UNL A   1      41.496  19.468  26.006  1.00  0.00     0.251 C 
ATOM     37  H   UNL A   1      40.258  17.978  25.525  1.00  0.00     0.163 HD
ATOM     38  O   UNL A   1      42.494  18.831  25.680  1.00  0.00    -0.269 OA
BRANCH  36  39
ATOM     39  C   UNL A   1      41.640  20.840  26.538  1.00  0.00     0.039 A 
ATOM     40  C   UNL A   1      41.666  21.029  27.923  1.00  0.00     0.014 A 
ATOM     41  C   UNL A   1      41.776  21.935  25.684  1.00  0.00     0.014 A 
ATOM     42  C   UNL A   1      41.934  22.297  28.445  1.00  0.00     0.010 A 
ATOM     43  C   UNL A   1      42.151  23.171  26.200  1.00  0.00     0.010 A 
ATOM     44  C   UNL A   1      42.238  23.366  27.586  1.00  0.00    -0.014 A 
BRANCH  44  45
ATOM     45  C   UNL A   1      42.667  24.687  28.111  1.00  0.00     0.031 A 
ATOM     46  C   UNL A   1      41.652  25.766  28.380  1.00  0.00     0.074 A 
ATOM     47  C   UNL A   1      43.980  24.954  28.254  1.00  0.00     0.049 A 
ATOM     48  N   UNL A   1      41.843  27.004  28.760  1.00  0.00    -0.248 NA
ATOM     49  C   UNL A   1      40.240  25.418  28.155  1.00  0.00     0.031 C 
ATOM     50  C   UNL A   1      45.073  24.022  27.962  1.00  0.00     0.029 A 
ATOM     51  N   UNL A   1      44.621  26.095  28.671  1.00  0.00    -0.354 N 
ATOM     52  C   UNL A   1      40.584  27.589  28.785  1.00  0.00     0.074 A 
ATOM     53  C   UNL A   1      39.643  26.587  28.333  1.00  0.00     0.031 C 
ATOM     54  C   UNL A   1      46.244  24.618  28.237  1.00  0.00     0.029 A 
ATOM     55  C   UNL A   1      45.989  25.983  28.685  1.00  0.00     0.049 A 
ATOM     56  H   UNL A   1      44.143  26.914  28.933  1.00  0.00     0.167 HD
ATOM     57  C   UNL A   1      40.234  28.840  29.168  1.00  0.00     0.031 A 
ATOM     58  C   UNL A   1      46.937  26.879  29.018  1.00  0.00     0.031 A 
ATOM     59  C   UNL A   1      41.164  29.829  29.643  1.00  0.00     0.049 A 
ATOM     60  C   UNL A   1      46.528  28.252  29.470  1.00  0.00     0.074 A 
ATOM     61  C   UNL A   1      40.901  31.093  30.140  1.00  0.00     0.029 A 
ATOM     62  N   UNL A   1      42.540  29.664  29.676  1.00  0.00    -0.354 N 
ATOM     63  N   UNL A   1      45.324  28.760  29.573  1.00  0.00    -0.248 NA
ATOM     64  C   UNL A   1      47.607  29.168  29.863  1.00  0.00     0.031 C 
ATOM     65  C   UNL A   1      42.122  31.713  30.428  1.00  0.00     0.029 A 
ATOM     66  C   UNL A   1      43.142  30.814  30.160  1.00  0.00     0.049 A 
ATOM     67  H   UNL A   1      43.019  28.850  29.397  1.00  0.00     0.167 HD
ATOM     68  C   UNL A   1      45.498  30.048  30.061  1.00  0.00     0.074 A 
ATOM     69  C   UNL A   1      46.923  30.236  30.250  1.00  0.00     0.031 C 
ATOM     70  C   UNL A   1      44.562  30.990  30.329  1.00  0.00     0.031 A 
BRANCH  57  71
ATOM     71  C   UNL A   1      38.778  29.206  29.075  1.00  0.00    -0.014 A 
ATOM     72  C   UNL A   1      38.213  29.660  27.872  1.00  0.00     0.009 A 
ATOM     73  C   UNL A   1      37.958  29.091  30.208  1.00  0.00     0.009 A 
ATOM     74  C   UNL A   1      36.870  30.038  27.819  1.00  0.00     0.001 A 
ATOM     75  C   UNL A   1      36.608  29.440  30.144  1.00  0.00     0.001 A 
ATOM     76  C   UNL A   1      36.068  29.926  28.954  1.00  0.00     0.000 A 
ENDBRANCH  57  71
BRANCH  58  77
ATOM     77  C   UNL A   1      48.370  26.490  28.958  1.00  0.00    -0.014 A 
ATOM     78  C   UNL A   1      49.123  26.729  27.799  1.00  0.00     0.009 A 
ATOM     79  C   UNL A   1      48.999  25.903  30.068  1.00  0.00     0.009 A 
ATOM     80  C   UNL A   1      50.472  26.375  27.747  1.00  0.00     0.001 A 
ATOM     81  C   UNL A   1      50.355  25.574  30.021  1.00  0.00     0.001 A 
ATOM     82  C   UNL A   1      51.089  25.804  28.859  1.00  0.00     0.000 A 
ENDBRANCH  58  77
BRANCH  70  83
ATOM     83  C   UNL A   1      45.048  32.304  30.874  1.00  0.00    -0.014 A 
ATOM     84  C   UNL A   1      45.358  33.374  30.020  1.00  0.00     0.009 A 
ATOM     85  C   UNL A   1      45.158  32.484  32.261  1.00  0.00     0.009 A 
ATOM     86  C   UNL A   1      45.800  34.589  30.547  1.00  0.00     0.001 A 
ATOM     87  C   UNL A   1      45.574  33.708  32.785  1.00  0.00     0.001 A 
ATOM     88  C   UNL A   1      45.903  34.757  31.927  1.00  0.00     0.000 A 
ENDBRANCH  70  83
ENDBRANCH  44  45
ENDBRANCH  36  39
ENDBRANCH  34  35
ENDBRANCH  33  34
ENDBRANCH  32  33
ENDBRANCH   3  32
TORSDOF 15
ENDMDL
MODEL 2
REMARK VINA RESULT:     -11.9      3.271      9.015
REMARK SMILES CC1(C)[C@H](C(=O)Nc2ccc(NC(=O)C[NH+]3CCCCC3)cc2)[C@@H]1C(=O)NCCCNC(=O)c1ccc(-c2c3nc(c(-c4ccccc4)c4ccc([nH]4)c(-c4ccccc4)c4nc(c(-c5ccccc5)c5ccc2[nH]5)C=C4)C=C3)cc1
REMARK SMILES IDX 25 1 26 2 27 3 24 5 1 6 2 7 3 8 4 9 5 10 6 11 7 12 8 14 9 15
REMARK SMILES IDX 23 16 10 17 22 18 11 19 12 20 13 21 14 23 15 24 16 25 17 26
REMARK SMILES IDX 21 27 18 29 20 30 19 31 28 32 29 33 30 34 31 35 32 36 33 38
REMARK SMILES IDX 34 39 35 40 81 41 36 42 80 43 37 44 38 45 39 46 74 47 40 48
REMARK SMILES IDX 79 49 73 50 75 51 41 52 78 53 72 54 71 55 42 57 64 58 49 59
REMARK SMILES IDX 63 60 50 61 53 62 62 63 76 64 51 65 52 66 61 68 77 69 54 70
REMARK SMILES IDX 43 71 44 72 48 73 45 74 47 75 46 76 65 77 66 78 70 79 67 80
REMARK SMILES IDX 69 81 68 82 55 83 56 84 60 85 57 86 59 87 58 88
REMARK H PARENT 27 4 7 13 12 22 16 28 31 37 75 56 53 67
REMARK Flexibility Score: inf
ROOT
ATOM      1  C   UNL A   1      32.625  29.357  24.668  1.00  0.00     0.224 C 
ATOM      2  O   UNL A   1      33.078  29.326  23.535  1.00  0.00    -0.275 OA
ATOM      3  N   UNL A   1      33.286  30.052  25.645  1.00  0.00    -0.356 N 
ATOM      4  H   UNL A   1      34.120  30.495  25.366  1.00  0.00     0.163 HD
ENDROOT
BRANCH   1   5
ATOM      5  C   UNL A   1      31.468  28.531  25.061  1.00  0.00     0.098 C 
ATOM      6  C   UNL A   1      30.721  26.561  26.590  1.00  0.00     0.013 C 
ATOM      7  C   UNL A   1      31.564  27.043  25.423  1.00  0.00    -0.011 C 
ATOM      8  C   UNL A   1      32.861  26.301  25.345  1.00  0.00     0.013 C 
ATOM      9  C   UNL A   1      30.776  27.497  24.213  1.00  0.00     0.098 C 
BRANCH   9  10
ATOM     10  C   UNL A   1      30.881  27.267  22.741  1.00  0.00     0.228 C 
ATOM     11  O   UNL A   1      30.522  28.214  22.032  1.00  0.00    -0.274 OA
ATOM     12  N   UNL A   1      31.536  26.265  22.075  1.00  0.00    -0.326 N 
ATOM     13  H   UNL A   1      31.886  26.540  21.197  1.00  0.00     0.169 HD
BRANCH  12  14
ATOM     14  C   UNL A   1      31.803  24.942  22.388  1.00  0.00     0.041 A 
ATOM     15  C   UNL A   1      30.872  24.248  23.147  1.00  0.00     0.028 A 
ATOM     16  C   UNL A   1      33.016  24.344  22.078  1.00  0.00     0.028 A 
ATOM     17  C   UNL A   1      31.044  22.886  23.379  1.00  0.00     0.028 A 
ATOM     18  C   UNL A   1      33.212  22.987  22.366  1.00  0.00     0.028 A 
ATOM     19  C   UNL A   1      32.215  22.238  23.000  1.00  0.00     0.041 A 
BRANCH  19  20
ATOM     20  N   UNL A   1      32.447  20.863  23.170  1.00  0.00    -0.321 N 
ATOM     21  C   UNL A   1      32.898  20.124  24.233  1.00  0.00     0.279 C 
ATOM     22  H   UNL A   1      32.247  20.325  22.370  1.00  0.00     0.170 HD
ATOM     23  O   UNL A   1      32.832  18.891  24.144  1.00  0.00    -0.268 OA
BRANCH  21  24
ATOM     24  C   UNL A   1      33.511  20.769  25.485  1.00  0.00     0.363 C 
BRANCH  24  25
ATOM     25  N   UNL A   1      34.619  21.666  25.121  1.00  0.00    -0.327 N 
ATOM     26  C   UNL A   1      34.723  22.842  25.983  1.00  0.00     0.262 C 
ATOM     27  C   UNL A   1      35.899  20.963  25.009  1.00  0.00     0.262 C 
ATOM     28  H   UNL A   1      34.384  22.015  24.191  1.00  0.00     0.348 HD
ATOM     29  C   UNL A   1      35.697  23.838  25.352  1.00  0.00     0.062 C 
ATOM     30  C   UNL A   1      36.949  21.883  24.385  1.00  0.00     0.062 C 
ATOM     31  C   UNL A   1      37.067  23.205  25.138  1.00  0.00     0.012 C 
ENDBRANCH  24  25
ENDBRANCH  21  24
ENDBRANCH  19  20
ENDBRANCH  12  14
ENDBRANCH   9  10
ENDBRANCH   1   5
BRANCH   3  32
ATOM     32  C   UNL A   1      32.918  30.224  27.037  1.00  0.00     0.117 C 
BRANCH  32  33
ATOM     33  C   UNL A   1      31.910  31.341  27.244  1.00  0.00     0.042 C 
BRANCH  33  34
ATOM     34  C   UNL A   1      32.217  32.626  26.484  1.00  0.00     0.118 C 
BRANCH  34  35
ATOM     35  N   UNL A   1      32.128  33.833  27.296  1.00  0.00    -0.352 N 
ATOM     36  C   UNL A   1      32.947  34.310  28.291  1.00  0.00     0.251 C 
ATOM     37  H   UNL A   1      31.349  34.403  27.099  1.00  0.00     0.163 HD
ATOM     38  O   UNL A   1      32.623  35.317  28.915  1.00  0.00    -0.269 OA
BRANCH  36  39
ATOM     39  C   UNL A   1      34.193  33.596  28.645  1.00  0.00     0.039 A 
ATOM     40  C   UNL A   1      35.371  33.913  27.963  1.00  0.00     0.014 A 
ATOM     41  C   UNL A   1      34.214  32.638  29.659  1.00  0.00     0.014 A 
ATOM     42  C   UNL A   1      36.582  33.349  28.370  1.00  0.00     0.010 A 
ATOM     43  C   UNL A   1      35.431  32.163  30.134  1.00  0.00     0.010 A 
ATOM     44  C   UNL A   1      36.630  32.515  29.498  1.00  0.00    -0.014 A 
BRANCH  44  45
ATOM     45  C   UNL A   1      37.918  32.014  30.041  1.00  0.00     0.031 A 
ATOM     46  C   UNL A   1      38.525  30.742  29.514  1.00  0.00     0.074 A 
ATOM     47  C   UNL A   1      38.496  32.651  31.080  1.00  0.00     0.049 A 
ATOM     48  N   UNL A   1      39.596  30.107  29.919  1.00  0.00    -0.248 NA
ATOM     49  C   UNL A   1      37.812  30.074  28.413  1.00  0.00     0.031 C 
ATOM     50  C   UNL A   1      37.978  33.856  31.733  1.00  0.00     0.029 A 
ATOM     51  N   UNL A   1      39.644  32.365  31.776  1.00  0.00    -0.354 N 
ATOM     52  C   UNL A   1      39.664  28.954  29.149  1.00  0.00     0.074 A 
ATOM     53  C   UNL A   1      38.501  28.950  28.289  1.00  0.00     0.031 C 
ATOM     54  C   UNL A   1      38.819  34.221  32.713  1.00  0.00     0.029 A 
ATOM     55  C   UNL A   1      39.912  33.258  32.784  1.00  0.00     0.049 A 
ATOM     56  H   UNL A   1      40.219  31.593  31.572  1.00  0.00     0.167 HD
ATOM     57  C   UNL A   1      40.618  27.993  29.139  1.00  0.00     0.031 A 
ATOM     58  C   UNL A   1      40.923  33.298  33.673  1.00  0.00     0.031 A 
ATOM     59  C   UNL A   1      41.789  28.008  29.974  1.00  0.00     0.049 A 
ATOM     60  C   UNL A   1      41.988  32.240  33.625  1.00  0.00     0.074 A 
ATOM     61  C   UNL A   1      42.859  27.130  29.976  1.00  0.00     0.029 A 
ATOM     62  N   UNL A   1      42.042  28.951  30.958  1.00  0.00    -0.354 N 
ATOM     63  N   UNL A   1      42.084  31.203  32.829  1.00  0.00    -0.248 NA
ATOM     64  C   UNL A   1      43.088  32.366  34.591  1.00  0.00     0.031 C 
ATOM     65  C   UNL A   1      43.736  27.513  30.997  1.00  0.00     0.029 A 
ATOM     66  C   UNL A   1      43.238  28.661  31.594  1.00  0.00     0.049 A 
ATOM     67  H   UNL A   1      41.458  29.713  31.173  1.00  0.00     0.167 HD
ATOM     68  C   UNL A   1      43.264  30.563  33.183  1.00  0.00     0.074 A 
ATOM     69  C   UNL A   1      43.857  31.339  34.254  1.00  0.00     0.031 C 
ATOM     70  C   UNL A   1      43.808  29.434  32.667  1.00  0.00     0.031 A 
BRANCH  57  71
ATOM     71  C   UNL A   1      40.420  26.837  28.197  1.00  0.00    -0.014 A 
ATOM     72  C   UNL A   1      39.701  25.693  28.583  1.00  0.00     0.009 A 
ATOM     73  C   UNL A   1      40.957  26.894  26.902  1.00  0.00     0.009 A 
ATOM     74  C   UNL A   1      39.568  24.612  27.709  1.00  0.00     0.001 A 
ATOM     75  C   UNL A   1      40.795  25.824  26.019  1.00  0.00     0.001 A 
ATOM     76  C   UNL A   1      40.113  24.679  26.428  1.00  0.00     0.000 A 
ENDBRANCH  57  71
BRANCH  58  77
ATOM     77  C   UNL A   1      40.985  34.400  34.667  1.00  0.00    -0.014 A 
ATOM     78  C   UNL A   1      40.332  34.278  35.903  1.00  0.00     0.009 A 
ATOM     79  C   UNL A   1      41.718  35.567  34.398  1.00  0.00     0.009 A 
ATOM     80  C   UNL A   1      40.400  35.309  36.843  1.00  0.00     0.001 A 
ATOM     81  C   UNL A   1      41.805  36.584  35.350  1.00  0.00     0.001 A 
ATOM     82  C   UNL A   1      41.141  36.457  36.569  1.00  0.00     0.000 A 
ENDBRANCH  58  77
BRANCH  70  83
ATOM     83  C   UNL A   1      45.120  28.981  33.242  1.00  0.00    -0.014 A 
ATOM     84  C   UNL A   1      45.170  28.158  34.377  1.00  0.00     0.009 A 
ATOM     85  C   UNL A   1      46.320  29.350  32.613  1.00  0.00     0.009 A 
ATOM     86  C   UNL A   1      46.400  27.741  34.891  1.00  0.00     0.001 A 
ATOM     87  C   UNL A   1      47.545  28.909  33.113  1.00  0.00     0.001 A 
ATOM     88  C   UNL A   1      47.585  28.112  34.256  1.00  0.00     0.000 A 
ENDBRANCH  70  83
ENDBRANCH  44  45
ENDBRANCH  36  39
ENDBRANCH  34  35
ENDBRANCH  33  34
ENDBRANCH  32  33
ENDBRANCH   3  32
TORSDOF 15
ENDMDL
MODEL 3
REMARK VINA RESULT:     -11.7      0.568      5.771
REMARK SMILES CC1(C)[C@H](C(=O)Nc2ccc(NC(=O)C[NH+]3CCCCC3)cc2)[C@@H]1C(=O)NCCCNC(=O)c1ccc(-c2c3nc(c(-c4ccccc4)c4ccc([nH]4)c(-c4ccccc4)c4nc(c(-c5ccccc5)c5ccc2[nH]5)C=C4)C=C3)cc1
REMARK SMILES IDX 25 1 26 2 27 3 24 5 1 6 2 7 3 8 4 9 5 10 6 11 7 12 8 14 9 15
REMARK SMILES IDX 23 16 10 17 22 18 11 19 12 20 13 21 14 23 15 24 16 25 17 26
REMARK SMILES IDX 21 27 18 29 20 30 19 31 28 32 29 33 30 34 31 35 32 36 33 38
REMARK SMILES IDX 34 39 35 40 81 41 36 42 80 43 37 44 38 45 39 46 74 47 40 48
REMARK SMILES IDX 79 49 73 50 75 51 41 52 78 53 72 54 71 55 42 57 64 58 49 59
REMARK SMILES IDX 63 60 50 61 53 62 62 63 76 64 51 65 52 66 61 68 77 69 54 70
REMARK SMILES IDX 43 71 44 72 48 73 45 74 47 75 46 76 65 77 66 78 70 79 67 80
REMARK SMILES IDX 69 81 68 82 55 83 56 84 60 85 57 86 59 87 58 88
REMARK H PARENT 27 4 7 13 12 22 16 28 31 37 75 56 53 67
REMARK Flexibility Score: inf
ROOT
ATOM      1  C   UNL A   1      35.341  21.705  25.944  1.00  0.00     0.224 C 
ATOM      2  O   UNL A   1      34.595  21.640  26.909  1.00  0.00    -0.275 OA
ATOM      3  N   UNL A   1      36.687  21.862  26.135  1.00  0.00    -0.356 N 
ATOM      4  H   UNL A   1      36.983  21.922  27.073  1.00  0.00     0.163 HD
ENDROOT
BRANCH   1   5
ATOM      5  C   UNL A   1      34.818  21.781  24.567  1.00  0.00     0.098 C 
ATOM      6  C   UNL A   1      34.612  23.332  22.486  1.00  0.00     0.013 C 
ATOM      7  C   UNL A   1      34.256  23.062  23.937  1.00  0.00    -0.011 C 
ATOM      8  C   UNL A   1      34.148  24.336  24.716  1.00  0.00     0.013 C 
ATOM      9  C   UNL A   1      33.370  21.857  24.161  1.00  0.00     0.098 C 
BRANCH   9  10
ATOM     10  C   UNL A   1      32.150  21.584  24.980  1.00  0.00     0.228 C 
ATOM     11  O   UNL A   1      32.079  20.447  25.458  1.00  0.00    -0.274 OA
ATOM     12  N   UNL A   1      31.231  22.474  25.471  1.00  0.00    -0.326 N 
ATOM     13  H   UNL A   1      30.828  22.192  26.324  1.00  0.00     0.169 HD
BRANCH  12  14
ATOM     14  C   UNL A   1      30.754  23.690  25.009  1.00  0.00     0.041 A 
ATOM     15  C   UNL A   1      30.321  24.621  25.942  1.00  0.00     0.028 A 
ATOM     16  C   UNL A   1      30.580  23.945  23.656  1.00  0.00     0.028 A 
ATOM     17  C   UNL A   1      29.951  25.898  25.527  1.00  0.00     0.028 A 
ATOM     18  C   UNL A   1      30.149  25.212  23.240  1.00  0.00     0.028 A 
ATOM     19  C   UNL A   1      29.853  26.209  24.175  1.00  0.00     0.041 A 
BRANCH  19  20
ATOM     20  N   UNL A   1      29.519  27.481  23.680  1.00  0.00    -0.321 N 
ATOM     21  C   UNL A   1      30.275  28.507  23.176  1.00  0.00     0.279 C 
ATOM     22  H   UNL A   1      28.554  27.673  23.699  1.00  0.00     0.170 HD
ATOM     23  O   UNL A   1      29.679  29.453  22.645  1.00  0.00    -0.268 OA
BRANCH  21  24
ATOM     24  C   UNL A   1      31.807  28.535  23.288  1.00  0.00     0.363 C 
BRANCH  24  25
ATOM     25  N   UNL A   1      32.228  28.477  24.696  1.00  0.00    -0.327 N 
ATOM     26  C   UNL A   1      33.661  28.242  24.866  1.00  0.00     0.262 C 
ATOM     27  C   UNL A   1      31.776  29.638  25.468  1.00  0.00     0.262 C 
ATOM     28  H   UNL A   1      31.757  27.657  25.081  1.00  0.00     0.348 HD
ATOM     29  C   UNL A   1      33.940  27.907  26.332  1.00  0.00     0.062 C 
ATOM     30  C   UNL A   1      32.016  29.401  26.960  1.00  0.00     0.062 C 
ATOM     31  C   UNL A   1      33.468  29.030  27.250  1.00  0.00     0.012 C 
ENDBRANCH  24  25
ENDBRANCH  21  24
ENDBRANCH  19  20
ENDBRANCH  12  14
ENDBRANCH   9  10
ENDBRANCH   1   5
BRANCH   3  32
ATOM     32  C   UNL A   1      37.736  21.948  25.138  1.00  0.00     0.117 C 
BRANCH  32  33
ATOM     33  C   UNL A   1      38.527  20.659  25.005  1.00  0.00     0.042 C 
BRANCH  33  34
ATOM     34  C   UNL A   1      39.305  20.256  26.251  1.00  0.00     0.118 C 
BRANCH  34  35
ATOM     35  N   UNL A   1      40.424  19.358  25.990  1.00  0.00    -0.352 N 
ATOM     36  C   UNL A   1      41.781  19.571  26.049  1.00  0.00     0.251 C 
ATOM     37  H   UNL A   1      40.164  18.446  25.727  1.00  0.00     0.163 HD
ATOM     38  O   UNL A   1      42.551  18.684  25.690  1.00  0.00    -0.269 OA
BRANCH  36  39
ATOM     39  C   UNL A   1      42.318  20.873  26.500  1.00  0.00     0.039 A 
ATOM     40  C   UNL A   1      42.726  21.804  25.540  1.00  0.00     0.014 A 
ATOM     41  C   UNL A   1      42.396  21.193  27.855  1.00  0.00     0.014 A 
ATOM     42  C   UNL A   1      43.110  23.087  25.936  1.00  0.00     0.010 A 
ATOM     43  C   UNL A   1      42.671  22.500  28.241  1.00  0.00     0.010 A 
ATOM     44  C   UNL A   1      43.028  23.464  27.287  1.00  0.00    -0.014 A 
BRANCH  44  45
ATOM     45  C   UNL A   1      43.292  24.859  27.722  1.00  0.00     0.031 A 
ATOM     46  C   UNL A   1      44.701  25.327  27.969  1.00  0.00     0.074 A 
ATOM     47  C   UNL A   1      42.257  25.680  27.993  1.00  0.00     0.049 A 
ATOM     48  N   UNL A   1      45.120  26.479  28.429  1.00  0.00    -0.248 NA
ATOM     49  C   UNL A   1      45.777  24.361  27.699  1.00  0.00     0.031 C 
ATOM     50  C   UNL A   1      40.840  25.331  27.864  1.00  0.00     0.029 A 
ATOM     51  N   UNL A   1      42.239  26.976  28.444  1.00  0.00    -0.354 N 
ATOM     52  C   UNL A   1      46.500  26.362  28.537  1.00  0.00     0.074 A 
ATOM     53  C   UNL A   1      46.841  25.012  28.143  1.00  0.00     0.031 C 
ATOM     54  C   UNL A   1      40.093  26.395  28.198  1.00  0.00     0.029 A 
ATOM     55  C   UNL A   1      40.974  27.485  28.603  1.00  0.00     0.049 A 
ATOM     56  H   UNL A   1      43.056  27.491  28.635  1.00  0.00     0.167 HD
ATOM     57  C   UNL A   1      47.406  27.296  28.909  1.00  0.00     0.031 A 
ATOM     58  C   UNL A   1      40.564  28.694  29.030  1.00  0.00     0.031 A 
ATOM     59  C   UNL A   1      47.072  28.646  29.274  1.00  0.00     0.049 A 
ATOM     60  C   UNL A   1      41.586  29.728  29.408  1.00  0.00     0.074 A 
ATOM     61  C   UNL A   1      47.923  29.694  29.579  1.00  0.00     0.029 A 
ATOM     62  N   UNL A   1      45.779  29.133  29.388  1.00  0.00    -0.354 N 
ATOM     63  N   UNL A   1      42.893  29.629  29.418  1.00  0.00    -0.248 NA
ATOM     64  C   UNL A   1      41.075  31.042  29.821  1.00  0.00     0.031 C 
ATOM     65  C   UNL A   1      47.143  30.803  29.926  1.00  0.00     0.029 A 
ATOM     66  C   UNL A   1      45.807  30.460  29.785  1.00  0.00     0.049 A 
ATOM     67  H   UNL A   1      44.962  28.613  29.213  1.00  0.00     0.167 HD
ATOM     68  C   UNL A   1      43.363  30.872  29.819  1.00  0.00     0.074 A 
ATOM     69  C   UNL A   1      42.201  31.713  30.026  1.00  0.00     0.031 C 
ATOM     70  C   UNL A   1      44.643  31.280  30.000  1.00  0.00     0.031 A 
BRANCH  57  71
ATOM     71  C   UNL A   1      48.851  26.876  28.946  1.00  0.00    -0.014 A 
ATOM     72  C   UNL A   1      49.679  27.005  27.819  1.00  0.00     0.009 A 
ATOM     73  C   UNL A   1      49.391  26.347  30.127  1.00  0.00     0.009 A 
ATOM     74  C   UNL A   1      51.004  26.566  27.860  1.00  0.00     0.001 A 
ATOM     75  C   UNL A   1      50.726  25.939  30.175  1.00  0.00     0.001 A 
ATOM     76  C   UNL A   1      51.527  26.036  29.038  1.00  0.00     0.000 A 
ENDBRANCH  57  71
BRANCH  58  77
ATOM     77  C   UNL A   1      39.110  28.997  29.095  1.00  0.00    -0.014 A 
ATOM     78  C   UNL A   1      38.403  28.827  30.294  1.00  0.00     0.009 A 
ATOM     79  C   UNL A   1      38.430  29.484  27.967  1.00  0.00     0.009 A 
ATOM     80  C   UNL A   1      37.040  29.123  30.359  1.00  0.00     0.001 A 
ATOM     81  C   UNL A   1      37.073  29.804  28.043  1.00  0.00     0.001 A 
ATOM     82  C   UNL A   1      36.377  29.617  29.237  1.00  0.00     0.000 A 
ENDBRANCH  58  77
BRANCH  70  83
ATOM     83  C   UNL A   1      44.854  32.705  30.425  1.00  0.00    -0.014 A 
ATOM     84  C   UNL A   1      44.949  33.052  31.782  1.00  0.00     0.009 A 
ATOM     85  C   UNL A   1      45.000  33.708  29.453  1.00  0.00     0.009 A 
ATOM     86  C   UNL A   1      45.154  34.382  32.155  1.00  0.00     0.001 A 
ATOM     87  C   UNL A   1      45.231  35.030  29.829  1.00  0.00     0.001 A 
ATOM     88  C   UNL A   1      45.299  35.369  31.180  1.00  0.00     0.000 A 
ENDBRANCH  70  83
ENDBRANCH  44  45
ENDBRANCH  36  39
ENDBRANCH  34  35
ENDBRANCH  33  34
ENDBRANCH  32  33
ENDBRANCH   3  32
TORSDOF 15
ENDMDL
