MODEL 1
REMARK VINA RESULT:     -11.9      0.000      0.000
REMARK SMILES Cc1ccc(C#N)cc1Nc1cc(C)c(N)c(C(=O)NCCCNC(=O)c2ccc(-c3c4nc(c(-c5ccccc5)c5ccc([nH]5)c(-c5ccccc5)c5nc(c(-c6ccccc6)c6ccc3[nH]6)C=C5)C=C4)cc2)c1
REMARK SMILES IDX 21 1 20 2 18 3 19 4 17 6 11 7 12 8 75 9 13 10 14 11 15 12
REMARK SMILES IDX 10 13 9 15 1 16 2 17 3 18 4 19 8 20 5 21 6 22 7 23 16 24
REMARK SMILES IDX 22 27 23 28 24 29 25 30 26 32 27 33 28 34 74 35 29 36 73 37
REMARK SMILES IDX 30 38 31 39 32 40 67 41 33 42 72 43 66 44 68 45 34 46 71 47
REMARK SMILES IDX 65 48 64 49 35 51 57 52 42 53 56 54 43 55 46 56 55 57 69 58
REMARK SMILES IDX 44 59 45 60 54 62 70 63 47 64 36 65 37 66 41 67 38 68 40 69
REMARK SMILES IDX 39 70 58 71 59 72 63 73 60 74 62 75 61 76 48 77 49 78 53 79
REMARK SMILES IDX 50 80 52 81 51 82
REMARK H PARENT 20 5 10 14 16 25 16 26 24 31 68 50 46 61
REMARK Flexibility Score: inf
ROOT
ATOM      1  C   UNL A   1      31.820  30.283  26.402  1.00  0.00     0.118 C 
ENDROOT
BRANCH   1   2
ATOM      2  N   UNL A   1      32.601  30.017  25.208  1.00  0.00    -0.352 N 
ATOM      3  C   UNL A   1      32.448  29.184  24.128  1.00  0.00     0.253 C 
ATOM      4  O   UNL A   1      33.372  29.220  23.309  1.00  0.00    -0.269 OA
ATOM      5  H   UNL A   1      33.424  30.554  25.163  1.00  0.00     0.163 HD
BRANCH   3   6
ATOM      6  C   UNL A   1      31.239  28.322  23.874  1.00  0.00     0.065 A 
ATOM      7  C   UNL A   1      30.156  26.128  23.905  1.00  0.00     0.040 A 
ATOM      8  C   UNL A   1      28.942  26.733  23.597  1.00  0.00     0.031 A 
ATOM      9  C   UNL A   1      31.297  26.926  23.972  1.00  0.00     0.042 A 
ATOM     10  C   UNL A   1      28.851  28.122  23.384  1.00  0.00    -0.025 A 
ATOM     11  C   UNL A   1      27.498  28.655  22.991  1.00  0.00     0.047 C 
ATOM     12  C   UNL A   1      29.993  28.936  23.560  1.00  0.00     0.047 A 
BRANCH   7  13
ATOM     13  N   UNL A   1      30.207  24.766  24.254  1.00  0.00    -0.355 N 
ATOM     14  H   UNL A   1      29.353  24.280  24.207  1.00  0.00     0.167 HD
BRANCH  13  15
ATOM     15  C   UNL A   1      31.326  24.002  24.663  1.00  0.00     0.043 A 
ATOM     16  C   UNL A   1      30.122  23.300  26.804  1.00  0.00     0.046 C 
ATOM     17  C   UNL A   1      31.300  23.267  25.867  1.00  0.00    -0.027 A 
ATOM     18  C   UNL A   1      32.429  22.522  26.258  1.00  0.00     0.007 A 
ATOM     19  C   UNL A   1      33.573  22.480  25.462  1.00  0.00     0.020 A 
ATOM     20  C   UNL A   1      32.483  23.925  23.863  1.00  0.00     0.045 A 
ATOM     21  C   UNL A   1      33.602  23.184  24.261  1.00  0.00     0.054 A 
BRANCH  21  22
ATOM     22  C   UNL A   1      34.786  23.172  23.449  1.00  0.00     0.099 C 
ATOM     23  N   UNL A   1      35.741  23.160  22.796  1.00  0.00    -0.192 NA
ENDBRANCH  21  22
ENDBRANCH  13  15
ENDBRANCH   7  13
BRANCH  12  24
ATOM     24  N   UNL A   1      29.910  30.309  23.337  1.00  0.00    -0.398 N 
ATOM     25  H   UNL A   1      30.638  30.902  23.636  1.00  0.00     0.156 HD
ATOM     26  H   UNL A   1      29.124  30.687  22.880  1.00  0.00     0.156 HD
ENDBRANCH  12  24
ENDBRANCH   3   6
ENDBRANCH   1   2
BRANCH   1  27
ATOM     27  C   UNL A   1      31.608  31.785  26.571  1.00  0.00     0.042 C 
BRANCH  27  28
ATOM     28  C   UNL A   1      32.777  32.452  27.289  1.00  0.00     0.118 C 
BRANCH  28  29
ATOM     29  N   UNL A   1      32.507  33.856  27.589  1.00  0.00    -0.352 N 
ATOM     30  C   UNL A   1      33.074  34.689  28.522  1.00  0.00     0.251 C 
ATOM     31  H   UNL A   1      31.809  34.271  27.034  1.00  0.00     0.163 HD
ATOM     32  O   UNL A   1      32.555  35.771  28.778  1.00  0.00    -0.269 OA
BRANCH  30  33
ATOM     33  C   UNL A   1      34.296  34.267  29.232  1.00  0.00     0.039 A 
ATOM     34  C   UNL A   1      35.548  34.489  28.663  1.00  0.00     0.014 A 
ATOM     35  C   UNL A   1      34.189  33.629  30.470  1.00  0.00     0.014 A 
ATOM     36  C   UNL A   1      36.667  33.886  29.217  1.00  0.00     0.010 A 
ATOM     37  C   UNL A   1      35.337  33.132  31.092  1.00  0.00     0.010 A 
ATOM     38  C   UNL A   1      36.577  33.203  30.442  1.00  0.00    -0.014 A 
BRANCH  38  39
ATOM     39  C   UNL A   1      37.801  32.585  31.010  1.00  0.00     0.031 A 
ATOM     40  C   UNL A   1      38.382  33.069  32.310  1.00  0.00     0.074 A 
ATOM     41  C   UNL A   1      38.348  31.526  30.379  1.00  0.00     0.049 A 
ATOM     42  N   UNL A   1      39.406  32.596  32.978  1.00  0.00    -0.248 NA
ATOM     43  C   UNL A   1      37.743  34.234  32.947  1.00  0.00     0.031 C 
ATOM     44  C   UNL A   1      37.859  30.957  29.121  1.00  0.00     0.029 A 
ATOM     45  N   UNL A   1      39.400  30.717  30.722  1.00  0.00    -0.354 N 
ATOM     46  C   UNL A   1      39.539  33.409  34.097  1.00  0.00     0.074 A 
ATOM     47  C   UNL A   1      38.525  34.434  34.000  1.00  0.00     0.031 C 
ATOM     48  C   UNL A   1      38.557  29.850  28.839  1.00  0.00     0.029 A 
ATOM     49  C   UNL A   1      39.602  29.680  29.842  1.00  0.00     0.049 A 
ATOM     50  H   UNL A   1      39.958  30.863  31.520  1.00  0.00     0.167 HD
ATOM     51  C   UNL A   1      40.418  33.297  35.121  1.00  0.00     0.031 A 
ATOM     52  C   UNL A   1      40.528  28.703  29.831  1.00  0.00     0.031 A 
ATOM     53  C   UNL A   1      41.421  32.266  35.211  1.00  0.00     0.049 A 
ATOM     54  C   UNL A   1      41.528  28.637  30.948  1.00  0.00     0.074 A 
ATOM     55  C   UNL A   1      42.341  32.055  36.225  1.00  0.00     0.029 A 
ATOM     56  N   UNL A   1      41.640  31.278  34.262  1.00  0.00    -0.354 N 
ATOM     57  N   UNL A   1      41.619  29.392  32.017  1.00  0.00    -0.248 NA
ATOM     58  C   UNL A   1      42.547  27.584  30.865  1.00  0.00     0.031 C 
ATOM     59  C   UNL A   1      43.173  31.002  35.845  1.00  0.00     0.029 A 
ATOM     60  C   UNL A   1      42.708  30.483  34.647  1.00  0.00     0.049 A 
ATOM     61  H   UNL A   1      41.113  31.159  33.439  1.00  0.00     0.167 HD
ATOM     62  C   UNL A   1      42.692  28.894  32.744  1.00  0.00     0.074 A 
ATOM     63  C   UNL A   1      43.197  27.752  32.010  1.00  0.00     0.031 C 
ATOM     64  C   UNL A   1      43.213  29.350  33.910  1.00  0.00     0.031 A 
BRANCH  51  65
ATOM     65  C   UNL A   1      40.354  34.309  36.237  1.00  0.00    -0.014 A 
ATOM     66  C   UNL A   1      39.520  34.073  37.343  1.00  0.00     0.009 A 
ATOM     67  C   UNL A   1      41.018  35.542  36.146  1.00  0.00     0.009 A 
ATOM     68  C   UNL A   1      39.327  35.059  38.314  1.00  0.00     0.001 A 
ATOM     69  C   UNL A   1      40.856  36.511  37.140  1.00  0.00     0.001 A 
ATOM     70  C   UNL A   1      39.999  36.275  38.213  1.00  0.00     0.000 A 
ENDBRANCH  51  65
BRANCH  52  71
ATOM     71  C   UNL A   1      40.520  27.708  28.722  1.00  0.00    -0.014 A 
ATOM     72  C   UNL A   1      41.196  27.975  27.519  1.00  0.00     0.009 A 
ATOM     73  C   UNL A   1      39.775  26.525  28.826  1.00  0.00     0.009 A 
ATOM     74  C   UNL A   1      41.088  27.107  26.431  1.00  0.00     0.001 A 
ATOM     75  C   UNL A   1      39.704  25.635  27.751  1.00  0.00     0.001 A 
ATOM     76  C   UNL A   1      40.346  25.934  26.550  1.00  0.00     0.000 A 
ENDBRANCH  52  71
BRANCH  64  77
ATOM     77  C   UNL A   1      44.394  28.615  34.490  1.00  0.00    -0.014 A 
ATOM     78  C   UNL A   1      45.697  28.974  34.107  1.00  0.00     0.009 A 
ATOM     79  C   UNL A   1      44.221  27.506  35.334  1.00  0.00     0.009 A 
ATOM     80  C   UNL A   1      46.797  28.228  34.536  1.00  0.00     0.001 A 
ATOM     81  C   UNL A   1      45.327  26.791  35.799  1.00  0.00     0.001 A 
ATOM     82  C   UNL A   1      46.611  27.143  35.389  1.00  0.00     0.000 A 
ENDBRANCH  64  77
ENDBRANCH  38  39
ENDBRANCH  30  33
ENDBRANCH  28  29
ENDBRANCH  27  28
ENDBRANCH   1  27
TORSDOF 14
ENDMDL
MODEL 2
REMARK VINA RESULT:     -11.8      0.522      5.954
REMARK SMILES Cc1ccc(C#N)cc1Nc1cc(C)c(N)c(C(=O)NCCCNC(=O)c2ccc(-c3c4nc(c(-c5ccccc5)c5ccc([nH]5)c(-c5ccccc5)c5nc(c(-c6ccccc6)c6ccc3[nH]6)C=C5)C=C4)cc2)c1
REMARK SMILES IDX 21 1 20 2 18 3 19 4 17 6 11 7 12 8 75 9 13 10 14 11 15 12
REMARK SMILES IDX 10 13 9 15 1 16 2 17 3 18 4 19 8 20 5 21 6 22 7 23 16 24
REMARK SMILES IDX 22 27 23 28 24 29 25 30 26 32 27 33 28 34 74 35 29 36 73 37
REMARK SMILES IDX 30 38 31 39 32 40 67 41 33 42 72 43 66 44 68 45 34 46 71 47
REMARK SMILES IDX 65 48 64 49 35 51 57 52 42 53 56 54 43 55 46 56 55 57 69 58
REMARK SMILES IDX 44 59 45 60 54 62 70 63 47 64 36 65 37 66 41 67 38 68 40 69
REMARK SMILES IDX 39 70 58 71 59 72 63 73 60 74 62 75 61 76 48 77 49 78 53 79
REMARK SMILES IDX 50 80 52 81 51 82
REMARK H PARENT 20 5 10 14 16 25 16 26 24 31 68 50 46 61
REMARK Flexibility Score: inf
ROOT
ATOM      1  C   UNL A   1      31.778  30.375  26.546  1.00  0.00     0.118 C 
ENDROOT
BRANCH   1   2
ATOM      2  N   UNL A   1      32.583  30.078  25.376  1.00  0.00    -0.352 N 
ATOM      3  C   UNL A   1      32.444  29.230  24.306  1.00  0.00     0.253 C 
ATOM      4  O   UNL A   1      33.387  29.240  23.509  1.00  0.00    -0.269 OA
ATOM      5  H   UNL A   1      33.415  30.602  25.342  1.00  0.00     0.163 HD
BRANCH   3   6
ATOM      6  C   UNL A   1      31.228  28.383  24.036  1.00  0.00     0.065 A 
ATOM      7  C   UNL A   1      30.052  26.245  24.218  1.00  0.00     0.040 A 
ATOM      8  C   UNL A   1      28.901  26.845  23.721  1.00  0.00     0.031 A 
ATOM      9  C   UNL A   1      31.215  27.008  24.304  1.00  0.00     0.042 A 
ATOM     10  C   UNL A   1      28.891  28.201  23.338  1.00  0.00    -0.025 A 
ATOM     11  C   UNL A   1      27.605  28.724  22.751  1.00  0.00     0.047 C 
ATOM     12  C   UNL A   1      30.045  28.993  23.529  1.00  0.00     0.047 A 
BRANCH   7  13
ATOM     13  N   UNL A   1      30.011  24.934  24.729  1.00  0.00    -0.355 N 
ATOM     14  H   UNL A   1      29.120  24.604  24.986  1.00  0.00     0.167 HD
BRANCH  13  15
ATOM     15  C   UNL A   1      31.081  24.028  24.921  1.00  0.00     0.043 A 
ATOM     16  C   UNL A   1      29.878  22.957  26.904  1.00  0.00     0.046 C 
ATOM     17  C   UNL A   1      31.029  23.052  25.938  1.00  0.00    -0.027 A 
ATOM     18  C   UNL A   1      32.110  22.167  26.117  1.00  0.00     0.007 A 
ATOM     19  C   UNL A   1      33.230  22.226  25.289  1.00  0.00     0.020 A 
ATOM     20  C   UNL A   1      32.211  24.053  24.081  1.00  0.00     0.045 A 
ATOM     21  C   UNL A   1      33.283  23.171  24.268  1.00  0.00     0.054 A 
BRANCH  21  22
ATOM     22  C   UNL A   1      34.444  23.260  23.429  1.00  0.00     0.099 C 
ATOM     23  N   UNL A   1      35.379  23.328  22.751  1.00  0.00    -0.192 NA
ENDBRANCH  21  22
ENDBRANCH  13  15
ENDBRANCH   7  13
BRANCH  12  24
ATOM     24  N   UNL A   1      30.044  30.330  23.138  1.00  0.00    -0.398 N 
ATOM     25  H   UNL A   1      29.933  30.566  22.187  1.00  0.00     0.156 HD
ATOM     26  H   UNL A   1      30.153  31.041  23.811  1.00  0.00     0.156 HD
ENDBRANCH  12  24
ENDBRANCH   3   6
ENDBRANCH   1   2
BRANCH   1  27
ATOM     27  C   UNL A   1      31.579  31.882  26.682  1.00  0.00     0.042 C 
BRANCH  27  28
ATOM     28  C   UNL A   1      32.812  32.575  27.251  1.00  0.00     0.118 C 
BRANCH  28  29
ATOM     29  N   UNL A   1      32.554  33.976  27.577  1.00  0.00    -0.352 N 
ATOM     30  C   UNL A   1      33.040  34.753  28.600  1.00  0.00     0.251 C 
ATOM     31  H   UNL A   1      31.933  34.435  26.967  1.00  0.00     0.163 HD
ATOM     32  O   UNL A   1      32.528  35.841  28.842  1.00  0.00    -0.269 OA
BRANCH  30  33
ATOM     33  C   UNL A   1      34.164  34.263  29.420  1.00  0.00     0.039 A 
ATOM     34  C   UNL A   1      35.475  34.425  28.979  1.00  0.00     0.014 A 
ATOM     35  C   UNL A   1      33.903  33.620  30.633  1.00  0.00     0.014 A 
ATOM     36  C   UNL A   1      36.502  33.762  29.632  1.00  0.00     0.010 A 
ATOM     37  C   UNL A   1      34.958  33.060  31.357  1.00  0.00     0.010 A 
ATOM     38  C   UNL A   1      36.258  33.073  30.832  1.00  0.00    -0.014 A 
BRANCH  38  39
ATOM     39  C   UNL A   1      37.388  32.388  31.510  1.00  0.00     0.031 A 
ATOM     40  C   UNL A   1      38.096  31.232  30.858  1.00  0.00     0.074 A 
ATOM     41  C   UNL A   1      37.822  32.866  32.693  1.00  0.00     0.049 A 
ATOM     42  N   UNL A   1      39.141  30.566  31.283  1.00  0.00    -0.248 NA
ATOM     43  C   UNL A   1      37.569  30.753  29.569  1.00  0.00     0.031 C 
ATOM     44  C   UNL A   1      37.224  33.994  33.411  1.00  0.00     0.029 A 
ATOM     45  N   UNL A   1      38.883  32.498  33.480  1.00  0.00    -0.354 N 
ATOM     46  C   UNL A   1      39.385  29.589  30.327  1.00  0.00     0.074 A 
ATOM     47  C   UNL A   1      38.355  29.714  29.321  1.00  0.00     0.031 C 
ATOM     48  C   UNL A   1      37.970  34.275  34.488  1.00  0.00     0.029 A 
ATOM     49  C   UNL A   1      39.043  33.293  34.589  1.00  0.00     0.049 A 
ATOM     50  H   UNL A   1      39.473  31.738  33.271  1.00  0.00     0.167 HD
ATOM     51  C   UNL A   1      40.390  28.682  30.284  1.00  0.00     0.031 A 
ATOM     52  C   UNL A   1      39.944  33.239  35.589  1.00  0.00     0.031 A 
ATOM     53  C   UNL A   1      41.418  28.572  31.289  1.00  0.00     0.049 A 
ATOM     54  C   UNL A   1      41.012  32.185  35.547  1.00  0.00     0.074 A 
ATOM     55  C   UNL A   1      42.493  27.700  31.319  1.00  0.00     0.029 A 
ATOM     56  N   UNL A   1      41.501  29.348  32.435  1.00  0.00    -0.354 N 
ATOM     57  N   UNL A   1      41.250  31.290  34.618  1.00  0.00    -0.248 NA
ATOM     58  C   UNL A   1      41.940  32.137  36.683  1.00  0.00     0.031 C 
ATOM     59  C   UNL A   1      43.170  27.886  32.525  1.00  0.00     0.029 A 
ATOM     60  C   UNL A   1      42.585  28.945  33.200  1.00  0.00     0.049 A 
ATOM     61  H   UNL A   1      40.883  30.078  32.670  1.00  0.00     0.167 HD
ATOM     62  C   UNL A   1      42.366  30.585  35.047  1.00  0.00     0.074 A 
ATOM     63  C   UNL A   1      42.777  31.179  36.302  1.00  0.00     0.031 C 
ATOM     64  C   UNL A   1      42.987  29.536  34.454  1.00  0.00     0.031 A 
BRANCH  51  65
ATOM     65  C   UNL A   1      40.444  27.723  29.122  1.00  0.00    -0.014 A 
ATOM     66  C   UNL A   1      41.146  28.081  27.957  1.00  0.00     0.009 A 
ATOM     67  C   UNL A   1      39.711  26.527  29.125  1.00  0.00     0.009 A 
ATOM     68  C   UNL A   1      41.087  27.280  26.814  1.00  0.00     0.001 A 
ATOM     69  C   UNL A   1      39.686  25.706  27.994  1.00  0.00     0.001 A 
ATOM     70  C   UNL A   1      40.359  26.091  26.835  1.00  0.00     0.000 A 
ENDBRANCH  51  65
BRANCH  52  71
ATOM     71  C   UNL A   1      39.864  34.236  36.693  1.00  0.00    -0.014 A 
ATOM     72  C   UNL A   1      39.086  33.975  37.835  1.00  0.00     0.009 A 
ATOM     73  C   UNL A   1      40.496  35.482  36.580  1.00  0.00     0.009 A 
ATOM     74  C   UNL A   1      38.904  34.953  38.813  1.00  0.00     0.001 A 
ATOM     75  C   UNL A   1      40.349  36.444  37.583  1.00  0.00     0.001 A 
ATOM     76  C   UNL A   1      39.540  36.187  38.689  1.00  0.00     0.000 A 
ENDBRANCH  52  71
BRANCH  64  77
ATOM     77  C   UNL A   1      44.193  28.949  35.142  1.00  0.00    -0.014 A 
ATOM     78  C   UNL A   1      45.478  29.418  34.822  1.00  0.00     0.009 A 
ATOM     79  C   UNL A   1      44.072  27.869  36.031  1.00  0.00     0.009 A 
ATOM     80  C   UNL A   1      46.614  28.806  35.355  1.00  0.00     0.001 A 
ATOM     81  C   UNL A   1      45.209  27.289  36.600  1.00  0.00     0.001 A 
ATOM     82  C   UNL A   1      46.477  27.748  36.251  1.00  0.00     0.000 A 
ENDBRANCH  64  77
ENDBRANCH  38  39
ENDBRANCH  30  33
ENDBRANCH  28  29
ENDBRANCH  27  28
ENDBRANCH   1  27
TORSDOF 14
ENDMDL
MODEL 3
REMARK VINA RESULT:     -11.7      1.292      1.919
REMARK SMILES Cc1ccc(C#N)cc1Nc1cc(C)c(N)c(C(=O)NCCCNC(=O)c2ccc(-c3c4nc(c(-c5ccccc5)c5ccc([nH]5)c(-c5ccccc5)c5nc(c(-c6ccccc6)c6ccc3[nH]6)C=C5)C=C4)cc2)c1
REMARK SMILES IDX 21 1 20 2 18 3 19 4 17 6 11 7 12 8 75 9 13 10 14 11 15 12
REMARK SMILES IDX 10 13 9 15 1 16 2 17 3 18 4 19 8 20 5 21 6 22 7 23 16 24
REMARK SMILES IDX 22 27 23 28 24 29 25 30 26 32 27 33 28 34 74 35 29 36 73 37
REMARK SMILES IDX 30 38 31 39 32 40 67 41 33 42 72 43 66 44 68 45 34 46 71 47
REMARK SMILES IDX 65 48 64 49 35 51 57 52 42 53 56 54 43 55 46 56 55 57 69 58
REMARK SMILES IDX 44 59 45 60 54 62 70 63 47 64 36 65 37 66 41 67 38 68 40 69
REMARK SMILES IDX 39 70 58 71 59 72 63 73 60 74 62 75 61 76 48 77 49 78 53 79
REMARK SMILES IDX 50 80 52 81 51 82
REMARK H PARENT 20 5 10 14 16 25 16 26 24 31 68 50 46 61
REMARK Flexibility Score: inf
ROOT
ATOM      1  C   UNL A   1      31.833  30.265  26.460  1.00  0.00     0.118 C 
ENDROOT
BRANCH   1   2
ATOM      2  N   UNL A   1      32.619  30.066  25.257  1.00  0.00    -0.352 N 
ATOM      3  C   UNL A   1      32.852  28.997  24.429  1.00  0.00     0.253 C 
ATOM      4  O   UNL A   1      33.630  29.221  23.497  1.00  0.00    -0.269 OA
ATOM      5  H   UNL A   1      33.090  30.882  24.970  1.00  0.00     0.163 HD
BRANCH   3   6
ATOM      6  C   UNL A   1      32.187  27.652  24.559  1.00  0.00     0.065 A 
ATOM      7  C   UNL A   1      32.208  25.347  25.382  1.00  0.00     0.040 A 
ATOM      8  C   UNL A   1      30.884  25.202  24.983  1.00  0.00     0.031 A 
ATOM      9  C   UNL A   1      32.857  26.549  25.102  1.00  0.00     0.042 A 
ATOM     10  C   UNL A   1      30.196  26.248  24.336  1.00  0.00    -0.025 A 
ATOM     11  C   UNL A   1      28.788  25.952  23.890  1.00  0.00     0.047 C 
ATOM     12  C   UNL A   1      30.830  27.498  24.154  1.00  0.00     0.047 A 
BRANCH   7  13
ATOM     13  N   UNL A   1      32.836  24.350  26.151  1.00  0.00    -0.355 N 
ATOM     14  H   UNL A   1      32.808  24.482  27.126  1.00  0.00     0.167 HD
BRANCH  13  15
ATOM     15  C   UNL A   1      33.501  23.182  25.708  1.00  0.00     0.043 A 
ATOM     16  C   UNL A   1      35.672  24.489  25.381  1.00  0.00     0.046 C 
ATOM     17  C   UNL A   1      34.868  23.216  25.361  1.00  0.00    -0.027 A 
ATOM     18  C   UNL A   1      35.507  22.043  24.913  1.00  0.00     0.007 A 
ATOM     19  C   UNL A   1      34.813  20.837  24.826  1.00  0.00     0.020 A 
ATOM     20  C   UNL A   1      32.827  21.948  25.636  1.00  0.00     0.045 A 
ATOM     21  C   UNL A   1      33.470  20.788  25.187  1.00  0.00     0.054 A 
BRANCH  21  22
ATOM     22  C   UNL A   1      32.739  19.558  25.072  1.00  0.00     0.099 C 
ATOM     23  N   UNL A   1      32.153  18.564  24.978  1.00  0.00    -0.192 NA
ENDBRANCH  21  22
ENDBRANCH  13  15
ENDBRANCH   7  13
BRANCH  12  24
ATOM     24  N   UNL A   1      30.159  28.530  23.502  1.00  0.00    -0.398 N 
ATOM     25  H   UNL A   1      29.182  28.483  23.381  1.00  0.00     0.156 HD
ATOM     26  H   UNL A   1      30.660  29.306  23.161  1.00  0.00     0.156 HD
ENDBRANCH  12  24
ENDBRANCH   3   6
ENDBRANCH   1   2
BRANCH   1  27
ATOM     27  C   UNL A   1      31.577  31.753  26.685  1.00  0.00     0.042 C 
BRANCH  27  28
ATOM     28  C   UNL A   1      32.828  32.485  27.161  1.00  0.00     0.118 C 
BRANCH  28  29
ATOM     29  N   UNL A   1      32.528  33.836  27.629  1.00  0.00    -0.352 N 
ATOM     30  C   UNL A   1      33.104  34.576  28.632  1.00  0.00     0.251 C 
ATOM     31  H   UNL A   1      31.798  34.288  27.148  1.00  0.00     0.163 HD
ATOM     32  O   UNL A   1      32.563  35.604  29.027  1.00  0.00    -0.269 OA
BRANCH  30  33
ATOM     33  C   UNL A   1      34.362  34.117  29.250  1.00  0.00     0.039 A 
ATOM     34  C   UNL A   1      35.587  34.461  28.681  1.00  0.00     0.014 A 
ATOM     35  C   UNL A   1      34.317  33.322  30.397  1.00  0.00     0.014 A 
ATOM     36  C   UNL A   1      36.744  33.838  29.123  1.00  0.00     0.010 A 
ATOM     37  C   UNL A   1      35.502  32.796  30.919  1.00  0.00     0.010 A 
ATOM     38  C   UNL A   1      36.718  33.001  30.251  1.00  0.00    -0.014 A 
BRANCH  38  39
ATOM     39  C   UNL A   1      37.981  32.365  30.703  1.00  0.00     0.031 A 
ATOM     40  C   UNL A   1      38.732  32.893  31.895  1.00  0.00     0.074 A 
ATOM     41  C   UNL A   1      38.412  31.255  30.070  1.00  0.00     0.049 A 
ATOM     42  N   UNL A   1      39.813  32.415  32.460  1.00  0.00    -0.248 NA
ATOM     43  C   UNL A   1      38.213  34.113  32.537  1.00  0.00     0.031 C 
ATOM     44  C   UNL A   1      37.756  30.641  28.914  1.00  0.00     0.029 A 
ATOM     45  N   UNL A   1      39.472  30.423  30.329  1.00  0.00    -0.354 N 
ATOM     46  C   UNL A   1      40.108  33.279  33.508  1.00  0.00     0.074 A 
ATOM     47  C   UNL A   1      39.123  34.336  33.476  1.00  0.00     0.031 C 
ATOM     48  C   UNL A   1      38.378  29.494  28.613  1.00  0.00     0.029 A 
ATOM     49  C   UNL A   1      39.530  29.336  29.492  1.00  0.00     0.049 A 
ATOM     50  H   UNL A   1      40.127  30.589  31.046  1.00  0.00     0.167 HD
ATOM     51  C   UNL A   1      41.101  33.185  34.423  1.00  0.00     0.031 A 
ATOM     52  C   UNL A   1      40.416  28.323  29.424  1.00  0.00     0.031 A 
ATOM     53  C   UNL A   1      42.074  32.122  34.451  1.00  0.00     0.049 A 
ATOM     54  C   UNL A   1      41.542  28.277  30.415  1.00  0.00     0.074 A 
ATOM     55  C   UNL A   1      43.103  31.928  35.357  1.00  0.00     0.029 A 
ATOM     56  N   UNL A   1      42.142  31.079  33.539  1.00  0.00    -0.354 N 
ATOM     57  N   UNL A   1      41.787  29.082  31.422  1.00  0.00    -0.248 NA
ATOM     58  C   UNL A   1      42.508  27.181  30.270  1.00  0.00     0.031 C 
ATOM     59  C   UNL A   1      43.847  30.825  34.939  1.00  0.00     0.029 A 
ATOM     60  C   UNL A   1      43.224  30.263  33.837  1.00  0.00     0.049 A 
ATOM     61  H   UNL A   1      41.516  30.938  32.793  1.00  0.00     0.167 HD
ATOM     62  C   UNL A   1      42.924  28.580  32.041  1.00  0.00     0.074 A 
ATOM     63  C   UNL A   1      43.298  27.383  31.317  1.00  0.00     0.031 C 
ATOM     64  C   UNL A   1      43.597  29.075  33.109  1.00  0.00     0.031 A 
BRANCH  51  65
ATOM     65  C   UNL A   1      41.207  34.256  35.480  1.00  0.00    -0.014 A 
ATOM     66  C   UNL A   1      40.446  34.148  36.658  1.00  0.00     0.009 A 
ATOM     67  C   UNL A   1      41.958  35.422  35.269  1.00  0.00     0.009 A 
ATOM     68  C   UNL A   1      40.410  35.195  37.582  1.00  0.00     0.001 A 
ATOM     69  C   UNL A   1      41.953  36.451  36.215  1.00  0.00     0.001 A 
ATOM     70  C   UNL A   1      41.167  36.344  37.361  1.00  0.00     0.000 A 
ENDBRANCH  51  65
BRANCH  52  71
ATOM     71  C   UNL A   1      40.240  27.274  28.382  1.00  0.00    -0.014 A 
ATOM     72  C   UNL A   1      39.494  26.114  28.656  1.00  0.00     0.009 A 
ATOM     73  C   UNL A   1      40.880  27.383  27.139  1.00  0.00     0.009 A 
ATOM     74  C   UNL A   1      39.431  25.070  27.732  1.00  0.00     0.001 A 
ATOM     75  C   UNL A   1      40.778  26.356  26.197  1.00  0.00     0.001 A 
ATOM     76  C   UNL A   1      40.070  25.194  26.500  1.00  0.00     0.000 A 
ENDBRANCH  52  71
BRANCH  64  77
ATOM     77  C   UNL A   1      44.816  28.325  33.583  1.00  0.00    -0.014 A 
ATOM     78  C   UNL A   1      44.690  27.354  34.592  1.00  0.00     0.009 A 
ATOM     79  C   UNL A   1      46.098  28.643  33.110  1.00  0.00     0.009 A 
ATOM     80  C   UNL A   1      45.820  26.736  35.131  1.00  0.00     0.001 A 
ATOM     81  C   UNL A   1      47.223  27.989  33.618  1.00  0.00     0.001 A 
ATOM     82  C   UNL A   1      47.085  27.048  34.637  1.00  0.00     0.000 A 
ENDBRANCH  64  77
ENDBRANCH  38  39
ENDBRANCH  30  33
ENDBRANCH  28  29
ENDBRANCH  27  28
ENDBRANCH   1  27
TORSDOF 14
ENDMDL
