MODEL 1
REMARK VINA RESULT:     -12.8      0.000      0.000
REMARK SMILES C[C@H](C(=O)NCCCNC(=O)c1ccc(-c2c3nc(c(-c4ccccc4)c4ccc([nH]4)c(-c4ccccc4)c4nc(c(-c5ccccc5)c5ccc2[nH]5)C=C4)C=C3)cc1)c1ccc2c3cc(Cl)ccc3n(C(=O)c3cocn3)c2c1
REMARK SMILES IDX 6 1 5 2 3 3 4 4 2 6 1 7 60 8 61 9 80 10 62 11 79 12 63 13
REMARK SMILES IDX 71 14 64 15 70 16 65 17 69 18 66 19 68 20 67 21 72 22 73 23
REMARK SMILES IDX 74 24 75 25 78 26 76 27 77 28 7 29 8 30 9 31 10 32 11 34
REMARK SMILES IDX 12 35 13 36 59 37 14 38 58 39 15 40 16 41 17 42 52 43 18 44
REMARK SMILES IDX 57 45 51 46 53 47 19 48 56 49 50 50 49 51 20 53 42 54 27 55
REMARK SMILES IDX 41 56 28 57 31 58 40 59 54 60 29 61 30 62 39 64 55 65 32 66
REMARK SMILES IDX 21 67 22 68 26 69 23 70 25 71 24 72 43 73 44 74 48 75 45 76
REMARK SMILES IDX 47 77 46 78 33 79 34 80 38 81 35 82 37 83 36 84
REMARK H PARENT 5 5 9 33 53 52 31 63
REMARK Flexibility Score: inf
ROOT
ATOM      1  C   UNL A   1      35.830  21.501  25.342  1.00  0.00     0.117 C 
ENDROOT
BRANCH   1   2
ATOM      2  N   UNL A   1      34.474  21.124  24.973  1.00  0.00    -0.356 N 
ATOM      3  C   UNL A   1      33.566  21.740  24.155  1.00  0.00     0.227 C 
ATOM      4  O   UNL A   1      32.468  21.189  24.034  1.00  0.00    -0.274 OA
ATOM      5  H   UNL A   1      34.156  20.285  25.380  1.00  0.00     0.163 HD
BRANCH   3   6
ATOM      6  C   UNL A   1      33.929  23.028  23.392  1.00  0.00     0.105 C 
ATOM      7  C   UNL A   1      33.253  23.105  22.019  1.00  0.00     0.023 C 
BRANCH   6   8
ATOM      8  C   UNL A   1      33.639  24.284  24.197  1.00  0.00    -0.034 A 
ATOM      9  C   UNL A   1      34.410  24.663  25.292  1.00  0.00     0.005 A 
ATOM     10  C   UNL A   1      32.609  25.127  23.746  1.00  0.00     0.032 A 
ATOM     11  C   UNL A   1      34.254  25.935  25.853  1.00  0.00     0.011 A 
ATOM     12  C   UNL A   1      32.485  26.426  24.272  1.00  0.00     0.058 A 
ATOM     13  C   UNL A   1      33.318  26.843  25.305  1.00  0.00     0.008 A 
ATOM     14  N   UNL A   1      31.667  27.506  23.884  1.00  0.00    -0.274 N 
ATOM     15  C   UNL A   1      32.993  28.195  25.585  1.00  0.00     0.009 A 
ATOM     16  C   UNL A   1      31.881  28.546  24.804  1.00  0.00     0.057 A 
ATOM     17  C   UNL A   1      33.544  29.129  26.487  1.00  0.00     0.031 A 
ATOM     18  C   UNL A   1      31.211  29.762  25.044  1.00  0.00     0.029 A 
ATOM     19  C   UNL A   1      32.924  30.362  26.655  1.00  0.00     0.041 A 
ATOM     20  C   UNL A   1      31.753  30.662  25.974  1.00  0.00     0.023 A 
ATOM     21  Cl  UNL A   1      33.600  31.505  27.746  1.00  0.00    -0.084 Cl
BRANCH  14  22
ATOM     22  C   UNL A   1      30.819  27.482  22.730  1.00  0.00     0.284 C 
ATOM     23  O   UNL A   1      31.223  26.823  21.775  1.00  0.00    -0.266 OA
BRANCH  22  24
ATOM     24  C   UNL A   1      29.557  28.192  22.552  1.00  0.00     0.167 A 
ATOM     25  C   UNL A   1      28.361  28.047  23.220  1.00  0.00     0.231 A 
ATOM     26  N   UNL A   1      29.480  29.329  21.758  1.00  0.00    -0.211 NA
ATOM     27  O   UNL A   1      27.533  29.067  22.847  1.00  0.00    -0.451 OA
ATOM     28  C   UNL A   1      28.282  29.807  21.987  1.00  0.00     0.308 A 
ENDBRANCH  22  24
ENDBRANCH  14  22
ENDBRANCH   6   8
ENDBRANCH   3   6
ENDBRANCH   1   2
BRANCH   1  29
ATOM     29  C   UNL A   1      36.852  20.415  25.003  1.00  0.00     0.042 C 
BRANCH  29  30
ATOM     30  C   UNL A   1      38.304  20.838  25.182  1.00  0.00     0.118 C 
BRANCH  30  31
ATOM     31  N   UNL A   1      39.191  19.708  25.416  1.00  0.00    -0.352 N 
ATOM     32  C   UNL A   1      40.470  19.689  25.918  1.00  0.00     0.251 C 
ATOM     33  H   UNL A   1      38.820  18.827  25.179  1.00  0.00     0.163 HD
ATOM     34  O   UNL A   1      41.128  18.654  25.878  1.00  0.00    -0.269 OA
BRANCH  32  35
ATOM     35  C   UNL A   1      41.068  20.918  26.484  1.00  0.00     0.039 A 
ATOM     36  C   UNL A   1      41.733  21.805  25.632  1.00  0.00     0.014 A 
ATOM     37  C   UNL A   1      40.990  21.188  27.852  1.00  0.00     0.014 A 
ATOM     38  C   UNL A   1      42.261  22.996  26.139  1.00  0.00     0.010 A 
ATOM     39  C   UNL A   1      41.452  22.405  28.343  1.00  0.00     0.010 A 
ATOM     40  C   UNL A   1      42.095  23.321  27.494  1.00  0.00    -0.014 A 
BRANCH  40  41
ATOM     41  C   UNL A   1      42.596  24.593  28.070  1.00  0.00     0.031 A 
ATOM     42  C   UNL A   1      41.623  25.694  28.395  1.00  0.00     0.074 A 
ATOM     43  C   UNL A   1      43.920  24.806  28.192  1.00  0.00     0.049 A 
ATOM     44  N   UNL A   1      41.859  26.939  28.724  1.00  0.00    -0.248 NA
ATOM     45  C   UNL A   1      40.196  25.354  28.300  1.00  0.00     0.031 C 
ATOM     46  C   UNL A   1      44.972  23.833  27.890  1.00  0.00     0.029 A 
ATOM     47  N   UNL A   1      44.607  25.931  28.577  1.00  0.00    -0.354 N 
ATOM     48  C   UNL A   1      40.610  27.539  28.837  1.00  0.00     0.074 A 
ATOM     49  C   UNL A   1      39.626  26.533  28.502  1.00  0.00     0.031 C 
ATOM     50  C   UNL A   1      46.169  24.402  28.102  1.00  0.00     0.029 A 
ATOM     51  C   UNL A   1      45.971  25.790  28.509  1.00  0.00     0.049 A 
ATOM     52  H   UNL A   1      44.164  26.759  28.873  1.00  0.00     0.167 HD
ATOM     53  C   UNL A   1      40.309  28.810  29.194  1.00  0.00     0.031 A 
ATOM     54  C   UNL A   1      46.953  26.685  28.725  1.00  0.00     0.031 A 
ATOM     55  C   UNL A   1      41.290  29.806  29.532  1.00  0.00     0.049 A 
ATOM     56  C   UNL A   1      46.601  28.096  29.101  1.00  0.00     0.074 A 
ATOM     57  C   UNL A   1      41.088  31.107  29.960  1.00  0.00     0.029 A 
ATOM     58  N   UNL A   1      42.661  29.612  29.475  1.00  0.00    -0.354 N 
ATOM     59  N   UNL A   1      45.417  28.641  29.242  1.00  0.00    -0.248 NA
ATOM     60  C   UNL A   1      47.722  29.014  29.348  1.00  0.00     0.031 C 
ATOM     61  C   UNL A   1      42.338  31.716  30.108  1.00  0.00     0.029 A 
ATOM     62  C   UNL A   1      43.319  30.775  29.838  1.00  0.00     0.049 A 
ATOM     63  H   UNL A   1      43.103  28.771  29.216  1.00  0.00     0.167 HD
ATOM     64  C   UNL A   1      45.649  29.955  29.626  1.00  0.00     0.074 A 
ATOM     65  C   UNL A   1      47.086  30.125  29.696  1.00  0.00     0.031 C 
ATOM     66  C   UNL A   1      44.749  30.930  29.905  1.00  0.00     0.031 A 
BRANCH  53  67
ATOM     67  C   UNL A   1      38.854  29.196  29.203  1.00  0.00    -0.014 A 
ATOM     68  C   UNL A   1      38.228  29.723  28.061  1.00  0.00     0.009 A 
ATOM     69  C   UNL A   1      38.097  29.028  30.372  1.00  0.00     0.009 A 
ATOM     70  C   UNL A   1      36.892  30.128  28.109  1.00  0.00     0.001 A 
ATOM     71  C   UNL A   1      36.752  29.399  30.407  1.00  0.00     0.001 A 
ATOM     72  C   UNL A   1      36.155  29.964  29.280  1.00  0.00     0.000 A 
ENDBRANCH  53  67
BRANCH  54  73
ATOM     73  C   UNL A   1      48.372  26.271  28.586  1.00  0.00    -0.014 A 
ATOM     74  C   UNL A   1      49.073  25.758  29.688  1.00  0.00     0.009 A 
ATOM     75  C   UNL A   1      49.029  26.377  27.351  1.00  0.00     0.009 A 
ATOM     76  C   UNL A   1      50.408  25.370  29.560  1.00  0.00     0.001 A 
ATOM     77  C   UNL A   1      50.360  25.973  27.223  1.00  0.00     0.001 A 
ATOM     78  C   UNL A   1      51.049  25.472  28.325  1.00  0.00     0.000 A 
ENDBRANCH  54  73
BRANCH  66  79
ATOM     79  C   UNL A   1      45.282  32.257  30.365  1.00  0.00    -0.014 A 
ATOM     80  C   UNL A   1      45.463  33.324  29.473  1.00  0.00     0.009 A 
ATOM     81  C   UNL A   1      45.534  32.460  31.732  1.00  0.00     0.009 A 
ATOM     82  C   UNL A   1      45.904  34.565  29.941  1.00  0.00     0.001 A 
ATOM     83  C   UNL A   1      45.948  33.707  32.199  1.00  0.00     0.001 A 
ATOM     84  C   UNL A   1      46.138  34.757  31.303  1.00  0.00     0.000 A 
ENDBRANCH  66  79
ENDBRANCH  40  41
ENDBRANCH  32  35
ENDBRANCH  30  31
ENDBRANCH  29  30
ENDBRANCH   1  29
TORSDOF 13
ENDMDL
MODEL 2
REMARK VINA RESULT:     -12.8      4.950     10.552
REMARK SMILES C[C@H](C(=O)NCCCNC(=O)c1ccc(-c2c3nc(c(-c4ccccc4)c4ccc([nH]4)c(-c4ccccc4)c4nc(c(-c5ccccc5)c5ccc2[nH]5)C=C4)C=C3)cc1)c1ccc2c3cc(Cl)ccc3n(C(=O)c3cocn3)c2c1
REMARK SMILES IDX 6 1 5 2 3 3 4 4 2 6 1 7 60 8 61 9 80 10 62 11 79 12 63 13
REMARK SMILES IDX 71 14 64 15 70 16 65 17 69 18 66 19 68 20 67 21 72 22 73 23
REMARK SMILES IDX 74 24 75 25 78 26 76 27 77 28 7 29 8 30 9 31 10 32 11 34
REMARK SMILES IDX 12 35 13 36 59 37 14 38 58 39 15 40 16 41 17 42 52 43 18 44
REMARK SMILES IDX 57 45 51 46 53 47 19 48 56 49 50 50 49 51 20 53 42 54 27 55
REMARK SMILES IDX 41 56 28 57 31 58 40 59 54 60 29 61 30 62 39 64 55 65 32 66
REMARK SMILES IDX 21 67 22 68 26 69 23 70 25 71 24 72 43 73 44 74 48 75 45 76
REMARK SMILES IDX 47 77 46 78 33 79 34 80 38 81 35 82 37 83 36 84
REMARK H PARENT 5 5 9 33 53 52 31 63
REMARK Flexibility Score: inf
ROOT
ATOM      1  C   UNL A   1      34.029  35.345  29.233  1.00  0.00     0.117 C 
ENDROOT
BRANCH   1   2
ATOM      2  N   UNL A   1      32.955  35.293  30.212  1.00  0.00    -0.356 N 
ATOM      3  C   UNL A   1      32.982  35.395  31.577  1.00  0.00     0.227 C 
ATOM      4  O   UNL A   1      31.899  35.301  32.161  1.00  0.00    -0.274 OA
ATOM      5  H   UNL A   1      32.057  35.162  29.830  1.00  0.00     0.163 HD
BRANCH   3   6
ATOM      6  C   UNL A   1      34.300  35.666  32.327  1.00  0.00     0.105 C 
ATOM      7  C   UNL A   1      34.094  36.520  33.583  1.00  0.00     0.023 C 
BRANCH   6   8
ATOM      8  C   UNL A   1      35.048  34.388  32.672  1.00  0.00    -0.034 A 
ATOM      9  C   UNL A   1      34.598  33.131  32.279  1.00  0.00     0.005 A 
ATOM     10  C   UNL A   1      36.284  34.511  33.329  1.00  0.00     0.032 A 
ATOM     11  C   UNL A   1      35.430  32.015  32.412  1.00  0.00     0.011 A 
ATOM     12  C   UNL A   1      37.145  33.402  33.417  1.00  0.00     0.058 A 
ATOM     13  C   UNL A   1      36.736  32.161  32.939  1.00  0.00     0.008 A 
ATOM     14  N   UNL A   1      38.478  33.299  33.861  1.00  0.00    -0.274 N 
ATOM     15  C   UNL A   1      37.820  31.265  33.117  1.00  0.00     0.009 A 
ATOM     16  C   UNL A   1      38.832  31.940  33.815  1.00  0.00     0.057 A 
ATOM     17  C   UNL A   1      37.987  29.907  32.771  1.00  0.00     0.031 A 
ATOM     18  C   UNL A   1      39.935  31.223  34.321  1.00  0.00     0.029 A 
ATOM     19  C   UNL A   1      39.121  29.229  33.202  1.00  0.00     0.041 A 
ATOM     20  C   UNL A   1      40.064  29.864  33.997  1.00  0.00     0.023 A 
ATOM     21  Cl  UNL A   1      39.331  27.578  32.772  1.00  0.00    -0.084 Cl
BRANCH  14  22
ATOM     22  C   UNL A   1      39.272  34.426  34.247  1.00  0.00     0.284 C 
ATOM     23  O   UNL A   1      40.000  34.900  33.377  1.00  0.00    -0.266 OA
BRANCH  22  24
ATOM     24  C   UNL A   1      39.347  35.038  35.569  1.00  0.00     0.167 A 
ATOM     25  C   UNL A   1      39.176  34.474  36.814  1.00  0.00     0.231 A 
ATOM     26  N   UNL A   1      39.842  36.326  35.736  1.00  0.00    -0.211 NA
ATOM     27  O   UNL A   1      39.544  35.391  37.757  1.00  0.00    -0.451 OA
ATOM     28  C   UNL A   1      39.954  36.467  37.034  1.00  0.00     0.308 A 
ENDBRANCH  22  24
ENDBRANCH  14  22
ENDBRANCH   6   8
ENDBRANCH   3   6
ENDBRANCH   1   2
BRANCH   1  29
ATOM     29  C   UNL A   1      33.902  34.256  28.168  1.00  0.00     0.042 C 
BRANCH  29  30
ATOM     30  C   UNL A   1      34.556  32.931  28.540  1.00  0.00     0.118 C 
BRANCH  30  31
ATOM     31  N   UNL A   1      33.865  31.786  27.966  1.00  0.00    -0.352 N 
ATOM     32  C   UNL A   1      34.349  30.538  27.655  1.00  0.00     0.251 C 
ATOM     33  H   UNL A   1      32.910  31.926  27.773  1.00  0.00     0.163 HD
ATOM     34  O   UNL A   1      33.656  29.755  27.013  1.00  0.00    -0.269 OA
BRANCH  32  35
ATOM     35  C   UNL A   1      35.712  30.141  28.070  1.00  0.00     0.039 A 
ATOM     36  C   UNL A   1      35.920  29.685  29.375  1.00  0.00     0.014 A 
ATOM     37  C   UNL A   1      36.787  30.234  27.183  1.00  0.00     0.014 A 
ATOM     38  C   UNL A   1      37.191  29.259  29.772  1.00  0.00     0.010 A 
ATOM     39  C   UNL A   1      38.034  29.743  27.554  1.00  0.00     0.010 A 
ATOM     40  C   UNL A   1      38.251  29.253  28.853  1.00  0.00    -0.014 A 
BRANCH  40  41
ATOM     41  C   UNL A   1      39.607  28.767  29.211  1.00  0.00     0.031 A 
ATOM     42  C   UNL A   1      40.579  29.706  29.873  1.00  0.00     0.074 A 
ATOM     43  C   UNL A   1      40.003  27.535  28.844  1.00  0.00     0.049 A 
ATOM     44  N   UNL A   1      41.859  29.550  30.098  1.00  0.00    -0.248 NA
ATOM     45  C   UNL A   1      40.044  31.006  30.303  1.00  0.00     0.031 C 
ATOM     46  C   UNL A   1      39.169  26.534  28.176  1.00  0.00     0.029 A 
ATOM     47  N   UNL A   1      41.229  26.926  28.956  1.00  0.00    -0.354 N 
ATOM     48  C   UNL A   1      42.288  30.746  30.660  1.00  0.00     0.074 A 
ATOM     49  C   UNL A   1      41.142  31.629  30.703  1.00  0.00     0.031 C 
ATOM     50  C   UNL A   1      39.906  25.436  27.939  1.00  0.00     0.029 A 
ATOM     51  C   UNL A   1      41.272  25.673  28.395  1.00  0.00     0.049 A 
ATOM     52  H   UNL A   1      42.002  27.347  29.396  1.00  0.00     0.167 HD
ATOM     53  C   UNL A   1      43.523  31.080  31.108  1.00  0.00     0.031 A 
ATOM     54  C   UNL A   1      42.303  24.820  28.242  1.00  0.00     0.031 A 
ATOM     55  C   UNL A   1      44.659  30.198  31.069  1.00  0.00     0.049 A 
ATOM     56  C   UNL A   1      43.669  25.213  28.725  1.00  0.00     0.074 A 
ATOM     57  C   UNL A   1      45.939  30.418  31.546  1.00  0.00     0.029 A 
ATOM     58  N   UNL A   1      44.650  28.927  30.515  1.00  0.00    -0.354 N 
ATOM     59  N   UNL A   1      44.054  26.332  29.291  1.00  0.00    -0.248 NA
ATOM     60  C   UNL A   1      44.742  24.224  28.551  1.00  0.00     0.031 C 
ATOM     61  C   UNL A   1      46.720  29.301  31.230  1.00  0.00     0.029 A 
ATOM     62  C   UNL A   1      45.909  28.359  30.618  1.00  0.00     0.049 A 
ATOM     63  H   UNL A   1      43.866  28.492  30.110  1.00  0.00     0.167 HD
ATOM     64  C   UNL A   1      45.405  26.169  29.569  1.00  0.00     0.074 A 
ATOM     65  C   UNL A   1      45.772  24.846  29.111  1.00  0.00     0.031 C 
ATOM     66  C   UNL A   1      46.260  27.039  30.160  1.00  0.00     0.031 A 
BRANCH  53  67
ATOM     67  C   UNL A   1      43.707  32.472  31.647  1.00  0.00    -0.014 A 
ATOM     68  C   UNL A   1      43.551  32.756  33.014  1.00  0.00     0.009 A 
ATOM     69  C   UNL A   1      44.043  33.518  30.774  1.00  0.00     0.009 A 
ATOM     70  C   UNL A   1      43.669  34.066  33.484  1.00  0.00     0.001 A 
ATOM     71  C   UNL A   1      44.196  34.820  31.252  1.00  0.00     0.001 A 
ATOM     72  C   UNL A   1      43.993  35.096  32.603  1.00  0.00     0.000 A 
ENDBRANCH  53  67
BRANCH  54  73
ATOM     73  C   UNL A   1      42.079  23.503  27.594  1.00  0.00    -0.014 A 
ATOM     74  C   UNL A   1      42.505  23.278  26.277  1.00  0.00     0.009 A 
ATOM     75  C   UNL A   1      41.448  22.463  28.292  1.00  0.00     0.009 A 
ATOM     76  C   UNL A   1      42.294  22.040  25.666  1.00  0.00     0.001 A 
ATOM     77  C   UNL A   1      41.252  21.221  27.683  1.00  0.00     0.001 A 
ATOM     78  C   UNL A   1      41.672  21.011  26.372  1.00  0.00     0.000 A 
ENDBRANCH  54  73
BRANCH  66  79
ATOM     79  C   UNL A   1      47.669  26.575  30.399  1.00  0.00    -0.014 A 
ATOM     80  C   UNL A   1      48.041  25.945  31.596  1.00  0.00     0.009 A 
ATOM     81  C   UNL A   1      48.619  26.706  29.373  1.00  0.00     0.009 A 
ATOM     82  C   UNL A   1      49.345  25.470  31.766  1.00  0.00     0.001 A 
ATOM     83  C   UNL A   1      49.911  26.206  29.535  1.00  0.00     0.001 A 
ATOM     84  C   UNL A   1      50.275  25.595  30.733  1.00  0.00     0.000 A 
ENDBRANCH  66  79
ENDBRANCH  40  41
ENDBRANCH  32  35
ENDBRANCH  30  31
ENDBRANCH  29  30
ENDBRANCH   1  29
TORSDOF 13
ENDMDL
MODEL 3
REMARK VINA RESULT:     -12.8      3.687      9.174
REMARK SMILES C[C@H](C(=O)NCCCNC(=O)c1ccc(-c2c3nc(c(-c4ccccc4)c4ccc([nH]4)c(-c4ccccc4)c4nc(c(-c5ccccc5)c5ccc2[nH]5)C=C4)C=C3)cc1)c1ccc2c3cc(Cl)ccc3n(C(=O)c3cocn3)c2c1
REMARK SMILES IDX 6 1 5 2 3 3 4 4 2 6 1 7 60 8 61 9 80 10 62 11 79 12 63 13
REMARK SMILES IDX 71 14 64 15 70 16 65 17 69 18 66 19 68 20 67 21 72 22 73 23
REMARK SMILES IDX 74 24 75 25 78 26 76 27 77 28 7 29 8 30 9 31 10 32 11 34
REMARK SMILES IDX 12 35 13 36 59 37 14 38 58 39 15 40 16 41 17 42 52 43 18 44
REMARK SMILES IDX 57 45 51 46 53 47 19 48 56 49 50 50 49 51 20 53 42 54 27 55
REMARK SMILES IDX 41 56 28 57 31 58 40 59 54 60 29 61 30 62 39 64 55 65 32 66
REMARK SMILES IDX 21 67 22 68 26 69 23 70 25 71 24 72 43 73 44 74 48 75 45 76
REMARK SMILES IDX 47 77 46 78 33 79 34 80 38 81 35 82 37 83 36 84
REMARK H PARENT 5 5 9 33 53 52 31 63
REMARK Flexibility Score: inf
ROOT
ATOM      1  C   UNL A   1      31.780  29.644  26.283  1.00  0.00     0.117 C 
ENDROOT
BRANCH   1   2
ATOM      2  N   UNL A   1      31.293  29.147  25.006  1.00  0.00    -0.356 N 
ATOM      3  C   UNL A   1      31.000  27.875  24.593  1.00  0.00     0.227 C 
ATOM      4  O   UNL A   1      30.609  27.747  23.430  1.00  0.00    -0.274 OA
ATOM      5  H   UNL A   1      31.150  29.842  24.323  1.00  0.00     0.163 HD
BRANCH   3   6
ATOM      6  C   UNL A   1      31.109  26.681  25.561  1.00  0.00     0.105 C 
ATOM      7  C   UNL A   1      29.873  25.777  25.516  1.00  0.00     0.023 C 
BRANCH   6   8
ATOM      8  C   UNL A   1      32.372  25.865  25.340  1.00  0.00    -0.034 A 
ATOM      9  C   UNL A   1      33.646  26.411  25.469  1.00  0.00     0.005 A 
ATOM     10  C   UNL A   1      32.226  24.490  25.090  1.00  0.00     0.032 A 
ATOM     11  C   UNL A   1      34.768  25.576  25.488  1.00  0.00     0.011 A 
ATOM     12  C   UNL A   1      33.346  23.641  25.161  1.00  0.00     0.058 A 
ATOM     13  C   UNL A   1      34.612  24.173  25.385  1.00  0.00     0.008 A 
ATOM     14  N   UNL A   1      33.445  22.236  25.122  1.00  0.00    -0.274 N 
ATOM     15  C   UNL A   1      35.518  23.085  25.455  1.00  0.00     0.009 A 
ATOM     16  C   UNL A   1      34.813  21.911  25.149  1.00  0.00     0.057 A 
ATOM     17  C   UNL A   1      36.904  23.027  25.712  1.00  0.00     0.031 A 
ATOM     18  C   UNL A   1      35.512  20.709  24.929  1.00  0.00     0.029 A 
ATOM     19  C   UNL A   1      37.572  21.816  25.575  1.00  0.00     0.041 A 
ATOM     20  C   UNL A   1      36.897  20.681  25.153  1.00  0.00     0.023 A 
ATOM     21  Cl  UNL A   1      39.259  21.743  25.900  1.00  0.00    -0.084 Cl
BRANCH  14  22
ATOM     22  C   UNL A   1      32.311  21.363  25.089  1.00  0.00     0.284 C 
ATOM     23  O   UNL A   1      31.305  21.760  25.674  1.00  0.00    -0.266 OA
BRANCH  22  24
ATOM     24  C   UNL A   1      32.237  20.039  24.481  1.00  0.00     0.167 A 
ATOM     25  C   UNL A   1      32.276  19.674  23.153  1.00  0.00     0.231 A 
ATOM     26  N   UNL A   1      32.333  18.889  25.255  1.00  0.00    -0.211 NA
ATOM     27  O   UNL A   1      32.382  18.314  23.083  1.00  0.00    -0.451 OA
ATOM     28  C   UNL A   1      32.434  17.916  24.383  1.00  0.00     0.308 A 
ENDBRANCH  22  24
ENDBRANCH  14  22
ENDBRANCH   6   8
ENDBRANCH   3   6
ENDBRANCH   1   2
BRANCH   1  29
ATOM     29  C   UNL A   1      31.569  31.149  26.444  1.00  0.00     0.042 C 
BRANCH  29  30
ATOM     30  C   UNL A   1      32.789  31.905  26.956  1.00  0.00     0.118 C 
BRANCH  30  31
ATOM     31  N   UNL A   1      32.464  33.250  27.409  1.00  0.00    -0.352 N 
ATOM     32  C   UNL A   1      33.113  34.047  28.322  1.00  0.00     0.251 C 
ATOM     33  H   UNL A   1      31.660  33.647  27.001  1.00  0.00     0.163 HD
ATOM     34  O   UNL A   1      32.590  35.087  28.707  1.00  0.00    -0.269 OA
BRANCH  32  35
ATOM     35  C   UNL A   1      34.430  33.643  28.861  1.00  0.00     0.039 A 
ATOM     36  C   UNL A   1      34.480  32.865  30.021  1.00  0.00     0.014 A 
ATOM     37  C   UNL A   1      35.614  34.043  28.236  1.00  0.00     0.014 A 
ATOM     38  C   UNL A   1      35.713  32.431  30.518  1.00  0.00     0.010 A 
ATOM     39  C   UNL A   1      36.834  33.553  28.689  1.00  0.00     0.010 A 
ATOM     40  C   UNL A   1      36.898  32.745  29.836  1.00  0.00    -0.014 A 
BRANCH  40  41
ATOM     41  C   UNL A   1      38.226  32.270  30.297  1.00  0.00     0.031 A 
ATOM     42  C   UNL A   1      38.796  30.998  29.732  1.00  0.00     0.074 A 
ATOM     43  C   UNL A   1      38.863  32.907  31.297  1.00  0.00     0.049 A 
ATOM     44  N   UNL A   1      39.838  30.309  30.123  1.00  0.00    -0.248 NA
ATOM     45  C   UNL A   1      38.073  30.405  28.596  1.00  0.00     0.031 C 
ATOM     46  C   UNL A   1      38.410  34.137  31.951  1.00  0.00     0.029 A 
ATOM     47  N   UNL A   1      40.021  32.585  31.960  1.00  0.00    -0.354 N 
ATOM     48  C   UNL A   1      39.870  29.184  29.309  1.00  0.00     0.074 A 
ATOM     49  C   UNL A   1      38.723  29.263  28.431  1.00  0.00     0.031 C 
ATOM     50  C   UNL A   1      39.280  34.465  32.919  1.00  0.00     0.029 A 
ATOM     51  C   UNL A   1      40.325  33.448  32.985  1.00  0.00     0.049 A 
ATOM     52  H   UNL A   1      40.581  31.810  31.724  1.00  0.00     0.167 HD
ATOM     53  C   UNL A   1      40.777  28.177  29.287  1.00  0.00     0.031 A 
ATOM     54  C   UNL A   1      41.318  33.409  33.894  1.00  0.00     0.031 A 
ATOM     55  C   UNL A   1      41.920  28.104  30.158  1.00  0.00     0.049 A 
ATOM     56  C   UNL A   1      42.303  32.276  33.868  1.00  0.00     0.074 A 
ATOM     57  C   UNL A   1      42.929  27.157  30.181  1.00  0.00     0.029 A 
ATOM     58  N   UNL A   1      42.203  29.014  31.164  1.00  0.00    -0.354 N 
ATOM     59  N   UNL A   1      42.347  31.238  33.068  1.00  0.00    -0.248 NA
ATOM     60  C   UNL A   1      43.377  32.310  34.871  1.00  0.00     0.031 C 
ATOM     61  C   UNL A   1      43.791  27.463  31.238  1.00  0.00     0.029 A 
ATOM     62  C   UNL A   1      43.357  28.639  31.830  1.00  0.00     0.049 A 
ATOM     63  H   UNL A   1      41.663  29.811  31.375  1.00  0.00     0.167 HD
ATOM     64  C   UNL A   1      43.469  30.514  33.449  1.00  0.00     0.074 A 
ATOM     65  C   UNL A   1      44.077  31.230  34.550  1.00  0.00     0.031 C 
ATOM     66  C   UNL A   1      43.954  29.362  32.923  1.00  0.00     0.031 A 
BRANCH  53  67
ATOM     67  C   UNL A   1      40.543  27.060  28.307  1.00  0.00    -0.014 A 
ATOM     68  C   UNL A   1      39.765  25.940  28.643  1.00  0.00     0.009 A 
ATOM     69  C   UNL A   1      41.107  27.131  27.024  1.00  0.00     0.009 A 
ATOM     70  C   UNL A   1      39.608  24.888  27.737  1.00  0.00     0.001 A 
ATOM     71  C   UNL A   1      40.919  26.095  26.107  1.00  0.00     0.001 A 
ATOM     72  C   UNL A   1      40.183  24.968  26.470  1.00  0.00     0.000 A 
ENDBRANCH  53  67
BRANCH  54  73
ATOM     73  C   UNL A   1      41.427  34.484  34.912  1.00  0.00    -0.014 A 
ATOM     74  C   UNL A   1      40.759  34.370  36.140  1.00  0.00     0.009 A 
ATOM     75  C   UNL A   1      42.206  35.624  34.665  1.00  0.00     0.009 A 
ATOM     76  C   UNL A   1      40.859  35.381  37.097  1.00  0.00     0.001 A 
ATOM     77  C   UNL A   1      42.317  36.627  35.631  1.00  0.00     0.001 A 
ATOM     78  C   UNL A   1      41.643  36.506  36.845  1.00  0.00     0.000 A 
ENDBRANCH  54  73
BRANCH  66  79
ATOM     79  C   UNL A   1      45.236  28.825  33.492  1.00  0.00    -0.014 A 
ATOM     80  C   UNL A   1      45.241  27.841  34.491  1.00  0.00     0.009 A 
ATOM     81  C   UNL A   1      46.461  29.263  32.961  1.00  0.00     0.009 A 
ATOM     82  C   UNL A   1      46.450  27.318  34.958  1.00  0.00     0.001 A 
ATOM     83  C   UNL A   1      47.664  28.720  33.409  1.00  0.00     0.001 A 
ATOM     84  C   UNL A   1      47.658  27.752  34.412  1.00  0.00     0.000 A 
ENDBRANCH  66  79
ENDBRANCH  40  41
ENDBRANCH  32  35
ENDBRANCH  30  31
ENDBRANCH  29  30
ENDBRANCH   1  29
TORSDOF 13
ENDMDL
