MODEL 1
REMARK VINA RESULT:     -13.5      0.000      0.000
REMARK SMILES COc1cccc(-c2nn(-c3cc4c(cc3C(N)=O)OCO4)cc2C(=O)NCCCNC(=O)c2ccc(-c3c4nc(c(-c5ccccc5)c5ccc([nH]5)c(-c5ccccc5)c5nc(c(-c6ccccc6)c6ccc3[nH]6)C=C5)C=C4)cc2)c1
REMARK SMILES IDX 29 1 28 2 27 3 25 4 26 5 24 7 8 8 9 9 10 10 23 11 7 12 3 13
REMARK SMILES IDX 4 14 82 15 5 16 6 17 2 18 1 19 11 20 12 21 16 22 13 23 15 24
REMARK SMILES IDX 14 25 22 26 20 27 21 28 17 29 18 30 19 31 30 34 31 35 32 36
REMARK SMILES IDX 33 38 34 39 35 40 81 41 36 42 80 43 37 44 38 45 39 46 74 47
REMARK SMILES IDX 40 48 79 49 73 50 75 51 41 52 78 53 72 54 71 55 42 57 64 58
REMARK SMILES IDX 49 59 63 60 50 61 53 62 62 63 76 64 51 65 52 66 61 68 77 69
REMARK SMILES IDX 54 70 43 71 44 72 48 73 45 74 47 75 46 76 65 77 66 78 70 79
REMARK SMILES IDX 67 80 69 81 68 82 55 83 56 84 60 85 57 86 59 87 58 88
REMARK H PARENT 27 6 18 32 18 33 31 37 75 56 53 67
REMARK Flexibility Score: inf
ROOT
ATOM      1  C   UNL A   1      38.415  19.808  25.096  1.00  0.00     0.042 C 
ENDROOT
BRANCH   1   2
ATOM      2  C   UNL A   1      37.377  20.932  25.192  1.00  0.00     0.118 C 
BRANCH   2   3
ATOM      3  N   UNL A   1      37.201  21.642  23.934  1.00  0.00    -0.352 N 
ATOM      4  C   UNL A   1      36.276  22.574  23.521  1.00  0.00     0.255 C 
ATOM      5  O   UNL A   1      36.462  23.052  22.402  1.00  0.00    -0.269 OA
ATOM      6  H   UNL A   1      37.869  21.412  23.250  1.00  0.00     0.163 HD
BRANCH   4   7
ATOM      7  C   UNL A   1      35.169  22.980  24.374  1.00  0.00     0.086 A 
ATOM      8  C   UNL A   1      33.932  22.291  24.647  1.00  0.00     0.106 A 
ATOM      9  N   UNL A   1      33.102  23.045  25.404  1.00  0.00    -0.167 NA
ATOM     10  N   UNL A   1      33.722  24.242  25.454  1.00  0.00    -0.239 N 
ATOM     11  C   UNL A   1      35.051  24.119  25.138  1.00  0.00     0.129 A 
BRANCH   8  12
ATOM     12  C   UNL A   1      33.545  20.950  24.202  1.00  0.00     0.007 A 
ATOM     13  C   UNL A   1      33.713  18.533  24.370  1.00  0.00     0.119 A 
ATOM     14  C   UNL A   1      32.705  18.400  23.412  1.00  0.00     0.046 A 
ATOM     15  C   UNL A   1      34.143  19.807  24.758  1.00  0.00     0.056 A 
ATOM     16  C   UNL A   1      32.116  19.528  22.847  1.00  0.00     0.005 A 
ATOM     17  C   UNL A   1      32.541  20.797  23.234  1.00  0.00     0.011 A 
BRANCH  13  18
ATOM     18  O   UNL A   1      34.240  17.350  24.816  1.00  0.00    -0.497 OA
ATOM     19  C   UNL A   1      33.411  16.205  24.655  1.00  0.00     0.278 C 
ENDBRANCH  13  18
ENDBRANCH   8  12
BRANCH  10  20
ATOM     20  C   UNL A   1      33.130  25.431  25.943  1.00  0.00     0.081 A 
ATOM     21  C   UNL A   1      33.960  26.542  26.172  1.00  0.00     0.079 A 
ATOM     22  C   UNL A   1      31.710  25.534  26.079  1.00  0.00     0.069 A 
ATOM     23  C   UNL A   1      33.339  27.743  26.445  1.00  0.00     0.167 A 
ATOM     24  C   UNL A   1      31.129  26.800  26.248  1.00  0.00     0.066 A 
ATOM     25  C   UNL A   1      31.968  27.869  26.449  1.00  0.00     0.166 A 
ATOM     26  O   UNL A   1      33.951  28.926  26.726  1.00  0.00    -0.454 OA
ATOM     27  O   UNL A   1      31.557  29.135  26.729  1.00  0.00    -0.454 OA
ATOM     28  C   UNL A   1      32.813  29.730  27.110  1.00  0.00     0.468 C 
BRANCH  22  29
ATOM     29  C   UNL A   1      30.844  24.316  26.264  1.00  0.00     0.251 C 
ATOM     30  N   UNL A   1      30.268  23.746  25.161  1.00  0.00    -0.366 N 
ATOM     31  O   UNL A   1      30.556  23.853  27.356  1.00  0.00    -0.269 OA
ATOM     32  H   UNL A   1      30.476  24.093  24.263  1.00  0.00     0.159 HD
ATOM     33  H   UNL A   1      29.646  22.991  25.265  1.00  0.00     0.159 HD
ENDBRANCH  22  29
ENDBRANCH  10  20
ENDBRANCH   4   7
ENDBRANCH   2   3
ENDBRANCH   1   2
BRANCH   1  34
ATOM     34  C   UNL A   1      39.468  19.923  26.182  1.00  0.00     0.118 C 
BRANCH  34  35
ATOM     35  N   UNL A   1      40.707  19.203  25.848  1.00  0.00    -0.352 N 
ATOM     36  C   UNL A   1      41.995  19.690  25.733  1.00  0.00     0.251 C 
ATOM     37  H   UNL A   1      40.604  18.238  25.682  1.00  0.00     0.163 HD
ATOM     38  O   UNL A   1      42.857  19.059  25.121  1.00  0.00    -0.269 OA
BRANCH  36  39
ATOM     39  C   UNL A   1      42.324  20.976  26.364  1.00  0.00     0.039 A 
ATOM     40  C   UNL A   1      42.745  22.098  25.646  1.00  0.00     0.014 A 
ATOM     41  C   UNL A   1      42.140  21.047  27.736  1.00  0.00     0.014 A 
ATOM     42  C   UNL A   1      42.919  23.297  26.337  1.00  0.00     0.010 A 
ATOM     43  C   UNL A   1      41.996  22.262  28.327  1.00  0.00     0.010 A 
ATOM     44  C   UNL A   1      42.530  23.362  27.684  1.00  0.00    -0.014 A 
BRANCH  44  45
ATOM     45  C   UNL A   1      42.583  24.582  28.469  1.00  0.00     0.031 A 
ATOM     46  C   UNL A   1      41.482  25.519  28.161  1.00  0.00     0.074 A 
ATOM     47  C   UNL A   1      43.380  24.714  29.554  1.00  0.00     0.049 A 
ATOM     48  N   UNL A   1      41.553  26.611  27.480  1.00  0.00    -0.248 NA
ATOM     49  C   UNL A   1      40.107  25.093  28.477  1.00  0.00     0.031 C 
ATOM     50  C   UNL A   1      44.239  23.700  30.189  1.00  0.00     0.029 A 
ATOM     51  N   UNL A   1      43.502  25.766  30.404  1.00  0.00    -0.354 N 
ATOM     52  C   UNL A   1      40.268  27.140  27.501  1.00  0.00     0.074 A 
ATOM     53  C   UNL A   1      39.398  26.063  27.897  1.00  0.00     0.031 C 
ATOM     54  C   UNL A   1      44.591  24.108  31.428  1.00  0.00     0.029 A 
ATOM     55  C   UNL A   1      44.145  25.477  31.604  1.00  0.00     0.049 A 
ATOM     56  H   UNL A   1      43.161  26.664  30.188  1.00  0.00     0.167 HD
ATOM     57  C   UNL A   1      40.073  28.487  27.523  1.00  0.00     0.031 A 
ATOM     58  C   UNL A   1      44.280  26.300  32.672  1.00  0.00     0.031 A 
ATOM     59  C   UNL A   1      41.295  29.193  27.216  1.00  0.00     0.049 A 
ATOM     60  C   UNL A   1      44.033  27.678  32.188  1.00  0.00     0.074 A 
ATOM     61  C   UNL A   1      42.159  29.246  26.142  1.00  0.00     0.029 A 
ATOM     62  N   UNL A   1      41.994  29.673  28.299  1.00  0.00    -0.354 N 
ATOM     63  N   UNL A   1      44.807  28.291  31.338  1.00  0.00    -0.248 NA
ATOM     64  C   UNL A   1      42.681  28.200  32.291  1.00  0.00     0.031 C 
ATOM     65  C   UNL A   1      43.461  29.342  26.719  1.00  0.00     0.029 A 
ATOM     66  C   UNL A   1      43.327  29.427  28.108  1.00  0.00     0.049 A 
ATOM     67  H   UNL A   1      41.601  30.120  29.083  1.00  0.00     0.167 HD
ATOM     68  C   UNL A   1      43.936  28.961  30.490  1.00  0.00     0.074 A 
ATOM     69  C   UNL A   1      42.654  28.961  31.193  1.00  0.00     0.031 C 
ATOM     70  C   UNL A   1      44.268  29.190  29.184  1.00  0.00     0.031 A 
BRANCH  57  71
ATOM     71  C   UNL A   1      38.959  29.156  28.295  1.00  0.00    -0.014 A 
ATOM     72  C   UNL A   1      38.843  28.877  29.670  1.00  0.00     0.009 A 
ATOM     73  C   UNL A   1      37.861  29.800  27.692  1.00  0.00     0.009 A 
ATOM     74  C   UNL A   1      37.662  29.143  30.372  1.00  0.00     0.001 A 
ATOM     75  C   UNL A   1      36.696  30.106  28.400  1.00  0.00     0.001 A 
ATOM     76  C   UNL A   1      36.585  29.749  29.734  1.00  0.00     0.000 A 
ENDBRANCH  57  71
BRANCH  58  77
ATOM     77  C   UNL A   1      44.303  25.961  34.113  1.00  0.00    -0.014 A 
ATOM     78  C   UNL A   1      43.258  25.235  34.708  1.00  0.00     0.009 A 
ATOM     79  C   UNL A   1      45.494  26.111  34.849  1.00  0.00     0.009 A 
ATOM     80  C   UNL A   1      43.412  24.656  35.977  1.00  0.00     0.001 A 
ATOM     81  C   UNL A   1      45.648  25.530  36.113  1.00  0.00     0.001 A 
ATOM     82  C   UNL A   1      44.611  24.791  36.673  1.00  0.00     0.000 A 
ENDBRANCH  58  77
BRANCH  70  83
ATOM     83  C   UNL A   1      45.703  28.969  28.769  1.00  0.00    -0.014 A 
ATOM     84  C   UNL A   1      46.237  27.712  28.435  1.00  0.00     0.009 A 
ATOM     85  C   UNL A   1      46.494  30.107  28.548  1.00  0.00     0.009 A 
ATOM     86  C   UNL A   1      47.529  27.602  27.907  1.00  0.00     0.001 A 
ATOM     87  C   UNL A   1      47.774  29.999  28.002  1.00  0.00     0.001 A 
ATOM     88  C   UNL A   1      48.293  28.747  27.682  1.00  0.00     0.000 A 
ENDBRANCH  70  83
ENDBRANCH  44  45
ENDBRANCH  36  39
ENDBRANCH  34  35
ENDBRANCH   1  34
TORSDOF 14
ENDMDL
MODEL 2
REMARK VINA RESULT:     -13.3      3.973      9.313
REMARK SMILES COc1cccc(-c2nn(-c3cc4c(cc3C(N)=O)OCO4)cc2C(=O)NCCCNC(=O)c2ccc(-c3c4nc(c(-c5ccccc5)c5ccc([nH]5)c(-c5ccccc5)c5nc(c(-c6ccccc6)c6ccc3[nH]6)C=C5)C=C4)cc2)c1
REMARK SMILES IDX 29 1 28 2 27 3 25 4 26 5 24 7 8 8 9 9 10 10 23 11 7 12 3 13
REMARK SMILES IDX 4 14 82 15 5 16 6 17 2 18 1 19 11 20 12 21 16 22 13 23 15 24
REMARK SMILES IDX 14 25 22 26 20 27 21 28 17 29 18 30 19 31 30 34 31 35 32 36
REMARK SMILES IDX 33 38 34 39 35 40 81 41 36 42 80 43 37 44 38 45 39 46 74 47
REMARK SMILES IDX 40 48 79 49 73 50 75 51 41 52 78 53 72 54 71 55 42 57 64 58
REMARK SMILES IDX 49 59 63 60 50 61 53 62 62 63 76 64 51 65 52 66 61 68 77 69
REMARK SMILES IDX 54 70 43 71 44 72 48 73 45 74 47 75 46 76 65 77 66 78 70 79
REMARK SMILES IDX 67 80 69 81 68 82 55 83 56 84 60 85 57 86 59 87 58 88
REMARK H PARENT 27 6 18 32 18 33 31 37 75 56 53 67
REMARK Flexibility Score: inf
ROOT
ATOM      1  C   UNL A   1      31.422  30.856  26.105  1.00  0.00     0.042 C 
ENDROOT
BRANCH   1   2
ATOM      2  C   UNL A   1      31.881  29.455  25.684  1.00  0.00     0.118 C 
BRANCH   2   3
ATOM      3  N   UNL A   1      32.716  29.473  24.493  1.00  0.00    -0.352 N 
ATOM      4  C   UNL A   1      32.814  28.615  23.421  1.00  0.00     0.255 C 
ATOM      5  O   UNL A   1      33.574  28.971  22.519  1.00  0.00    -0.269 OA
ATOM      6  H   UNL A   1      33.326  30.244  24.445  1.00  0.00     0.163 HD
BRANCH   4   7
ATOM      7  C   UNL A   1      32.043  27.382  23.356  1.00  0.00     0.086 A 
ATOM      8  C   UNL A   1      30.620  27.208  23.206  1.00  0.00     0.106 A 
ATOM      9  N   UNL A   1      30.267  25.905  23.303  1.00  0.00    -0.167 NA
ATOM     10  N   UNL A   1      31.410  25.299  23.685  1.00  0.00    -0.239 N 
ATOM     11  C   UNL A   1      32.499  26.084  23.408  1.00  0.00     0.129 A 
BRANCH   8  12
ATOM     12  C   UNL A   1      29.617  28.250  22.973  1.00  0.00     0.007 A 
ATOM     13  C   UNL A   1      28.978  30.407  22.056  1.00  0.00     0.119 A 
ATOM     14  C   UNL A   1      27.656  30.174  22.443  1.00  0.00     0.046 A 
ATOM     15  C   UNL A   1      29.962  29.451  22.331  1.00  0.00     0.056 A 
ATOM     16  C   UNL A   1      27.307  28.992  23.090  1.00  0.00     0.005 A 
ATOM     17  C   UNL A   1      28.286  28.038  23.363  1.00  0.00     0.011 A 
BRANCH  13  18
ATOM     18  O   UNL A   1      29.198  31.623  21.468  1.00  0.00    -0.497 OA
ATOM     19  C   UNL A   1      28.460  32.713  22.010  1.00  0.00     0.278 C 
ENDBRANCH  13  18
ENDBRANCH   8  12
BRANCH  10  20
ATOM     20  C   UNL A   1      31.493  23.960  24.140  1.00  0.00     0.081 A 
ATOM     21  C   UNL A   1      31.807  22.959  23.205  1.00  0.00     0.079 A 
ATOM     22  C   UNL A   1      31.385  23.657  25.534  1.00  0.00     0.069 A 
ATOM     23  C   UNL A   1      32.087  21.703  23.702  1.00  0.00     0.167 A 
ATOM     24  C   UNL A   1      31.788  22.394  25.991  1.00  0.00     0.066 A 
ATOM     25  C   UNL A   1      32.108  21.443  25.053  1.00  0.00     0.166 A 
ATOM     26  O   UNL A   1      32.381  20.591  22.974  1.00  0.00    -0.454 OA
ATOM     27  O   UNL A   1      32.416  20.149  25.335  1.00  0.00    -0.454 OA
ATOM     28  C   UNL A   1      32.372  19.584  24.010  1.00  0.00     0.468 C 
BRANCH  22  29
ATOM     29  C   UNL A   1      30.653  24.566  26.485  1.00  0.00     0.251 C 
ATOM     30  N   UNL A   1      29.383  24.228  26.868  1.00  0.00    -0.366 N 
ATOM     31  O   UNL A   1      31.095  25.635  26.872  1.00  0.00    -0.269 OA
ATOM     32  H   UNL A   1      28.991  23.373  26.575  1.00  0.00     0.159 HD
ATOM     33  H   UNL A   1      28.861  24.840  27.436  1.00  0.00     0.159 HD
ENDBRANCH  22  29
ENDBRANCH  10  20
ENDBRANCH   4   7
ENDBRANCH   2   3
ENDBRANCH   1   2
BRANCH   1  34
ATOM     34  C   UNL A   1      32.401  31.500  27.069  1.00  0.00     0.118 C 
BRANCH  34  35
ATOM     35  N   UNL A   1      32.202  32.953  27.190  1.00  0.00    -0.352 N 
ATOM     36  C   UNL A   1      32.844  33.855  28.016  1.00  0.00     0.251 C 
ATOM     37  H   UNL A   1      31.515  33.337  26.599  1.00  0.00     0.163 HD
ATOM     38  O   UNL A   1      32.348  34.956  28.257  1.00  0.00    -0.269 OA
BRANCH  36  39
ATOM     39  C   UNL A   1      34.139  33.481  28.602  1.00  0.00     0.039 A 
ATOM     40  C   UNL A   1      34.274  32.916  29.872  1.00  0.00     0.014 A 
ATOM     41  C   UNL A   1      35.250  33.669  27.793  1.00  0.00     0.014 A 
ATOM     42  C   UNL A   1      35.540  32.497  30.277  1.00  0.00     0.010 A 
ATOM     43  C   UNL A   1      36.389  32.976  28.056  1.00  0.00     0.010 A 
ATOM     44  C   UNL A   1      36.591  32.528  29.347  1.00  0.00    -0.014 A 
BRANCH  44  45
ATOM     45  C   UNL A   1      37.925  32.031  29.636  1.00  0.00     0.031 A 
ATOM     46  C   UNL A   1      38.092  30.597  29.315  1.00  0.00     0.074 A 
ATOM     47  C   UNL A   1      38.966  32.854  29.896  1.00  0.00     0.049 A 
ATOM     48  N   UNL A   1      38.146  29.612  30.145  1.00  0.00    -0.248 NA
ATOM     49  C   UNL A   1      37.988  30.192  27.902  1.00  0.00     0.031 C 
ATOM     50  C   UNL A   1      39.003  34.326  29.858  1.00  0.00     0.029 A 
ATOM     51  N   UNL A   1      40.265  32.540  30.136  1.00  0.00    -0.354 N 
ATOM     52  C   UNL A   1      38.341  28.482  29.359  1.00  0.00     0.074 A 
ATOM     53  C   UNL A   1      37.985  28.863  28.016  1.00  0.00     0.031 C 
ATOM     54  C   UNL A   1      40.286  34.751  29.831  1.00  0.00     0.029 A 
ATOM     55  C   UNL A   1      41.153  33.607  30.035  1.00  0.00     0.049 A 
ATOM     56  H   UNL A   1      40.557  31.628  30.365  1.00  0.00     0.167 HD
ATOM     57  C   UNL A   1      39.092  27.443  29.814  1.00  0.00     0.031 A 
ATOM     58  C   UNL A   1      42.506  33.547  30.094  1.00  0.00     0.031 A 
ATOM     59  C   UNL A   1      39.345  27.566  31.231  1.00  0.00     0.049 A 
ATOM     60  C   UNL A   1      42.853  32.253  30.724  1.00  0.00     0.074 A 
ATOM     61  C   UNL A   1      38.568  27.620  32.369  1.00  0.00     0.029 A 
ATOM     62  N   UNL A   1      40.571  28.089  31.574  1.00  0.00    -0.354 N 
ATOM     63  N   UNL A   1      42.564  31.953  31.959  1.00  0.00    -0.248 NA
ATOM     64  C   UNL A   1      43.104  31.119  29.850  1.00  0.00     0.031 C 
ATOM     65  C   UNL A   1      39.218  28.567  33.217  1.00  0.00     0.029 A 
ATOM     66  C   UNL A   1      40.398  28.984  32.595  1.00  0.00     0.049 A 
ATOM     67  H   UNL A   1      41.430  27.857  31.154  1.00  0.00     0.167 HD
ATOM     68  C   UNL A   1      42.159  30.627  31.914  1.00  0.00     0.074 A 
ATOM     69  C   UNL A   1      42.621  30.137  30.616  1.00  0.00     0.031 C 
ATOM     70  C   UNL A   1      41.240  30.145  32.803  1.00  0.00     0.031 A 
BRANCH  57  71
ATOM     71  C   UNL A   1      40.000  26.619  28.929  1.00  0.00    -0.014 A 
ATOM     72  C   UNL A   1      41.161  27.229  28.419  1.00  0.00     0.009 A 
ATOM     73  C   UNL A   1      39.626  25.395  28.343  1.00  0.00     0.009 A 
ATOM     74  C   UNL A   1      41.849  26.690  27.326  1.00  0.00     0.001 A 
ATOM     75  C   UNL A   1      40.335  24.831  27.279  1.00  0.00     0.001 A 
ATOM     76  C   UNL A   1      41.430  25.496  26.750  1.00  0.00     0.000 A 
ENDBRANCH  57  71
BRANCH  58  77
ATOM     77  C   UNL A   1      43.507  34.372  29.382  1.00  0.00    -0.014 A 
ATOM     78  C   UNL A   1      43.420  34.590  27.997  1.00  0.00     0.009 A 
ATOM     79  C   UNL A   1      44.398  35.181  30.113  1.00  0.00     0.009 A 
ATOM     80  C   UNL A   1      44.173  35.599  27.375  1.00  0.00     0.001 A 
ATOM     81  C   UNL A   1      45.144  36.190  29.494  1.00  0.00     0.001 A 
ATOM     82  C   UNL A   1      45.023  36.408  28.126  1.00  0.00     0.000 A 
ENDBRANCH  58  77
BRANCH  70  83
ATOM     83  C   UNL A   1      40.907  30.994  34.007  1.00  0.00    -0.014 A 
ATOM     84  C   UNL A   1      41.605  30.931  35.226  1.00  0.00     0.009 A 
ATOM     85  C   UNL A   1      39.957  32.013  33.837  1.00  0.00     0.009 A 
ATOM     86  C   UNL A   1      41.347  31.856  36.245  1.00  0.00     0.001 A 
ATOM     87  C   UNL A   1      39.715  32.947  34.844  1.00  0.00     0.001 A 
ATOM     88  C   UNL A   1      40.408  32.869  36.050  1.00  0.00     0.000 A 
ENDBRANCH  70  83
ENDBRANCH  44  45
ENDBRANCH  36  39
ENDBRANCH  34  35
ENDBRANCH   1  34
TORSDOF 14
ENDMDL
MODEL 3
REMARK VINA RESULT:     -13.1      2.909      7.984
REMARK SMILES COc1cccc(-c2nn(-c3cc4c(cc3C(N)=O)OCO4)cc2C(=O)NCCCNC(=O)c2ccc(-c3c4nc(c(-c5ccccc5)c5ccc([nH]5)c(-c5ccccc5)c5nc(c(-c6ccccc6)c6ccc3[nH]6)C=C5)C=C4)cc2)c1
REMARK SMILES IDX 29 1 28 2 27 3 25 4 26 5 24 7 8 8 9 9 10 10 23 11 7 12 3 13
REMARK SMILES IDX 4 14 82 15 5 16 6 17 2 18 1 19 11 20 12 21 16 22 13 23 15 24
REMARK SMILES IDX 14 25 22 26 20 27 21 28 17 29 18 30 19 31 30 34 31 35 32 36
REMARK SMILES IDX 33 38 34 39 35 40 81 41 36 42 80 43 37 44 38 45 39 46 74 47
REMARK SMILES IDX 40 48 79 49 73 50 75 51 41 52 78 53 72 54 71 55 42 57 64 58
REMARK SMILES IDX 49 59 63 60 50 61 53 62 62 63 76 64 51 65 52 66 61 68 77 69
REMARK SMILES IDX 54 70 43 71 44 72 48 73 45 74 47 75 46 76 65 77 66 78 70 79
REMARK SMILES IDX 67 80 69 81 68 82 55 83 56 84 60 85 57 86 59 87 58 88
REMARK H PARENT 27 6 18 32 18 33 31 37 75 56 53 67
REMARK Flexibility Score: inf
ROOT
ATOM      1  C   UNL A   1      32.337  29.804  27.242  1.00  0.00     0.042 C 
ENDROOT
BRANCH   1   2
ATOM      2  C   UNL A   1      31.771  29.090  26.008  1.00  0.00     0.118 C 
BRANCH   2   3
ATOM      3  N   UNL A   1      32.631  29.221  24.842  1.00  0.00    -0.352 N 
ATOM      4  C   UNL A   1      32.774  28.451  23.710  1.00  0.00     0.255 C 
ATOM      5  O   UNL A   1      33.543  28.894  22.856  1.00  0.00    -0.269 OA
ATOM      6  H   UNL A   1      33.222  30.007  24.868  1.00  0.00     0.163 HD
BRANCH   4   7
ATOM      7  C   UNL A   1      32.036  27.209  23.532  1.00  0.00     0.086 A 
ATOM      8  C   UNL A   1      30.631  27.018  23.268  1.00  0.00     0.106 A 
ATOM      9  N   UNL A   1      30.300  25.706  23.280  1.00  0.00    -0.167 NA
ATOM     10  N   UNL A   1      31.424  25.102  23.719  1.00  0.00    -0.239 N 
ATOM     11  C   UNL A   1      32.514  25.919  23.559  1.00  0.00     0.129 A 
BRANCH   8  12
ATOM     12  C   UNL A   1      29.627  28.052  23.008  1.00  0.00     0.007 A 
ATOM     13  C   UNL A   1      28.989  30.191  22.052  1.00  0.00     0.119 A 
ATOM     14  C   UNL A   1      27.663  29.958  22.426  1.00  0.00     0.046 A 
ATOM     15  C   UNL A   1      29.974  29.244  22.353  1.00  0.00     0.056 A 
ATOM     16  C   UNL A   1      27.312  28.784  23.087  1.00  0.00     0.005 A 
ATOM     17  C   UNL A   1      28.292  27.839  23.385  1.00  0.00     0.011 A 
BRANCH  13  18
ATOM     18  O   UNL A   1      29.210  31.400  21.449  1.00  0.00    -0.497 OA
ATOM     19  C   UNL A   1      28.046  32.147  21.116  1.00  0.00     0.278 C 
ENDBRANCH  13  18
ENDBRANCH   8  12
BRANCH  10  20
ATOM     20  C   UNL A   1      31.501  23.745  24.118  1.00  0.00     0.081 A 
ATOM     21  C   UNL A   1      31.772  22.778  23.134  1.00  0.00     0.079 A 
ATOM     22  C   UNL A   1      31.432  23.389  25.501  1.00  0.00     0.069 A 
ATOM     23  C   UNL A   1      32.049  21.499  23.573  1.00  0.00     0.167 A 
ATOM     24  C   UNL A   1      31.830  22.103  25.896  1.00  0.00     0.066 A 
ATOM     25  C   UNL A   1      32.107  21.186  24.911  1.00  0.00     0.166 A 
ATOM     26  O   UNL A   1      32.304  20.414  22.793  1.00  0.00    -0.454 OA
ATOM     27  O   UNL A   1      32.405  19.878  25.133  1.00  0.00    -0.454 OA
ATOM     28  C   UNL A   1      32.312  19.367  23.788  1.00  0.00     0.468 C 
BRANCH  22  29
ATOM     29  C   UNL A   1      30.742  24.269  26.509  1.00  0.00     0.251 C 
ATOM     30  N   UNL A   1      29.477  23.937  26.913  1.00  0.00    -0.366 N 
ATOM     31  O   UNL A   1      31.215  25.313  26.929  1.00  0.00    -0.269 OA
ATOM     32  H   UNL A   1      29.062  23.102  26.596  1.00  0.00     0.159 HD
ATOM     33  H   UNL A   1      28.982  24.533  27.521  1.00  0.00     0.159 HD
ENDBRANCH  22  29
ENDBRANCH  10  20
ENDBRANCH   4   7
ENDBRANCH   2   3
ENDBRANCH   1   2
BRANCH   1  34
ATOM     34  C   UNL A   1      33.838  29.994  27.140  1.00  0.00     0.118 C 
BRANCH  34  35
ATOM     35  N   UNL A   1      34.238  31.407  27.239  1.00  0.00    -0.352 N 
ATOM     36  C   UNL A   1      35.288  31.970  27.937  1.00  0.00     0.251 C 
ATOM     37  H   UNL A   1      33.677  32.042  26.736  1.00  0.00     0.163 HD
ATOM     38  O   UNL A   1      35.297  33.172  28.207  1.00  0.00    -0.269 OA
BRANCH  36  39
ATOM     39  C   UNL A   1      36.406  31.109  28.350  1.00  0.00     0.039 A 
ATOM     40  C   UNL A   1      36.505  29.760  28.000  1.00  0.00     0.014 A 
ATOM     41  C   UNL A   1      37.414  31.725  29.075  1.00  0.00     0.014 A 
ATOM     42  C   UNL A   1      37.666  29.071  28.351  1.00  0.00     0.010 A 
ATOM     43  C   UNL A   1      38.646  31.152  29.121  1.00  0.00     0.010 A 
ATOM     44  C   UNL A   1      38.735  29.790  28.908  1.00  0.00    -0.014 A 
BRANCH  44  45
ATOM     45  C   UNL A   1      40.019  29.190  29.225  1.00  0.00     0.031 A 
ATOM     46  C   UNL A   1      40.259  29.066  30.679  1.00  0.00     0.074 A 
ATOM     47  C   UNL A   1      40.773  28.557  28.298  1.00  0.00     0.049 A 
ATOM     48  N   UNL A   1      41.042  29.788  31.405  1.00  0.00    -0.248 NA
ATOM     49  C   UNL A   1      39.380  28.168  31.448  1.00  0.00     0.031 C 
ATOM     50  C   UNL A   1      40.450  28.277  26.888  1.00  0.00     0.029 A 
ATOM     51  N   UNL A   1      41.960  27.916  28.453  1.00  0.00    -0.354 N 
ATOM     52  C   UNL A   1      40.942  29.261  32.687  1.00  0.00     0.074 A 
ATOM     53  C   UNL A   1      39.745  28.459  32.697  1.00  0.00     0.031 C 
ATOM     54  C   UNL A   1      41.291  27.336  26.403  1.00  0.00     0.029 A 
ATOM     55  C   UNL A   1      42.318  27.085  27.395  1.00  0.00     0.049 A 
ATOM     56  H   UNL A   1      42.524  28.029  29.252  1.00  0.00     0.167 HD
ATOM     57  C   UNL A   1      42.019  29.253  33.519  1.00  0.00     0.031 A 
ATOM     58  C   UNL A   1      43.374  26.236  27.351  1.00  0.00     0.031 A 
ATOM     59  C   UNL A   1      43.074  30.099  33.011  1.00  0.00     0.049 A 
ATOM     60  C   UNL A   1      44.317  26.665  28.408  1.00  0.00     0.074 A 
ATOM     61  C   UNL A   1      43.204  31.438  32.710  1.00  0.00     0.029 A 
ATOM     62  N   UNL A   1      44.084  29.451  32.339  1.00  0.00    -0.354 N 
ATOM     63  N   UNL A   1      44.949  27.804  28.390  1.00  0.00    -0.248 NA
ATOM     64  C   UNL A   1      44.204  26.035  29.713  1.00  0.00     0.031 C 
ATOM     65  C   UNL A   1      44.010  31.476  31.533  1.00  0.00     0.029 A 
ATOM     66  C   UNL A   1      44.402  30.172  31.219  1.00  0.00     0.049 A 
ATOM     67  H   UNL A   1      44.509  28.608  32.617  1.00  0.00     0.167 HD
ATOM     68  C   UNL A   1      44.915  28.247  29.705  1.00  0.00     0.074 A 
ATOM     69  C   UNL A   1      44.547  27.068  30.489  1.00  0.00     0.031 C 
ATOM     70  C   UNL A   1      44.901  29.583  29.993  1.00  0.00     0.031 A 
BRANCH  57  71
ATOM     71  C   UNL A   1      42.317  28.130  34.487  1.00  0.00    -0.014 A 
ATOM     72  C   UNL A   1      42.805  26.917  33.966  1.00  0.00     0.009 A 
ATOM     73  C   UNL A   1      41.871  28.105  35.822  1.00  0.00     0.009 A 
ATOM     74  C   UNL A   1      42.760  25.733  34.710  1.00  0.00     0.001 A 
ATOM     75  C   UNL A   1      41.864  26.933  36.583  1.00  0.00     0.001 A 
ATOM     76  C   UNL A   1      42.280  25.739  36.015  1.00  0.00     0.000 A 
ENDBRANCH  57  71
BRANCH  58  77
ATOM     77  C   UNL A   1      43.484  24.921  26.680  1.00  0.00    -0.014 A 
ATOM     78  C   UNL A   1      42.707  23.825  27.091  1.00  0.00     0.009 A 
ATOM     79  C   UNL A   1      44.155  24.817  25.446  1.00  0.00     0.009 A 
ATOM     80  C   UNL A   1      42.583  22.684  26.282  1.00  0.00     0.001 A 
ATOM     81  C   UNL A   1      44.028  23.681  24.639  1.00  0.00     0.001 A 
ATOM     82  C   UNL A   1      43.231  22.619  25.051  1.00  0.00     0.000 A 
ENDBRANCH  58  77
BRANCH  70  83
ATOM     83  C   UNL A   1      45.224  30.551  28.880  1.00  0.00    -0.014 A 
ATOM     84  C   UNL A   1      46.529  30.970  28.563  1.00  0.00     0.009 A 
ATOM     85  C   UNL A   1      44.180  30.917  28.017  1.00  0.00     0.009 A 
ATOM     86  C   UNL A   1      46.772  31.743  27.421  1.00  0.00     0.001 A 
ATOM     87  C   UNL A   1      44.425  31.669  26.868  1.00  0.00     0.001 A 
ATOM     88  C   UNL A   1      45.721  32.085  26.570  1.00  0.00     0.000 A 
ENDBRANCH  70  83
ENDBRANCH  44  45
ENDBRANCH  36  39
ENDBRANCH  34  35
ENDBRANCH   1  34
TORSDOF 14
ENDMDL
