MODEL 1
REMARK VINA RESULT:     -11.3      0.000      0.000
REMARK SMILES O=C(NCCCNC(=O)[C@@H]1CC[C@@H](CNC(=O)c2cccc(O)c2)O1)c1ccc(-c2c3nc(c(-c4ccccc4)c4ccc([nH]4)c(-c4ccccc4)c4nc(c(-c5ccccc5)c5ccc2[nH]5)C=C4)C=C3)cc1
REMARK SMILES IDX 6 1 5 2 4 3 3 4 1 5 2 6 26 8 27 9 73 10 28 11 72 12 29 13
REMARK SMILES IDX 30 14 31 15 66 16 32 17 71 18 65 19 67 20 33 21 70 22 64 23
REMARK SMILES IDX 63 24 34 26 56 27 41 28 55 29 42 30 45 31 54 32 68 33 43 34
REMARK SMILES IDX 44 35 53 37 69 38 46 39 35 40 36 41 40 42 37 43 39 44 38 45
REMARK SMILES IDX 57 46 58 47 62 48 59 49 61 50 60 51 47 52 48 53 52 54 49 55
REMARK SMILES IDX 51 56 50 57 7 58 8 59 9 61 10 62 11 63 25 64 12 65 13 66
REMARK SMILES IDX 14 67 15 68 16 69 17 71 18 72 19 73 24 74 20 75 22 76 21 77
REMARK SMILES IDX 23 78
REMARK H PARENT 3 7 67 25 45 36 7 60 15 70 23 79
REMARK Flexibility Score: inf
ROOT
ATOM      1  C   UNL A   1      36.087  20.623  24.999  1.00  0.00     0.117 C 
ENDROOT
BRANCH   1   2
ATOM      2  C   UNL A   1      37.322  19.739  24.903  1.00  0.00     0.042 C 
BRANCH   2   3
ATOM      3  C   UNL A   1      38.564  20.377  25.508  1.00  0.00     0.118 C 
BRANCH   3   4
ATOM      4  N   UNL A   1      39.652  19.423  25.673  1.00  0.00    -0.352 N 
ATOM      5  O   UNL A   1      41.775  18.720  25.924  1.00  0.00    -0.269 OA
ATOM      6  C   UNL A   1      40.952  19.624  26.058  1.00  0.00     0.251 C 
ATOM      7  H   UNL A   1      39.417  18.487  25.479  1.00  0.00     0.163 HD
BRANCH   6   8
ATOM      8  C   UNL A   1      41.371  20.924  26.615  1.00  0.00     0.039 A 
ATOM      9  C   UNL A   1      41.263  21.184  27.983  1.00  0.00     0.014 A 
ATOM     10  C   UNL A   1      41.910  21.887  25.759  1.00  0.00     0.014 A 
ATOM     11  C   UNL A   1      41.552  22.452  28.472  1.00  0.00     0.010 A 
ATOM     12  C   UNL A   1      42.290  23.131  26.267  1.00  0.00     0.010 A 
ATOM     13  C   UNL A   1      42.084  23.433  27.622  1.00  0.00    -0.014 A 
BRANCH  13  14
ATOM     14  C   UNL A   1      42.471  24.753  28.176  1.00  0.00     0.031 A 
ATOM     15  C   UNL A   1      41.451  25.838  28.373  1.00  0.00     0.074 A 
ATOM     16  C   UNL A   1      43.761  24.971  28.495  1.00  0.00     0.049 A 
ATOM     17  N   UNL A   1      41.622  27.059  28.812  1.00  0.00    -0.248 NA
ATOM     18  C   UNL A   1      40.059  25.512  28.027  1.00  0.00     0.031 C 
ATOM     19  C   UNL A   1      44.844  23.994  28.353  1.00  0.00     0.029 A 
ATOM     20  N   UNL A   1      44.381  26.080  29.010  1.00  0.00    -0.354 N 
ATOM     21  C   UNL A   1      40.369  27.655  28.774  1.00  0.00     0.074 A 
ATOM     22  C   UNL A   1      39.451  26.671  28.242  1.00  0.00     0.031 C 
ATOM     23  C   UNL A   1      45.985  24.535  28.800  1.00  0.00     0.029 A 
ATOM     24  C   UNL A   1      45.732  25.916  29.192  1.00  0.00     0.049 A 
ATOM     25  H   UNL A   1      43.904  26.914  29.227  1.00  0.00     0.167 HD
ATOM     26  C   UNL A   1      40.015  28.909  29.150  1.00  0.00     0.031 A 
ATOM     27  C   UNL A   1      46.671  26.787  29.600  1.00  0.00     0.031 A 
ATOM     28  C   UNL A   1      40.938  29.888  29.665  1.00  0.00     0.049 A 
ATOM     29  C   UNL A   1      46.264  28.187  29.955  1.00  0.00     0.074 A 
ATOM     30  C   UNL A   1      40.674  31.176  30.099  1.00  0.00     0.029 A 
ATOM     31  N   UNL A   1      42.304  29.693  29.802  1.00  0.00    -0.354 N 
ATOM     32  N   UNL A   1      45.069  28.726  29.947  1.00  0.00    -0.248 NA
ATOM     33  C   UNL A   1      47.336  29.097  30.379  1.00  0.00     0.031 C 
ATOM     34  C   UNL A   1      41.888  31.781  30.438  1.00  0.00     0.029 A 
ATOM     35  C   UNL A   1      42.901  30.847  30.285  1.00  0.00     0.049 A 
ATOM     36  H   UNL A   1      42.780  28.859  29.588  1.00  0.00     0.167 HD
ATOM     37  C   UNL A   1      45.240  30.029  30.393  1.00  0.00     0.074 A 
ATOM     38  C   UNL A   1      46.651  30.195  30.673  1.00  0.00     0.031 C 
ATOM     39  C   UNL A   1      44.308  30.999  30.558  1.00  0.00     0.031 A 
BRANCH  26  40
ATOM     40  C   UNL A   1      38.574  29.304  28.976  1.00  0.00    -0.014 A 
ATOM     41  C   UNL A   1      38.085  29.786  27.750  1.00  0.00     0.009 A 
ATOM     42  C   UNL A   1      37.681  29.168  30.051  1.00  0.00     0.009 A 
ATOM     43  C   UNL A   1      36.746  30.163  27.620  1.00  0.00     0.001 A 
ATOM     44  C   UNL A   1      36.337  29.514  29.909  1.00  0.00     0.001 A 
ATOM     45  C   UNL A   1      35.873  30.023  28.698  1.00  0.00     0.000 A 
ENDBRANCH  26  40
BRANCH  27  46
ATOM     46  C   UNL A   1      48.091  26.353  29.679  1.00  0.00    -0.014 A 
ATOM     47  C   UNL A   1      48.946  26.505  28.578  1.00  0.00     0.009 A 
ATOM     48  C   UNL A   1      48.601  25.807  30.867  1.00  0.00     0.009 A 
ATOM     49  C   UNL A   1      50.281  26.098  28.661  1.00  0.00     0.001 A 
ATOM     50  C   UNL A   1      49.943  25.432  30.958  1.00  0.00     0.001 A 
ATOM     51  C   UNL A   1      50.779  25.569  29.852  1.00  0.00     0.000 A 
ENDBRANCH  27  46
BRANCH  39  52
ATOM     52  C   UNL A   1      44.777  32.315  31.114  1.00  0.00    -0.014 A 
ATOM     53  C   UNL A   1      45.255  33.338  30.279  1.00  0.00     0.009 A 
ATOM     54  C   UNL A   1      44.699  32.548  32.496  1.00  0.00     0.009 A 
ATOM     55  C   UNL A   1      45.676  34.554  30.823  1.00  0.00     0.001 A 
ATOM     56  C   UNL A   1      45.088  33.776  33.033  1.00  0.00     0.001 A 
ATOM     57  C   UNL A   1      45.585  34.773  32.197  1.00  0.00     0.000 A 
ENDBRANCH  39  52
ENDBRANCH  13  14
ENDBRANCH   6   8
ENDBRANCH   3   4
ENDBRANCH   2   3
ENDBRANCH   1   2
BRANCH   1  58
ATOM     58  N   UNL A   1      34.867  19.840  24.957  1.00  0.00    -0.354 N 
ATOM     59  C   UNL A   1      33.571  20.273  24.990  1.00  0.00     0.249 C 
ATOM     60  H   UNL A   1      34.989  18.865  24.895  1.00  0.00     0.163 HD
ATOM     61  O   UNL A   1      32.675  19.428  25.015  1.00  0.00    -0.272 OA
BRANCH  59  62
ATOM     62  C   UNL A   1      33.309  21.783  25.021  1.00  0.00     0.207 C 
ATOM     63  C   UNL A   1      32.616  22.180  26.318  1.00  0.00     0.045 C 
ATOM     64  O   UNL A   1      32.486  22.235  23.946  1.00  0.00    -0.363 OA
ATOM     65  C   UNL A   1      31.732  23.323  25.889  1.00  0.00     0.037 C 
ATOM     66  C   UNL A   1      31.334  22.904  24.485  1.00  0.00     0.138 C 
BRANCH  66  67
ATOM     67  C   UNL A   1      30.965  24.095  23.597  1.00  0.00     0.148 C 
BRANCH  67  68
ATOM     68  N   UNL A   1      31.970  24.325  22.570  1.00  0.00    -0.349 N 
ATOM     69  C   UNL A   1      32.998  25.218  22.481  1.00  0.00     0.251 C 
ATOM     70  H   UNL A   1      31.893  23.724  21.793  1.00  0.00     0.163 HD
ATOM     71  O   UNL A   1      33.666  25.287  21.453  1.00  0.00    -0.269 OA
BRANCH  69  72
ATOM     72  C   UNL A   1      33.289  26.137  23.597  1.00  0.00     0.043 A 
ATOM     73  C   UNL A   1      33.814  25.687  24.813  1.00  0.00     0.014 A 
ATOM     74  C   UNL A   1      33.062  27.501  23.392  1.00  0.00     0.060 A 
ATOM     75  C   UNL A   1      34.041  26.594  25.850  1.00  0.00     0.005 A 
ATOM     76  C   UNL A   1      33.312  28.396  24.423  1.00  0.00     0.116 A 
ATOM     77  C   UNL A   1      33.783  27.952  25.656  1.00  0.00     0.046 A 
BRANCH  76  78
ATOM     78  O   UNL A   1      33.077  29.717  24.185  1.00  0.00    -0.508 OA
ATOM     79  H   UNL A   1      32.872  30.292  24.896  1.00  0.00     0.293 HD
ENDBRANCH  76  78
ENDBRANCH  69  72
ENDBRANCH  67  68
ENDBRANCH  66  67
ENDBRANCH  59  62
ENDBRANCH   1  58
TORSDOF 14
ENDMDL
MODEL 2
REMARK VINA RESULT:     -11.2      3.323      8.703
REMARK SMILES O=C(NCCCNC(=O)[C@@H]1CC[C@@H](CNC(=O)c2cccc(O)c2)O1)c1ccc(-c2c3nc(c(-c4ccccc4)c4ccc([nH]4)c(-c4ccccc4)c4nc(c(-c5ccccc5)c5ccc2[nH]5)C=C4)C=C3)cc1
REMARK SMILES IDX 6 1 5 2 4 3 3 4 1 5 2 6 26 8 27 9 73 10 28 11 72 12 29 13
REMARK SMILES IDX 30 14 31 15 66 16 32 17 71 18 65 19 67 20 33 21 70 22 64 23
REMARK SMILES IDX 63 24 34 26 56 27 41 28 55 29 42 30 45 31 54 32 68 33 43 34
REMARK SMILES IDX 44 35 53 37 69 38 46 39 35 40 36 41 40 42 37 43 39 44 38 45
REMARK SMILES IDX 57 46 58 47 62 48 59 49 61 50 60 51 47 52 48 53 52 54 49 55
REMARK SMILES IDX 51 56 50 57 7 58 8 59 9 61 10 62 11 63 25 64 12 65 13 66
REMARK SMILES IDX 14 67 15 68 16 69 17 71 18 72 19 73 24 74 20 75 22 76 21 77
REMARK SMILES IDX 23 78
REMARK H PARENT 3 7 67 25 45 36 7 60 15 70 23 79
REMARK Flexibility Score: inf
ROOT
ATOM      1  C   UNL A   1      31.544  29.901  25.144  1.00  0.00     0.117 C 
ENDROOT
BRANCH   1   2
ATOM      2  C   UNL A   1      31.193  31.204  25.846  1.00  0.00     0.042 C 
BRANCH   2   3
ATOM      3  C   UNL A   1      32.219  31.617  26.891  1.00  0.00     0.118 C 
BRANCH   3   4
ATOM      4  N   UNL A   1      32.151  33.039  27.202  1.00  0.00    -0.352 N 
ATOM      5  O   UNL A   1      32.607  34.945  28.309  1.00  0.00    -0.269 OA
ATOM      6  C   UNL A   1      32.959  33.808  27.998  1.00  0.00     0.251 C 
ATOM      7  H   UNL A   1      31.409  33.523  26.773  1.00  0.00     0.163 HD
BRANCH   6   8
ATOM      8  C   UNL A   1      34.240  33.273  28.496  1.00  0.00     0.039 A 
ATOM      9  C   UNL A   1      34.276  32.412  29.596  1.00  0.00     0.014 A 
ATOM     10  C   UNL A   1      35.422  33.613  27.833  1.00  0.00     0.014 A 
ATOM     11  C   UNL A   1      35.498  32.012  30.122  1.00  0.00     0.010 A 
ATOM     12  C   UNL A   1      36.644  33.132  28.307  1.00  0.00     0.010 A 
ATOM     13  C   UNL A   1      36.693  32.354  29.474  1.00  0.00    -0.014 A 
BRANCH  13  14
ATOM     14  C   UNL A   1      37.984  31.845  29.996  1.00  0.00     0.031 A 
ATOM     15  C   UNL A   1      38.577  30.565  29.478  1.00  0.00     0.074 A 
ATOM     16  C   UNL A   1      38.622  32.547  30.951  1.00  0.00     0.049 A 
ATOM     17  N   UNL A   1      39.677  29.958  29.846  1.00  0.00    -0.248 NA
ATOM     18  C   UNL A   1      37.834  29.870  28.415  1.00  0.00     0.031 C 
ATOM     19  C   UNL A   1      38.150  33.808  31.530  1.00  0.00     0.029 A 
ATOM     20  N   UNL A   1      39.805  32.307  31.600  1.00  0.00    -0.354 N 
ATOM     21  C   UNL A   1      39.748  28.803  29.080  1.00  0.00     0.074 A 
ATOM     22  C   UNL A   1      38.566  28.777  28.246  1.00  0.00     0.031 C 
ATOM     23  C   UNL A   1      39.048  34.245  32.423  1.00  0.00     0.029 A 
ATOM     24  C   UNL A   1      40.121  33.264  32.533  1.00  0.00     0.049 A 
ATOM     25  H   UNL A   1      40.372  31.523  31.417  1.00  0.00     0.167 HD
ATOM     26  C   UNL A   1      40.713  27.851  29.071  1.00  0.00     0.031 A 
ATOM     27  C   UNL A   1      41.144  33.333  33.402  1.00  0.00     0.031 A 
ATOM     28  C   UNL A   1      41.880  27.876  29.915  1.00  0.00     0.049 A 
ATOM     29  C   UNL A   1      42.168  32.237  33.414  1.00  0.00     0.074 A 
ATOM     30  C   UNL A   1      42.930  26.973  29.961  1.00  0.00     0.029 A 
ATOM     31  N   UNL A   1      42.147  28.846  30.869  1.00  0.00    -0.354 N 
ATOM     32  N   UNL A   1      42.242  31.169  32.658  1.00  0.00    -0.248 NA
ATOM     33  C   UNL A   1      43.254  32.360  34.395  1.00  0.00     0.031 C 
ATOM     34  C   UNL A   1      43.796  27.362  30.988  1.00  0.00     0.029 A 
ATOM     35  C   UNL A   1      43.326  28.547  31.532  1.00  0.00     0.049 A 
ATOM     36  H   UNL A   1      41.580  29.630  31.050  1.00  0.00     0.167 HD
ATOM     37  C   UNL A   1      43.396  30.506  33.052  1.00  0.00     0.074 A 
ATOM     38  C   UNL A   1      43.996  31.300  34.105  1.00  0.00     0.031 C 
ATOM     39  C   UNL A   1      43.913  29.345  32.579  1.00  0.00     0.031 A 
BRANCH  26  40
ATOM     40  C   UNL A   1      40.522  26.679  28.146  1.00  0.00    -0.014 A 
ATOM     41  C   UNL A   1      39.771  25.555  28.527  1.00  0.00     0.009 A 
ATOM     42  C   UNL A   1      41.083  26.711  26.859  1.00  0.00     0.009 A 
ATOM     43  C   UNL A   1      39.624  24.472  27.657  1.00  0.00     0.001 A 
ATOM     44  C   UNL A   1      40.906  25.642  25.979  1.00  0.00     0.001 A 
ATOM     45  C   UNL A   1      40.188  24.519  26.383  1.00  0.00     0.000 A 
ENDBRANCH  26  40
BRANCH  27  46
ATOM     46  C   UNL A   1      41.234  34.482  34.341  1.00  0.00    -0.014 A 
ATOM     47  C   UNL A   1      40.598  34.436  35.590  1.00  0.00     0.009 A 
ATOM     48  C   UNL A   1      41.978  35.623  33.998  1.00  0.00     0.009 A 
ATOM     49  C   UNL A   1      40.690  35.518  36.469  1.00  0.00     0.001 A 
ATOM     50  C   UNL A   1      42.095  36.689  34.892  1.00  0.00     0.001 A 
ATOM     51  C   UNL A   1      41.444  36.639  36.122  1.00  0.00     0.000 A 
ENDBRANCH  27  46
BRANCH  39  52
ATOM     52  C   UNL A   1      45.220  28.887  33.164  1.00  0.00    -0.014 A 
ATOM     53  C   UNL A   1      46.450  29.305  32.633  1.00  0.00     0.009 A 
ATOM     54  C   UNL A   1      45.215  28.054  34.294  1.00  0.00     0.009 A 
ATOM     55  C   UNL A   1      47.649  28.869  33.204  1.00  0.00     0.001 A 
ATOM     56  C   UNL A   1      46.414  27.648  34.882  1.00  0.00     0.001 A 
ATOM     57  C   UNL A   1      47.629  28.048  34.330  1.00  0.00     0.000 A 
ENDBRANCH  39  52
ENDBRANCH  13  14
ENDBRANCH   6   8
ENDBRANCH   3   4
ENDBRANCH   2   3
ENDBRANCH   1   2
BRANCH   1  58
ATOM     58  N   UNL A   1      30.790  29.737  23.916  1.00  0.00    -0.354 N 
ATOM     59  C   UNL A   1      30.717  28.646  23.095  1.00  0.00     0.249 C 
ATOM     60  H   UNL A   1      30.258  30.517  23.636  1.00  0.00     0.163 HD
ATOM     61  O   UNL A   1      30.066  28.743  22.054  1.00  0.00    -0.272 OA
BRANCH  59  62
ATOM     62  C   UNL A   1      31.470  27.375  23.506  1.00  0.00     0.207 C 
ATOM     63  C   UNL A   1      32.470  26.975  22.430  1.00  0.00     0.045 C 
ATOM     64  O   UNL A   1      30.611  26.256  23.724  1.00  0.00    -0.363 OA
ATOM     65  C   UNL A   1      32.467  25.470  22.515  1.00  0.00     0.037 C 
ATOM     66  C   UNL A   1      31.020  25.177  22.869  1.00  0.00     0.138 C 
BRANCH  66  67
ATOM     67  C   UNL A   1      30.851  23.844  23.601  1.00  0.00     0.148 C 
BRANCH  67  68
ATOM     68  N   UNL A   1      30.629  24.043  25.026  1.00  0.00    -0.349 N 
ATOM     69  C   UNL A   1      31.467  23.973  26.100  1.00  0.00     0.251 C 
ATOM     70  H   UNL A   1      29.700  24.271  25.258  1.00  0.00     0.163 HD
ATOM     71  O   UNL A   1      31.021  24.089  27.238  1.00  0.00    -0.269 OA
BRANCH  69  72
ATOM     72  C   UNL A   1      32.907  23.713  25.909  1.00  0.00     0.043 A 
ATOM     73  C   UNL A   1      33.830  24.747  25.721  1.00  0.00     0.014 A 
ATOM     74  C   UNL A   1      33.340  22.386  25.964  1.00  0.00     0.060 A 
ATOM     75  C   UNL A   1      35.177  24.446  25.512  1.00  0.00     0.005 A 
ATOM     76  C   UNL A   1      34.686  22.100  25.777  1.00  0.00     0.116 A 
ATOM     77  C   UNL A   1      35.606  23.117  25.534  1.00  0.00     0.046 A 
BRANCH  76  78
ATOM     78  O   UNL A   1      35.070  20.794  25.836  1.00  0.00    -0.508 OA
ATOM     79  H   UNL A   1      35.783  20.540  26.388  1.00  0.00     0.293 HD
ENDBRANCH  76  78
ENDBRANCH  69  72
ENDBRANCH  67  68
ENDBRANCH  66  67
ENDBRANCH  59  62
ENDBRANCH   1  58
TORSDOF 14
ENDMDL
MODEL 3
REMARK VINA RESULT:     -11.1      1.407      6.291
REMARK SMILES O=C(NCCCNC(=O)[C@@H]1CC[C@@H](CNC(=O)c2cccc(O)c2)O1)c1ccc(-c2c3nc(c(-c4ccccc4)c4ccc([nH]4)c(-c4ccccc4)c4nc(c(-c5ccccc5)c5ccc2[nH]5)C=C4)C=C3)cc1
REMARK SMILES IDX 6 1 5 2 4 3 3 4 1 5 2 6 26 8 27 9 73 10 28 11 72 12 29 13
REMARK SMILES IDX 30 14 31 15 66 16 32 17 71 18 65 19 67 20 33 21 70 22 64 23
REMARK SMILES IDX 63 24 34 26 56 27 41 28 55 29 42 30 45 31 54 32 68 33 43 34
REMARK SMILES IDX 44 35 53 37 69 38 46 39 35 40 36 41 40 42 37 43 39 44 38 45
REMARK SMILES IDX 57 46 58 47 62 48 59 49 61 50 60 51 47 52 48 53 52 54 49 55
REMARK SMILES IDX 51 56 50 57 7 58 8 59 9 61 10 62 11 63 25 64 12 65 13 66
REMARK SMILES IDX 14 67 15 68 16 69 17 71 18 72 19 73 24 74 20 75 22 76 21 77
REMARK SMILES IDX 23 78
REMARK H PARENT 3 7 67 25 45 36 7 60 15 70 23 79
REMARK Flexibility Score: inf
ROOT
ATOM      1  C   UNL A   1      36.307  20.133  24.996  1.00  0.00     0.117 C 
ENDROOT
BRANCH   1   2
ATOM      2  C   UNL A   1      37.710  19.612  24.721  1.00  0.00     0.042 C 
BRANCH   2   3
ATOM      3  C   UNL A   1      38.746  20.128  25.710  1.00  0.00     0.118 C 
BRANCH   3   4
ATOM      4  N   UNL A   1      39.902  19.247  25.809  1.00  0.00    -0.352 N 
ATOM      5  O   UNL A   1      42.078  18.686  25.923  1.00  0.00    -0.269 OA
ATOM      6  C   UNL A   1      41.209  19.537  26.104  1.00  0.00     0.251 C 
ATOM      7  H   UNL A   1      39.716  18.296  25.639  1.00  0.00     0.163 HD
BRANCH   6   8
ATOM      8  C   UNL A   1      41.578  20.868  26.621  1.00  0.00     0.039 A 
ATOM      9  C   UNL A   1      41.493  21.155  27.985  1.00  0.00     0.014 A 
ATOM     10  C   UNL A   1      42.047  21.836  25.729  1.00  0.00     0.014 A 
ATOM     11  C   UNL A   1      41.732  22.446  28.438  1.00  0.00     0.010 A 
ATOM     12  C   UNL A   1      42.379  23.108  26.200  1.00  0.00     0.010 A 
ATOM     13  C   UNL A   1      42.194  23.431  27.553  1.00  0.00    -0.014 A 
BRANCH  13  14
ATOM     14  C   UNL A   1      42.531  24.781  28.066  1.00  0.00     0.031 A 
ATOM     15  C   UNL A   1      43.940  25.131  28.453  1.00  0.00     0.074 A 
ATOM     16  C   UNL A   1      41.549  25.694  28.188  1.00  0.00     0.049 A 
ATOM     17  N   UNL A   1      44.403  26.250  28.950  1.00  0.00    -0.248 NA
ATOM     18  C   UNL A   1      44.960  24.088  28.264  1.00  0.00     0.031 C 
ATOM     19  C   UNL A   1      40.143  25.474  27.840  1.00  0.00     0.029 A 
ATOM     20  N   UNL A   1      41.583  26.991  28.631  1.00  0.00    -0.354 N 
ATOM     21  C   UNL A   1      45.760  26.040  29.155  1.00  0.00     0.074 A 
ATOM     22  C   UNL A   1      46.041  24.679  28.755  1.00  0.00     0.031 C 
ATOM     23  C   UNL A   1      39.456  26.605  28.053  1.00  0.00     0.029 A 
ATOM     24  C   UNL A   1      40.355  27.605  28.618  1.00  0.00     0.049 A 
ATOM     25  H   UNL A   1      42.407  27.438  28.932  1.00  0.00     0.167 HD
ATOM     26  C   UNL A   1      46.689  26.906  29.631  1.00  0.00     0.031 A 
ATOM     27  C   UNL A   1      39.983  28.827  29.039  1.00  0.00     0.031 A 
ATOM     28  C   UNL A   1      46.399  28.256  30.041  1.00  0.00     0.049 A 
ATOM     29  C   UNL A   1      41.018  29.746  29.617  1.00  0.00     0.074 A 
ATOM     30  C   UNL A   1      47.274  29.221  30.512  1.00  0.00     0.029 A 
ATOM     31  N   UNL A   1      45.136  28.829  30.042  1.00  0.00    -0.354 N 
ATOM     32  N   UNL A   1      42.304  29.547  29.772  1.00  0.00    -0.248 NA
ATOM     33  C   UNL A   1      40.550  31.061  30.074  1.00  0.00     0.031 C 
ATOM     34  C   UNL A   1      46.531  30.354  30.858  1.00  0.00     0.029 A 
ATOM     35  C   UNL A   1      45.203  30.123  30.535  1.00  0.00     0.049 A 
ATOM     36  H   UNL A   1      44.312  28.383  29.739  1.00  0.00     0.167 HD
ATOM     37  C   UNL A   1      42.806  30.720  30.317  1.00  0.00     0.074 A 
ATOM     38  C   UNL A   1      41.686  31.630  30.454  1.00  0.00     0.031 C 
ATOM     39  C   UNL A   1      44.081  31.018  30.668  1.00  0.00     0.031 A 
BRANCH  26  40
ATOM     40  C   UNL A   1      48.099  26.401  29.774  1.00  0.00    -0.014 A 
ATOM     41  C   UNL A   1      48.541  25.774  30.951  1.00  0.00     0.009 A 
ATOM     42  C   UNL A   1      48.996  26.532  28.702  1.00  0.00     0.009 A 
ATOM     43  C   UNL A   1      49.860  25.330  31.066  1.00  0.00     0.001 A 
ATOM     44  C   UNL A   1      50.305  26.057  28.806  1.00  0.00     0.001 A 
ATOM     45  C   UNL A   1      50.739  25.469  29.992  1.00  0.00     0.000 A 
ENDBRANCH  26  40
BRANCH  27  46
ATOM     46  C   UNL A   1      38.558  29.236  28.938  1.00  0.00    -0.014 A 
ATOM     47  C   UNL A   1      37.702  29.128  30.043  1.00  0.00     0.009 A 
ATOM     48  C   UNL A   1      38.054  29.761  27.736  1.00  0.00     0.009 A 
ATOM     49  C   UNL A   1      36.365  29.519  29.942  1.00  0.00     0.001 A 
ATOM     50  C   UNL A   1      36.726  30.182  27.648  1.00  0.00     0.001 A 
ATOM     51  C   UNL A   1      35.880  30.052  28.747  1.00  0.00     0.000 A 
ENDBRANCH  27  46
BRANCH  39  52
ATOM     52  C   UNL A   1      44.344  32.403  31.191  1.00  0.00    -0.014 A 
ATOM     53  C   UNL A   1      44.634  33.472  30.328  1.00  0.00     0.009 A 
ATOM     54  C   UNL A   1      44.258  32.647  32.570  1.00  0.00     0.009 A 
ATOM     55  C   UNL A   1      44.866  34.750  30.843  1.00  0.00     0.001 A 
ATOM     56  C   UNL A   1      44.456  33.931  33.078  1.00  0.00     0.001 A 
ATOM     57  C   UNL A   1      44.769  34.979  32.214  1.00  0.00     0.000 A 
ENDBRANCH  39  52
ENDBRANCH  13  14
ENDBRANCH   6   8
ENDBRANCH   3   4
ENDBRANCH   2   3
ENDBRANCH   1   2
BRANCH   1  58
ATOM     58  N   UNL A   1      36.338  21.407  25.689  1.00  0.00    -0.354 N 
ATOM     59  C   UNL A   1      35.566  22.515  25.477  1.00  0.00     0.249 C 
ATOM     60  H   UNL A   1      37.005  21.483  26.409  1.00  0.00     0.163 HD
ATOM     61  O   UNL A   1      35.806  23.527  26.137  1.00  0.00    -0.272 OA
BRANCH  59  62
ATOM     62  C   UNL A   1      34.465  22.442  24.413  1.00  0.00     0.207 C 
ATOM     63  C   UNL A   1      34.863  23.235  23.176  1.00  0.00     0.045 C 
ATOM     64  O   UNL A   1      33.211  22.958  24.862  1.00  0.00    -0.363 OA
ATOM     65  C   UNL A   1      33.542  23.765  22.679  1.00  0.00     0.037 C 
ATOM     66  C   UNL A   1      32.791  24.008  23.976  1.00  0.00     0.138 C 
BRANCH  66  67
ATOM     67  C   UNL A   1      31.273  23.958  23.797  1.00  0.00     0.148 C 
BRANCH  67  68
ATOM     68  N   UNL A   1      30.579  24.285  25.034  1.00  0.00    -0.349 N 
ATOM     69  C   UNL A   1      30.091  25.461  25.525  1.00  0.00     0.251 C 
ATOM     70  H   UNL A   1      30.436  23.513  25.629  1.00  0.00     0.163 HD
ATOM     71  O   UNL A   1      29.620  25.506  26.658  1.00  0.00    -0.269 OA
BRANCH  69  72
ATOM     72  C   UNL A   1      30.164  26.694  24.720  1.00  0.00     0.043 A 
ATOM     73  C   UNL A   1      29.253  26.967  23.694  1.00  0.00     0.014 A 
ATOM     74  C   UNL A   1      31.158  27.622  25.041  1.00  0.00     0.060 A 
ATOM     75  C   UNL A   1      29.386  28.134  22.939  1.00  0.00     0.005 A 
ATOM     76  C   UNL A   1      31.267  28.790  24.298  1.00  0.00     0.116 A 
ATOM     77  C   UNL A   1      30.399  29.046  23.239  1.00  0.00     0.046 A 
BRANCH  76  78
ATOM     78  O   UNL A   1      32.250  29.670  24.641  1.00  0.00    -0.508 OA
ATOM     79  H   UNL A   1      32.426  29.847  25.543  1.00  0.00     0.293 HD
ENDBRANCH  76  78
ENDBRANCH  69  72
ENDBRANCH  67  68
ENDBRANCH  66  67
ENDBRANCH  59  62
ENDBRANCH   1  58
TORSDOF 14
ENDMDL
