MODEL 1
REMARK VINA RESULT:     -11.4      0.000      0.000
REMARK SMILES CC(=O)O[C@@H]1[C@H](O)C(C)=C(CC[C@@H](C)CC(=O)NCCCNC(=O)c2ccc(-c3c4nc(c(-c5ccccc5)c5ccc([nH]5)c(-c5ccccc5)c5nc(c(-c6ccccc6)c6ccc3[nH]6)C=C5)C=C4)cc2)[C@@]2(C)CCCC(C)(C)[C@H]12
REMARK SMILES IDX 16 1 17 2 18 3 15 5 13 6 14 7 12 8 11 9 10 10 5 11 6 12
REMARK SMILES IDX 81 13 8 14 73 15 78 16 9 17 75 18 74 19 77 20 79 21 80 22
REMARK SMILES IDX 76 23 4 24 2 25 1 26 3 27 7 28 19 30 20 31 21 32 22 33 23 34
REMARK SMILES IDX 24 36 25 37 26 38 72 39 27 40 71 41 28 42 29 43 30 44 65 45
REMARK SMILES IDX 31 46 70 47 64 48 66 49 32 50 69 51 63 52 62 53 33 55 55 56
REMARK SMILES IDX 40 57 54 58 41 59 44 60 53 61 67 62 42 63 43 64 52 66 68 67
REMARK SMILES IDX 45 68 34 69 35 70 39 71 36 72 38 73 37 74 56 75 57 76 61 77
REMARK SMILES IDX 58 78 60 79 59 80 46 81 47 82 51 83 48 84 50 85 49 86
REMARK H PARENT 18 4 7 29 22 35 66 54 44 65
REMARK Flexibility Score: inf
ROOT
ATOM      1  C   UNL A   1      37.415  23.360  25.857  1.00  0.00     0.220 C 
ATOM      2  O   UNL A   1      38.039  24.194  26.518  1.00  0.00    -0.275 OA
ATOM      3  N   UNL A   1      38.123  22.302  25.356  1.00  0.00    -0.356 N 
ATOM      4  H   UNL A   1      39.068  22.285  25.634  1.00  0.00     0.163 HD
ENDROOT
BRANCH   1   5
ATOM      5  C   UNL A   1      35.915  23.523  25.618  1.00  0.00     0.103 C 
BRANCH   5   6
ATOM      6  C   UNL A   1      35.049  22.681  26.580  1.00  0.00    -0.005 C 
ATOM      7  C   UNL A   1      34.645  21.345  25.953  1.00  0.00     0.008 C 
BRANCH   6   8
ATOM      8  C   UNL A   1      33.794  23.469  26.939  1.00  0.00     0.008 C 
BRANCH   8   9
ATOM      9  C   UNL A   1      33.501  24.744  26.175  1.00  0.00     0.032 C 
BRANCH   9  10
ATOM     10  C   UNL A   1      32.354  24.596  25.124  1.00  0.00    -0.062 C 
ATOM     11  C   UNL A   1      33.592  25.782  22.745  1.00  0.00     0.213 C 
ATOM     12  C   UNL A   1      33.807  24.302  23.176  1.00  0.00     0.181 C 
ATOM     13  C   UNL A   1      32.883  26.674  23.846  1.00  0.00     0.049 C 
ATOM     14  C   UNL A   1      32.659  23.826  24.032  1.00  0.00    -0.042 C 
ATOM     15  C   UNL A   1      31.721  26.016  24.751  1.00  0.00    -0.004 C 
ATOM     16  C   UNL A   1      32.962  28.231  23.742  1.00  0.00    -0.028 C 
ATOM     17  C   UNL A   1      31.726  22.844  23.371  1.00  0.00     0.042 C 
ATOM     18  C   UNL A   1      31.341  26.922  25.998  1.00  0.00     0.011 C 
ATOM     19  C   UNL A   1      30.317  25.751  24.140  1.00  0.00     0.016 C 
ATOM     20  C   UNL A   1      32.988  28.739  25.210  1.00  0.00     0.007 C 
ATOM     21  C   UNL A   1      31.825  28.926  22.986  1.00  0.00     0.011 C 
ATOM     22  C   UNL A   1      34.293  28.667  23.086  1.00  0.00     0.011 C 
ATOM     23  C   UNL A   1      31.712  28.405  25.959  1.00  0.00     0.001 C 
BRANCH  11  24
ATOM     24  O   UNL A   1      33.422  25.989  21.319  1.00  0.00    -0.459 OA
BRANCH  24  25
ATOM     25  C   UNL A   1      32.331  25.911  20.537  1.00  0.00     0.303 C 
ATOM     26  C   UNL A   1      32.521  25.318  19.195  1.00  0.00     0.139 C 
ATOM     27  O   UNL A   1      31.221  26.187  20.970  1.00  0.00    -0.253 OA
ENDBRANCH  24  25
ENDBRANCH  11  24
BRANCH  12  28
ATOM     28  O   UNL A   1      34.084  23.420  22.102  1.00  0.00    -0.385 OA
ATOM     29  H   UNL A   1      33.689  23.768  21.287  1.00  0.00     0.211 HD
ENDBRANCH  12  28
ENDBRANCH   9  10
ENDBRANCH   8   9
ENDBRANCH   6   8
ENDBRANCH   5   6
ENDBRANCH   1   5
BRANCH   3  30
ATOM     30  C   UNL A   1      37.738  21.195  24.487  1.00  0.00     0.117 C 
BRANCH  30  31
ATOM     31  C   UNL A   1      38.407  19.874  24.904  1.00  0.00     0.042 C 
BRANCH  31  32
ATOM     32  C   UNL A   1      39.309  19.963  26.120  1.00  0.00     0.118 C 
BRANCH  32  33
ATOM     33  N   UNL A   1      40.496  19.145  25.974  1.00  0.00    -0.352 N 
ATOM     34  C   UNL A   1      41.823  19.501  25.985  1.00  0.00     0.251 C 
ATOM     35  H   UNL A   1      40.325  18.184  25.846  1.00  0.00     0.163 HD
ATOM     36  O   UNL A   1      42.656  18.688  25.598  1.00  0.00    -0.269 OA
BRANCH  34  37
ATOM     37  C   UNL A   1      42.268  20.842  26.446  1.00  0.00     0.039 A 
ATOM     38  C   UNL A   1      42.227  21.119  27.818  1.00  0.00     0.014 A 
ATOM     39  C   UNL A   1      42.643  21.851  25.556  1.00  0.00     0.014 A 
ATOM     40  C   UNL A   1      42.585  22.385  28.293  1.00  0.00     0.010 A 
ATOM     41  C   UNL A   1      43.086  23.084  26.035  1.00  0.00     0.010 A 
ATOM     42  C   UNL A   1      43.036  23.374  27.407  1.00  0.00    -0.014 A 
BRANCH  42  43
ATOM     43  C   UNL A   1      43.416  24.730  27.885  1.00  0.00     0.031 A 
ATOM     44  C   UNL A   1      42.350  25.757  28.166  1.00  0.00     0.074 A 
ATOM     45  C   UNL A   1      44.715  25.056  28.023  1.00  0.00     0.049 A 
ATOM     46  N   UNL A   1      42.482  27.010  28.524  1.00  0.00    -0.248 NA
ATOM     47  C   UNL A   1      40.952  25.327  28.002  1.00  0.00     0.031 C 
ATOM     48  C   UNL A   1      45.847  24.162  27.766  1.00  0.00     0.029 A 
ATOM     49  N   UNL A   1      45.304  26.233  28.412  1.00  0.00    -0.354 N 
ATOM     50  C   UNL A   1      41.191  27.520  28.603  1.00  0.00     0.074 A 
ATOM     51  C   UNL A   1      40.293  26.457  28.210  1.00  0.00     0.031 C 
ATOM     52  C   UNL A   1      46.991  24.815  28.029  1.00  0.00     0.029 A 
ATOM     53  C   UNL A   1      46.677  26.184  28.428  1.00  0.00     0.049 A 
ATOM     54  H   UNL A   1      44.791  27.037  28.656  1.00  0.00     0.167 HD
ATOM     55  C   UNL A   1      40.785  28.754  28.986  1.00  0.00     0.031 A 
ATOM     56  C   UNL A   1      47.584  27.136  28.721  1.00  0.00     0.031 A 
ATOM     57  C   UNL A   1      41.676  29.809  29.390  1.00  0.00     0.049 A 
ATOM     58  C   UNL A   1      47.109  28.508  29.117  1.00  0.00     0.074 A 
ATOM     59  C   UNL A   1      41.360  31.078  29.841  1.00  0.00     0.029 A 
ATOM     60  N   UNL A   1      43.059  29.716  29.390  1.00  0.00    -0.354 N 
ATOM     61  N   UNL A   1      45.883  28.956  29.240  1.00  0.00    -0.248 NA
ATOM     62  C   UNL A   1      48.147  29.503  29.425  1.00  0.00     0.031 C 
ATOM     63  C   UNL A   1      42.553  31.773  30.060  1.00  0.00     0.029 A 
ATOM     64  C   UNL A   1      43.612  30.914  29.808  1.00  0.00     0.049 A 
ATOM     65  H   UNL A   1      43.572  28.917  29.130  1.00  0.00     0.167 HD
ATOM     66  C   UNL A   1      46.000  30.271  29.670  1.00  0.00     0.074 A 
ATOM     67  C   UNL A   1      47.416  30.545  29.799  1.00  0.00     0.031 C 
ATOM     68  C   UNL A   1      45.023  31.171  29.937  1.00  0.00     0.031 A 
BRANCH  55  69
ATOM     69  C   UNL A   1      39.306  29.036  28.972  1.00  0.00    -0.014 A 
ATOM     70  C   UNL A   1      38.667  29.528  27.822  1.00  0.00     0.009 A 
ATOM     71  C   UNL A   1      38.535  28.773  30.115  1.00  0.00     0.009 A 
ATOM     72  C   UNL A   1      37.294  29.786  27.830  1.00  0.00     0.001 A 
ATOM     73  C   UNL A   1      37.157  29.003  30.110  1.00  0.00     0.001 A 
ATOM     74  C   UNL A   1      36.540  29.519  28.973  1.00  0.00     0.000 A 
ENDBRANCH  55  69
BRANCH  56  75
ATOM     75  C   UNL A   1      49.036  26.825  28.658  1.00  0.00    -0.014 A 
ATOM     76  C   UNL A   1      49.725  26.405  29.806  1.00  0.00     0.009 A 
ATOM     77  C   UNL A   1      49.744  26.956  27.452  1.00  0.00     0.009 A 
ATOM     78  C   UNL A   1      51.098  26.150  29.754  1.00  0.00     0.001 A 
ATOM     79  C   UNL A   1      51.109  26.668  27.397  1.00  0.00     0.001 A 
ATOM     80  C   UNL A   1      51.786  26.276  28.550  1.00  0.00     0.000 A 
ENDBRANCH  56  75
BRANCH  68  81
ATOM     81  C   UNL A   1      45.444  32.523  30.440  1.00  0.00    -0.014 A 
ATOM     82  C   UNL A   1      45.643  32.769  31.808  1.00  0.00     0.009 A 
ATOM     83  C   UNL A   1      45.696  33.554  29.520  1.00  0.00     0.009 A 
ATOM     84  C   UNL A   1      46.057  34.029  32.245  1.00  0.00     0.001 A 
ATOM     85  C   UNL A   1      46.140  34.802  29.958  1.00  0.00     0.001 A 
ATOM     86  C   UNL A   1      46.313  35.041  31.321  1.00  0.00     0.000 A 
ENDBRANCH  68  81
ENDBRANCH  42  43
ENDBRANCH  34  37
ENDBRANCH  32  33
ENDBRANCH  31  32
ENDBRANCH  30  31
ENDBRANCH   3  30
TORSDOF 17
ENDMDL
MODEL 2
REMARK VINA RESULT:     -11.1      5.607     10.152
REMARK SMILES CC(=O)O[C@@H]1[C@H](O)C(C)=C(CC[C@@H](C)CC(=O)NCCCNC(=O)c2ccc(-c3c4nc(c(-c5ccccc5)c5ccc([nH]5)c(-c5ccccc5)c5nc(c(-c6ccccc6)c6ccc3[nH]6)C=C5)C=C4)cc2)[C@@]2(C)CCCC(C)(C)[C@H]12
REMARK SMILES IDX 16 1 17 2 18 3 15 5 13 6 14 7 12 8 11 9 10 10 5 11 6 12
REMARK SMILES IDX 81 13 8 14 73 15 78 16 9 17 75 18 74 19 77 20 79 21 80 22
REMARK SMILES IDX 76 23 4 24 2 25 1 26 3 27 7 28 19 30 20 31 21 32 22 33 23 34
REMARK SMILES IDX 24 36 25 37 26 38 72 39 27 40 71 41 28 42 29 43 30 44 65 45
REMARK SMILES IDX 31 46 70 47 64 48 66 49 32 50 69 51 63 52 62 53 33 55 55 56
REMARK SMILES IDX 40 57 54 58 41 59 44 60 53 61 67 62 42 63 43 64 52 66 68 67
REMARK SMILES IDX 45 68 34 69 35 70 39 71 36 72 38 73 37 74 56 75 57 76 61 77
REMARK SMILES IDX 58 78 60 79 59 80 46 81 47 82 51 83 48 84 50 85 49 86
REMARK H PARENT 18 4 7 29 22 35 66 54 44 65
REMARK Flexibility Score: inf
ROOT
ATOM      1  C   UNL A   1      35.636  32.521  28.027  1.00  0.00     0.220 C 
ATOM      2  O   UNL A   1      36.864  32.436  27.955  1.00  0.00    -0.275 OA
ATOM      3  N   UNL A   1      35.079  33.751  27.808  1.00  0.00    -0.356 N 
ATOM      4  H   UNL A   1      35.728  34.445  27.551  1.00  0.00     0.163 HD
ENDROOT
BRANCH   1   5
ATOM      5  C   UNL A   1      34.791  31.289  28.348  1.00  0.00     0.103 C 
BRANCH   5   6
ATOM      6  C   UNL A   1      34.131  30.659  27.102  1.00  0.00    -0.005 C 
ATOM      7  C   UNL A   1      32.619  30.507  27.280  1.00  0.00     0.008 C 
BRANCH   6   8
ATOM      8  C   UNL A   1      34.748  29.288  26.851  1.00  0.00     0.008 C 
BRANCH   8   9
ATOM      9  C   UNL A   1      33.826  28.133  26.517  1.00  0.00     0.032 C 
BRANCH   9  10
ATOM     10  C   UNL A   1      33.827  27.748  25.003  1.00  0.00    -0.062 C 
ATOM     11  C   UNL A   1      30.957  27.457  24.478  1.00  0.00     0.213 C 
ATOM     12  C   UNL A   1      31.700  28.824  24.447  1.00  0.00     0.181 C 
ATOM     13  C   UNL A   1      31.813  26.275  25.093  1.00  0.00     0.049 C 
ATOM     14  C   UNL A   1      33.171  28.624  24.178  1.00  0.00    -0.042 C 
ATOM     15  C   UNL A   1      33.398  26.223  24.791  1.00  0.00    -0.004 C 
ATOM     16  C   UNL A   1      31.097  24.969  25.564  1.00  0.00    -0.028 C 
ATOM     17  C   UNL A   1      33.639  29.047  22.809  1.00  0.00     0.042 C 
ATOM     18  C   UNL A   1      34.155  25.184  25.722  1.00  0.00     0.011 C 
ATOM     19  C   UNL A   1      33.907  25.788  23.388  1.00  0.00     0.016 C 
ATOM     20  C   UNL A   1      31.920  24.465  26.782  1.00  0.00     0.007 C 
ATOM     21  C   UNL A   1      30.976  23.843  24.533  1.00  0.00     0.011 C 
ATOM     22  C   UNL A   1      29.672  25.285  26.078  1.00  0.00     0.011 C 
ATOM     23  C   UNL A   1      33.338  24.084  26.400  1.00  0.00     0.001 C 
BRANCH  11  24
ATOM     24  O   UNL A   1      29.974  27.268  23.427  1.00  0.00    -0.459 OA
BRANCH  24  25
ATOM     25  C   UNL A   1      28.714  27.718  23.301  1.00  0.00     0.303 C 
ATOM     26  C   UNL A   1      27.642  26.836  23.814  1.00  0.00     0.139 C 
ATOM     27  O   UNL A   1      28.484  28.856  22.915  1.00  0.00    -0.253 OA
ENDBRANCH  24  25
ENDBRANCH  11  24
BRANCH  12  28
ATOM     28  O   UNL A   1      31.115  29.782  23.582  1.00  0.00    -0.385 OA
ATOM     29  H   UNL A   1      31.792  30.129  22.979  1.00  0.00     0.211 HD
ENDBRANCH  12  28
ENDBRANCH   9  10
ENDBRANCH   8   9
ENDBRANCH   6   8
ENDBRANCH   5   6
ENDBRANCH   1   5
BRANCH   3  30
ATOM     30  C   UNL A   1      33.701  34.225  27.886  1.00  0.00     0.117 C 
BRANCH  30  31
ATOM     31  C   UNL A   1      33.287  34.559  29.330  1.00  0.00     0.042 C 
BRANCH  31  32
ATOM     32  C   UNL A   1      33.261  36.037  29.668  1.00  0.00     0.118 C 
BRANCH  32  33
ATOM     33  N   UNL A   1      32.526  36.299  30.889  1.00  0.00    -0.352 N 
ATOM     34  C   UNL A   1      32.682  35.771  32.148  1.00  0.00     0.251 C 
ATOM     35  H   UNL A   1      31.801  36.959  30.803  1.00  0.00     0.163 HD
ATOM     36  O   UNL A   1      31.796  35.948  32.977  1.00  0.00    -0.269 OA
BRANCH  34  37
ATOM     37  C   UNL A   1      33.890  34.991  32.522  1.00  0.00     0.039 A 
ATOM     38  C   UNL A   1      35.143  35.602  32.390  1.00  0.00     0.014 A 
ATOM     39  C   UNL A   1      33.822  33.653  32.919  1.00  0.00     0.014 A 
ATOM     40  C   UNL A   1      36.310  34.889  32.680  1.00  0.00     0.010 A 
ATOM     41  C   UNL A   1      34.978  32.969  33.294  1.00  0.00     0.010 A 
ATOM     42  C   UNL A   1      36.238  33.570  33.153  1.00  0.00    -0.014 A 
BRANCH  42  43
ATOM     43  C   UNL A   1      37.464  32.788  33.460  1.00  0.00     0.031 A 
ATOM     44  C   UNL A   1      38.216  33.036  34.742  1.00  0.00     0.074 A 
ATOM     45  C   UNL A   1      37.931  31.891  32.571  1.00  0.00     0.049 A 
ATOM     46  N   UNL A   1      39.339  32.507  35.158  1.00  0.00    -0.248 NA
ATOM     47  C   UNL A   1      37.642  34.025  35.669  1.00  0.00     0.031 C 
ATOM     48  C   UNL A   1      37.310  31.569  31.285  1.00  0.00     0.029 A 
ATOM     49  N   UNL A   1      39.042  31.085  32.615  1.00  0.00    -0.354 N 
ATOM     50  C   UNL A   1      39.616  33.114  36.378  1.00  0.00     0.074 A 
ATOM     51  C   UNL A   1      38.571  34.086  36.612  1.00  0.00     0.031 C 
ATOM     52  C   UNL A   1      38.034  30.616  30.674  1.00  0.00     0.029 A 
ATOM     53  C   UNL A   1      39.192  30.293  31.502  1.00  0.00     0.049 A 
ATOM     54  H   UNL A   1      39.671  31.075  33.372  1.00  0.00     0.167 HD
ATOM     55  C   UNL A   1      40.636  32.875  37.236  1.00  0.00     0.031 A 
ATOM     56  C   UNL A   1      40.159  29.412  31.179  1.00  0.00     0.031 A 
ATOM     57  C   UNL A   1      41.670  31.900  37.011  1.00  0.00     0.049 A 
ATOM     58  C   UNL A   1      41.297  29.184  32.136  1.00  0.00     0.074 A 
ATOM     59  C   UNL A   1      42.719  31.549  37.843  1.00  0.00     0.029 A 
ATOM     60  N   UNL A   1      41.784  31.121  35.871  1.00  0.00    -0.354 N 
ATOM     61  N   UNL A   1      41.512  29.727  33.310  1.00  0.00    -0.248 NA
ATOM     62  C   UNL A   1      42.319  28.210  31.727  1.00  0.00     0.031 C 
ATOM     63  C   UNL A   1      43.501  30.598  37.181  1.00  0.00     0.029 A 
ATOM     64  C   UNL A   1      42.902  30.309  35.965  1.00  0.00     0.049 A 
ATOM     65  H   UNL A   1      41.164  31.143  35.107  1.00  0.00     0.167 HD
ATOM     66  C   UNL A   1      42.674  29.139  33.793  1.00  0.00     0.074 A 
ATOM     67  C   UNL A   1      43.110  28.189  32.791  1.00  0.00     0.031 C 
ATOM     68  C   UNL A   1      43.321  29.364  34.963  1.00  0.00     0.031 A 
BRANCH  55  69
ATOM     69  C   UNL A   1      40.692  33.695  38.497  1.00  0.00    -0.014 A 
ATOM     70  C   UNL A   1      40.068  33.263  39.679  1.00  0.00     0.009 A 
ATOM     71  C   UNL A   1      41.410  34.902  38.514  1.00  0.00     0.009 A 
ATOM     72  C   UNL A   1      40.129  34.041  40.838  1.00  0.00     0.001 A 
ATOM     73  C   UNL A   1      41.496  35.661  39.682  1.00  0.00     0.001 A 
ATOM     74  C   UNL A   1      40.847  35.236  40.840  1.00  0.00     0.000 A 
ENDBRANCH  55  69
BRANCH  56  75
ATOM     75  C   UNL A   1      40.091  28.673  29.891  1.00  0.00    -0.014 A 
ATOM     76  C   UNL A   1      40.621  29.234  28.719  1.00  0.00     0.009 A 
ATOM     77  C   UNL A   1      39.489  27.406  29.824  1.00  0.00     0.009 A 
ATOM     78  C   UNL A   1      40.523  28.555  27.502  1.00  0.00     0.001 A 
ATOM     79  C   UNL A   1      39.423  26.716  28.612  1.00  0.00     0.001 A 
ATOM     80  C   UNL A   1      39.930  27.296  27.451  1.00  0.00     0.000 A 
ENDBRANCH  56  75
BRANCH  68  81
ATOM     81  C   UNL A   1      44.544  28.538  35.248  1.00  0.00    -0.014 A 
ATOM     82  C   UNL A   1      44.452  27.268  35.837  1.00  0.00     0.009 A 
ATOM     83  C   UNL A   1      45.807  29.024  34.872  1.00  0.00     0.009 A 
ATOM     84  C   UNL A   1      45.603  26.513  36.069  1.00  0.00     0.001 A 
ATOM     85  C   UNL A   1      46.952  28.253  35.077  1.00  0.00     0.001 A 
ATOM     86  C   UNL A   1      46.850  27.002  35.683  1.00  0.00     0.000 A 
ENDBRANCH  68  81
ENDBRANCH  42  43
ENDBRANCH  34  37
ENDBRANCH  32  33
ENDBRANCH  31  32
ENDBRANCH  30  31
ENDBRANCH   3  30
TORSDOF 17
ENDMDL
MODEL 3
REMARK VINA RESULT:     -11.1      1.181      5.840
REMARK SMILES CC(=O)O[C@@H]1[C@H](O)C(C)=C(CC[C@@H](C)CC(=O)NCCCNC(=O)c2ccc(-c3c4nc(c(-c5ccccc5)c5ccc([nH]5)c(-c5ccccc5)c5nc(c(-c6ccccc6)c6ccc3[nH]6)C=C5)C=C4)cc2)[C@@]2(C)CCCC(C)(C)[C@H]12
REMARK SMILES IDX 16 1 17 2 18 3 15 5 13 6 14 7 12 8 11 9 10 10 5 11 6 12
REMARK SMILES IDX 81 13 8 14 73 15 78 16 9 17 75 18 74 19 77 20 79 21 80 22
REMARK SMILES IDX 76 23 4 24 2 25 1 26 3 27 7 28 19 30 20 31 21 32 22 33 23 34
REMARK SMILES IDX 24 36 25 37 26 38 72 39 27 40 71 41 28 42 29 43 30 44 65 45
REMARK SMILES IDX 31 46 70 47 64 48 66 49 32 50 69 51 63 52 62 53 33 55 55 56
REMARK SMILES IDX 40 57 54 58 41 59 44 60 53 61 67 62 42 63 43 64 52 66 68 67
REMARK SMILES IDX 45 68 34 69 35 70 39 71 36 72 38 73 37 74 56 75 57 76 61 77
REMARK SMILES IDX 58 78 60 79 59 80 46 81 47 82 51 83 48 84 50 85 49 86
REMARK H PARENT 18 4 7 29 22 35 66 54 44 65
REMARK Flexibility Score: inf
ROOT
ATOM      1  C   UNL A   1      37.590  22.734  25.864  1.00  0.00     0.220 C 
ATOM      2  O   UNL A   1      38.058  23.718  26.441  1.00  0.00    -0.275 OA
ATOM      3  N   UNL A   1      38.414  21.655  25.698  1.00  0.00    -0.356 N 
ATOM      4  H   UNL A   1      39.298  21.757  26.120  1.00  0.00     0.163 HD
ENDROOT
BRANCH   1   5
ATOM      5  C   UNL A   1      36.147  22.742  25.362  1.00  0.00     0.103 C 
BRANCH   5   6
ATOM      6  C   UNL A   1      35.171  21.996  26.298  1.00  0.00    -0.005 C 
ATOM      7  C   UNL A   1      34.443  20.866  25.569  1.00  0.00     0.008 C 
BRANCH   6   8
ATOM      8  C   UNL A   1      34.147  22.987  26.841  1.00  0.00     0.008 C 
BRANCH   8   9
ATOM      9  C   UNL A   1      33.945  24.293  26.100  1.00  0.00     0.032 C 
BRANCH   9  10
ATOM     10  C   UNL A   1      32.689  24.298  25.170  1.00  0.00    -0.062 C 
ATOM     11  C   UNL A   1      33.716  25.720  22.820  1.00  0.00     0.213 C 
ATOM     12  C   UNL A   1      33.918  24.195  23.055  1.00  0.00     0.181 C 
ATOM     13  C   UNL A   1      33.160  26.496  24.085  1.00  0.00     0.049 C 
ATOM     14  C   UNL A   1      32.849  23.652  23.971  1.00  0.00    -0.042 C 
ATOM     15  C   UNL A   1      32.075  25.767  25.031  1.00  0.00    -0.004 C 
ATOM     16  C   UNL A   1      33.287  28.052  24.150  1.00  0.00    -0.028 C 
ATOM     17  C   UNL A   1      31.814  22.779  23.309  1.00  0.00     0.042 C 
ATOM     18  C   UNL A   1      31.863  26.532  26.405  1.00  0.00     0.011 C 
ATOM     19  C   UNL A   1      30.606  25.612  24.549  1.00  0.00     0.016 C 
ATOM     20  C   UNL A   1      33.487  28.385  25.654  1.00  0.00     0.007 C 
ATOM     21  C   UNL A   1      32.105  28.859  23.605  1.00  0.00     0.011 C 
ATOM     22  C   UNL A   1      34.558  28.527  23.406  1.00  0.00     0.011 C 
ATOM     23  C   UNL A   1      32.284  27.999  26.494  1.00  0.00     0.001 C 
BRANCH  11  24
ATOM     24  O   UNL A   1      33.405  26.096  21.453  1.00  0.00    -0.459 OA
BRANCH  24  25
ATOM     25  C   UNL A   1      32.263  26.010  20.749  1.00  0.00     0.303 C 
ATOM     26  C   UNL A   1      32.349  25.345  19.430  1.00  0.00     0.139 C 
ATOM     27  O   UNL A   1      31.191  26.338  21.239  1.00  0.00    -0.253 OA
ENDBRANCH  24  25
ENDBRANCH  11  24
BRANCH  12  28
ATOM     28  O   UNL A   1      34.047  23.437  21.865  1.00  0.00    -0.385 OA
ATOM     29  H   UNL A   1      33.391  22.723  21.862  1.00  0.00     0.211 HD
ENDBRANCH  12  28
ENDBRANCH   9  10
ENDBRANCH   8   9
ENDBRANCH   6   8
ENDBRANCH   5   6
ENDBRANCH   1   5
BRANCH   3  30
ATOM     30  C   UNL A   1      38.227  20.382  25.010  1.00  0.00     0.117 C 
BRANCH  30  31
ATOM     31  C   UNL A   1      39.207  19.307  25.508  1.00  0.00     0.042 C 
BRANCH  31  32
ATOM     32  C   UNL A   1      40.288  19.805  26.449  1.00  0.00     0.118 C 
BRANCH  32  33
ATOM     33  N   UNL A   1      41.617  19.535  25.937  1.00  0.00    -0.352 N 
ATOM     34  C   UNL A   1      42.685  20.380  25.757  1.00  0.00     0.251 C 
ATOM     35  H   UNL A   1      41.779  18.600  25.677  1.00  0.00     0.163 HD
ATOM     36  O   UNL A   1      43.634  19.998  25.082  1.00  0.00    -0.269 OA
BRANCH  34  37
ATOM     37  C   UNL A   1      42.712  21.741  26.355  1.00  0.00     0.039 A 
ATOM     38  C   UNL A   1      42.853  22.840  25.498  1.00  0.00     0.014 A 
ATOM     39  C   UNL A   1      42.683  21.951  27.735  1.00  0.00     0.014 A 
ATOM     40  C   UNL A   1      42.936  24.134  26.019  1.00  0.00     0.010 A 
ATOM     41  C   UNL A   1      42.676  23.247  28.251  1.00  0.00     0.010 A 
ATOM     42  C   UNL A   1      42.829  24.352  27.401  1.00  0.00    -0.014 A 
BRANCH  42  43
ATOM     43  C   UNL A   1      42.922  25.718  27.981  1.00  0.00     0.031 A 
ATOM     44  C   UNL A   1      44.249  26.245  28.463  1.00  0.00     0.074 A 
ATOM     45  C   UNL A   1      41.812  26.468  28.119  1.00  0.00     0.049 A 
ATOM     46  N   UNL A   1      44.522  27.379  29.059  1.00  0.00    -0.248 NA
ATOM     47  C   UNL A   1      45.419  25.373  28.272  1.00  0.00     0.031 C 
ATOM     48  C   UNL A   1      40.463  26.070  27.711  1.00  0.00     0.029 A 
ATOM     49  N   UNL A   1      41.643  27.725  28.645  1.00  0.00    -0.354 N 
ATOM     50  C   UNL A   1      45.885  27.345  29.332  1.00  0.00     0.074 A 
ATOM     51  C   UNL A   1      46.374  26.061  28.883  1.00  0.00     0.031 C 
ATOM     52  C   UNL A   1      39.610  27.073  27.978  1.00  0.00     0.029 A 
ATOM     53  C   UNL A   1      40.341  28.163  28.617  1.00  0.00     0.049 A 
ATOM     54  H   UNL A   1      42.384  28.260  29.010  1.00  0.00     0.167 HD
ATOM     55  C   UNL A   1      46.665  28.302  29.890  1.00  0.00     0.031 A 
ATOM     56  C   UNL A   1      39.794  29.310  29.064  1.00  0.00     0.031 A 
ATOM     57  C   UNL A   1      46.183  29.586  30.325  1.00  0.00     0.049 A 
ATOM     58  C   UNL A   1      40.677  30.346  29.705  1.00  0.00     0.074 A 
ATOM     59  C   UNL A   1      46.903  30.641  30.858  1.00  0.00     0.029 A 
ATOM     60  N   UNL A   1      44.858  29.987  30.279  1.00  0.00    -0.354 N 
ATOM     61  N   UNL A   1      41.972  30.319  29.905  1.00  0.00    -0.248 NA
ATOM     62  C   UNL A   1      40.021  31.577  30.171  1.00  0.00     0.031 C 
ATOM     63  C   UNL A   1      46.005  31.660  31.187  1.00  0.00     0.029 A 
ATOM     64  C   UNL A   1      44.734  31.265  30.798  1.00  0.00     0.049 A 
ATOM     65  H   UNL A   1      44.114  29.445  29.930  1.00  0.00     0.167 HD
ATOM     66  C   UNL A   1      42.291  31.538  30.489  1.00  0.00     0.074 A 
ATOM     67  C   UNL A   1      41.056  32.286  30.600  1.00  0.00     0.031 C 
ATOM     68  C   UNL A   1      43.499  31.999  30.896  1.00  0.00     0.031 A 
BRANCH  55  69
ATOM     69  C   UNL A   1      48.126  27.989  30.074  1.00  0.00    -0.014 A 
ATOM     70  C   UNL A   1      48.601  27.383  31.250  1.00  0.00     0.009 A 
ATOM     71  C   UNL A   1      49.036  28.270  29.043  1.00  0.00     0.009 A 
ATOM     72  C   UNL A   1      49.961  27.104  31.403  1.00  0.00     0.001 A 
ATOM     73  C   UNL A   1      50.390  27.960  29.186  1.00  0.00     0.001 A 
ATOM     74  C   UNL A   1      50.853  27.388  30.369  1.00  0.00     0.000 A 
ENDBRANCH  55  69
BRANCH  56  75
ATOM     75  C   UNL A   1      38.333  29.545  28.916  1.00  0.00    -0.014 A 
ATOM     76  C   UNL A   1      37.466  29.350  30.002  1.00  0.00     0.009 A 
ATOM     77  C   UNL A   1      37.797  29.958  27.685  1.00  0.00     0.009 A 
ATOM     78  C   UNL A   1      36.090  29.534  29.851  1.00  0.00     0.001 A 
ATOM     79  C   UNL A   1      36.424  30.173  27.547  1.00  0.00     0.001 A 
ATOM     80  C   UNL A   1      35.571  29.951  28.627  1.00  0.00     0.000 A 
ENDBRANCH  56  75
BRANCH  68  81
ATOM     81  C   UNL A   1      43.557  33.393  31.457  1.00  0.00    -0.014 A 
ATOM     82  C   UNL A   1      43.449  33.635  32.835  1.00  0.00     0.009 A 
ATOM     83  C   UNL A   1      43.778  34.476  30.591  1.00  0.00     0.009 A 
ATOM     84  C   UNL A   1      43.529  34.938  33.330  1.00  0.00     0.001 A 
ATOM     85  C   UNL A   1      43.889  35.773  31.093  1.00  0.00     0.001 A 
ATOM     86  C   UNL A   1      43.757  36.004  32.461  1.00  0.00     0.000 A 
ENDBRANCH  68  81
ENDBRANCH  42  43
ENDBRANCH  34  37
ENDBRANCH  32  33
ENDBRANCH  31  32
ENDBRANCH  30  31
ENDBRANCH   3  30
TORSDOF 17
ENDMDL
