MODEL 1
REMARK VINA RESULT:      -9.7      0.000      0.000
REMARK SMILES C#CC[C@@H](C(=O)NCCCNC(=O)c1ccc(-c2c3nc(c(-c4ccccc4)c4ccc([nH]4)c(-c4ccccc4)c4nc(c(-c5ccccc5)c5ccc2[nH]5)C=C4)C=C3)cc1)c1cccc(Br)c1
REMARK SMILES IDX 9 1 8 2 7 3 5 4 6 5 4 7 3 8 2 9 1 10 62 11 63 12 68 13 64 14
REMARK SMILES IDX 66 15 65 16 67 17 10 18 11 19 12 20 13 22 14 23 15 24 61 25
REMARK SMILES IDX 16 26 60 27 17 28 18 29 19 30 54 31 20 32 59 33 53 34 55 35
REMARK SMILES IDX 21 36 58 37 52 38 51 39 22 41 44 42 29 43 43 44 30 45 33 46
REMARK SMILES IDX 42 47 56 48 31 49 32 50 41 52 57 53 34 54 23 55 24 56 28 57
REMARK SMILES IDX 25 58 27 59 26 60 45 61 46 62 50 63 47 64 49 65 48 66 35 67
REMARK SMILES IDX 36 68 40 69 37 70 39 71 38 72
REMARK H PARENT 7 6 11 21 55 40 33 51
REMARK Flexibility Score: inf
ROOT
ATOM      1  C   UNL A   1      32.926  28.179  27.407  1.00  0.00     0.042 C 
ENDROOT
BRANCH   1   2
ATOM      2  C   UNL A   1      31.629  27.510  26.915  1.00  0.00     0.117 C 
BRANCH   2   3
ATOM      3  N   UNL A   1      31.778  26.060  26.831  1.00  0.00    -0.355 N 
ATOM      4  C   UNL A   1      32.434  25.249  25.943  1.00  0.00     0.228 C 
ATOM      5  O   UNL A   1      32.174  24.043  26.022  1.00  0.00    -0.274 OA
ATOM      6  H   UNL A   1      31.319  25.570  27.552  1.00  0.00     0.163 HD
BRANCH   4   7
ATOM      7  C   UNL A   1      33.470  25.785  24.923  1.00  0.00     0.120 C 
BRANCH   7   8
ATOM      8  C   UNL A   1      32.756  26.321  23.663  1.00  0.00     0.107 C 
BRANCH   8   9
ATOM      9  C   UNL A   1      33.442  27.576  23.148  1.00  0.00    -0.106 C 
ATOM     10  C   UNL A   1      34.031  28.652  22.705  1.00  0.00     0.004 C 
ENDBRANCH   8   9
ENDBRANCH   7   8
BRANCH   7  11
ATOM     11  C   UNL A   1      34.503  24.689  24.586  1.00  0.00    -0.034 A 
ATOM     12  C   UNL A   1      34.337  23.930  23.414  1.00  0.00     0.004 A 
ATOM     13  C   UNL A   1      35.632  24.422  25.385  1.00  0.00     0.020 A 
ATOM     14  C   UNL A   1      35.271  22.954  23.046  1.00  0.00     0.001 A 
ATOM     15  C   UNL A   1      36.553  23.436  25.020  1.00  0.00     0.018 A 
ATOM     16  C   UNL A   1      36.381  22.705  23.850  1.00  0.00     0.016 A 
ATOM     17  Br  UNL A   1      38.052  23.103  26.125  1.00  0.00    -0.051 Br
ENDBRANCH   7  11
ENDBRANCH   4   7
ENDBRANCH   2   3
ENDBRANCH   1   2
BRANCH   1  18
ATOM     18  C   UNL A   1      33.402  29.393  26.611  1.00  0.00     0.118 C 
BRANCH  18  19
ATOM     19  N   UNL A   1      33.552  30.569  27.458  1.00  0.00    -0.352 N 
ATOM     20  C   UNL A   1      34.525  30.987  28.335  1.00  0.00     0.251 C 
ATOM     21  H   UNL A   1      32.798  31.199  27.386  1.00  0.00     0.163 HD
ATOM     22  O   UNL A   1      34.235  31.920  29.090  1.00  0.00    -0.269 OA
BRANCH  20  23
ATOM     23  C   UNL A   1      35.889  30.393  28.446  1.00  0.00     0.039 A 
ATOM     24  C   UNL A   1      36.282  29.893  29.700  1.00  0.00     0.014 A 
ATOM     25  C   UNL A   1      36.842  30.434  27.429  1.00  0.00     0.014 A 
ATOM     26  C   UNL A   1      37.587  29.423  29.923  1.00  0.00     0.010 A 
ATOM     27  C   UNL A   1      38.131  29.910  27.633  1.00  0.00     0.010 A 
ATOM     28  C   UNL A   1      38.526  29.407  28.884  1.00  0.00    -0.014 A 
BRANCH  28  29
ATOM     29  C   UNL A   1      39.911  28.884  29.083  1.00  0.00     0.031 A 
ATOM     30  C   UNL A   1      41.024  29.794  29.543  1.00  0.00     0.074 A 
ATOM     31  C   UNL A   1      40.204  27.600  28.791  1.00  0.00     0.049 A 
ATOM     32  N   UNL A   1      42.311  29.555  29.622  1.00  0.00    -0.248 NA
ATOM     33  C   UNL A   1      40.644  31.154  29.955  1.00  0.00     0.031 C 
ATOM     34  C   UNL A   1      39.246  26.591  28.339  1.00  0.00     0.029 A 
ATOM     35  N   UNL A   1      41.406  26.929  28.812  1.00  0.00    -0.354 N 
ATOM     36  C   UNL A   1      42.897  30.741  30.050  1.00  0.00     0.074 A 
ATOM     37  C   UNL A   1      41.826  31.702  30.209  1.00  0.00     0.031 C 
ATOM     38  C   UNL A   1      39.895  25.434  28.121  1.00  0.00     0.029 A 
ATOM     39  C   UNL A   1      41.320  25.630  28.370  1.00  0.00     0.049 A 
ATOM     40  H   UNL A   1      42.248  27.341  29.114  1.00  0.00     0.167 HD
ATOM     41  C   UNL A   1      44.203  31.007  30.293  1.00  0.00     0.031 A 
ATOM     42  C   UNL A   1      42.276  24.706  28.152  1.00  0.00     0.031 A 
ATOM     43  C   UNL A   1      45.276  30.054  30.188  1.00  0.00     0.049 A 
ATOM     44  C   UNL A   1      43.720  25.040  28.395  1.00  0.00     0.074 A 
ATOM     45  C   UNL A   1      46.613  30.225  30.509  1.00  0.00     0.029 A 
ATOM     46  N   UNL A   1      45.139  28.757  29.726  1.00  0.00    -0.354 N 
ATOM     47  N   UNL A   1      44.245  26.153  28.842  1.00  0.00    -0.248 NA
ATOM     48  C   UNL A   1      44.705  23.989  28.091  1.00  0.00     0.031 C 
ATOM     49  C   UNL A   1      47.295  29.045  30.197  1.00  0.00     0.029 A 
ATOM     50  C   UNL A   1      46.375  28.129  29.716  1.00  0.00     0.049 A 
ATOM     51  H   UNL A   1      44.291  28.343  29.446  1.00  0.00     0.167 HD
ATOM     52  C   UNL A   1      45.617  25.933  28.885  1.00  0.00     0.074 A 
ATOM     53  C   UNL A   1      45.843  24.577  28.434  1.00  0.00     0.031 C 
ATOM     54  C   UNL A   1      46.599  26.785  29.261  1.00  0.00     0.031 A 
BRANCH  41  55
ATOM     55  C   UNL A   1      44.570  32.411  30.686  1.00  0.00    -0.014 A 
ATOM     56  C   UNL A   1      44.584  32.810  32.030  1.00  0.00     0.009 A 
ATOM     57  C   UNL A   1      44.996  33.315  29.699  1.00  0.00     0.009 A 
ATOM     58  C   UNL A   1      44.998  34.099  32.376  1.00  0.00     0.001 A 
ATOM     59  C   UNL A   1      45.427  34.594  30.051  1.00  0.00     0.001 A 
ATOM     60  C   UNL A   1      45.424  34.987  31.388  1.00  0.00     0.000 A 
ENDBRANCH  41  55
BRANCH  42  61
ATOM     61  C   UNL A   1      41.907  23.369  27.621  1.00  0.00    -0.014 A 
ATOM     62  C   UNL A   1      41.486  22.349  28.487  1.00  0.00     0.009 A 
ATOM     63  C   UNL A   1      42.007  23.098  26.247  1.00  0.00     0.009 A 
ATOM     64  C   UNL A   1      41.193  21.077  27.990  1.00  0.00     0.001 A 
ATOM     65  C   UNL A   1      41.691  21.833  25.751  1.00  0.00     0.001 A 
ATOM     66  C   UNL A   1      41.292  20.821  26.624  1.00  0.00     0.000 A 
ENDBRANCH  42  61
BRANCH  54  67
ATOM     67  C   UNL A   1      48.009  26.276  29.215  1.00  0.00    -0.014 A 
ATOM     68  C   UNL A   1      48.801  26.454  28.070  1.00  0.00     0.009 A 
ATOM     69  C   UNL A   1      48.567  25.648  30.339  1.00  0.00     0.009 A 
ATOM     70  C   UNL A   1      50.118  25.993  28.045  1.00  0.00     0.001 A 
ATOM     71  C   UNL A   1      49.890  25.206  30.318  1.00  0.00     0.001 A 
ATOM     72  C   UNL A   1      50.663  25.373  29.170  1.00  0.00     0.000 A 
ENDBRANCH  54  67
ENDBRANCH  28  29
ENDBRANCH  20  23
ENDBRANCH  18  19
ENDBRANCH   1  18
TORSDOF 13
ENDMDL
MODEL 2
REMARK VINA RESULT:      -9.6      2.258      7.369
REMARK SMILES C#CC[C@@H](C(=O)NCCCNC(=O)c1ccc(-c2c3nc(c(-c4ccccc4)c4ccc([nH]4)c(-c4ccccc4)c4nc(c(-c5ccccc5)c5ccc2[nH]5)C=C4)C=C3)cc1)c1cccc(Br)c1
REMARK SMILES IDX 9 1 8 2 7 3 5 4 6 5 4 7 3 8 2 9 1 10 62 11 63 12 68 13 64 14
REMARK SMILES IDX 66 15 65 16 67 17 10 18 11 19 12 20 13 22 14 23 15 24 61 25
REMARK SMILES IDX 16 26 60 27 17 28 18 29 19 30 54 31 20 32 59 33 53 34 55 35
REMARK SMILES IDX 21 36 58 37 52 38 51 39 22 41 44 42 29 43 43 44 30 45 33 46
REMARK SMILES IDX 42 47 56 48 31 49 32 50 41 52 57 53 34 54 23 55 24 56 28 57
REMARK SMILES IDX 25 58 27 59 26 60 45 61 46 62 50 63 47 64 49 65 48 66 35 67
REMARK SMILES IDX 36 68 40 69 37 70 39 71 38 72
REMARK H PARENT 7 6 11 21 55 40 33 51
REMARK Flexibility Score: inf
ROOT
ATOM      1  C   UNL A   1      36.841  19.371  25.003  1.00  0.00     0.042 C 
ENDROOT
BRANCH   1   2
ATOM      2  C   UNL A   1      35.555  20.183  24.754  1.00  0.00     0.117 C 
BRANCH   2   3
ATOM      3  N   UNL A   1      35.163  20.934  25.943  1.00  0.00    -0.355 N 
ATOM      4  C   UNL A   1      34.805  22.242  26.132  1.00  0.00     0.228 C 
ATOM      5  O   UNL A   1      34.751  22.621  27.308  1.00  0.00    -0.274 OA
ATOM      6  H   UNL A   1      35.153  20.396  26.768  1.00  0.00     0.163 HD
BRANCH   4   7
ATOM      7  C   UNL A   1      34.446  23.193  24.963  1.00  0.00     0.120 C 
BRANCH   7   8
ATOM      8  C   UNL A   1      35.729  23.692  24.263  1.00  0.00     0.107 C 
BRANCH   8   9
ATOM      9  C   UNL A   1      36.898  23.720  25.236  1.00  0.00    -0.106 C 
ATOM     10  C   UNL A   1      37.900  23.744  26.069  1.00  0.00     0.004 C 
ENDBRANCH   8   9
ENDBRANCH   7   8
BRANCH   7  11
ATOM     11  C   UNL A   1      33.568  24.356  25.470  1.00  0.00    -0.034 A 
ATOM     12  C   UNL A   1      32.215  24.113  25.765  1.00  0.00     0.004 A 
ATOM     13  C   UNL A   1      34.059  25.659  25.679  1.00  0.00     0.020 A 
ATOM     14  C   UNL A   1      31.391  25.126  26.266  1.00  0.00     0.001 A 
ATOM     15  C   UNL A   1      33.228  26.670  26.166  1.00  0.00     0.018 A 
ATOM     16  C   UNL A   1      31.897  26.409  26.467  1.00  0.00     0.016 A 
ATOM     17  Br  UNL A   1      33.926  28.410  26.426  1.00  0.00    -0.051 Br
ENDBRANCH   7  11
ENDBRANCH   4   7
ENDBRANCH   2   3
ENDBRANCH   1   2
BRANCH   1  18
ATOM     18  C   UNL A   1      38.142  20.169  25.051  1.00  0.00     0.118 C 
BRANCH  18  19
ATOM     19  N   UNL A   1      39.274  19.334  25.433  1.00  0.00    -0.352 N 
ATOM     20  C   UNL A   1      40.502  19.600  25.990  1.00  0.00     0.251 C 
ATOM     21  H   UNL A   1      39.128  18.376  25.256  1.00  0.00     0.163 HD
ATOM     22  O   UNL A   1      41.338  18.692  25.961  1.00  0.00    -0.269 OA
BRANCH  20  23
ATOM     23  C   UNL A   1      40.896  20.897  26.613  1.00  0.00     0.039 A 
ATOM     24  C   UNL A   1      41.236  21.956  25.752  1.00  0.00     0.014 A 
ATOM     25  C   UNL A   1      41.085  21.079  27.982  1.00  0.00     0.014 A 
ATOM     26  C   UNL A   1      41.728  23.174  26.251  1.00  0.00     0.010 A 
ATOM     27  C   UNL A   1      41.522  22.317  28.487  1.00  0.00     0.010 A 
ATOM     28  C   UNL A   1      41.860  23.377  27.631  1.00  0.00    -0.014 A 
BRANCH  28  29
ATOM     29  C   UNL A   1      42.351  24.672  28.192  1.00  0.00     0.031 A 
ATOM     30  C   UNL A   1      41.393  25.798  28.496  1.00  0.00     0.074 A 
ATOM     31  C   UNL A   1      43.672  24.879  28.374  1.00  0.00     0.049 A 
ATOM     32  N   UNL A   1      41.653  27.037  28.838  1.00  0.00    -0.248 NA
ATOM     33  C   UNL A   1      39.957  25.497  28.389  1.00  0.00     0.031 C 
ATOM     34  C   UNL A   1      44.728  23.895  28.131  1.00  0.00     0.029 A 
ATOM     35  N   UNL A   1      44.353  26.001  28.787  1.00  0.00    -0.354 N 
ATOM     36  C   UNL A   1      40.420  27.672  28.946  1.00  0.00     0.074 A 
ATOM     37  C   UNL A   1      39.412  26.684  28.628  1.00  0.00     0.031 C 
ATOM     38  C   UNL A   1      45.921  24.456  28.394  1.00  0.00     0.029 A 
ATOM     39  C   UNL A   1      45.720  25.851  28.777  1.00  0.00     0.049 A 
ATOM     40  H   UNL A   1      43.904  26.833  29.063  1.00  0.00     0.167 HD
ATOM     41  C   UNL A   1      40.150  28.956  29.283  1.00  0.00     0.031 A 
ATOM     42  C   UNL A   1      46.708  26.737  29.012  1.00  0.00     0.031 A 
ATOM     43  C   UNL A   1      41.134  29.940  29.651  1.00  0.00     0.049 A 
ATOM     44  C   UNL A   1      46.379  28.164  29.348  1.00  0.00     0.074 A 
ATOM     45  C   UNL A   1      40.928  31.237  30.095  1.00  0.00     0.029 A 
ATOM     46  N   UNL A   1      42.502  29.743  29.613  1.00  0.00    -0.354 N 
ATOM     47  N   UNL A   1      45.208  28.730  29.488  1.00  0.00    -0.248 NA
ATOM     48  C   UNL A   1      47.516  29.078  29.547  1.00  0.00     0.031 C 
ATOM     49  C   UNL A   1      42.176  31.841  30.283  1.00  0.00     0.029 A 
ATOM     50  C   UNL A   1      43.155  30.907  29.990  1.00  0.00     0.049 A 
ATOM     51  H   UNL A   1      42.946  28.903  29.358  1.00  0.00     0.167 HD
ATOM     52  C   UNL A   1      45.465  30.059  29.802  1.00  0.00     0.074 A 
ATOM     53  C   UNL A   1      46.903  30.213  29.850  1.00  0.00     0.031 C 
ATOM     54  C   UNL A   1      44.583  31.061  30.028  1.00  0.00     0.031 A 
BRANCH  41  55
ATOM     55  C   UNL A   1      38.714  29.400  29.256  1.00  0.00    -0.014 A 
ATOM     56  C   UNL A   1      37.917  29.357  30.408  1.00  0.00     0.009 A 
ATOM     57  C   UNL A   1      38.185  29.954  28.079  1.00  0.00     0.009 A 
ATOM     58  C   UNL A   1      36.607  29.841  30.376  1.00  0.00     0.001 A 
ATOM     59  C   UNL A   1      36.883  30.454  28.056  1.00  0.00     0.001 A 
ATOM     60  C   UNL A   1      36.093  30.394  29.203  1.00  0.00     0.000 A 
ENDBRANCH  41  55
BRANCH  42  61
ATOM     61  C   UNL A   1      48.127  26.315  28.889  1.00  0.00    -0.014 A 
ATOM     62  C   UNL A   1      48.778  26.358  27.647  1.00  0.00     0.009 A 
ATOM     63  C   UNL A   1      48.825  25.837  30.009  1.00  0.00     0.009 A 
ATOM     64  C   UNL A   1      50.094  25.908  27.525  1.00  0.00     0.001 A 
ATOM     65  C   UNL A   1      50.149  25.411  29.888  1.00  0.00     0.001 A 
ATOM     66  C   UNL A   1      50.779  25.439  28.644  1.00  0.00     0.000 A 
ENDBRANCH  42  61
BRANCH  54  67
ATOM     67  C   UNL A   1      45.144  32.412  30.358  1.00  0.00    -0.014 A 
ATOM     68  C   UNL A   1      45.313  33.384  29.360  1.00  0.00     0.009 A 
ATOM     69  C   UNL A   1      45.469  32.733  31.685  1.00  0.00     0.009 A 
ATOM     70  C   UNL A   1      45.818  34.645  29.683  1.00  0.00     0.001 A 
ATOM     71  C   UNL A   1      45.955  34.001  32.007  1.00  0.00     0.001 A 
ATOM     72  C   UNL A   1      46.135  34.954  31.006  1.00  0.00     0.000 A 
ENDBRANCH  54  67
ENDBRANCH  28  29
ENDBRANCH  20  23
ENDBRANCH  18  19
ENDBRANCH   1  18
TORSDOF 13
ENDMDL
MODEL 3
REMARK VINA RESULT:      -9.6      3.048      8.050
REMARK SMILES C#CC[C@@H](C(=O)NCCCNC(=O)c1ccc(-c2c3nc(c(-c4ccccc4)c4ccc([nH]4)c(-c4ccccc4)c4nc(c(-c5ccccc5)c5ccc2[nH]5)C=C4)C=C3)cc1)c1cccc(Br)c1
REMARK SMILES IDX 9 1 8 2 7 3 5 4 6 5 4 7 3 8 2 9 1 10 62 11 63 12 68 13 64 14
REMARK SMILES IDX 66 15 65 16 67 17 10 18 11 19 12 20 13 22 14 23 15 24 61 25
REMARK SMILES IDX 16 26 60 27 17 28 18 29 19 30 54 31 20 32 59 33 53 34 55 35
REMARK SMILES IDX 21 36 58 37 52 38 51 39 22 41 44 42 29 43 43 44 30 45 33 46
REMARK SMILES IDX 42 47 56 48 31 49 32 50 41 52 57 53 34 54 23 55 24 56 28 57
REMARK SMILES IDX 25 58 27 59 26 60 45 61 46 62 50 63 47 64 49 65 48 66 35 67
REMARK SMILES IDX 36 68 40 69 37 70 39 71 38 72
REMARK H PARENT 7 6 11 21 55 40 33 51
REMARK Flexibility Score: inf
ROOT
ATOM      1  C   UNL A   1      35.414  23.094  26.069  1.00  0.00     0.042 C 
ENDROOT
BRANCH   1   2
ATOM      2  C   UNL A   1      34.199  24.041  26.029  1.00  0.00     0.117 C 
BRANCH   2   3
ATOM      3  N   UNL A   1      34.383  25.100  25.040  1.00  0.00    -0.355 N 
ATOM      4  C   UNL A   1      33.630  26.194  24.710  1.00  0.00     0.228 C 
ATOM      5  O   UNL A   1      33.950  26.772  23.665  1.00  0.00    -0.274 OA
ATOM      6  H   UNL A   1      35.208  25.009  24.510  1.00  0.00     0.163 HD
BRANCH   4   7
ATOM      7  C   UNL A   1      32.472  26.717  25.597  1.00  0.00     0.120 C 
BRANCH   7   8
ATOM      8  C   UNL A   1      31.154  26.753  24.793  1.00  0.00     0.107 C 
BRANCH   8   9
ATOM      9  C   UNL A   1      30.886  25.409  24.136  1.00  0.00    -0.106 C 
ATOM     10  C   UNL A   1      30.656  24.256  23.572  1.00  0.00     0.004 C 
ENDBRANCH   8   9
ENDBRANCH   7   8
BRANCH   7  11
ATOM     11  C   UNL A   1      32.833  28.096  26.188  1.00  0.00    -0.034 A 
ATOM     12  C   UNL A   1      34.061  28.254  26.854  1.00  0.00     0.004 A 
ATOM     13  C   UNL A   1      31.999  29.225  26.075  1.00  0.00     0.020 A 
ATOM     14  C   UNL A   1      34.449  29.496  27.370  1.00  0.00     0.001 A 
ATOM     15  C   UNL A   1      32.385  30.459  26.605  1.00  0.00     0.018 A 
ATOM     16  C   UNL A   1      33.609  30.602  27.247  1.00  0.00     0.016 A 
ATOM     17  Br  UNL A   1      31.232  31.950  26.439  1.00  0.00    -0.051 Br
ENDBRANCH   7  11
ENDBRANCH   4   7
ENDBRANCH   2   3
ENDBRANCH   1   2
BRANCH   1  18
ATOM     18  C   UNL A   1      36.673  23.584  25.355  1.00  0.00     0.118 C 
BRANCH  18  19
ATOM     19  N   UNL A   1      37.816  22.720  25.622  1.00  0.00    -0.352 N 
ATOM     20  C   UNL A   1      39.082  22.948  26.106  1.00  0.00     0.251 C 
ATOM     21  H   UNL A   1      37.645  21.773  25.413  1.00  0.00     0.163 HD
ATOM     22  O   UNL A   1      39.902  22.034  25.980  1.00  0.00    -0.269 OA
BRANCH  20  23
ATOM     23  C   UNL A   1      39.534  24.212  26.758  1.00  0.00     0.039 A 
ATOM     24  C   UNL A   1      39.106  24.455  28.075  1.00  0.00     0.014 A 
ATOM     25  C   UNL A   1      40.230  25.224  26.098  1.00  0.00     0.014 A 
ATOM     26  C   UNL A   1      39.388  25.669  28.723  1.00  0.00     0.010 A 
ATOM     27  C   UNL A   1      40.564  26.417  26.764  1.00  0.00     0.010 A 
ATOM     28  C   UNL A   1      40.140  26.661  28.081  1.00  0.00    -0.014 A 
BRANCH  28  29
ATOM     29  C   UNL A   1      40.483  27.949  28.756  1.00  0.00     0.031 A 
ATOM     30  C   UNL A   1      41.804  28.126  29.464  1.00  0.00     0.074 A 
ATOM     31  C   UNL A   1      39.585  28.957  28.799  1.00  0.00     0.049 A 
ATOM     32  N   UNL A   1      42.208  29.111  30.231  1.00  0.00    -0.248 NA
ATOM     33  C   UNL A   1      42.794  27.051  29.302  1.00  0.00     0.031 C 
ATOM     34  C   UNL A   1      38.266  28.948  28.165  1.00  0.00     0.029 A 
ATOM     35  N   UNL A   1      39.643  30.180  29.427  1.00  0.00    -0.354 N 
ATOM     36  C   UNL A   1      43.477  28.756  30.674  1.00  0.00     0.074 A 
ATOM     37  C   UNL A   1      43.776  27.464  30.095  1.00  0.00     0.031 C 
ATOM     38  C   UNL A   1      37.639  30.104  28.438  1.00  0.00     0.029 A 
ATOM     39  C   UNL A   1      38.487  30.916  29.306  1.00  0.00     0.049 A 
ATOM     40  H   UNL A   1      40.435  30.497  29.917  1.00  0.00     0.167 HD
ATOM     41  C   UNL A   1      44.320  29.443  31.483  1.00  0.00     0.031 A 
ATOM     42  C   UNL A   1      38.129  32.093  29.855  1.00  0.00     0.031 A 
ATOM     43  C   UNL A   1      44.063  30.750  32.028  1.00  0.00     0.049 A 
ATOM     44  C   UNL A   1      39.069  32.815  30.778  1.00  0.00     0.074 A 
ATOM     45  C   UNL A   1      44.910  31.549  32.780  1.00  0.00     0.029 A 
ATOM     46  N   UNL A   1      42.876  31.446  31.886  1.00  0.00    -0.354 N 
ATOM     47  N   UNL A   1      40.280  32.483  31.146  1.00  0.00    -0.248 NA
ATOM     48  C   UNL A   1      38.584  34.072  31.369  1.00  0.00     0.031 C 
ATOM     49  C   UNL A   1      44.217  32.712  33.133  1.00  0.00     0.029 A 
ATOM     50  C   UNL A   1      42.954  32.650  32.570  1.00  0.00     0.049 A 
ATOM     51  H   UNL A   1      42.095  31.134  31.377  1.00  0.00     0.167 HD
ATOM     52  C   UNL A   1      40.706  33.493  32.000  1.00  0.00     0.074 A 
ATOM     53  C   UNL A   1      39.632  34.458  32.084  1.00  0.00     0.031 C 
ATOM     54  C   UNL A   1      41.884  33.604  32.658  1.00  0.00     0.031 A 
BRANCH  41  55
ATOM     55  C   UNL A   1      45.619  28.787  31.858  1.00  0.00    -0.014 A 
ATOM     56  C   UNL A   1      45.695  27.876  32.921  1.00  0.00     0.009 A 
ATOM     57  C   UNL A   1      46.761  29.020  31.075  1.00  0.00     0.009 A 
ATOM     58  C   UNL A   1      46.898  27.226  33.205  1.00  0.00     0.001 A 
ATOM     59  C   UNL A   1      47.956  28.354  31.350  1.00  0.00     0.001 A 
ATOM     60  C   UNL A   1      48.025  27.460  32.418  1.00  0.00     0.000 A 
ENDBRANCH  41  55
BRANCH  42  61
ATOM     61  C   UNL A   1      36.780  32.654  29.588  1.00  0.00    -0.014 A 
ATOM     62  C   UNL A   1      36.550  33.452  28.458  1.00  0.00     0.009 A 
ATOM     63  C   UNL A   1      35.724  32.421  30.484  1.00  0.00     0.009 A 
ATOM     64  C   UNL A   1      35.294  34.024  28.241  1.00  0.00     0.001 A 
ATOM     65  C   UNL A   1      34.464  32.974  30.251  1.00  0.00     0.001 A 
ATOM     66  C   UNL A   1      34.252  33.782  29.134  1.00  0.00     0.000 A 
ENDBRANCH  42  61
BRANCH  54  67
ATOM     67  C   UNL A   1      42.081  34.816  33.519  1.00  0.00    -0.014 A 
ATOM     68  C   UNL A   1      41.591  34.853  34.834  1.00  0.00     0.009 A 
ATOM     69  C   UNL A   1      42.798  35.918  33.027  1.00  0.00     0.009 A 
ATOM     70  C   UNL A   1      41.797  35.979  35.632  1.00  0.00     0.001 A 
ATOM     71  C   UNL A   1      43.019  37.035  33.835  1.00  0.00     0.001 A 
ATOM     72  C   UNL A   1      42.515  37.067  35.134  1.00  0.00     0.000 A 
ENDBRANCH  54  67
ENDBRANCH  28  29
ENDBRANCH  20  23
ENDBRANCH  18  19
ENDBRANCH   1  18
TORSDOF 13
ENDMDL
