MODEL 1
REMARK VINA RESULT:     -10.8      0.000      0.000
REMARK SMILES O=C(NCCCNC(=O)c1cnc(-c2ccccc2Cl)nc1)c1ccc(-c2c3nc(c(-c4ccccc4)c4ccc([nH]4)c(-c4ccccc4)c4nc(c(-c5ccccc5)c5ccc2[nH]5)C=C4)C=C3)cc1
REMARK SMILES IDX 4 1 3 2 1 3 2 4 23 6 24 7 70 8 25 9 69 10 26 11 27 12 28 13
REMARK SMILES IDX 63 14 29 15 68 16 62 17 64 18 30 19 67 20 61 21 60 22 31 24
REMARK SMILES IDX 53 25 38 26 52 27 39 28 42 29 51 30 65 31 40 32 41 33 50 35
REMARK SMILES IDX 66 36 43 37 32 38 33 39 37 40 34 41 36 42 35 43 54 44 55 45
REMARK SMILES IDX 59 46 56 47 58 48 57 49 44 50 45 51 49 52 46 53 48 54 47 55
REMARK SMILES IDX 5 56 6 57 7 58 8 59 9 61 10 62 11 63 22 64 12 65 21 66 13 67
REMARK SMILES IDX 14 68 15 69 19 70 16 71 18 72 20 73 17 74
REMARK H PARENT 3 5 64 23 42 34 7 60
REMARK Flexibility Score: inf
ROOT
ATOM      1  C   UNL A   1      33.602  28.693  27.309  1.00  0.00     0.118 C 
ENDROOT
BRANCH   1   2
ATOM      2  N   UNL A   1      33.619  30.102  27.684  1.00  0.00    -0.352 N 
ATOM      3  O   UNL A   1      34.339  31.965  28.718  1.00  0.00    -0.269 OA
ATOM      4  C   UNL A   1      34.592  30.832  28.314  1.00  0.00     0.251 C 
ATOM      5  H   UNL A   1      32.807  30.605  27.449  1.00  0.00     0.163 HD
BRANCH   4   6
ATOM      6  C   UNL A   1      35.942  30.265  28.517  1.00  0.00     0.039 A 
ATOM      7  C   UNL A   1      36.908  30.345  27.510  1.00  0.00     0.014 A 
ATOM      8  C   UNL A   1      36.266  29.697  29.753  1.00  0.00     0.014 A 
ATOM      9  C   UNL A   1      38.151  29.754  27.692  1.00  0.00     0.010 A 
ATOM     10  C   UNL A   1      37.547  29.185  29.969  1.00  0.00     0.010 A 
ATOM     11  C   UNL A   1      38.497  29.202  28.936  1.00  0.00    -0.014 A 
BRANCH  11  12
ATOM     12  C   UNL A   1      39.899  28.783  29.173  1.00  0.00     0.031 A 
ATOM     13  C   UNL A   1      40.905  29.713  29.786  1.00  0.00     0.074 A 
ATOM     14  C   UNL A   1      40.254  27.533  28.812  1.00  0.00     0.049 A 
ATOM     15  N   UNL A   1      42.170  29.496  30.039  1.00  0.00    -0.248 NA
ATOM     16  C   UNL A   1      40.440  31.059  30.159  1.00  0.00     0.031 C 
ATOM     17  C   UNL A   1      39.361  26.547  28.193  1.00  0.00     0.029 A 
ATOM     18  N   UNL A   1      41.451  26.874  28.916  1.00  0.00    -0.354 N 
ATOM     19  C   UNL A   1      42.660  30.679  30.578  1.00  0.00     0.074 A 
ATOM     20  C   UNL A   1      41.558  31.617  30.607  1.00  0.00     0.031 C 
ATOM     21  C   UNL A   1      40.032  25.404  28.000  1.00  0.00     0.029 A 
ATOM     22  C   UNL A   1      41.416  25.596  28.412  1.00  0.00     0.049 A 
ATOM     23  H   UNL A   1      42.258  27.276  29.311  1.00  0.00     0.167 HD
ATOM     24  C   UNL A   1      43.915  30.950  31.004  1.00  0.00     0.031 A 
ATOM     25  C   UNL A   1      42.396  24.687  28.261  1.00  0.00     0.031 A 
ATOM     26  C   UNL A   1      45.003  30.006  30.978  1.00  0.00     0.049 A 
ATOM     27  C   UNL A   1      43.785  25.041  28.701  1.00  0.00     0.074 A 
ATOM     28  C   UNL A   1      46.293  30.168  31.455  1.00  0.00     0.029 A 
ATOM     29  N   UNL A   1      44.935  28.735  30.431  1.00  0.00    -0.354 N 
ATOM     30  N   UNL A   1      44.211  26.136  29.281  1.00  0.00    -0.248 NA
ATOM     31  C   UNL A   1      44.829  24.037  28.460  1.00  0.00     0.031 C 
ATOM     32  C   UNL A   1      47.023  29.020  31.135  1.00  0.00     0.029 A 
ATOM     33  C   UNL A   1      46.175  28.121  30.512  1.00  0.00     0.049 A 
ATOM     34  H   UNL A   1      44.127  28.328  30.042  1.00  0.00     0.167 HD
ATOM     35  C   UNL A   1      45.572  25.951  29.479  1.00  0.00     0.074 A 
ATOM     36  C   UNL A   1      45.892  24.626  28.989  1.00  0.00     0.031 C 
ATOM     37  C   UNL A   1      46.476  26.807  30.009  1.00  0.00     0.031 A 
BRANCH  24  38
ATOM     38  C   UNL A   1      44.211  32.333  31.514  1.00  0.00    -0.014 A 
ATOM     39  C   UNL A   1      44.556  33.376  30.643  1.00  0.00     0.009 A 
ATOM     40  C   UNL A   1      44.036  32.616  32.878  1.00  0.00     0.009 A 
ATOM     41  C   UNL A   1      44.731  34.674  31.131  1.00  0.00     0.001 A 
ATOM     42  C   UNL A   1      44.189  33.918  33.360  1.00  0.00     0.001 A 
ATOM     43  C   UNL A   1      44.541  34.946  32.486  1.00  0.00     0.000 A 
ENDBRANCH  24  38
BRANCH  25  44
ATOM     44  C   UNL A   1      42.109  23.384  27.606  1.00  0.00    -0.014 A 
ATOM     45  C   UNL A   1      41.562  22.317  28.333  1.00  0.00     0.009 A 
ATOM     46  C   UNL A   1      42.399  23.200  26.244  1.00  0.00     0.009 A 
ATOM     47  C   UNL A   1      41.343  21.082  27.716  1.00  0.00     0.001 A 
ATOM     48  C   UNL A   1      42.144  21.978  25.622  1.00  0.00     0.001 A 
ATOM     49  C   UNL A   1      41.629  20.916  26.361  1.00  0.00     0.000 A 
ENDBRANCH  25  44
BRANCH  37  50
ATOM     50  C   UNL A   1      47.898  26.330  30.090  1.00  0.00    -0.014 A 
ATOM     51  C   UNL A   1      48.405  25.776  31.275  1.00  0.00     0.009 A 
ATOM     52  C   UNL A   1      48.726  26.404  28.960  1.00  0.00     0.009 A 
ATOM     53  C   UNL A   1      49.726  25.329  31.335  1.00  0.00     0.001 A 
ATOM     54  C   UNL A   1      50.038  25.930  29.015  1.00  0.00     0.001 A 
ATOM     55  C   UNL A   1      50.538  25.402  30.204  1.00  0.00     0.000 A 
ENDBRANCH  37  50
ENDBRANCH  11  12
ENDBRANCH   4   6
ENDBRANCH   1   2
BRANCH   1  56
ATOM     56  C   UNL A   1      32.205  28.199  26.960  1.00  0.00     0.042 C 
BRANCH  56  57
ATOM     57  C   UNL A   1      31.874  28.282  25.477  1.00  0.00     0.118 C 
BRANCH  57  58
ATOM     58  N   UNL A   1      30.854  27.312  25.087  1.00  0.00    -0.352 N 
ATOM     59  C   UNL A   1      30.990  26.013  24.680  1.00  0.00     0.254 C 
ATOM     60  H   UNL A   1      29.928  27.643  25.123  1.00  0.00     0.163 HD
ATOM     61  O   UNL A   1      30.043  25.432  24.156  1.00  0.00    -0.269 OA
BRANCH  59  62
ATOM     62  C   UNL A   1      32.257  25.306  24.849  1.00  0.00     0.076 A 
ATOM     63  C   UNL A   1      33.256  25.314  23.903  1.00  0.00     0.129 A 
ATOM     64  C   UNL A   1      32.542  24.635  26.015  1.00  0.00     0.129 A 
ATOM     65  N   UNL A   1      34.410  24.630  24.035  1.00  0.00    -0.236 NA
ATOM     66  N   UNL A   1      33.683  23.937  26.203  1.00  0.00    -0.236 NA
ATOM     67  C   UNL A   1      34.562  23.932  25.180  1.00  0.00     0.160 A 
BRANCH  67  68
ATOM     68  C   UNL A   1      35.794  23.157  25.330  1.00  0.00     0.038 A 
ATOM     69  C   UNL A   1      36.975  23.814  25.734  1.00  0.00     0.013 A 
ATOM     70  C   UNL A   1      35.870  21.776  25.075  1.00  0.00     0.052 A 
ATOM     71  C   UNL A   1      38.175  23.121  25.905  1.00  0.00     0.001 A 
ATOM     72  C   UNL A   1      37.074  21.082  25.248  1.00  0.00     0.021 A 
ATOM     73  Cl  UNL A   1      34.527  20.863  24.471  1.00  0.00    -0.084 Cl
ATOM     74  C   UNL A   1      38.222  21.752  25.668  1.00  0.00     0.002 A 
ENDBRANCH  67  68
ENDBRANCH  59  62
ENDBRANCH  57  58
ENDBRANCH  56  57
ENDBRANCH   1  56
TORSDOF 11
ENDMDL
MODEL 2
REMARK VINA RESULT:     -10.6      2.731      8.007
REMARK SMILES O=C(NCCCNC(=O)c1cnc(-c2ccccc2Cl)nc1)c1ccc(-c2c3nc(c(-c4ccccc4)c4ccc([nH]4)c(-c4ccccc4)c4nc(c(-c5ccccc5)c5ccc2[nH]5)C=C4)C=C3)cc1
REMARK SMILES IDX 4 1 3 2 1 3 2 4 23 6 24 7 70 8 25 9 69 10 26 11 27 12 28 13
REMARK SMILES IDX 63 14 29 15 68 16 62 17 64 18 30 19 67 20 61 21 60 22 31 24
REMARK SMILES IDX 53 25 38 26 52 27 39 28 42 29 51 30 65 31 40 32 41 33 50 35
REMARK SMILES IDX 66 36 43 37 32 38 33 39 37 40 34 41 36 42 35 43 54 44 55 45
REMARK SMILES IDX 59 46 56 47 58 48 57 49 44 50 45 51 49 52 46 53 48 54 47 55
REMARK SMILES IDX 5 56 6 57 7 58 8 59 9 61 10 62 11 63 22 64 12 65 21 66 13 67
REMARK SMILES IDX 14 68 15 69 19 70 16 71 18 72 20 73 17 74
REMARK H PARENT 3 5 64 23 42 34 7 60
REMARK Flexibility Score: inf
ROOT
ATOM      1  C   UNL A   1      37.200  23.621  25.101  1.00  0.00     0.118 C 
ENDROOT
BRANCH   1   2
ATOM      2  N   UNL A   1      38.257  22.696  25.489  1.00  0.00    -0.352 N 
ATOM      3  O   UNL A   1      40.280  22.051  26.231  1.00  0.00    -0.269 OA
ATOM      4  C   UNL A   1      39.423  22.929  26.171  1.00  0.00     0.251 C 
ATOM      5  H   UNL A   1      38.112  21.761  25.220  1.00  0.00     0.163 HD
BRANCH   4   6
ATOM      6  C   UNL A   1      39.658  24.233  26.829  1.00  0.00     0.039 A 
ATOM      7  C   UNL A   1      39.226  24.459  28.138  1.00  0.00     0.014 A 
ATOM      8  C   UNL A   1      40.375  25.222  26.148  1.00  0.00     0.014 A 
ATOM      9  C   UNL A   1      39.401  25.707  28.720  1.00  0.00     0.010 A 
ATOM     10  C   UNL A   1      40.631  26.446  26.768  1.00  0.00     0.010 A 
ATOM     11  C   UNL A   1      40.138  26.701  28.057  1.00  0.00    -0.014 A 
BRANCH  11  12
ATOM     12  C   UNL A   1      40.501  27.938  28.789  1.00  0.00     0.031 A 
ATOM     13  C   UNL A   1      41.831  28.089  29.467  1.00  0.00     0.074 A 
ATOM     14  C   UNL A   1      39.591  28.932  28.839  1.00  0.00     0.049 A 
ATOM     15  N   UNL A   1      42.285  29.103  30.159  1.00  0.00    -0.248 NA
ATOM     16  C   UNL A   1      42.773  26.963  29.364  1.00  0.00     0.031 C 
ATOM     17  C   UNL A   1      38.258  28.888  28.227  1.00  0.00     0.029 A 
ATOM     18  N   UNL A   1      39.645  30.172  29.420  1.00  0.00    -0.354 N 
ATOM     19  C   UNL A   1      43.551  28.732  30.593  1.00  0.00     0.074 A 
ATOM     20  C   UNL A   1      43.793  27.395  30.095  1.00  0.00     0.031 C 
ATOM     21  C   UNL A   1      37.635  30.054  28.441  1.00  0.00     0.029 A 
ATOM     22  C   UNL A   1      38.491  30.900  29.263  1.00  0.00     0.049 A 
ATOM     23  H   UNL A   1      40.433  30.508  29.905  1.00  0.00     0.167 HD
ATOM     24  C   UNL A   1      44.425  29.447  31.339  1.00  0.00     0.031 A 
ATOM     25  C   UNL A   1      38.139  32.101  29.754  1.00  0.00     0.031 A 
ATOM     26  C   UNL A   1      44.177  30.781  31.823  1.00  0.00     0.049 A 
ATOM     27  C   UNL A   1      39.115  32.844  30.618  1.00  0.00     0.074 A 
ATOM     28  C   UNL A   1      45.032  31.614  32.527  1.00  0.00     0.029 A 
ATOM     29  N   UNL A   1      42.984  31.470  31.670  1.00  0.00    -0.354 N 
ATOM     30  N   UNL A   1      40.338  32.511  30.951  1.00  0.00    -0.248 NA
ATOM     31  C   UNL A   1      38.661  34.122  31.179  1.00  0.00     0.031 C 
ATOM     32  C   UNL A   1      44.333  32.777  32.859  1.00  0.00     0.029 A 
ATOM     33  C   UNL A   1      43.064  32.697  32.312  1.00  0.00     0.049 A 
ATOM     34  H   UNL A   1      42.198  31.139  31.179  1.00  0.00     0.167 HD
ATOM     35  C   UNL A   1      40.801  33.541  31.757  1.00  0.00     0.074 A 
ATOM     36  C   UNL A   1      39.741  34.525  31.833  1.00  0.00     0.031 C 
ATOM     37  C   UNL A   1      41.994  33.656  32.385  1.00  0.00     0.031 A 
BRANCH  24  38
ATOM     38  C   UNL A   1      45.729  28.805  31.718  1.00  0.00    -0.014 A 
ATOM     39  C   UNL A   1      45.864  28.059  32.897  1.00  0.00     0.009 A 
ATOM     40  C   UNL A   1      46.811  28.862  30.823  1.00  0.00     0.009 A 
ATOM     41  C   UNL A   1      47.059  27.392  33.178  1.00  0.00     0.001 A 
ATOM     42  C   UNL A   1      47.996  28.177  31.095  1.00  0.00     0.001 A 
ATOM     43  C   UNL A   1      48.121  27.444  32.275  1.00  0.00     0.000 A 
ENDBRANCH  24  38
BRANCH  25  44
ATOM     44  C   UNL A   1      36.780  32.643  29.497  1.00  0.00    -0.014 A 
ATOM     45  C   UNL A   1      36.503  33.371  28.331  1.00  0.00     0.009 A 
ATOM     46  C   UNL A   1      35.751  32.444  30.433  1.00  0.00     0.009 A 
ATOM     47  C   UNL A   1      35.233  33.916  28.124  1.00  0.00     0.001 A 
ATOM     48  C   UNL A   1      34.475  32.958  30.206  1.00  0.00     0.001 A 
ATOM     49  C   UNL A   1      34.220  33.705  29.058  1.00  0.00     0.000 A 
ENDBRANCH  25  44
BRANCH  37  50
ATOM     50  C   UNL A   1      42.214  34.895  33.205  1.00  0.00    -0.014 A 
ATOM     51  C   UNL A   1      43.029  35.935  32.734  1.00  0.00     0.009 A 
ATOM     52  C   UNL A   1      41.572  35.037  34.445  1.00  0.00     0.009 A 
ATOM     53  C   UNL A   1      43.220  37.084  33.503  1.00  0.00     0.001 A 
ATOM     54  C   UNL A   1      41.741  36.199  35.198  1.00  0.00     0.001 A 
ATOM     55  C   UNL A   1      42.571  37.217  34.730  1.00  0.00     0.000 A 
ENDBRANCH  37  50
ENDBRANCH  11  12
ENDBRANCH   4   6
ENDBRANCH   1   2
BRANCH   1  56
ATOM     56  C   UNL A   1      36.290  23.049  24.022  1.00  0.00     0.042 C 
BRANCH  56  57
ATOM     57  C   UNL A   1      35.068  22.324  24.568  1.00  0.00     0.118 C 
BRANCH  57  58
ATOM     58  N   UNL A   1      33.948  22.353  23.630  1.00  0.00    -0.352 N 
ATOM     59  C   UNL A   1      32.938  23.266  23.498  1.00  0.00     0.254 C 
ATOM     60  H   UNL A   1      33.917  21.601  22.996  1.00  0.00     0.163 HD
ATOM     61  O   UNL A   1      31.951  22.995  22.820  1.00  0.00    -0.269 OA
BRANCH  59  62
ATOM     62  C   UNL A   1      33.012  24.562  24.167  1.00  0.00     0.076 A 
ATOM     63  C   UNL A   1      32.549  24.778  25.445  1.00  0.00     0.129 A 
ATOM     64  C   UNL A   1      33.618  25.638  23.560  1.00  0.00     0.129 A 
ATOM     65  N   UNL A   1      32.576  25.982  26.052  1.00  0.00    -0.236 NA
ATOM     66  N   UNL A   1      33.677  26.863  24.123  1.00  0.00    -0.236 NA
ATOM     67  C   UNL A   1      33.115  26.995  25.342  1.00  0.00     0.160 A 
BRANCH  67  68
ATOM     68  C   UNL A   1      33.125  28.317  25.970  1.00  0.00     0.038 A 
ATOM     69  C   UNL A   1      34.106  28.609  26.940  1.00  0.00     0.013 A 
ATOM     70  C   UNL A   1      32.188  29.321  25.667  1.00  0.00     0.052 A 
ATOM     71  C   UNL A   1      34.170  29.858  27.561  1.00  0.00     0.001 A 
ATOM     72  C   UNL A   1      32.254  30.573  26.289  1.00  0.00     0.021 A 
ATOM     73  Cl  UNL A   1      30.866  29.065  24.575  1.00  0.00    -0.084 Cl
ATOM     74  C   UNL A   1      33.247  30.843  27.230  1.00  0.00     0.002 A 
ENDBRANCH  67  68
ENDBRANCH  59  62
ENDBRANCH  57  58
ENDBRANCH  56  57
ENDBRANCH   1  56
TORSDOF 11
ENDMDL
MODEL 3
REMARK VINA RESULT:     -10.6      2.489      7.579
REMARK SMILES O=C(NCCCNC(=O)c1cnc(-c2ccccc2Cl)nc1)c1ccc(-c2c3nc(c(-c4ccccc4)c4ccc([nH]4)c(-c4ccccc4)c4nc(c(-c5ccccc5)c5ccc2[nH]5)C=C4)C=C3)cc1
REMARK SMILES IDX 4 1 3 2 1 3 2 4 23 6 24 7 70 8 25 9 69 10 26 11 27 12 28 13
REMARK SMILES IDX 63 14 29 15 68 16 62 17 64 18 30 19 67 20 61 21 60 22 31 24
REMARK SMILES IDX 53 25 38 26 52 27 39 28 42 29 51 30 65 31 40 32 41 33 50 35
REMARK SMILES IDX 66 36 43 37 32 38 33 39 37 40 34 41 36 42 35 43 54 44 55 45
REMARK SMILES IDX 59 46 56 47 58 48 57 49 44 50 45 51 49 52 46 53 48 54 47 55
REMARK SMILES IDX 5 56 6 57 7 58 8 59 9 61 10 62 11 63 22 64 12 65 21 66 13 67
REMARK SMILES IDX 14 68 15 69 19 70 16 71 18 72 20 73 17 74
REMARK H PARENT 3 5 64 23 42 34 7 60
REMARK Flexibility Score: inf
ROOT
ATOM      1  C   UNL A   1      38.746  20.308  25.639  1.00  0.00     0.118 C 
ENDROOT
BRANCH   1   2
ATOM      2  N   UNL A   1      39.842  19.350  25.718  1.00  0.00    -0.352 N 
ATOM      3  O   UNL A   1      41.973  18.641  25.846  1.00  0.00    -0.269 OA
ATOM      4  C   UNL A   1      41.164  19.549  26.021  1.00  0.00     0.251 C 
ATOM      5  H   UNL A   1      39.595  18.417  25.526  1.00  0.00     0.163 HD
BRANCH   4   6
ATOM      6  C   UNL A   1      41.624  20.850  26.551  1.00  0.00     0.039 A 
ATOM      7  C   UNL A   1      42.057  21.858  25.686  1.00  0.00     0.014 A 
ATOM      8  C   UNL A   1      41.564  21.088  27.928  1.00  0.00     0.014 A 
ATOM      9  C   UNL A   1      42.543  23.053  26.201  1.00  0.00     0.010 A 
ATOM     10  C   UNL A   1      41.967  22.324  28.438  1.00  0.00     0.010 A 
ATOM     11  C   UNL A   1      42.468  23.313  27.578  1.00  0.00    -0.014 A 
BRANCH  11  12
ATOM     12  C   UNL A   1      42.782  24.675  28.072  1.00  0.00     0.031 A 
ATOM     13  C   UNL A   1      41.706  25.696  28.300  1.00  0.00     0.074 A 
ATOM     14  C   UNL A   1      44.074  24.979  28.307  1.00  0.00     0.049 A 
ATOM     15  N   UNL A   1      41.828  26.932  28.713  1.00  0.00    -0.248 NA
ATOM     16  C   UNL A   1      40.319  25.288  28.028  1.00  0.00     0.031 C 
ATOM     17  C   UNL A   1      45.206  24.066  28.105  1.00  0.00     0.029 A 
ATOM     18  N   UNL A   1      44.658  26.130  28.768  1.00  0.00    -0.354 N 
ATOM     19  C   UNL A   1      40.542  27.457  28.728  1.00  0.00     0.074 A 
ATOM     20  C   UNL A   1      39.653  26.410  28.274  1.00  0.00     0.031 C 
ATOM     21  C   UNL A   1      46.339  24.682  28.468  1.00  0.00     0.029 A 
ATOM     22  C   UNL A   1      46.026  26.050  28.858  1.00  0.00     0.049 A 
ATOM     23  H   UNL A   1      44.147  26.935  29.012  1.00  0.00     0.167 HD
ATOM     24  C   UNL A   1      40.148  28.701  29.088  1.00  0.00     0.031 A 
ATOM     25  C   UNL A   1      46.939  26.984  29.181  1.00  0.00     0.031 A 
ATOM     26  C   UNL A   1      41.041  29.734  29.546  1.00  0.00     0.049 A 
ATOM     27  C   UNL A   1      46.468  28.366  29.528  1.00  0.00     0.074 A 
ATOM     28  C   UNL A   1      40.725  31.004  30.001  1.00  0.00     0.029 A 
ATOM     29  N   UNL A   1      42.422  29.626  29.591  1.00  0.00    -0.354 N 
ATOM     30  N   UNL A   1      45.242  28.820  29.613  1.00  0.00    -0.248 NA
ATOM     31  C   UNL A   1      47.506  29.364  29.815  1.00  0.00     0.031 C 
ATOM     32  C   UNL A   1      41.918  31.685  30.256  1.00  0.00     0.029 A 
ATOM     33  C   UNL A   1      42.975  30.823  30.017  1.00  0.00     0.049 A 
ATOM     34  H   UNL A   1      42.933  28.818  29.357  1.00  0.00     0.167 HD
ATOM     35  C   UNL A   1      45.360  30.156  29.969  1.00  0.00     0.074 A 
ATOM     36  C   UNL A   1      46.775  30.428  30.117  1.00  0.00     0.031 C 
ATOM     37  C   UNL A   1      44.384  31.077  30.147  1.00  0.00     0.031 A 
BRANCH  24  38
ATOM     38  C   UNL A   1      38.689  29.045  28.978  1.00  0.00    -0.014 A 
ATOM     39  C   UNL A   1      37.834  28.973  30.087  1.00  0.00     0.009 A 
ATOM     40  C   UNL A   1      38.190  29.551  27.766  1.00  0.00     0.009 A 
ATOM     41  C   UNL A   1      36.505  29.391  29.981  1.00  0.00     0.001 A 
ATOM     42  C   UNL A   1      36.868  29.988  27.669  1.00  0.00     0.001 A 
ATOM     43  C   UNL A   1      36.025  29.904  28.776  1.00  0.00     0.000 A 
ENDBRANCH  24  38
BRANCH  25  44
ATOM     44  C   UNL A   1      48.388  26.662  29.126  1.00  0.00    -0.014 A 
ATOM     45  C   UNL A   1      49.119  26.829  27.941  1.00  0.00     0.009 A 
ATOM     46  C   UNL A   1      49.045  26.167  30.265  1.00  0.00     0.009 A 
ATOM     47  C   UNL A   1      50.470  26.477  27.890  1.00  0.00     0.001 A 
ATOM     48  C   UNL A   1      50.403  25.851  30.221  1.00  0.00     0.001 A 
ATOM     49  C   UNL A   1      51.111  25.993  29.030  1.00  0.00     0.000 A 
ENDBRANCH  25  44
BRANCH  37  50
ATOM     50  C   UNL A   1      44.819  32.463  30.526  1.00  0.00    -0.014 A 
ATOM     51  C   UNL A   1      45.050  33.439  29.545  1.00  0.00     0.009 A 
ATOM     52  C   UNL A   1      44.966  32.805  31.879  1.00  0.00     0.009 A 
ATOM     53  C   UNL A   1      45.447  34.726  29.912  1.00  0.00     0.001 A 
ATOM     54  C   UNL A   1      45.335  34.101  32.244  1.00  0.00     0.001 A 
ATOM     55  C   UNL A   1      45.584  35.057  31.259  1.00  0.00     0.000 A 
ENDBRANCH  37  50
ENDBRANCH  11  12
ENDBRANCH   4   6
ENDBRANCH   1   2
BRANCH   1  56
ATOM     56  C   UNL A   1      37.505  19.721  24.981  1.00  0.00     0.042 C 
BRANCH  56  57
ATOM     57  C   UNL A   1      36.299  20.650  25.000  1.00  0.00     0.118 C 
BRANCH  57  58
ATOM     58  N   UNL A   1      35.039  19.915  24.952  1.00  0.00    -0.352 N 
ATOM     59  C   UNL A   1      33.769  20.331  25.244  1.00  0.00     0.254 C 
ATOM     60  H   UNL A   1      35.115  18.976  24.665  1.00  0.00     0.163 HD
ATOM     61  O   UNL A   1      32.870  19.506  25.385  1.00  0.00    -0.269 OA
BRANCH  59  62
ATOM     62  C   UNL A   1      33.468  21.751  25.403  1.00  0.00     0.076 A 
ATOM     63  C   UNL A   1      33.305  22.611  24.340  1.00  0.00     0.129 A 
ATOM     64  C   UNL A   1      33.268  22.298  26.650  1.00  0.00     0.129 A 
ATOM     65  N   UNL A   1      33.069  23.931  24.480  1.00  0.00    -0.236 NA
ATOM     66  N   UNL A   1      33.024  23.610  26.848  1.00  0.00    -0.236 NA
ATOM     67  C   UNL A   1      32.972  24.387  25.747  1.00  0.00     0.160 A 
BRANCH  67  68
ATOM     68  C   UNL A   1      32.748  25.822  25.922  1.00  0.00     0.038 A 
ATOM     69  C   UNL A   1      33.859  26.685  26.022  1.00  0.00     0.013 A 
ATOM     70  C   UNL A   1      31.466  26.396  26.012  1.00  0.00     0.052 A 
ATOM     71  C   UNL A   1      33.702  28.064  26.176  1.00  0.00     0.001 A 
ATOM     72  C   UNL A   1      31.311  27.779  26.165  1.00  0.00     0.021 A 
ATOM     73  Cl  UNL A   1      30.017  25.446  26.012  1.00  0.00    -0.084 Cl
ATOM     74  C   UNL A   1      32.426  28.611  26.241  1.00  0.00     0.002 A 
ENDBRANCH  67  68
ENDBRANCH  59  62
ENDBRANCH  57  58
ENDBRANCH  56  57
ENDBRANCH   1  56
TORSDOF 11
ENDMDL
