MODEL 1
REMARK VINA RESULT:     -11.1      0.000      0.000
REMARK SMILES O=C(NCc1ccc(C(=O)NCCCNC(=O)c2ccc(-c3c4nc(c(-c5ccccc5)c5ccc([nH]5)c(-c5ccccc5)c5nc(c(-c6ccccc6)c6ccc3[nH]6)C=C5)C=C4)cc2)o1)Nc1ccc(F)c(Cl)c1
REMARK SMILES IDX 12 1 11 2 9 3 10 4 8 6 5 7 6 8 66 9 7 10 4 11 3 12 1 13 2 14
REMARK SMILES IDX 67 15 68 18 69 19 75 20 70 21 73 22 71 23 74 24 72 25 13 26
REMARK SMILES IDX 14 27 15 28 16 29 17 31 18 32 19 33 65 34 20 35 64 36 21 37
REMARK SMILES IDX 22 38 23 39 58 40 24 41 63 42 57 43 59 44 25 45 62 46 56 47
REMARK SMILES IDX 55 48 26 50 48 51 33 52 47 53 34 54 37 55 46 56 60 57 35 58
REMARK SMILES IDX 36 59 45 61 61 62 38 63 27 64 28 65 32 66 29 67 31 68 30 69
REMARK SMILES IDX 49 70 50 71 54 72 51 73 53 74 52 75 39 76 40 77 44 78 41 79
REMARK SMILES IDX 43 80 42 81
REMARK H PARENT 11 5 3 16 67 17 15 30 59 49 37 60
REMARK Flexibility Score: inf
ROOT
ATOM      1  C   UNL A   1      33.578  28.947  24.886  1.00  0.00     0.118 C 
ENDROOT
BRANCH   1   2
ATOM      2  N   UNL A   1      34.025  28.504  23.580  1.00  0.00    -0.349 N 
ATOM      3  C   UNL A   1      33.398  27.737  22.625  1.00  0.00     0.286 C 
ATOM      4  O   UNL A   1      33.968  27.679  21.534  1.00  0.00    -0.266 OA
ATOM      5  H   UNL A   1      34.930  28.803  23.336  1.00  0.00     0.163 HD
BRANCH   3   6
ATOM      6  C   UNL A   1      32.143  27.059  22.897  1.00  0.00     0.191 A 
ATOM      7  C   UNL A   1      30.949  25.229  23.288  1.00  0.00     0.124 A 
ATOM      8  C   UNL A   1      30.074  26.288  23.378  1.00  0.00     0.048 A 
ATOM      9  O   UNL A   1      32.194  25.689  22.979  1.00  0.00    -0.454 OA
ATOM     10  C   UNL A   1      30.841  27.459  23.146  1.00  0.00     0.056 A 
BRANCH   7  11
ATOM     11  C   UNL A   1      30.802  23.759  23.448  1.00  0.00     0.193 C 
BRANCH  11  12
ATOM     12  N   UNL A   1      31.182  23.394  24.796  1.00  0.00    -0.331 N 
ATOM     13  O   UNL A   1      32.385  22.689  26.511  1.00  0.00    -0.248 OA
ATOM     14  C   UNL A   1      32.384  23.139  25.370  1.00  0.00     0.319 C 
ATOM     15  N   UNL A   1      33.495  23.422  24.624  1.00  0.00    -0.308 N 
ATOM     16  H   UNL A   1      30.422  23.317  25.416  1.00  0.00     0.165 HD
ATOM     17  H   UNL A   1      33.348  23.907  23.781  1.00  0.00     0.171 HD
BRANCH  15  18
ATOM     18  C   UNL A   1      34.832  23.091  24.939  1.00  0.00     0.044 A 
ATOM     19  C   UNL A   1      35.657  24.127  25.404  1.00  0.00     0.029 A 
ATOM     20  C   UNL A   1      35.372  21.809  24.790  1.00  0.00     0.049 A 
ATOM     21  C   UNL A   1      36.992  23.881  25.734  1.00  0.00     0.043 A 
ATOM     22  C   UNL A   1      36.709  21.565  25.116  1.00  0.00     0.078 A 
ATOM     23  C   UNL A   1      37.510  22.599  25.589  1.00  0.00     0.141 A 
ATOM     24  Cl  UNL A   1      37.356  19.980  24.920  1.00  0.00    -0.081 Cl
ATOM     25  F   UNL A   1      38.795  22.384  25.910  1.00  0.00    -0.205 F 
ENDBRANCH  15  18
ENDBRANCH  11  12
ENDBRANCH   7  11
ENDBRANCH   3   6
ENDBRANCH   1   2
BRANCH   1  26
ATOM     26  C   UNL A   1      34.040  28.010  26.000  1.00  0.00     0.042 C 
BRANCH  26  27
ATOM     27  C   UNL A   1      33.462  28.352  27.374  1.00  0.00     0.118 C 
BRANCH  27  28
ATOM     28  N   UNL A   1      33.453  29.787  27.626  1.00  0.00    -0.352 N 
ATOM     29  C   UNL A   1      34.413  30.612  28.155  1.00  0.00     0.251 C 
ATOM     30  H   UNL A   1      32.617  30.242  27.376  1.00  0.00     0.163 HD
ATOM     31  O   UNL A   1      34.106  31.760  28.464  1.00  0.00    -0.269 OA
BRANCH  29  32
ATOM     32  C   UNL A   1      35.806  30.151  28.365  1.00  0.00     0.039 A 
ATOM     33  C   UNL A   1      36.173  29.710  29.642  1.00  0.00     0.014 A 
ATOM     34  C   UNL A   1      36.769  30.223  27.356  1.00  0.00     0.014 A 
ATOM     35  C   UNL A   1      37.487  29.305  29.894  1.00  0.00     0.010 A 
ATOM     36  C   UNL A   1      38.065  29.761  27.591  1.00  0.00     0.010 A 
ATOM     37  C   UNL A   1      38.439  29.305  28.864  1.00  0.00    -0.014 A 
BRANCH  37  38
ATOM     38  C   UNL A   1      39.828  28.839  29.108  1.00  0.00     0.031 A 
ATOM     39  C   UNL A   1      40.845  29.757  29.730  1.00  0.00     0.074 A 
ATOM     40  C   UNL A   1      40.191  27.601  28.721  1.00  0.00     0.049 A 
ATOM     41  N   UNL A   1      42.113  29.539  29.976  1.00  0.00    -0.248 NA
ATOM     42  C   UNL A   1      40.384  31.104  30.103  1.00  0.00     0.031 C 
ATOM     43  C   UNL A   1      39.315  26.624  28.070  1.00  0.00     0.029 A 
ATOM     44  N   UNL A   1      41.399  26.956  28.812  1.00  0.00    -0.354 N 
ATOM     45  C   UNL A   1      42.605  30.725  30.507  1.00  0.00     0.074 A 
ATOM     46  C   UNL A   1      41.509  31.670  30.516  1.00  0.00     0.031 C 
ATOM     47  C   UNL A   1      40.009  25.499  27.838  1.00  0.00     0.029 A 
ATOM     48  C   UNL A   1      41.383  25.683  28.295  1.00  0.00     0.049 A 
ATOM     49  H   UNL A   1      42.201  27.366  29.210  1.00  0.00     0.167 HD
ATOM     50  C   UNL A   1      43.852  31.000  30.959  1.00  0.00     0.031 A 
ATOM     51  C   UNL A   1      42.364  24.767  28.197  1.00  0.00     0.031 A 
ATOM     52  C   UNL A   1      44.940  30.059  30.971  1.00  0.00     0.049 A 
ATOM     53  C   UNL A   1      43.731  25.088  28.728  1.00  0.00     0.074 A 
ATOM     54  C   UNL A   1      46.222  30.228  31.464  1.00  0.00     0.029 A 
ATOM     55  N   UNL A   1      44.872  28.769  30.468  1.00  0.00    -0.354 N 
ATOM     56  N   UNL A   1      44.160  26.192  29.287  1.00  0.00    -0.248 NA
ATOM     57  C   UNL A   1      44.744  24.027  28.630  1.00  0.00     0.031 C 
ATOM     58  C   UNL A   1      46.941  29.052  31.226  1.00  0.00     0.029 A 
ATOM     59  C   UNL A   1      46.093  28.135  30.626  1.00  0.00     0.049 A 
ATOM     60  H   UNL A   1      44.073  28.364  30.059  1.00  0.00     0.167 HD
ATOM     61  C   UNL A   1      45.484  25.951  29.631  1.00  0.00     0.074 A 
ATOM     62  C   UNL A   1      45.781  24.591  29.231  1.00  0.00     0.031 C 
ATOM     63  C   UNL A   1      46.374  26.783  30.226  1.00  0.00     0.031 A 
BRANCH  50  64
ATOM     64  C   UNL A   1      44.110  32.390  31.472  1.00  0.00    -0.014 A 
ATOM     65  C   UNL A   1      43.968  32.700  32.834  1.00  0.00     0.009 A 
ATOM     66  C   UNL A   1      44.537  33.393  30.588  1.00  0.00     0.009 A 
ATOM     67  C   UNL A   1      44.213  33.996  33.292  1.00  0.00     0.001 A 
ATOM     68  C   UNL A   1      44.805  34.680  31.053  1.00  0.00     0.001 A 
ATOM     69  C   UNL A   1      44.634  34.984  32.403  1.00  0.00     0.000 A 
ENDBRANCH  50  64
BRANCH  51  70
ATOM     70  C   UNL A   1      42.080  23.442  27.589  1.00  0.00    -0.014 A 
ATOM     71  C   UNL A   1      41.494  22.421  28.352  1.00  0.00     0.009 A 
ATOM     72  C   UNL A   1      42.398  23.190  26.245  1.00  0.00     0.009 A 
ATOM     73  C   UNL A   1      41.253  21.166  27.789  1.00  0.00     0.001 A 
ATOM     74  C   UNL A   1      42.132  21.943  25.678  1.00  0.00     0.001 A 
ATOM     75  C   UNL A   1      41.569  20.929  26.452  1.00  0.00     0.000 A 
ENDBRANCH  51  70
BRANCH  63  76
ATOM     76  C   UNL A   1      47.739  26.229  30.514  1.00  0.00    -0.014 A 
ATOM     77  C   UNL A   1      48.069  25.729  31.783  1.00  0.00     0.009 A 
ATOM     78  C   UNL A   1      48.700  26.186  29.492  1.00  0.00     0.009 A 
ATOM     79  C   UNL A   1      49.348  25.227  32.032  1.00  0.00     0.001 A 
ATOM     80  C   UNL A   1      49.970  25.661  29.737  1.00  0.00     0.001 A 
ATOM     81  C   UNL A   1      50.296  25.191  31.009  1.00  0.00     0.000 A 
ENDBRANCH  63  76
ENDBRANCH  37  38
ENDBRANCH  29  32
ENDBRANCH  27  28
ENDBRANCH  26  27
ENDBRANCH   1  26
TORSDOF 13
ENDMDL
MODEL 2
REMARK VINA RESULT:     -10.9      2.867      7.845
REMARK SMILES O=C(NCc1ccc(C(=O)NCCCNC(=O)c2ccc(-c3c4nc(c(-c5ccccc5)c5ccc([nH]5)c(-c5ccccc5)c5nc(c(-c6ccccc6)c6ccc3[nH]6)C=C5)C=C4)cc2)o1)Nc1ccc(F)c(Cl)c1
REMARK SMILES IDX 12 1 11 2 9 3 10 4 8 6 5 7 6 8 66 9 7 10 4 11 3 12 1 13 2 14
REMARK SMILES IDX 67 15 68 18 69 19 75 20 70 21 73 22 71 23 74 24 72 25 13 26
REMARK SMILES IDX 14 27 15 28 16 29 17 31 18 32 19 33 65 34 20 35 64 36 21 37
REMARK SMILES IDX 22 38 23 39 58 40 24 41 63 42 57 43 59 44 25 45 62 46 56 47
REMARK SMILES IDX 55 48 26 50 48 51 33 52 47 53 34 54 37 55 46 56 60 57 35 58
REMARK SMILES IDX 36 59 45 61 61 62 38 63 27 64 28 65 32 66 29 67 31 68 30 69
REMARK SMILES IDX 49 70 50 71 54 72 51 73 53 74 52 75 39 76 40 77 44 78 41 79
REMARK SMILES IDX 43 80 42 81
REMARK H PARENT 11 5 3 16 67 17 15 30 59 49 37 60
REMARK Flexibility Score: inf
ROOT
ATOM      1  C   UNL A   1      36.137  20.031  24.982  1.00  0.00     0.118 C 
ENDROOT
BRANCH   1   2
ATOM      2  N   UNL A   1      36.301  21.353  25.550  1.00  0.00    -0.349 N 
ATOM      3  C   UNL A   1      35.402  22.382  25.716  1.00  0.00     0.286 C 
ATOM      4  O   UNL A   1      35.799  23.328  26.399  1.00  0.00    -0.266 OA
ATOM      5  H   UNL A   1      37.211  21.549  25.872  1.00  0.00     0.163 HD
BRANCH   3   6
ATOM      6  C   UNL A   1      34.075  22.334  25.130  1.00  0.00     0.191 A 
ATOM      7  C   UNL A   1      31.863  22.454  25.276  1.00  0.00     0.124 A 
ATOM      8  C   UNL A   1      32.153  22.277  23.942  1.00  0.00     0.048 A 
ATOM      9  O   UNL A   1      33.019  22.470  25.998  1.00  0.00    -0.454 OA
ATOM     10  C   UNL A   1      33.568  22.218  23.847  1.00  0.00     0.056 A 
BRANCH   7  11
ATOM     11  C   UNL A   1      30.598  22.616  26.039  1.00  0.00     0.193 C 
BRANCH  11  12
ATOM     12  N   UNL A   1      30.575  23.936  26.632  1.00  0.00    -0.331 N 
ATOM     13  O   UNL A   1      30.597  26.136  26.839  1.00  0.00    -0.248 OA
ATOM     14  C   UNL A   1      30.403  25.173  26.104  1.00  0.00     0.319 C 
ATOM     15  N   UNL A   1      30.013  25.236  24.795  1.00  0.00    -0.308 N 
ATOM     16  H   UNL A   1      30.709  23.935  27.607  1.00  0.00     0.165 HD
ATOM     17  H   UNL A   1      29.762  24.385  24.369  1.00  0.00     0.171 HD
BRANCH  15  18
ATOM     18  C   UNL A   1      29.933  26.394  23.990  1.00  0.00     0.044 A 
ATOM     19  C   UNL A   1      31.104  26.804  23.336  1.00  0.00     0.029 A 
ATOM     20  C   UNL A   1      28.767  27.154  23.835  1.00  0.00     0.049 A 
ATOM     21  C   UNL A   1      31.105  27.941  22.523  1.00  0.00     0.043 A 
ATOM     22  C   UNL A   1      28.771  28.293  23.026  1.00  0.00     0.078 A 
ATOM     23  C   UNL A   1      29.937  28.679  22.372  1.00  0.00     0.141 A 
ATOM     24  Cl  UNL A   1      27.327  29.217  22.853  1.00  0.00    -0.081 Cl
ATOM     25  F   UNL A   1      29.960  29.768  21.590  1.00  0.00    -0.205 F 
ENDBRANCH  15  18
ENDBRANCH  11  12
ENDBRANCH   7  11
ENDBRANCH   3   6
ENDBRANCH   1   2
BRANCH   1  26
ATOM     26  C   UNL A   1      37.451  19.255  24.938  1.00  0.00     0.042 C 
BRANCH  26  27
ATOM     27  C   UNL A   1      38.665  20.068  25.391  1.00  0.00     0.118 C 
BRANCH  27  28
ATOM     28  N   UNL A   1      39.833  19.231  25.625  1.00  0.00    -0.352 N 
ATOM     29  C   UNL A   1      41.094  19.549  26.060  1.00  0.00     0.251 C 
ATOM     30  H   UNL A   1      39.695  18.274  25.438  1.00  0.00     0.163 HD
ATOM     31  O   UNL A   1      41.981  18.701  25.986  1.00  0.00    -0.269 OA
BRANCH  29  32
ATOM     32  C   UNL A   1      41.412  20.887  26.612  1.00  0.00     0.039 A 
ATOM     33  C   UNL A   1      41.934  21.855  25.746  1.00  0.00     0.014 A 
ATOM     34  C   UNL A   1      41.285  21.175  27.973  1.00  0.00     0.014 A 
ATOM     35  C   UNL A   1      42.286  23.117  26.234  1.00  0.00     0.010 A 
ATOM     36  C   UNL A   1      41.578  22.454  28.448  1.00  0.00     0.010 A 
ATOM     37  C   UNL A   1      42.089  23.435  27.586  1.00  0.00    -0.014 A 
BRANCH  37  38
ATOM     38  C   UNL A   1      42.420  24.785  28.109  1.00  0.00     0.031 A 
ATOM     39  C   UNL A   1      43.824  25.116  28.538  1.00  0.00     0.074 A 
ATOM     40  C   UNL A   1      41.444  25.702  28.248  1.00  0.00     0.049 A 
ATOM     41  N   UNL A   1      44.289  26.223  29.059  1.00  0.00    -0.248 NA
ATOM     42  C   UNL A   1      44.833  24.056  28.382  1.00  0.00     0.031 C 
ATOM     43  C   UNL A   1      40.034  25.498  27.908  1.00  0.00     0.029 A 
ATOM     44  N   UNL A   1      41.489  26.990  28.721  1.00  0.00    -0.354 N 
ATOM     45  C   UNL A   1      45.633  25.987  29.316  1.00  0.00     0.074 A 
ATOM     46  C   UNL A   1      45.903  24.619  28.926  1.00  0.00     0.031 C 
ATOM     47  C   UNL A   1      39.353  26.625  28.167  1.00  0.00     0.029 A 
ATOM     48  C   UNL A   1      40.269  27.620  28.716  1.00  0.00     0.049 A 
ATOM     49  H   UNL A   1      42.317  27.420  29.034  1.00  0.00     0.167 HD
ATOM     50  C   UNL A   1      46.564  26.833  29.820  1.00  0.00     0.031 A 
ATOM     51  C   UNL A   1      39.924  28.860  29.112  1.00  0.00     0.031 A 
ATOM     52  C   UNL A   1      46.306  28.199  30.191  1.00  0.00     0.049 A 
ATOM     53  C   UNL A   1      40.979  29.786  29.642  1.00  0.00     0.074 A 
ATOM     54  C   UNL A   1      47.199  29.151  30.653  1.00  0.00     0.029 A 
ATOM     55  N   UNL A   1      45.063  28.809  30.139  1.00  0.00    -0.354 N 
ATOM     56  N   UNL A   1      42.259  29.566  29.817  1.00  0.00    -0.248 NA
ATOM     57  C   UNL A   1      40.543  31.141  30.014  1.00  0.00     0.031 C 
ATOM     58  C   UNL A   1      46.488  30.327  30.915  1.00  0.00     0.029 A 
ATOM     59  C   UNL A   1      45.161  30.120  30.574  1.00  0.00     0.049 A 
ATOM     60  H   UNL A   1      44.232  28.374  29.837  1.00  0.00     0.167 HD
ATOM     61  C   UNL A   1      42.785  30.759  30.293  1.00  0.00     0.074 A 
ATOM     62  C   UNL A   1      41.689  31.704  30.365  1.00  0.00     0.031 C 
ATOM     63  C   UNL A   1      44.064  31.047  30.639  1.00  0.00     0.031 A 
BRANCH  50  64
ATOM     64  C   UNL A   1      47.956  26.297  30.008  1.00  0.00    -0.014 A 
ATOM     65  C   UNL A   1      48.367  25.754  31.236  1.00  0.00     0.009 A 
ATOM     66  C   UNL A   1      48.857  26.301  28.931  1.00  0.00     0.009 A 
ATOM     67  C   UNL A   1      49.664  25.259  31.390  1.00  0.00     0.001 A 
ATOM     68  C   UNL A   1      50.144  25.783  29.082  1.00  0.00     0.001 A 
ATOM     69  C   UNL A   1      50.550  25.271  30.314  1.00  0.00     0.000 A 
ENDBRANCH  50  64
BRANCH  51  70
ATOM     70  C   UNL A   1      38.512  29.307  28.996  1.00  0.00    -0.014 A 
ATOM     71  C   UNL A   1      37.662  29.269  30.111  1.00  0.00     0.009 A 
ATOM     72  C   UNL A   1      38.008  29.771  27.772  1.00  0.00     0.009 A 
ATOM     73  C   UNL A   1      36.327  29.663  29.997  1.00  0.00     0.001 A 
ATOM     74  C   UNL A   1      36.681  30.189  27.667  1.00  0.00     0.001 A 
ATOM     75  C   UNL A   1      35.839  30.126  28.776  1.00  0.00     0.000 A 
ENDBRANCH  51  70
BRANCH  63  76
ATOM     76  C   UNL A   1      44.351  32.451  31.088  1.00  0.00    -0.014 A 
ATOM     77  C   UNL A   1      44.663  33.462  30.167  1.00  0.00     0.009 A 
ATOM     78  C   UNL A   1      44.282  32.769  32.454  1.00  0.00     0.009 A 
ATOM     79  C   UNL A   1      44.936  34.758  30.608  1.00  0.00     0.001 A 
ATOM     80  C   UNL A   1      44.531  34.072  32.890  1.00  0.00     0.001 A 
ATOM     81  C   UNL A   1      44.867  35.063  31.968  1.00  0.00     0.000 A 
ENDBRANCH  63  76
ENDBRANCH  37  38
ENDBRANCH  29  32
ENDBRANCH  27  28
ENDBRANCH  26  27
ENDBRANCH   1  26
TORSDOF 13
ENDMDL
MODEL 3
REMARK VINA RESULT:     -10.8      3.004      7.908
REMARK SMILES O=C(NCc1ccc(C(=O)NCCCNC(=O)c2ccc(-c3c4nc(c(-c5ccccc5)c5ccc([nH]5)c(-c5ccccc5)c5nc(c(-c6ccccc6)c6ccc3[nH]6)C=C5)C=C4)cc2)o1)Nc1ccc(F)c(Cl)c1
REMARK SMILES IDX 12 1 11 2 9 3 10 4 8 6 5 7 6 8 66 9 7 10 4 11 3 12 1 13 2 14
REMARK SMILES IDX 67 15 68 18 69 19 75 20 70 21 73 22 71 23 74 24 72 25 13 26
REMARK SMILES IDX 14 27 15 28 16 29 17 31 18 32 19 33 65 34 20 35 64 36 21 37
REMARK SMILES IDX 22 38 23 39 58 40 24 41 63 42 57 43 59 44 25 45 62 46 56 47
REMARK SMILES IDX 55 48 26 50 48 51 33 52 47 53 34 54 37 55 46 56 60 57 35 58
REMARK SMILES IDX 36 59 45 61 61 62 38 63 27 64 28 65 32 66 29 67 31 68 30 69
REMARK SMILES IDX 49 70 50 71 54 72 51 73 53 74 52 75 39 76 40 77 44 78 41 79
REMARK SMILES IDX 43 80 42 81
REMARK H PARENT 11 5 3 16 67 17 15 30 59 49 37 60
REMARK Flexibility Score: inf
ROOT
ATOM      1  C   UNL A   1      36.172  20.251  24.977  1.00  0.00     0.118 C 
ENDROOT
BRANCH   1   2
ATOM      2  N   UNL A   1      35.027  19.369  24.875  1.00  0.00    -0.349 N 
ATOM      3  C   UNL A   1      33.704  19.568  25.197  1.00  0.00     0.286 C 
ATOM      4  O   UNL A   1      32.930  18.683  24.828  1.00  0.00    -0.266 OA
ATOM      5  H   UNL A   1      35.231  18.476  24.515  1.00  0.00     0.163 HD
BRANCH   3   6
ATOM      6  C   UNL A   1      33.265  20.753  25.912  1.00  0.00     0.191 A 
ATOM      7  C   UNL A   1      31.772  22.335  26.352  1.00  0.00     0.124 A 
ATOM      8  C   UNL A   1      32.822  22.544  27.217  1.00  0.00     0.048 A 
ATOM      9  O   UNL A   1      32.044  21.267  25.550  1.00  0.00    -0.454 OA
ATOM     10  C   UNL A   1      33.768  21.521  26.948  1.00  0.00     0.056 A 
BRANCH   7  11
ATOM     11  C   UNL A   1      30.471  23.020  26.133  1.00  0.00     0.193 C 
BRANCH  11  12
ATOM     12  N   UNL A   1      30.543  24.353  26.691  1.00  0.00    -0.331 N 
ATOM     13  O   UNL A   1      30.707  26.552  26.839  1.00  0.00    -0.248 OA
ATOM     14  C   UNL A   1      30.438  25.585  26.134  1.00  0.00     0.319 C 
ATOM     15  N   UNL A   1      30.025  25.639  24.832  1.00  0.00    -0.308 N 
ATOM     16  H   UNL A   1      30.698  24.368  27.663  1.00  0.00     0.165 HD
ATOM     17  H   UNL A   1      29.712  24.795  24.433  1.00  0.00     0.171 HD
BRANCH  15  18
ATOM     18  C   UNL A   1      30.000  26.779  23.998  1.00  0.00     0.044 A 
ATOM     19  C   UNL A   1      31.233  27.258  23.529  1.00  0.00     0.029 A 
ATOM     20  C   UNL A   1      28.828  27.457  23.642  1.00  0.00     0.049 A 
ATOM     21  C   UNL A   1      31.291  28.383  22.701  1.00  0.00     0.043 A 
ATOM     22  C   UNL A   1      28.888  28.584  22.819  1.00  0.00     0.078 A 
ATOM     23  C   UNL A   1      30.117  29.039  22.350  1.00  0.00     0.141 A 
ATOM     24  Cl  UNL A   1      27.435  29.407  22.398  1.00  0.00    -0.081 Cl
ATOM     25  F   UNL A   1      30.195  30.118  21.556  1.00  0.00    -0.205 F 
ENDBRANCH  15  18
ENDBRANCH  11  12
ENDBRANCH   7  11
ENDBRANCH   3   6
ENDBRANCH   1   2
BRANCH   1  26
ATOM     26  C   UNL A   1      37.494  19.493  24.869  1.00  0.00     0.042 C 
BRANCH  26  27
ATOM     27  C   UNL A   1      38.670  20.202  25.542  1.00  0.00     0.118 C 
BRANCH  27  28
ATOM     28  N   UNL A   1      39.819  19.324  25.711  1.00  0.00    -0.352 N 
ATOM     29  C   UNL A   1      41.107  19.594  26.097  1.00  0.00     0.251 C 
ATOM     30  H   UNL A   1      39.643  18.376  25.515  1.00  0.00     0.163 HD
ATOM     31  O   UNL A   1      41.962  18.721  25.970  1.00  0.00    -0.269 OA
BRANCH  29  32
ATOM     32  C   UNL A   1      41.492  20.911  26.657  1.00  0.00     0.039 A 
ATOM     33  C   UNL A   1      41.947  21.900  25.776  1.00  0.00     0.014 A 
ATOM     34  C   UNL A   1      41.491  21.159  28.031  1.00  0.00     0.014 A 
ATOM     35  C   UNL A   1      42.357  23.142  26.266  1.00  0.00     0.010 A 
ATOM     36  C   UNL A   1      41.844  22.420  28.515  1.00  0.00     0.010 A 
ATOM     37  C   UNL A   1      42.288  23.421  27.639  1.00  0.00    -0.014 A 
BRANCH  37  38
ATOM     38  C   UNL A   1      42.683  24.751  28.168  1.00  0.00     0.031 A 
ATOM     39  C   UNL A   1      41.652  25.825  28.385  1.00  0.00     0.074 A 
ATOM     40  C   UNL A   1      43.983  25.013  28.406  1.00  0.00     0.049 A 
ATOM     41  N   UNL A   1      41.816  27.058  28.796  1.00  0.00    -0.248 NA
ATOM     42  C   UNL A   1      40.255  25.476  28.079  1.00  0.00     0.031 C 
ATOM     43  C   UNL A   1      45.088  24.075  28.200  1.00  0.00     0.029 A 
ATOM     44  N   UNL A   1      44.594  26.153  28.866  1.00  0.00    -0.354 N 
ATOM     45  C   UNL A   1      40.554  27.637  28.774  1.00  0.00     0.074 A 
ATOM     46  C   UNL A   1      39.638  26.632  28.276  1.00  0.00     0.031 C 
ATOM     47  C   UNL A   1      46.240  24.671  28.550  1.00  0.00     0.029 A 
ATOM     48  C   UNL A   1      45.959  26.038  28.975  1.00  0.00     0.049 A 
ATOM     49  H   UNL A   1      44.101  26.974  29.096  1.00  0.00     0.167 HD
ATOM     50  C   UNL A   1      40.186  28.887  29.144  1.00  0.00     0.031 A 
ATOM     51  C   UNL A   1      46.882  26.934  29.372  1.00  0.00     0.031 A 
ATOM     52  C   UNL A   1      41.088  29.883  29.659  1.00  0.00     0.049 A 
ATOM     53  C   UNL A   1      46.445  28.305  29.802  1.00  0.00     0.074 A 
ATOM     54  C   UNL A   1      40.798  31.156  30.117  1.00  0.00     0.029 A 
ATOM     55  N   UNL A   1      42.458  29.715  29.784  1.00  0.00    -0.354 N 
ATOM     56  N   UNL A   1      45.238  28.813  29.836  1.00  0.00    -0.248 NA
ATOM     57  C   UNL A   1      47.499  29.219  30.266  1.00  0.00     0.031 C 
ATOM     58  C   UNL A   1      41.999  31.772  30.486  1.00  0.00     0.029 A 
ATOM     59  C   UNL A   1      43.030  30.866  30.300  1.00  0.00     0.049 A 
ATOM     60  H   UNL A   1      42.952  28.898  29.543  1.00  0.00     0.167 HD
ATOM     61  C   UNL A   1      45.383  30.095  30.348  1.00  0.00     0.074 A 
ATOM     62  C   UNL A   1      46.793  30.281  30.625  1.00  0.00     0.031 C 
ATOM     63  C   UNL A   1      44.432  31.036  30.571  1.00  0.00     0.031 A 
BRANCH  50  64
ATOM     64  C   UNL A   1      38.735  29.252  28.998  1.00  0.00    -0.014 A 
ATOM     65  C   UNL A   1      38.227  29.742  27.784  1.00  0.00     0.009 A 
ATOM     66  C   UNL A   1      37.856  29.069  30.078  1.00  0.00     0.009 A 
ATOM     67  C   UNL A   1      36.876  30.075  27.668  1.00  0.00     0.001 A 
ATOM     68  C   UNL A   1      36.502  29.378  29.949  1.00  0.00     0.001 A 
ATOM     69  C   UNL A   1      36.014  29.890  28.748  1.00  0.00     0.000 A 
ENDBRANCH  50  64
BRANCH  51  70
ATOM     70  C   UNL A   1      48.317  26.553  29.404  1.00  0.00    -0.014 A 
ATOM     71  C   UNL A   1      49.141  26.794  28.295  1.00  0.00     0.009 A 
ATOM     72  C   UNL A   1      48.868  25.943  30.541  1.00  0.00     0.009 A 
ATOM     73  C   UNL A   1      50.484  26.410  28.314  1.00  0.00     0.001 A 
ATOM     74  C   UNL A   1      50.216  25.584  30.567  1.00  0.00     0.001 A 
ATOM     75  C   UNL A   1      51.021  25.809  29.452  1.00  0.00     0.000 A 
ENDBRANCH  51  70
BRANCH  63  76
ATOM     76  C   UNL A   1      44.883  32.333  31.178  1.00  0.00    -0.014 A 
ATOM     77  C   UNL A   1      44.938  32.507  32.569  1.00  0.00     0.009 A 
ATOM     78  C   UNL A   1      45.282  33.388  30.342  1.00  0.00     0.009 A 
ATOM     79  C   UNL A   1      45.351  33.725  33.111  1.00  0.00     0.001 A 
ATOM     80  C   UNL A   1      45.718  34.596  30.888  1.00  0.00     0.001 A 
ATOM     81  C   UNL A   1      45.743  34.767  32.272  1.00  0.00     0.000 A 
ENDBRANCH  63  76
ENDBRANCH  37  38
ENDBRANCH  29  32
ENDBRANCH  27  28
ENDBRANCH  26  27
ENDBRANCH   1  26
TORSDOF 13
ENDMDL
