MODEL 1
REMARK VINA RESULT:     -12.0      0.000      0.000
REMARK SMILES CCN(CC)c1ncc(NC(=O)c2ccc(C)cc2)cc1C(=O)NCCCNC(=O)c1ccc(-c2c3nc(c(-c4ccccc4)c4ccc([nH]4)c(-c4ccccc4)c4nc(c(-c5ccccc5)c5ccc2[nH]5)C=C4)C=C3)cc1
REMARK SMILES IDX 26 1 25 2 24 3 22 4 23 5 21 7 6 8 7 9 8 10 20 11 9 12 3 13
REMARK SMILES IDX 2 14 1 15 4 16 5 17 10 18 11 19 12 21 13 22 14 23 19 24
REMARK SMILES IDX 15 25 18 26 16 27 17 28 27 29 28 30 29 31 30 33 31 34 32 35
REMARK SMILES IDX 78 36 33 37 77 38 34 39 35 40 36 41 71 42 37 43 76 44 70 45
REMARK SMILES IDX 72 46 38 47 75 48 69 49 68 50 39 52 61 53 46 54 60 55 47 56
REMARK SMILES IDX 50 57 59 58 73 59 48 60 49 61 58 63 74 64 51 65 40 66 41 67
REMARK SMILES IDX 45 68 42 69 44 70 43 71 62 72 63 73 67 74 64 75 66 76 65 77
REMARK SMILES IDX 52 78 53 79 57 80 54 81 56 82 55 83
REMARK H PARENT 24 6 10 20 28 32 72 51 50 62
REMARK Flexibility Score: inf
ROOT
ATOM      1  C   UNL A   1      33.094  31.225  27.283  1.00  0.00     0.042 C 
ENDROOT
BRANCH   1   2
ATOM      2  C   UNL A   1      32.414  30.410  26.188  1.00  0.00     0.118 C 
BRANCH   2   3
ATOM      3  N   UNL A   1      33.326  29.579  25.419  1.00  0.00    -0.352 N 
ATOM      4  C   UNL A   1      33.194  28.402  24.709  1.00  0.00     0.255 C 
ATOM      5  O   UNL A   1      34.007  28.282  23.791  1.00  0.00    -0.269 OA
ATOM      6  H   UNL A   1      34.244  29.935  25.400  1.00  0.00     0.163 HD
BRANCH   4   7
ATOM      7  C   UNL A   1      32.173  27.332  24.975  1.00  0.00     0.084 A 
ATOM      8  C   UNL A   1      30.917  27.345  24.329  1.00  0.00     0.141 A 
ATOM      9  N   UNL A   1      29.938  26.470  24.685  1.00  0.00    -0.236 NA
ATOM     10  C   UNL A   1      30.176  25.545  25.636  1.00  0.00     0.139 A 
ATOM     11  C   UNL A   1      32.386  26.316  25.922  1.00  0.00     0.045 A 
ATOM     12  C   UNL A   1      31.401  25.380  26.242  1.00  0.00     0.060 A 
BRANCH   8  13
ATOM     13  N   UNL A   1      30.581  28.187  23.280  1.00  0.00    -0.357 N 
BRANCH  13  14
ATOM     14  C   UNL A   1      31.030  27.812  21.938  1.00  0.00     0.114 C 
ATOM     15  C   UNL A   1      31.536  26.381  21.875  1.00  0.00     0.027 C 
ENDBRANCH  13  14
BRANCH  13  16
ATOM     16  C   UNL A   1      29.328  28.937  23.400  1.00  0.00     0.114 C 
ATOM     17  C   UNL A   1      29.519  30.440  23.581  1.00  0.00     0.027 C 
ENDBRANCH  13  16
ENDBRANCH   8  13
BRANCH  12  18
ATOM     18  N   UNL A   1      31.726  24.396  27.194  1.00  0.00    -0.321 N 
ATOM     19  C   UNL A   1      32.570  23.307  27.160  1.00  0.00     0.255 C 
ATOM     20  H   UNL A   1      31.259  24.505  28.053  1.00  0.00     0.170 HD
ATOM     21  O   UNL A   1      32.459  22.445  28.031  1.00  0.00    -0.269 OA
BRANCH  19  22
ATOM     22  C   UNL A   1      33.652  23.169  26.162  1.00  0.00     0.040 A 
ATOM     23  C   UNL A   1      33.317  22.743  24.873  1.00  0.00     0.014 A 
ATOM     24  C   UNL A   1      34.993  23.383  26.497  1.00  0.00     0.014 A 
ATOM     25  C   UNL A   1      34.311  22.604  23.903  1.00  0.00     0.004 A 
ATOM     26  C   UNL A   1      35.983  23.263  25.519  1.00  0.00     0.004 A 
ATOM     27  C   UNL A   1      35.647  22.891  24.211  1.00  0.00    -0.051 A 
ATOM     28  C   UNL A   1      36.708  22.748  23.160  1.00  0.00     0.044 C 
ENDBRANCH  19  22
ENDBRANCH  12  18
ENDBRANCH   4   7
ENDBRANCH   2   3
ENDBRANCH   1   2
BRANCH   1  29
ATOM     29  C   UNL A   1      34.422  30.621  27.720  1.00  0.00     0.118 C 
BRANCH  29  30
ATOM     30  N   UNL A   1      35.371  31.592  28.267  1.00  0.00    -0.352 N 
ATOM     31  C   UNL A   1      36.684  31.403  28.678  1.00  0.00     0.251 C 
ATOM     32  H   UNL A   1      35.029  32.512  28.355  1.00  0.00     0.163 HD
ATOM     33  O   UNL A   1      37.343  32.329  29.100  1.00  0.00    -0.269 OA
BRANCH  31  34
ATOM     34  C   UNL A   1      37.307  30.073  28.466  1.00  0.00     0.039 A 
ATOM     35  C   UNL A   1      37.432  29.229  29.575  1.00  0.00     0.014 A 
ATOM     36  C   UNL A   1      37.973  29.787  27.279  1.00  0.00     0.014 A 
ATOM     37  C   UNL A   1      38.436  28.265  29.579  1.00  0.00     0.010 A 
ATOM     38  C   UNL A   1      39.038  28.912  27.320  1.00  0.00     0.010 A 
ATOM     39  C   UNL A   1      39.315  28.212  28.498  1.00  0.00    -0.014 A 
BRANCH  39  40
ATOM     40  C   UNL A   1      40.611  27.548  28.565  1.00  0.00     0.031 A 
ATOM     41  C   UNL A   1      40.706  26.090  28.342  1.00  0.00     0.074 A 
ATOM     42  C   UNL A   1      41.729  28.278  28.783  1.00  0.00     0.049 A 
ATOM     43  N   UNL A   1      41.617  25.332  28.851  1.00  0.00    -0.248 NA
ATOM     44  C   UNL A   1      39.723  25.359  27.550  1.00  0.00     0.031 C 
ATOM     45  C   UNL A   1      43.112  27.818  28.666  1.00  0.00     0.029 A 
ATOM     46  N   UNL A   1      41.851  29.543  29.368  1.00  0.00    -0.354 N 
ATOM     47  C   UNL A   1      41.531  24.111  28.219  1.00  0.00     0.074 A 
ATOM     48  C   UNL A   1      40.282  24.147  27.497  1.00  0.00     0.031 C 
ATOM     49  C   UNL A   1      43.892  28.608  29.423  1.00  0.00     0.029 A 
ATOM     50  C   UNL A   1      43.008  29.497  30.161  1.00  0.00     0.049 A 
ATOM     51  H   UNL A   1      41.245  30.310  29.248  1.00  0.00     0.167 HD
ATOM     52  C   UNL A   1      42.596  23.260  28.239  1.00  0.00     0.031 A 
ATOM     53  C   UNL A   1      43.008  29.651  31.517  1.00  0.00     0.031 A 
ATOM     54  C   UNL A   1      43.692  23.780  29.054  1.00  0.00     0.049 A 
ATOM     55  C   UNL A   1      43.605  28.464  32.250  1.00  0.00     0.074 A 
ATOM     56  C   UNL A   1      44.867  24.439  28.731  1.00  0.00     0.029 A 
ATOM     57  N   UNL A   1      43.517  23.931  30.425  1.00  0.00    -0.354 N 
ATOM     58  N   UNL A   1      43.763  27.286  31.712  1.00  0.00    -0.248 NA
ATOM     59  C   UNL A   1      44.004  28.489  33.657  1.00  0.00     0.031 C 
ATOM     60  C   UNL A   1      45.355  25.063  29.906  1.00  0.00     0.029 A 
ATOM     61  C   UNL A   1      44.495  24.756  30.946  1.00  0.00     0.049 A 
ATOM     62  H   UNL A   1      42.799  23.509  30.950  1.00  0.00     0.167 HD
ATOM     63  C   UNL A   1      44.255  26.417  32.648  1.00  0.00     0.074 A 
ATOM     64  C   UNL A   1      44.395  27.217  33.850  1.00  0.00     0.031 C 
ATOM     65  C   UNL A   1      44.491  25.106  32.358  1.00  0.00     0.031 A 
BRANCH  52  66
ATOM     66  C   UNL A   1      42.761  22.117  27.261  1.00  0.00    -0.014 A 
ATOM     67  C   UNL A   1      42.022  20.932  27.446  1.00  0.00     0.009 A 
ATOM     68  C   UNL A   1      43.663  22.112  26.184  1.00  0.00     0.009 A 
ATOM     69  C   UNL A   1      42.251  19.782  26.678  1.00  0.00     0.001 A 
ATOM     70  C   UNL A   1      43.928  20.954  25.438  1.00  0.00     0.001 A 
ATOM     71  C   UNL A   1      43.232  19.783  25.695  1.00  0.00     0.000 A 
ENDBRANCH  52  66
BRANCH  53  72
ATOM     72  C   UNL A   1      41.893  30.473  32.056  1.00  0.00    -0.014 A 
ATOM     73  C   UNL A   1      41.821  31.831  31.698  1.00  0.00     0.009 A 
ATOM     74  C   UNL A   1      40.757  29.863  32.607  1.00  0.00     0.009 A 
ATOM     75  C   UNL A   1      40.616  32.533  31.792  1.00  0.00     0.001 A 
ATOM     76  C   UNL A   1      39.552  30.570  32.702  1.00  0.00     0.001 A 
ATOM     77  C   UNL A   1      39.474  31.891  32.264  1.00  0.00     0.000 A 
ENDBRANCH  53  72
BRANCH  65  78
ATOM     78  C   UNL A   1      44.807  24.032  33.365  1.00  0.00    -0.014 A 
ATOM     79  C   UNL A   1      43.898  23.043  33.761  1.00  0.00     0.009 A 
ATOM     80  C   UNL A   1      46.134  23.908  33.835  1.00  0.00     0.009 A 
ATOM     81  C   UNL A   1      44.284  22.005  34.619  1.00  0.00     0.001 A 
ATOM     82  C   UNL A   1      46.532  22.852  34.659  1.00  0.00     0.001 A 
ATOM     83  C   UNL A   1      45.602  21.905  35.060  1.00  0.00     0.000 A 
ENDBRANCH  65  78
ENDBRANCH  39  40
ENDBRANCH  31  34
ENDBRANCH  29  30
ENDBRANCH   1  29
TORSDOF 15
ENDMDL
MODEL 2
REMARK VINA RESULT:     -11.8      2.263      3.946
REMARK SMILES CCN(CC)c1ncc(NC(=O)c2ccc(C)cc2)cc1C(=O)NCCCNC(=O)c1ccc(-c2c3nc(c(-c4ccccc4)c4ccc([nH]4)c(-c4ccccc4)c4nc(c(-c5ccccc5)c5ccc2[nH]5)C=C4)C=C3)cc1
REMARK SMILES IDX 26 1 25 2 24 3 22 4 23 5 21 7 6 8 7 9 8 10 20 11 9 12 3 13
REMARK SMILES IDX 2 14 1 15 4 16 5 17 10 18 11 19 12 21 13 22 14 23 19 24
REMARK SMILES IDX 15 25 18 26 16 27 17 28 27 29 28 30 29 31 30 33 31 34 32 35
REMARK SMILES IDX 78 36 33 37 77 38 34 39 35 40 36 41 71 42 37 43 76 44 70 45
REMARK SMILES IDX 72 46 38 47 75 48 69 49 68 50 39 52 61 53 46 54 60 55 47 56
REMARK SMILES IDX 50 57 59 58 73 59 48 60 49 61 58 63 74 64 51 65 40 66 41 67
REMARK SMILES IDX 45 68 42 69 44 70 43 71 62 72 63 73 67 74 64 75 66 76 65 77
REMARK SMILES IDX 52 78 53 79 57 80 54 81 56 82 55 83
REMARK H PARENT 24 6 10 20 28 32 72 51 50 62
REMARK Flexibility Score: inf
ROOT
ATOM      1  C   UNL A   1      34.682  30.322  27.868  1.00  0.00     0.042 C 
ENDROOT
BRANCH   1   2
ATOM      2  C   UNL A   1      33.619  29.896  26.861  1.00  0.00     0.118 C 
BRANCH   2   3
ATOM      3  N   UNL A   1      34.147  29.176  25.714  1.00  0.00    -0.352 N 
ATOM      4  C   UNL A   1      33.627  28.250  24.832  1.00  0.00     0.255 C 
ATOM      5  O   UNL A   1      34.165  28.261  23.724  1.00  0.00    -0.269 OA
ATOM      6  H   UNL A   1      35.087  29.399  25.523  1.00  0.00     0.163 HD
BRANCH   4   7
ATOM      7  C   UNL A   1      32.507  27.293  25.131  1.00  0.00     0.084 A 
ATOM      8  C   UNL A   1      31.222  27.478  24.574  1.00  0.00     0.141 A 
ATOM      9  N   UNL A   1      30.172  26.707  24.966  1.00  0.00    -0.236 NA
ATOM     10  C   UNL A   1      30.361  25.721  25.866  1.00  0.00     0.139 A 
ATOM     11  C   UNL A   1      32.660  26.220  26.025  1.00  0.00     0.045 A 
ATOM     12  C   UNL A   1      31.595  25.390  26.379  1.00  0.00     0.060 A 
BRANCH   8  13
ATOM     13  N   UNL A   1      30.920  28.397  23.581  1.00  0.00    -0.357 N 
BRANCH  13  14
ATOM     14  C   UNL A   1      30.536  27.877  22.268  1.00  0.00     0.114 C 
ATOM     15  C   UNL A   1      31.484  26.797  21.773  1.00  0.00     0.027 C 
ENDBRANCH  13  14
BRANCH  13  16
ATOM     16  C   UNL A   1      30.346  29.676  24.006  1.00  0.00     0.114 C 
ATOM     17  C   UNL A   1      29.121  30.106  23.204  1.00  0.00     0.027 C 
ENDBRANCH  13  16
ENDBRANCH   8  13
BRANCH  12  18
ATOM     18  N   UNL A   1      31.862  24.335  27.271  1.00  0.00    -0.321 N 
ATOM     19  C   UNL A   1      32.623  23.192  27.163  1.00  0.00     0.255 C 
ATOM     20  H   UNL A   1      31.420  24.433  28.145  1.00  0.00     0.170 HD
ATOM     21  O   UNL A   1      32.464  22.295  27.989  1.00  0.00    -0.269 OA
BRANCH  19  22
ATOM     22  C   UNL A   1      33.674  23.029  26.136  1.00  0.00     0.040 A 
ATOM     23  C   UNL A   1      34.989  23.363  26.473  1.00  0.00     0.014 A 
ATOM     24  C   UNL A   1      33.372  22.624  24.832  1.00  0.00     0.014 A 
ATOM     25  C   UNL A   1      36.009  23.220  25.531  1.00  0.00     0.004 A 
ATOM     26  C   UNL A   1      34.398  22.462  23.897  1.00  0.00     0.004 A 
ATOM     27  C   UNL A   1      35.725  22.740  24.246  1.00  0.00    -0.051 A 
ATOM     28  C   UNL A   1      36.829  22.581  23.242  1.00  0.00     0.044 C 
ENDBRANCH  19  22
ENDBRANCH  12  18
ENDBRANCH   4   7
ENDBRANCH   2   3
ENDBRANCH   1   2
BRANCH   1  29
ATOM     29  C   UNL A   1      35.085  31.782  27.707  1.00  0.00     0.118 C 
BRANCH  29  30
ATOM     30  N   UNL A   1      34.144  32.732  28.303  1.00  0.00    -0.352 N 
ATOM     31  C   UNL A   1      34.285  33.510  29.446  1.00  0.00     0.251 C 
ATOM     32  H   UNL A   1      33.290  32.835  27.825  1.00  0.00     0.163 HD
ATOM     33  O   UNL A   1      33.403  34.264  29.797  1.00  0.00    -0.269 OA
BRANCH  31  34
ATOM     34  C   UNL A   1      35.590  33.498  30.153  1.00  0.00     0.039 A 
ATOM     35  C   UNL A   1      36.654  34.191  29.567  1.00  0.00     0.014 A 
ATOM     36  C   UNL A   1      35.811  32.621  31.209  1.00  0.00     0.014 A 
ATOM     37  C   UNL A   1      37.956  33.794  29.852  1.00  0.00     0.010 A 
ATOM     38  C   UNL A   1      37.091  32.149  31.411  1.00  0.00     0.010 A 
ATOM     39  C   UNL A   1      38.152  32.683  30.673  1.00  0.00    -0.014 A 
BRANCH  39  40
ATOM     40  C   UNL A   1      39.406  31.942  30.715  1.00  0.00     0.031 A 
ATOM     41  C   UNL A   1      39.538  30.670  29.974  1.00  0.00     0.074 A 
ATOM     42  C   UNL A   1      40.463  32.448  31.393  1.00  0.00     0.049 A 
ATOM     43  N   UNL A   1      40.328  29.708  30.311  1.00  0.00    -0.248 NA
ATOM     44  C   UNL A   1      38.727  30.368  28.799  1.00  0.00     0.031 C 
ATOM     45  C   UNL A   1      41.839  31.958  31.361  1.00  0.00     0.029 A 
ATOM     46  N   UNL A   1      40.471  33.389  32.428  1.00  0.00    -0.354 N 
ATOM     47  C   UNL A   1      40.363  28.822  29.257  1.00  0.00     0.074 A 
ATOM     48  C   UNL A   1      39.281  29.223  28.390  1.00  0.00     0.031 C 
ATOM     49  C   UNL A   1      42.458  32.344  32.489  1.00  0.00     0.029 A 
ATOM     50  C   UNL A   1      41.450  32.960  33.338  1.00  0.00     0.049 A 
ATOM     51  H   UNL A   1      39.905  34.191  32.502  1.00  0.00     0.167 HD
ATOM     52  C   UNL A   1      41.400  27.944  29.142  1.00  0.00     0.031 A 
ATOM     53  C   UNL A   1      41.183  32.596  34.626  1.00  0.00     0.031 A 
ATOM     54  C   UNL A   1      42.315  28.034  30.278  1.00  0.00     0.049 A 
ATOM     55  C   UNL A   1      41.620  31.178  34.946  1.00  0.00     0.074 A 
ATOM     56  C   UNL A   1      43.534  28.672  30.448  1.00  0.00     0.029 A 
ATOM     57  N   UNL A   1      41.875  27.676  31.546  1.00  0.00    -0.354 N 
ATOM     58  N   UNL A   1      41.875  30.278  34.037  1.00  0.00    -0.248 NA
ATOM     59  C   UNL A   1      41.734  30.645  36.303  1.00  0.00     0.031 C 
ATOM     60  C   UNL A   1      43.783  28.771  31.840  1.00  0.00     0.029 A 
ATOM     61  C   UNL A   1      42.734  28.168  32.510  1.00  0.00     0.049 A 
ATOM     62  H   UNL A   1      41.066  27.147  31.732  1.00  0.00     0.167 HD
ATOM     63  C   UNL A   1      42.171  29.087  34.643  1.00  0.00     0.074 A 
ATOM     64  C   UNL A   1      42.074  29.366  36.063  1.00  0.00     0.031 C 
ATOM     65  C   UNL A   1      42.454  27.964  33.923  1.00  0.00     0.031 A 
BRANCH  52  66
ATOM     66  C   UNL A   1      41.749  27.240  27.850  1.00  0.00    -0.014 A 
ATOM     67  C   UNL A   1      42.121  28.000  26.724  1.00  0.00     0.009 A 
ATOM     68  C   UNL A   1      41.673  25.851  27.650  1.00  0.00     0.009 A 
ATOM     69  C   UNL A   1      42.294  27.424  25.457  1.00  0.00     0.001 A 
ATOM     70  C   UNL A   1      41.803  25.271  26.380  1.00  0.00     0.001 A 
ATOM     71  C   UNL A   1      42.099  26.060  25.279  1.00  0.00     0.000 A 
ENDBRANCH  52  66
BRANCH  53  72
ATOM     72  C   UNL A   1      39.988  33.242  35.227  1.00  0.00    -0.014 A 
ATOM     73  C   UNL A   1      38.721  32.680  34.983  1.00  0.00     0.009 A 
ATOM     74  C   UNL A   1      40.124  34.158  36.280  1.00  0.00     0.009 A 
ATOM     75  C   UNL A   1      37.645  32.947  35.834  1.00  0.00     0.001 A 
ATOM     76  C   UNL A   1      39.042  34.425  37.128  1.00  0.00     0.001 A 
ATOM     77  C   UNL A   1      37.815  33.795  36.925  1.00  0.00     0.000 A 
ENDBRANCH  53  72
BRANCH  65  78
ATOM     78  C   UNL A   1      42.561  26.570  34.483  1.00  0.00    -0.014 A 
ATOM     79  C   UNL A   1      41.553  25.952  35.234  1.00  0.00     0.009 A 
ATOM     80  C   UNL A   1      43.668  25.772  34.117  1.00  0.00     0.009 A 
ATOM     81  C   UNL A   1      41.665  24.615  35.636  1.00  0.00     0.001 A 
ATOM     82  C   UNL A   1      43.764  24.427  34.482  1.00  0.00     0.001 A 
ATOM     83  C   UNL A   1      42.765  23.851  35.252  1.00  0.00     0.000 A 
ENDBRANCH  65  78
ENDBRANCH  39  40
ENDBRANCH  31  34
ENDBRANCH  29  30
ENDBRANCH   1  29
TORSDOF 15
ENDMDL
MODEL 3
REMARK VINA RESULT:     -11.8      1.452      1.814
REMARK SMILES CCN(CC)c1ncc(NC(=O)c2ccc(C)cc2)cc1C(=O)NCCCNC(=O)c1ccc(-c2c3nc(c(-c4ccccc4)c4ccc([nH]4)c(-c4ccccc4)c4nc(c(-c5ccccc5)c5ccc2[nH]5)C=C4)C=C3)cc1
REMARK SMILES IDX 26 1 25 2 24 3 22 4 23 5 21 7 6 8 7 9 8 10 20 11 9 12 3 13
REMARK SMILES IDX 2 14 1 15 4 16 5 17 10 18 11 19 12 21 13 22 14 23 19 24
REMARK SMILES IDX 15 25 18 26 16 27 17 28 27 29 28 30 29 31 30 33 31 34 32 35
REMARK SMILES IDX 78 36 33 37 77 38 34 39 35 40 36 41 71 42 37 43 76 44 70 45
REMARK SMILES IDX 72 46 38 47 75 48 69 49 68 50 39 52 61 53 46 54 60 55 47 56
REMARK SMILES IDX 50 57 59 58 73 59 48 60 49 61 58 63 74 64 51 65 40 66 41 67
REMARK SMILES IDX 45 68 42 69 44 70 43 71 62 72 63 73 67 74 64 75 66 76 65 77
REMARK SMILES IDX 52 78 53 79 57 80 54 81 56 82 55 83
REMARK H PARENT 24 6 10 20 28 32 72 51 50 62
REMARK Flexibility Score: inf
ROOT
ATOM      1  C   UNL A   1      32.744  31.562  27.210  1.00  0.00     0.042 C 
ENDROOT
BRANCH   1   2
ATOM      2  C   UNL A   1      32.053  30.232  26.928  1.00  0.00     0.118 C 
BRANCH   2   3
ATOM      3  N   UNL A   1      32.951  29.089  26.929  1.00  0.00    -0.352 N 
ATOM      4  C   UNL A   1      32.977  27.880  26.262  1.00  0.00     0.255 C 
ATOM      5  O   UNL A   1      34.109  27.416  26.117  1.00  0.00    -0.269 OA
ATOM      6  H   UNL A   1      33.713  29.202  27.543  1.00  0.00     0.163 HD
BRANCH   4   7
ATOM      7  C   UNL A   1      31.775  27.150  25.731  1.00  0.00     0.084 A 
ATOM      8  C   UNL A   1      31.144  27.557  24.535  1.00  0.00     0.141 A 
ATOM      9  N   UNL A   1      29.968  26.999  24.139  1.00  0.00    -0.236 NA
ATOM     10  C   UNL A   1      29.413  26.011  24.870  1.00  0.00     0.139 A 
ATOM     11  C   UNL A   1      31.182  26.083  26.427  1.00  0.00     0.045 A 
ATOM     12  C   UNL A   1      30.009  25.469  25.987  1.00  0.00     0.060 A 
BRANCH   8  13
ATOM     13  N   UNL A   1      31.657  28.498  23.656  1.00  0.00    -0.357 N 
BRANCH  13  14
ATOM     14  C   UNL A   1      32.540  28.022  22.590  1.00  0.00     0.114 C 
ATOM     15  C   UNL A   1      33.951  28.571  22.718  1.00  0.00     0.027 C 
ENDBRANCH  13  14
BRANCH  13  16
ATOM     16  C   UNL A   1      30.835  29.681  23.388  1.00  0.00     0.114 C 
ATOM     17  C   UNL A   1      30.187  29.687  22.006  1.00  0.00     0.027 C 
ENDBRANCH  13  16
ENDBRANCH   8  13
BRANCH  12  18
ATOM     18  N   UNL A   1      29.509  24.399  26.752  1.00  0.00    -0.321 N 
ATOM     19  C   UNL A   1      29.918  23.093  26.909  1.00  0.00     0.255 C 
ATOM     20  H   UNL A   1      28.710  24.628  27.279  1.00  0.00     0.170 HD
ATOM     21  O   UNL A   1      29.142  22.287  27.419  1.00  0.00    -0.269 OA
BRANCH  19  22
ATOM     22  C   UNL A   1      31.280  22.637  26.555  1.00  0.00     0.040 A 
ATOM     23  C   UNL A   1      31.476  22.034  25.309  1.00  0.00     0.014 A 
ATOM     24  C   UNL A   1      32.344  22.730  27.458  1.00  0.00     0.014 A 
ATOM     25  C   UNL A   1      32.748  21.594  24.939  1.00  0.00     0.004 A 
ATOM     26  C   UNL A   1      33.620  22.307  27.077  1.00  0.00     0.004 A 
ATOM     27  C   UNL A   1      33.834  21.754  25.809  1.00  0.00    -0.051 A 
ATOM     28  C   UNL A   1      35.200  21.286  25.399  1.00  0.00     0.044 C 
ENDBRANCH  19  22
ENDBRANCH  12  18
ENDBRANCH   4   7
ENDBRANCH   2   3
ENDBRANCH   1   2
BRANCH   1  29
ATOM     29  C   UNL A   1      34.214  31.391  27.567  1.00  0.00     0.118 C 
BRANCH  29  30
ATOM     30  N   UNL A   1      34.579  31.930  28.878  1.00  0.00    -0.352 N 
ATOM     31  C   UNL A   1      35.532  31.477  29.782  1.00  0.00     0.251 C 
ATOM     32  H   UNL A   1      34.078  32.730  29.158  1.00  0.00     0.163 HD
ATOM     33  O   UNL A   1      35.718  32.056  30.830  1.00  0.00    -0.269 OA
BRANCH  31  34
ATOM     34  C   UNL A   1      36.409  30.349  29.379  1.00  0.00     0.039 A 
ATOM     35  C   UNL A   1      36.666  29.355  30.329  1.00  0.00     0.014 A 
ATOM     36  C   UNL A   1      37.149  30.417  28.205  1.00  0.00     0.014 A 
ATOM     37  C   UNL A   1      37.838  28.613  30.227  1.00  0.00     0.010 A 
ATOM     38  C   UNL A   1      38.364  29.765  28.158  1.00  0.00     0.010 A 
ATOM     39  C   UNL A   1      38.740  28.924  29.210  1.00  0.00    -0.014 A 
BRANCH  39  40
ATOM     40  C   UNL A   1      40.139  28.514  29.240  1.00  0.00     0.031 A 
ATOM     41  C   UNL A   1      40.539  27.211  28.671  1.00  0.00     0.074 A 
ATOM     42  C   UNL A   1      41.073  29.352  29.746  1.00  0.00     0.049 A 
ATOM     43  N   UNL A   1      41.558  26.524  29.064  1.00  0.00    -0.248 NA
ATOM     44  C   UNL A   1      39.765  26.549  27.625  1.00  0.00     0.031 C 
ATOM     45  C   UNL A   1      42.525  29.200  29.659  1.00  0.00     0.029 A 
ATOM     46  N   UNL A   1      40.906  30.417  30.639  1.00  0.00    -0.354 N 
ATOM     47  C   UNL A   1      41.753  25.520  28.141  1.00  0.00     0.074 A 
ATOM     48  C   UNL A   1      40.560  25.518  27.327  1.00  0.00     0.031 C 
ATOM     49  C   UNL A   1      43.089  29.890  30.665  1.00  0.00     0.029 A 
ATOM     50  C   UNL A   1      42.007  30.374  31.508  1.00  0.00     0.049 A 
ATOM     51  H   UNL A   1      40.165  31.065  30.653  1.00  0.00     0.167 HD
ATOM     52  C   UNL A   1      42.966  24.903  28.056  1.00  0.00     0.031 A 
ATOM     53  C   UNL A   1      41.907  30.160  32.853  1.00  0.00     0.031 A 
ATOM     54  C   UNL A   1      43.890  25.380  29.082  1.00  0.00     0.049 A 
ATOM     55  C   UNL A   1      42.695  28.951  33.322  1.00  0.00     0.074 A 
ATOM     56  C   UNL A   1      44.922  26.304  29.055  1.00  0.00     0.029 A 
ATOM     57  N   UNL A   1      43.620  25.127  30.422  1.00  0.00    -0.354 N 
ATOM     58  N   UNL A   1      43.114  28.007  32.525  1.00  0.00    -0.248 NA
ATOM     59  C   UNL A   1      43.008  28.674  34.723  1.00  0.00     0.031 C 
ATOM     60  C   UNL A   1      45.214  26.672  30.393  1.00  0.00     0.029 A 
ATOM     61  C   UNL A   1      44.382  25.949  31.229  1.00  0.00     0.049 A 
ATOM     62  H   UNL A   1      42.977  24.458  30.749  1.00  0.00     0.167 HD
ATOM     63  C   UNL A   1      43.725  27.026  33.259  1.00  0.00     0.074 A 
ATOM     64  C   UNL A   1      43.639  27.490  34.631  1.00  0.00     0.031 C 
ATOM     65  C   UNL A   1      44.236  25.904  32.676  1.00  0.00     0.031 A 
BRANCH  52  66
ATOM     66  C   UNL A   1      43.408  24.111  26.845  1.00  0.00    -0.014 A 
ATOM     67  C   UNL A   1      43.235  22.713  26.829  1.00  0.00     0.009 A 
ATOM     68  C   UNL A   1      44.054  24.659  25.724  1.00  0.00     0.009 A 
ATOM     69  C   UNL A   1      43.773  21.906  25.816  1.00  0.00     0.001 A 
ATOM     70  C   UNL A   1      44.630  23.858  24.728  1.00  0.00     0.001 A 
ATOM     71  C   UNL A   1      44.502  22.478  24.781  1.00  0.00     0.000 A 
ENDBRANCH  52  66
BRANCH  53  72
ATOM     72  C   UNL A   1      40.623  30.592  33.464  1.00  0.00    -0.014 A 
ATOM     73  C   UNL A   1      40.382  31.968  33.627  1.00  0.00     0.009 A 
ATOM     74  C   UNL A   1      39.540  29.705  33.553  1.00  0.00     0.009 A 
ATOM     75  C   UNL A   1      39.079  32.453  33.772  1.00  0.00     0.001 A 
ATOM     76  C   UNL A   1      38.237  30.195  33.701  1.00  0.00     0.001 A 
ATOM     77  C   UNL A   1      38.004  31.568  33.776  1.00  0.00     0.000 A 
ENDBRANCH  53  72
BRANCH  65  78
ATOM     78  C   UNL A   1      44.712  24.678  33.409  1.00  0.00    -0.014 A 
ATOM     79  C   UNL A   1      43.918  23.547  33.633  1.00  0.00     0.009 A 
ATOM     80  C   UNL A   1      46.075  24.585  33.768  1.00  0.00     0.009 A 
ATOM     81  C   UNL A   1      44.449  22.393  34.225  1.00  0.00     0.001 A 
ATOM     82  C   UNL A   1      46.618  23.423  34.321  1.00  0.00     0.001 A 
ATOM     83  C   UNL A   1      45.799  22.329  34.560  1.00  0.00     0.000 A 
ENDBRANCH  65  78
ENDBRANCH  39  40
ENDBRANCH  31  34
ENDBRANCH  29  30
ENDBRANCH   1  29
TORSDOF 15
ENDMDL
