MODEL 1
REMARK VINA RESULT:     -11.6      0.000      0.000
REMARK SMILES Cc1cc(Cl)c2c(c1)C=C(C(=O)NCCCNC(=O)c1ccc(-c3c4nc(c(-c5ccccc5)c5ccc([nH]5)c(-c5ccccc5)c5nc(c(-c6ccccc6)c6ccc3[nH]6)C=C5)C=C4)cc1)[C@@H](C(F)(F)F)O2
REMARK SMILES IDX 15 1 14 2 13 3 11 4 12 5 10 7 1 8 2 9 3 10 8 11 4 12 7 13
REMARK SMILES IDX 5 14 6 15 9 16 73 17 68 18 69 19 70 20 71 21 72 22 16 23
REMARK SMILES IDX 17 24 18 25 19 27 20 28 21 29 67 30 22 31 66 32 23 33 24 34
REMARK SMILES IDX 25 35 60 36 26 37 65 38 59 39 61 40 27 41 64 42 58 43 57 44
REMARK SMILES IDX 28 46 50 47 35 48 49 49 36 50 39 51 48 52 62 53 37 54 38 55
REMARK SMILES IDX 47 57 63 58 40 59 29 60 30 61 34 62 31 63 33 64 32 65 51 66
REMARK SMILES IDX 52 67 56 68 53 69 55 70 54 71 41 72 42 73 46 74 43 75 45 76
REMARK SMILES IDX 44 77
REMARK H PARENT 13 6 17 26 61 45 39 56
REMARK Flexibility Score: inf
ROOT
ATOM      1  C   UNL A   1      34.001  28.254  25.790  1.00  0.00     0.042 C 
ENDROOT
BRANCH   1   2
ATOM      2  C   UNL A   1      32.906  27.670  24.913  1.00  0.00     0.118 C 
BRANCH   2   3
ATOM      3  N   UNL A   1      31.880  27.001  25.699  1.00  0.00    -0.352 N 
ATOM      4  C   UNL A   1      31.601  25.739  26.098  1.00  0.00     0.251 C 
ATOM      5  O   UNL A   1      30.582  25.618  26.786  1.00  0.00    -0.270 OA
ATOM      6  H   UNL A   1      31.207  27.640  26.029  1.00  0.00     0.163 HD
BRANCH   4   7
ATOM      7  C   UNL A   1      32.417  24.536  25.766  1.00  0.00     0.067 C 
ATOM      8  C   UNL A   1      38.270  22.511  25.828  1.00  0.00     0.044 C 
ATOM      9  C   UNL A   1      36.784  22.437  25.642  1.00  0.00    -0.049 A 
ATOM     10  C   UNL A   1      36.189  21.229  25.255  1.00  0.00     0.028 A 
ATOM     11  C   UNL A   1      35.969  23.547  25.912  1.00  0.00     0.015 A 
ATOM     12  C   UNL A   1      34.804  21.137  25.126  1.00  0.00     0.084 A 
ATOM     13  C   UNL A   1      34.579  23.460  25.776  1.00  0.00     0.019 A 
ATOM     14  Cl  UNL A   1      34.117  19.626  24.647  1.00  0.00    -0.080 Cl
ATOM     15  C   UNL A   1      33.999  22.252  25.379  1.00  0.00     0.146 A 
ATOM     16  C   UNL A   1      33.723  24.599  26.087  1.00  0.00     0.025 C 
ATOM     17  O   UNL A   1      32.643  22.103  25.282  1.00  0.00    -0.474 OA
ATOM     18  C   UNL A   1      31.870  23.314  25.087  1.00  0.00     0.314 C 
BRANCH  18  19
ATOM     19  C   UNL A   1      31.625  23.530  23.581  1.00  0.00     0.429 C 
ATOM     20  F   UNL A   1      30.344  23.915  23.361  1.00  0.00    -0.167 F 
ATOM     21  F   UNL A   1      32.411  24.504  23.060  1.00  0.00    -0.167 F 
ATOM     22  F   UNL A   1      31.850  22.417  22.850  1.00  0.00    -0.167 F 
ENDBRANCH  18  19
ENDBRANCH   4   7
ENDBRANCH   2   3
ENDBRANCH   1   2
BRANCH   1  23
ATOM     23  C   UNL A   1      33.516  28.524  27.208  1.00  0.00     0.118 C 
BRANCH  23  24
ATOM     24  N   UNL A   1      33.527  29.951  27.520  1.00  0.00    -0.352 N 
ATOM     25  C   UNL A   1      34.457  30.703  28.189  1.00  0.00     0.251 C 
ATOM     26  H   UNL A   1      32.741  30.451  27.201  1.00  0.00     0.163 HD
ATOM     27  O   UNL A   1      34.157  31.823  28.604  1.00  0.00    -0.269 OA
BRANCH  25  28
ATOM     28  C   UNL A   1      35.814  30.174  28.409  1.00  0.00     0.039 A 
ATOM     29  C   UNL A   1      36.742  30.207  27.365  1.00  0.00     0.014 A 
ATOM     30  C   UNL A   1      36.161  29.617  29.642  1.00  0.00     0.014 A 
ATOM     31  C   UNL A   1      38.037  29.736  27.582  1.00  0.00     0.010 A 
ATOM     32  C   UNL A   1      37.474  29.244  29.888  1.00  0.00     0.010 A 
ATOM     33  C   UNL A   1      38.420  29.283  28.856  1.00  0.00    -0.014 A 
BRANCH  33  34
ATOM     34  C   UNL A   1      39.798  28.810  29.125  1.00  0.00     0.031 A 
ATOM     35  C   UNL A   1      40.789  29.736  29.775  1.00  0.00     0.074 A 
ATOM     36  C   UNL A   1      40.168  27.576  28.730  1.00  0.00     0.049 A 
ATOM     37  N   UNL A   1      42.056  29.534  30.033  1.00  0.00    -0.248 NA
ATOM     38  C   UNL A   1      40.307  31.073  30.163  1.00  0.00     0.031 C 
ATOM     39  C   UNL A   1      39.305  26.607  28.051  1.00  0.00     0.029 A 
ATOM     40  N   UNL A   1      41.373  26.927  28.840  1.00  0.00    -0.354 N 
ATOM     41  C   UNL A   1      42.519  30.718  30.593  1.00  0.00     0.074 A 
ATOM     42  C   UNL A   1      41.419  31.653  30.591  1.00  0.00     0.031 C 
ATOM     43  C   UNL A   1      39.997  25.477  27.834  1.00  0.00     0.029 A 
ATOM     44  C   UNL A   1      41.362  25.657  28.317  1.00  0.00     0.049 A 
ATOM     45  H   UNL A   1      42.168  27.334  29.254  1.00  0.00     0.167 HD
ATOM     46  C   UNL A   1      43.746  30.990  31.090  1.00  0.00     0.031 A 
ATOM     47  C   UNL A   1      42.347  24.742  28.230  1.00  0.00     0.031 A 
ATOM     48  C   UNL A   1      44.827  30.045  31.123  1.00  0.00     0.049 A 
ATOM     49  C   UNL A   1      43.703  25.076  28.787  1.00  0.00     0.074 A 
ATOM     50  C   UNL A   1      46.088  30.204  31.669  1.00  0.00     0.029 A 
ATOM     51  N   UNL A   1      44.773  28.766  30.593  1.00  0.00    -0.354 N 
ATOM     52  N   UNL A   1      44.102  26.175  29.382  1.00  0.00    -0.248 NA
ATOM     53  C   UNL A   1      44.742  24.043  28.673  1.00  0.00     0.031 C 
ATOM     54  C   UNL A   1      46.817  29.041  31.418  1.00  0.00     0.029 A 
ATOM     55  C   UNL A   1      45.990  28.135  30.772  1.00  0.00     0.049 A 
ATOM     56  H   UNL A   1      43.986  28.367  30.154  1.00  0.00     0.167 HD
ATOM     57  C   UNL A   1      45.428  25.957  29.730  1.00  0.00     0.074 A 
ATOM     58  C   UNL A   1      45.759  24.614  29.302  1.00  0.00     0.031 C 
ATOM     59  C   UNL A   1      46.297  26.796  30.344  1.00  0.00     0.031 A 
BRANCH  46  60
ATOM     60  C   UNL A   1      43.993  32.357  31.662  1.00  0.00    -0.014 A 
ATOM     61  C   UNL A   1      43.794  32.617  33.027  1.00  0.00     0.009 A 
ATOM     62  C   UNL A   1      44.529  33.367  30.847  1.00  0.00     0.009 A 
ATOM     63  C   UNL A   1      44.120  33.865  33.562  1.00  0.00     0.001 A 
ATOM     64  C   UNL A   1      44.879  34.603  31.391  1.00  0.00     0.001 A 
ATOM     65  C   UNL A   1      44.672  34.852  32.747  1.00  0.00     0.000 A 
ENDBRANCH  46  60
BRANCH  47  66
ATOM     66  C   UNL A   1      42.086  23.420  27.598  1.00  0.00    -0.014 A 
ATOM     67  C   UNL A   1      42.431  23.188  26.258  1.00  0.00     0.009 A 
ATOM     68  C   UNL A   1      41.485  22.384  28.330  1.00  0.00     0.009 A 
ATOM     69  C   UNL A   1      42.153  21.958  25.656  1.00  0.00     0.001 A 
ATOM     70  C   UNL A   1      41.237  21.144  27.736  1.00  0.00     0.001 A 
ATOM     71  C   UNL A   1      41.561  20.936  26.397  1.00  0.00     0.000 A 
ENDBRANCH  47  66
BRANCH  59  72
ATOM     72  C   UNL A   1      47.685  26.289  30.611  1.00  0.00    -0.014 A 
ATOM     73  C   UNL A   1      48.030  25.747  31.858  1.00  0.00     0.009 A 
ATOM     74  C   UNL A   1      48.630  26.270  29.573  1.00  0.00     0.009 A 
ATOM     75  C   UNL A   1      49.303  25.214  32.066  1.00  0.00     0.001 A 
ATOM     76  C   UNL A   1      49.891  25.708  29.774  1.00  0.00     0.001 A 
ATOM     77  C   UNL A   1      50.228  25.186  31.021  1.00  0.00     0.000 A 
ENDBRANCH  59  72
ENDBRANCH  33  34
ENDBRANCH  25  28
ENDBRANCH  23  24
ENDBRANCH   1  23
TORSDOF 11
ENDMDL
MODEL 2
REMARK VINA RESULT:     -11.5      2.711      7.675
REMARK SMILES Cc1cc(Cl)c2c(c1)C=C(C(=O)NCCCNC(=O)c1ccc(-c3c4nc(c(-c5ccccc5)c5ccc([nH]5)c(-c5ccccc5)c5nc(c(-c6ccccc6)c6ccc3[nH]6)C=C5)C=C4)cc1)[C@@H](C(F)(F)F)O2
REMARK SMILES IDX 15 1 14 2 13 3 11 4 12 5 10 7 1 8 2 9 3 10 8 11 4 12 7 13
REMARK SMILES IDX 5 14 6 15 9 16 73 17 68 18 69 19 70 20 71 21 72 22 16 23
REMARK SMILES IDX 17 24 18 25 19 27 20 28 21 29 67 30 22 31 66 32 23 33 24 34
REMARK SMILES IDX 25 35 60 36 26 37 65 38 59 39 61 40 27 41 64 42 58 43 57 44
REMARK SMILES IDX 28 46 50 47 35 48 49 49 36 50 39 51 48 52 62 53 37 54 38 55
REMARK SMILES IDX 47 57 63 58 40 59 29 60 30 61 34 62 31 63 33 64 32 65 51 66
REMARK SMILES IDX 52 67 56 68 53 69 55 70 54 71 41 72 42 73 46 74 43 75 45 76
REMARK SMILES IDX 44 77
REMARK H PARENT 13 6 17 26 61 45 39 56
REMARK Flexibility Score: inf
ROOT
ATOM      1  C   UNL A   1      35.848  23.637  26.135  1.00  0.00     0.042 C 
ENDROOT
BRANCH   1   2
ATOM      2  C   UNL A   1      34.565  23.042  25.577  1.00  0.00     0.118 C 
BRANCH   2   3
ATOM      3  N   UNL A   1      34.477  23.202  24.133  1.00  0.00    -0.352 N 
ATOM      4  C   UNL A   1      33.982  24.113  23.264  1.00  0.00     0.251 C 
ATOM      5  O   UNL A   1      34.130  23.835  22.071  1.00  0.00    -0.270 OA
ATOM      6  H   UNL A   1      34.886  22.441  23.662  1.00  0.00     0.163 HD
BRANCH   4   7
ATOM      7  C   UNL A   1      33.293  25.378  23.650  1.00  0.00     0.067 C 
ATOM      8  C   UNL A   1      33.967  30.302  27.346  1.00  0.00     0.044 C 
ATOM      9  C   UNL A   1      33.333  29.437  26.299  1.00  0.00    -0.049 A 
ATOM     10  C   UNL A   1      32.172  29.871  25.646  1.00  0.00     0.028 A 
ATOM     11  C   UNL A   1      33.921  28.222  25.916  1.00  0.00     0.015 A 
ATOM     12  C   UNL A   1      31.601  29.096  24.636  1.00  0.00     0.084 A 
ATOM     13  C   UNL A   1      33.346  27.438  24.909  1.00  0.00     0.019 A 
ATOM     14  Cl  UNL A   1      30.171  29.674  23.859  1.00  0.00    -0.080 Cl
ATOM     15  C   UNL A   1      32.182  27.878  24.273  1.00  0.00     0.146 A 
ATOM     16  C   UNL A   1      33.970  26.191  24.482  1.00  0.00     0.025 C 
ATOM     17  O   UNL A   1      31.614  27.173  23.249  1.00  0.00    -0.474 OA
ATOM     18  C   UNL A   1      31.915  25.756  23.190  1.00  0.00     0.314 C 
BRANCH  18  19
ATOM     19  C   UNL A   1      30.809  24.965  23.915  1.00  0.00     0.429 C 
ATOM     20  F   UNL A   1      30.409  23.912  23.160  1.00  0.00    -0.167 F 
ATOM     21  F   UNL A   1      31.226  24.450  25.097  1.00  0.00    -0.167 F 
ATOM     22  F   UNL A   1      29.718  25.716  24.181  1.00  0.00    -0.167 F 
ENDBRANCH  18  19
ENDBRANCH   4   7
ENDBRANCH   2   3
ENDBRANCH   1   2
BRANCH   1  23
ATOM     23  C   UNL A   1      36.981  23.608  25.120  1.00  0.00     0.118 C 
BRANCH  23  24
ATOM     24  N   UNL A   1      38.031  22.669  25.509  1.00  0.00    -0.352 N 
ATOM     25  C   UNL A   1      39.245  22.896  26.103  1.00  0.00     0.251 C 
ATOM     26  H   UNL A   1      37.837  21.725  25.312  1.00  0.00     0.163 HD
ATOM     27  O   UNL A   1      40.109  22.020  26.088  1.00  0.00    -0.269 OA
BRANCH  25  28
ATOM     28  C   UNL A   1      39.515  24.187  26.761  1.00  0.00     0.039 A 
ATOM     29  C   UNL A   1      39.078  24.394  28.072  1.00  0.00     0.014 A 
ATOM     30  C   UNL A   1      40.175  25.205  26.070  1.00  0.00     0.014 A 
ATOM     31  C   UNL A   1      39.361  25.603  28.707  1.00  0.00     0.010 A 
ATOM     32  C   UNL A   1      40.545  26.365  26.734  1.00  0.00     0.010 A 
ATOM     33  C   UNL A   1      40.126  26.583  28.053  1.00  0.00    -0.014 A 
BRANCH  33  34
ATOM     34  C   UNL A   1      40.472  27.862  28.715  1.00  0.00     0.031 A 
ATOM     35  C   UNL A   1      41.831  28.035  29.336  1.00  0.00     0.074 A 
ATOM     36  C   UNL A   1      39.546  28.836  28.809  1.00  0.00     0.049 A 
ATOM     37  N   UNL A   1      42.301  29.049  30.017  1.00  0.00    -0.248 NA
ATOM     38  C   UNL A   1      42.781  26.916  29.201  1.00  0.00     0.031 C 
ATOM     39  C   UNL A   1      38.181  28.763  28.282  1.00  0.00     0.029 A 
ATOM     40  N   UNL A   1      39.613  30.080  29.385  1.00  0.00    -0.354 N 
ATOM     41  C   UNL A   1      43.584  28.682  30.402  1.00  0.00     0.074 A 
ATOM     42  C   UNL A   1      43.805  27.335  29.929  1.00  0.00     0.031 C 
ATOM     43  C   UNL A   1      37.551  29.923  28.532  1.00  0.00     0.029 A 
ATOM     44  C   UNL A   1      38.450  30.802  29.273  1.00  0.00     0.049 A 
ATOM     45  H   UNL A   1      40.419  30.421  29.837  1.00  0.00     0.167 HD
ATOM     46  C   UNL A   1      44.506  29.414  31.066  1.00  0.00     0.031 A 
ATOM     47  C   UNL A   1      38.140  32.032  29.723  1.00  0.00     0.031 A 
ATOM     48  C   UNL A   1      44.295  30.766  31.502  1.00  0.00     0.049 A 
ATOM     49  C   UNL A   1      39.185  32.821  30.465  1.00  0.00     0.074 A 
ATOM     50  C   UNL A   1      45.192  31.616  32.123  1.00  0.00     0.029 A 
ATOM     51  N   UNL A   1      43.106  31.464  31.359  1.00  0.00    -0.354 N 
ATOM     52  N   UNL A   1      40.420  32.485  30.754  1.00  0.00    -0.248 NA
ATOM     53  C   UNL A   1      38.800  34.160  30.932  1.00  0.00     0.031 C 
ATOM     54  C   UNL A   1      44.529  32.811  32.409  1.00  0.00     0.029 A 
ATOM     55  C   UNL A   1      43.238  32.726  31.909  1.00  0.00     0.049 A 
ATOM     56  H   UNL A   1      42.291  31.114  30.932  1.00  0.00     0.167 HD
ATOM     57  C   UNL A   1      40.963  33.578  31.416  1.00  0.00     0.074 A 
ATOM     58  C   UNL A   1      39.933  34.594  31.465  1.00  0.00     0.031 C 
ATOM     59  C   UNL A   1      42.203  33.725  31.943  1.00  0.00     0.031 A 
BRANCH  46  60
ATOM     60  C   UNL A   1      45.841  28.786  31.350  1.00  0.00    -0.014 A 
ATOM     61  C   UNL A   1      46.054  28.036  32.517  1.00  0.00     0.009 A 
ATOM     62  C   UNL A   1      46.864  28.860  30.391  1.00  0.00     0.009 A 
ATOM     63  C   UNL A   1      47.268  27.378  32.721  1.00  0.00     0.001 A 
ATOM     64  C   UNL A   1      48.066  28.179  30.586  1.00  0.00     0.001 A 
ATOM     65  C   UNL A   1      48.268  27.441  31.751  1.00  0.00     0.000 A 
ENDBRANCH  46  60
BRANCH  47  66
ATOM     66  C   UNL A   1      36.785  32.599  29.482  1.00  0.00    -0.014 A 
ATOM     67  C   UNL A   1      35.777  32.478  30.450  1.00  0.00     0.009 A 
ATOM     68  C   UNL A   1      36.491  33.259  28.278  1.00  0.00     0.009 A 
ATOM     69  C   UNL A   1      34.496  32.980  30.206  1.00  0.00     0.001 A 
ATOM     70  C   UNL A   1      35.219  33.788  28.050  1.00  0.00     0.001 A 
ATOM     71  C   UNL A   1      34.220  33.639  29.009  1.00  0.00     0.000 A 
ENDBRANCH  47  66
BRANCH  59  72
ATOM     72  C   UNL A   1      42.530  35.033  32.601  1.00  0.00    -0.014 A 
ATOM     73  C   UNL A   1      42.143  35.294  33.924  1.00  0.00     0.009 A 
ATOM     74  C   UNL A   1      43.314  35.978  31.920  1.00  0.00     0.009 A 
ATOM     75  C   UNL A   1      42.517  36.487  34.545  1.00  0.00     0.001 A 
ATOM     76  C   UNL A   1      43.714  37.155  32.554  1.00  0.00     0.001 A 
ATOM     77  C   UNL A   1      43.311  37.410  33.863  1.00  0.00     0.000 A 
ENDBRANCH  59  72
ENDBRANCH  33  34
ENDBRANCH  25  28
ENDBRANCH  23  24
ENDBRANCH   1  23
TORSDOF 11
ENDMDL
MODEL 3
REMARK VINA RESULT:     -11.5      2.314      7.284
REMARK SMILES Cc1cc(Cl)c2c(c1)C=C(C(=O)NCCCNC(=O)c1ccc(-c3c4nc(c(-c5ccccc5)c5ccc([nH]5)c(-c5ccccc5)c5nc(c(-c6ccccc6)c6ccc3[nH]6)C=C5)C=C4)cc1)[C@@H](C(F)(F)F)O2
REMARK SMILES IDX 15 1 14 2 13 3 11 4 12 5 10 7 1 8 2 9 3 10 8 11 4 12 7 13
REMARK SMILES IDX 5 14 6 15 9 16 73 17 68 18 69 19 70 20 71 21 72 22 16 23
REMARK SMILES IDX 17 24 18 25 19 27 20 28 21 29 67 30 22 31 66 32 23 33 24 34
REMARK SMILES IDX 25 35 60 36 26 37 65 38 59 39 61 40 27 41 64 42 58 43 57 44
REMARK SMILES IDX 28 46 50 47 35 48 49 49 36 50 39 51 48 52 62 53 37 54 38 55
REMARK SMILES IDX 47 57 63 58 40 59 29 60 30 61 34 62 31 63 33 64 32 65 51 66
REMARK SMILES IDX 52 67 56 68 53 69 55 70 54 71 41 72 42 73 46 74 43 75 45 76
REMARK SMILES IDX 44 77
REMARK H PARENT 13 6 17 26 61 45 39 56
REMARK Flexibility Score: inf
ROOT
ATOM      1  C   UNL A   1      37.780  19.605  24.995  1.00  0.00     0.042 C 
ENDROOT
BRANCH   1   2
ATOM      2  C   UNL A   1      36.696  20.617  24.664  1.00  0.00     0.118 C 
BRANCH   2   3
ATOM      3  N   UNL A   1      35.702  20.715  25.723  1.00  0.00    -0.352 N 
ATOM      4  C   UNL A   1      34.681  21.538  26.052  1.00  0.00     0.251 C 
ATOM      5  O   UNL A   1      34.072  21.234  27.083  1.00  0.00    -0.270 OA
ATOM      6  H   UNL A   1      35.801  19.985  26.376  1.00  0.00     0.163 HD
BRANCH   4   7
ATOM      7  C   UNL A   1      34.268  22.743  25.277  1.00  0.00     0.067 C 
ATOM      8  C   UNL A   1      33.681  28.881  25.857  1.00  0.00     0.044 C 
ATOM      9  C   UNL A   1      33.666  27.551  25.166  1.00  0.00    -0.049 A 
ATOM     10  C   UNL A   1      33.359  27.479  23.801  1.00  0.00     0.028 A 
ATOM     11  C   UNL A   1      34.017  26.379  25.853  1.00  0.00     0.015 A 
ATOM     12  C   UNL A   1      33.390  26.252  23.137  1.00  0.00     0.084 A 
ATOM     13  C   UNL A   1      34.041  25.146  25.192  1.00  0.00     0.019 A 
ATOM     14  Cl  UNL A   1      33.006  26.213  21.454  1.00  0.00    -0.080 Cl
ATOM     15  C   UNL A   1      33.723  25.086  23.833  1.00  0.00     0.146 A 
ATOM     16  C   UNL A   1      34.438  23.929  25.891  1.00  0.00     0.025 C 
ATOM     17  O   UNL A   1      33.783  23.913  23.132  1.00  0.00    -0.474 OA
ATOM     18  C   UNL A   1      33.666  22.690  23.903  1.00  0.00     0.314 C 
BRANCH  18  19
ATOM     19  C   UNL A   1      32.196  22.229  23.915  1.00  0.00     0.429 C 
ATOM     20  F   UNL A   1      31.624  22.507  25.113  1.00  0.00    -0.167 F 
ATOM     21  F   UNL A   1      31.445  22.858  22.978  1.00  0.00    -0.167 F 
ATOM     22  F   UNL A   1      32.062  20.903  23.694  1.00  0.00    -0.167 F 
ENDBRANCH  18  19
ENDBRANCH   4   7
ENDBRANCH   2   3
ENDBRANCH   1   2
BRANCH   1  23
ATOM     23  C   UNL A   1      38.955  20.243  25.724  1.00  0.00     0.118 C 
BRANCH  23  24
ATOM     24  N   UNL A   1      40.080  19.319  25.849  1.00  0.00    -0.352 N 
ATOM     25  C   UNL A   1      41.406  19.568  26.088  1.00  0.00     0.251 C 
ATOM     26  H   UNL A   1      39.849  18.369  25.744  1.00  0.00     0.163 HD
ATOM     27  O   UNL A   1      42.243  18.692  25.872  1.00  0.00    -0.269 OA
BRANCH  25  28
ATOM     28  C   UNL A   1      41.829  20.881  26.605  1.00  0.00     0.039 A 
ATOM     29  C   UNL A   1      42.277  21.859  25.713  1.00  0.00     0.014 A 
ATOM     30  C   UNL A   1      41.812  21.136  27.977  1.00  0.00     0.014 A 
ATOM     31  C   UNL A   1      42.647  23.113  26.198  1.00  0.00     0.010 A 
ATOM     32  C   UNL A   1      42.081  22.413  28.448  1.00  0.00     0.010 A 
ATOM     33  C   UNL A   1      42.519  23.408  27.566  1.00  0.00    -0.014 A 
BRANCH  33  34
ATOM     34  C   UNL A   1      42.871  24.743  28.104  1.00  0.00     0.031 A 
ATOM     35  C   UNL A   1      41.793  25.773  28.303  1.00  0.00     0.074 A 
ATOM     36  C   UNL A   1      44.160  25.042  28.353  1.00  0.00     0.049 A 
ATOM     37  N   UNL A   1      41.906  27.015  28.698  1.00  0.00    -0.248 NA
ATOM     38  C   UNL A   1      40.410  25.370  27.993  1.00  0.00     0.031 C 
ATOM     39  C   UNL A   1      45.295  24.137  28.157  1.00  0.00     0.029 A 
ATOM     40  N   UNL A   1      44.734  26.197  28.823  1.00  0.00    -0.354 N 
ATOM     41  C   UNL A   1      40.620  27.539  28.666  1.00  0.00     0.074 A 
ATOM     42  C   UNL A   1      39.747  26.504  28.164  1.00  0.00     0.031 C 
ATOM     43  C   UNL A   1      46.424  24.760  28.533  1.00  0.00     0.029 A 
ATOM     44  C   UNL A   1      46.099  26.118  28.955  1.00  0.00     0.049 A 
ATOM     45  H   UNL A   1      44.216  27.004  29.045  1.00  0.00     0.167 HD
ATOM     46  C   UNL A   1      40.200  28.766  29.049  1.00  0.00     0.031 A 
ATOM     47  C   UNL A   1      46.991  27.041  29.363  1.00  0.00     0.031 A 
ATOM     48  C   UNL A   1      41.066  29.779  29.583  1.00  0.00     0.049 A 
ATOM     49  C   UNL A   1      46.494  28.400  29.777  1.00  0.00     0.074 A 
ATOM     50  C   UNL A   1      40.726  31.031  30.063  1.00  0.00     0.029 A 
ATOM     51  N   UNL A   1      42.441  29.657  29.709  1.00  0.00    -0.354 N 
ATOM     52  N   UNL A   1      45.264  28.852  29.812  1.00  0.00    -0.248 NA
ATOM     53  C   UNL A   1      47.505  29.371  30.219  1.00  0.00     0.031 C 
ATOM     54  C   UNL A   1      41.902  31.689  30.428  1.00  0.00     0.029 A 
ATOM     55  C   UNL A   1      42.967  30.823  30.233  1.00  0.00     0.049 A 
ATOM     56  H   UNL A   1      42.963  28.859  29.463  1.00  0.00     0.167 HD
ATOM     57  C   UNL A   1      45.352  30.150  30.298  1.00  0.00     0.074 A 
ATOM     58  C   UNL A   1      46.751  30.404  30.567  1.00  0.00     0.031 C 
ATOM     59  C   UNL A   1      44.362  31.054  30.498  1.00  0.00     0.031 A 
BRANCH  46  60
ATOM     60  C   UNL A   1      38.737  29.085  28.929  1.00  0.00    -0.014 A 
ATOM     61  C   UNL A   1      37.876  28.957  30.030  1.00  0.00     0.009 A 
ATOM     62  C   UNL A   1      38.237  29.619  27.731  1.00  0.00     0.009 A 
ATOM     63  C   UNL A   1      36.540  29.350  29.931  1.00  0.00     0.001 A 
ATOM     64  C   UNL A   1      36.908  30.035  27.644  1.00  0.00     0.001 A 
ATOM     65  C   UNL A   1      36.060  29.898  28.742  1.00  0.00     0.000 A 
ENDBRANCH  46  60
BRANCH  47  66
ATOM     66  C   UNL A   1      48.442  26.713  29.407  1.00  0.00    -0.014 A 
ATOM     67  C   UNL A   1      49.259  26.933  28.288  1.00  0.00     0.009 A 
ATOM     68  C   UNL A   1      49.016  26.171  30.568  1.00  0.00     0.009 A 
ATOM     69  C   UNL A   1      50.613  26.591  28.321  1.00  0.00     0.001 A 
ATOM     70  C   UNL A   1      50.377  25.860  30.609  1.00  0.00     0.001 A 
ATOM     71  C   UNL A   1      51.172  26.060  29.482  1.00  0.00     0.000 A 
ENDBRANCH  47  66
BRANCH  59  72
ATOM     72  C   UNL A   1      44.745  32.395  31.051  1.00  0.00    -0.014 A 
ATOM     73  C   UNL A   1      45.045  33.470  30.201  1.00  0.00     0.009 A 
ATOM     74  C   UNL A   1      44.716  32.610  32.439  1.00  0.00     0.009 A 
ATOM     75  C   UNL A   1      45.329  34.730  30.732  1.00  0.00     0.001 A 
ATOM     76  C   UNL A   1      44.968  33.877  32.965  1.00  0.00     0.001 A 
ATOM     77  C   UNL A   1      45.279  34.934  32.111  1.00  0.00     0.000 A 
ENDBRANCH  59  72
ENDBRANCH  33  34
ENDBRANCH  25  28
ENDBRANCH  23  24
ENDBRANCH   1  23
TORSDOF 11
ENDMDL
