MODEL 1
REMARK VINA RESULT:     -12.1      0.000      0.000
REMARK SMILES Cc1ccc(S(=O)(=O)Nc2ccccn2)cc1C(=O)NCCCNC(=O)c1ccc(-c2c3nc(c(-c4ccccc4)c4ccc([nH]4)c(-c4ccccc4)c4nc(c(-c5ccccc5)c5ccc2[nH]5)C=C4)C=C3)cc1
REMARK SMILES IDX 21 1 20 2 18 3 19 4 17 6 1 7 2 8 3 9 4 10 16 11 5 12 6 13
REMARK SMILES IDX 7 14 8 15 9 16 10 18 11 19 15 20 12 21 14 22 13 23 22 24
REMARK SMILES IDX 23 25 24 26 25 27 26 29 27 30 28 31 74 32 29 33 73 34 30 35
REMARK SMILES IDX 31 36 32 37 67 38 33 39 72 40 66 41 68 42 34 43 71 44 65 45
REMARK SMILES IDX 64 46 35 48 57 49 42 50 56 51 43 52 46 53 55 54 69 55 44 56
REMARK SMILES IDX 45 57 54 59 70 60 47 61 36 62 37 63 41 64 38 65 40 66 39 67
REMARK SMILES IDX 58 68 59 69 63 70 60 71 62 72 61 73 48 74 49 75 53 76 50 77
REMARK SMILES IDX 52 78 51 79
REMARK H PARENT 20 5 9 17 24 28 68 47 46 58
REMARK Flexibility Score: inf
ROOT
ATOM      1  C   UNL A   1      38.104  23.616  25.855  1.00  0.00     0.118 C 
ENDROOT
BRANCH   1   2
ATOM      2  N   UNL A   1      37.232  23.628  24.696  1.00  0.00    -0.352 N 
ATOM      3  C   UNL A   1      35.947  23.264  24.399  1.00  0.00     0.251 C 
ATOM      4  O   UNL A   1      35.633  23.528  23.230  1.00  0.00    -0.269 OA
ATOM      5  H   UNL A   1      37.690  24.000  23.907  1.00  0.00     0.163 HD
BRANCH   3   6
ATOM      6  C   UNL A   1      34.888  22.621  25.273  1.00  0.00     0.044 A 
ATOM      7  C   UNL A   1      35.323  20.088  24.948  1.00  0.00     0.045 C 
ATOM      8  C   UNL A   1      34.624  21.262  25.544  1.00  0.00    -0.038 A 
ATOM      9  C   UNL A   1      33.515  20.905  26.347  1.00  0.00     0.005 A 
ATOM     10  C   UNL A   1      32.552  21.833  26.704  1.00  0.00     0.022 A 
ATOM     11  C   UNL A   1      33.915  23.558  25.725  1.00  0.00     0.036 A 
ATOM     12  C   UNL A   1      32.713  23.156  26.317  1.00  0.00     0.088 A 
BRANCH  12  13
ATOM     13  S   UNL A   1      31.235  24.151  26.393  1.00  0.00     0.263 S 
ATOM     14  O   UNL A   1      30.294  23.379  27.205  1.00  0.00    -0.201 OA
ATOM     15  O   UNL A   1      31.652  25.460  26.809  1.00  0.00    -0.201 OA
BRANCH  13  16
ATOM     16  N   UNL A   1      30.587  24.335  24.888  1.00  0.00    -0.263 N 
ATOM     17  H   UNL A   1      30.221  23.531  24.456  1.00  0.00     0.182 HD
BRANCH  16  18
ATOM     18  C   UNL A   1      30.510  25.531  24.176  1.00  0.00     0.139 A 
ATOM     19  C   UNL A   1      29.507  26.485  24.269  1.00  0.00     0.048 A 
ATOM     20  N   UNL A   1      31.540  25.599  23.313  1.00  0.00    -0.239 NA
ATOM     21  C   UNL A   1      29.516  27.521  23.338  1.00  0.00     0.005 A 
ATOM     22  C   UNL A   1      31.532  26.625  22.437  1.00  0.00     0.113 A 
ATOM     23  C   UNL A   1      30.540  27.589  22.396  1.00  0.00     0.020 A 
ENDBRANCH  16  18
ENDBRANCH  13  16
ENDBRANCH  12  13
ENDBRANCH   3   6
ENDBRANCH   1   2
BRANCH   1  24
ATOM     24  C   UNL A   1      38.713  22.231  26.068  1.00  0.00     0.042 C 
BRANCH  24  25
ATOM     25  C   UNL A   1      40.177  22.206  26.462  1.00  0.00     0.118 C 
BRANCH  25  26
ATOM     26  N   UNL A   1      40.959  21.173  25.778  1.00  0.00    -0.352 N 
ATOM     27  C   UNL A   1      42.324  20.950  25.860  1.00  0.00     0.251 C 
ATOM     28  H   UNL A   1      40.453  20.564  25.192  1.00  0.00     0.163 HD
ATOM     29  O   UNL A   1      42.853  20.003  25.292  1.00  0.00    -0.269 OA
BRANCH  27  30
ATOM     30  C   UNL A   1      43.101  21.813  26.777  1.00  0.00     0.039 A 
ATOM     31  C   UNL A   1      42.843  21.661  28.139  1.00  0.00     0.014 A 
ATOM     32  C   UNL A   1      43.691  22.971  26.278  1.00  0.00     0.014 A 
ATOM     33  C   UNL A   1      42.877  22.788  28.950  1.00  0.00     0.010 A 
ATOM     34  C   UNL A   1      43.630  24.110  27.057  1.00  0.00     0.010 A 
ATOM     35  C   UNL A   1      43.140  24.029  28.364  1.00  0.00    -0.014 A 
BRANCH  35  36
ATOM     36  C   UNL A   1      42.874  25.281  29.057  1.00  0.00     0.031 A 
ATOM     37  C   UNL A   1      41.695  26.065  28.659  1.00  0.00     0.074 A 
ATOM     38  C   UNL A   1      43.719  25.790  29.983  1.00  0.00     0.049 A 
ATOM     39  N   UNL A   1      41.673  27.352  28.588  1.00  0.00    -0.248 NA
ATOM     40  C   UNL A   1      40.453  25.429  28.243  1.00  0.00     0.031 C 
ATOM     41  C   UNL A   1      43.510  26.994  30.786  1.00  0.00     0.029 A 
ATOM     42  N   UNL A   1      45.056  25.467  30.210  1.00  0.00    -0.354 N 
ATOM     43  C   UNL A   1      40.356  27.716  28.440  1.00  0.00     0.074 A 
ATOM     44  C   UNL A   1      39.658  26.493  28.113  1.00  0.00     0.031 C 
ATOM     45  C   UNL A   1      44.708  27.491  31.129  1.00  0.00     0.029 A 
ATOM     46  C   UNL A   1      45.719  26.679  30.477  1.00  0.00     0.049 A 
ATOM     47  H   UNL A   1      45.456  24.567  30.189  1.00  0.00     0.167 HD
ATOM     48  C   UNL A   1      39.961  28.977  28.774  1.00  0.00     0.031 A 
ATOM     49  C   UNL A   1      46.772  27.141  29.743  1.00  0.00     0.031 A 
ATOM     50  C   UNL A   1      41.079  29.811  29.216  1.00  0.00     0.049 A 
ATOM     51  C   UNL A   1      46.522  28.496  29.107  1.00  0.00     0.074 A 
ATOM     52  C   UNL A   1      41.518  30.232  30.462  1.00  0.00     0.029 A 
ATOM     53  N   UNL A   1      42.111  30.093  28.332  1.00  0.00    -0.354 N 
ATOM     54  N   UNL A   1      45.401  29.156  29.188  1.00  0.00    -0.248 NA
ATOM     55  C   UNL A   1      47.483  29.151  28.224  1.00  0.00     0.031 C 
ATOM     56  C   UNL A   1      42.828  30.768  30.319  1.00  0.00     0.029 A 
ATOM     57  C   UNL A   1      43.178  30.689  28.984  1.00  0.00     0.049 A 
ATOM     58  H   UNL A   1      42.088  29.895  27.368  1.00  0.00     0.167 HD
ATOM     59  C   UNL A   1      45.443  30.258  28.366  1.00  0.00     0.074 A 
ATOM     60  C   UNL A   1      46.773  30.205  27.784  1.00  0.00     0.031 C 
ATOM     61  C   UNL A   1      44.359  31.081  28.216  1.00  0.00     0.031 A 
BRANCH  48  62
ATOM     62  C   UNL A   1      38.507  29.328  28.993  1.00  0.00    -0.014 A 
ATOM     63  C   UNL A   1      37.758  29.891  27.945  1.00  0.00     0.009 A 
ATOM     64  C   UNL A   1      37.835  29.186  30.219  1.00  0.00     0.009 A 
ATOM     65  C   UNL A   1      36.465  30.393  28.142  1.00  0.00     0.001 A 
ATOM     66  C   UNL A   1      36.561  29.730  30.440  1.00  0.00     0.001 A 
ATOM     67  C   UNL A   1      35.881  30.348  29.402  1.00  0.00     0.000 A 
ENDBRANCH  48  62
BRANCH  49  68
ATOM     68  C   UNL A   1      47.588  26.055  29.138  1.00  0.00    -0.014 A 
ATOM     69  C   UNL A   1      47.327  25.717  27.794  1.00  0.00     0.009 A 
ATOM     70  C   UNL A   1      48.827  25.705  29.693  1.00  0.00     0.009 A 
ATOM     71  C   UNL A   1      48.340  25.201  26.982  1.00  0.00     0.001 A 
ATOM     72  C   UNL A   1      49.830  25.172  28.876  1.00  0.00     0.001 A 
ATOM     73  C   UNL A   1      49.604  24.972  27.514  1.00  0.00     0.000 A 
ENDBRANCH  49  68
BRANCH  61  74
ATOM     74  C   UNL A   1      44.248  32.318  27.338  1.00  0.00    -0.014 A 
ATOM     75  C   UNL A   1      44.448  32.356  25.954  1.00  0.00     0.009 A 
ATOM     76  C   UNL A   1      43.969  33.567  27.948  1.00  0.00     0.009 A 
ATOM     77  C   UNL A   1      44.297  33.542  25.216  1.00  0.00     0.001 A 
ATOM     78  C   UNL A   1      43.828  34.755  27.223  1.00  0.00     0.001 A 
ATOM     79  C   UNL A   1      43.978  34.738  25.848  1.00  0.00     0.000 A 
ENDBRANCH  61  74
ENDBRANCH  35  36
ENDBRANCH  27  30
ENDBRANCH  25  26
ENDBRANCH  24  25
ENDBRANCH   1  24
TORSDOF 13
ENDMDL
MODEL 2
REMARK VINA RESULT:     -12.1      3.240      8.221
REMARK SMILES Cc1ccc(S(=O)(=O)Nc2ccccn2)cc1C(=O)NCCCNC(=O)c1ccc(-c2c3nc(c(-c4ccccc4)c4ccc([nH]4)c(-c4ccccc4)c4nc(c(-c5ccccc5)c5ccc2[nH]5)C=C4)C=C3)cc1
REMARK SMILES IDX 21 1 20 2 18 3 19 4 17 6 1 7 2 8 3 9 4 10 16 11 5 12 6 13
REMARK SMILES IDX 7 14 8 15 9 16 10 18 11 19 15 20 12 21 14 22 13 23 22 24
REMARK SMILES IDX 23 25 24 26 25 27 26 29 27 30 28 31 74 32 29 33 73 34 30 35
REMARK SMILES IDX 31 36 32 37 67 38 33 39 72 40 66 41 68 42 34 43 71 44 65 45
REMARK SMILES IDX 64 46 35 48 57 49 42 50 56 51 43 52 46 53 55 54 69 55 44 56
REMARK SMILES IDX 45 57 54 59 70 60 47 61 36 62 37 63 41 64 38 65 40 66 39 67
REMARK SMILES IDX 58 68 59 69 63 70 60 71 62 72 61 73 48 74 49 75 53 76 50 77
REMARK SMILES IDX 52 78 51 79
REMARK H PARENT 20 5 9 17 24 28 68 47 46 58
REMARK Flexibility Score: inf
ROOT
ATOM      1  C   UNL A   1      31.791  31.100  26.575  1.00  0.00     0.118 C 
ENDROOT
BRANCH   1   2
ATOM      2  N   UNL A   1      31.287  30.560  25.326  1.00  0.00    -0.352 N 
ATOM      3  C   UNL A   1      31.379  29.387  24.627  1.00  0.00     0.251 C 
ATOM      4  O   UNL A   1      30.700  29.395  23.590  1.00  0.00    -0.269 OA
ATOM      5  H   UNL A   1      30.726  31.216  24.853  1.00  0.00     0.163 HD
BRANCH   3   6
ATOM      6  C   UNL A   1      32.154  28.123  24.939  1.00  0.00     0.044 A 
ATOM      7  C   UNL A   1      34.179  28.267  23.331  1.00  0.00     0.045 C 
ATOM      8  C   UNL A   1      33.371  27.640  24.415  1.00  0.00    -0.038 A 
ATOM      9  C   UNL A   1      33.862  26.375  24.819  1.00  0.00     0.005 A 
ATOM     10  C   UNL A   1      33.082  25.498  25.552  1.00  0.00     0.022 A 
ATOM     11  C   UNL A   1      31.414  27.220  25.756  1.00  0.00     0.036 A 
ATOM     12  C   UNL A   1      31.813  25.895  25.952  1.00  0.00     0.088 A 
BRANCH  12  13
ATOM     13  S   UNL A   1      30.729  24.569  26.450  1.00  0.00     0.263 S 
ATOM     14  O   UNL A   1      31.483  23.811  27.449  1.00  0.00    -0.201 OA
ATOM     15  O   UNL A   1      29.477  25.182  26.792  1.00  0.00    -0.201 OA
BRANCH  13  16
ATOM     16  N   UNL A   1      30.415  23.572  25.175  1.00  0.00    -0.263 N 
ATOM     17  H   UNL A   1      29.513  23.612  24.785  1.00  0.00     0.182 HD
BRANCH  16  18
ATOM     18  C   UNL A   1      31.318  22.679  24.600  1.00  0.00     0.139 A 
ATOM     19  C   UNL A   1      31.968  22.829  23.383  1.00  0.00     0.048 A 
ATOM     20  N   UNL A   1      31.421  21.589  25.382  1.00  0.00    -0.239 NA
ATOM     21  C   UNL A   1      32.686  21.738  22.899  1.00  0.00     0.005 A 
ATOM     22  C   UNL A   1      32.140  20.557  24.894  1.00  0.00     0.113 A 
ATOM     23  C   UNL A   1      32.766  20.576  23.661  1.00  0.00     0.020 A 
ENDBRANCH  16  18
ENDBRANCH  13  16
ENDBRANCH  12  13
ENDBRANCH   3   6
ENDBRANCH   1   2
BRANCH   1  24
ATOM     24  C   UNL A   1      33.311  30.961  26.657  1.00  0.00     0.042 C 
BRANCH  24  25
ATOM     25  C   UNL A   1      33.852  30.368  27.943  1.00  0.00     0.118 C 
BRANCH  25  26
ATOM     26  N   UNL A   1      34.572  31.328  28.784  1.00  0.00    -0.352 N 
ATOM     27  C   UNL A   1      35.858  31.217  29.286  1.00  0.00     0.251 C 
ATOM     28  H   UNL A   1      34.083  32.150  29.019  1.00  0.00     0.163 HD
ATOM     29  O   UNL A   1      36.378  32.125  29.922  1.00  0.00    -0.269 OA
BRANCH  27  30
ATOM     30  C   UNL A   1      36.638  30.019  28.904  1.00  0.00     0.039 A 
ATOM     31  C   UNL A   1      37.036  29.179  29.944  1.00  0.00     0.014 A 
ATOM     32  C   UNL A   1      37.285  29.999  27.671  1.00  0.00     0.014 A 
ATOM     33  C   UNL A   1      38.275  28.559  29.857  1.00  0.00     0.010 A 
ATOM     34  C   UNL A   1      38.559  29.466  27.623  1.00  0.00     0.010 A 
ATOM     35  C   UNL A   1      39.082  28.824  28.748  1.00  0.00    -0.014 A 
BRANCH  35  36
ATOM     36  C   UNL A   1      40.499  28.492  28.729  1.00  0.00     0.031 A 
ATOM     37  C   UNL A   1      40.901  27.164  28.241  1.00  0.00     0.074 A 
ATOM     38  C   UNL A   1      41.445  29.322  29.227  1.00  0.00     0.049 A 
ATOM     39  N   UNL A   1      41.850  26.461  28.758  1.00  0.00    -0.248 NA
ATOM     40  C   UNL A   1      40.199  26.499  27.153  1.00  0.00     0.031 C 
ATOM     41  C   UNL A   1      42.892  29.118  29.189  1.00  0.00     0.029 A 
ATOM     42  N   UNL A   1      41.284  30.399  30.097  1.00  0.00    -0.354 N 
ATOM     43  C   UNL A   1      42.092  25.425  27.888  1.00  0.00     0.074 A 
ATOM     44  C   UNL A   1      40.971  25.425  26.976  1.00  0.00     0.031 C 
ATOM     45  C   UNL A   1      43.443  29.780  30.218  1.00  0.00     0.029 A 
ATOM     46  C   UNL A   1      42.360  30.347  31.001  1.00  0.00     0.049 A 
ATOM     47  H   UNL A   1      40.559  31.067  30.080  1.00  0.00     0.167 HD
ATOM     48  C   UNL A   1      43.294  24.783  27.918  1.00  0.00     0.031 A 
ATOM     49  C   UNL A   1      42.207  30.246  32.352  1.00  0.00     0.031 A 
ATOM     50  C   UNL A   1      44.172  25.294  28.972  1.00  0.00     0.049 A 
ATOM     51  C   UNL A   1      42.859  29.013  32.949  1.00  0.00     0.074 A 
ATOM     52  C   UNL A   1      45.268  26.141  28.969  1.00  0.00     0.029 A 
ATOM     53  N   UNL A   1      43.784  25.175  30.300  1.00  0.00    -0.354 N 
ATOM     54  N   UNL A   1      43.467  28.090  32.257  1.00  0.00    -0.248 NA
ATOM     55  C   UNL A   1      42.764  28.666  34.364  1.00  0.00     0.031 C 
ATOM     56  C   UNL A   1      45.536  26.533  30.309  1.00  0.00     0.029 A 
ATOM     57  C   UNL A   1      44.613  25.912  31.129  1.00  0.00     0.049 A 
ATOM     58  H   UNL A   1      43.021  24.637  30.611  1.00  0.00     0.167 HD
ATOM     59  C   UNL A   1      43.794  27.031  33.072  1.00  0.00     0.074 A 
ATOM     60  C   UNL A   1      43.329  27.445  34.383  1.00  0.00     0.031 C 
ATOM     61  C   UNL A   1      44.379  25.898  32.572  1.00  0.00     0.031 A 
BRANCH  48  62
ATOM     62  C   UNL A   1      43.765  23.912  26.776  1.00  0.00    -0.014 A 
ATOM     63  C   UNL A   1      44.535  24.473  25.741  1.00  0.00     0.009 A 
ATOM     64  C   UNL A   1      43.436  22.554  26.628  1.00  0.00     0.009 A 
ATOM     65  C   UNL A   1      44.849  23.757  24.578  1.00  0.00     0.001 A 
ATOM     66  C   UNL A   1      43.702  21.845  25.447  1.00  0.00     0.001 A 
ATOM     67  C   UNL A   1      44.397  22.454  24.413  1.00  0.00     0.000 A 
ENDBRANCH  48  62
BRANCH  49  68
ATOM     68  C   UNL A   1      40.951  30.868  32.849  1.00  0.00    -0.014 A 
ATOM     69  C   UNL A   1      39.809  30.046  32.940  1.00  0.00     0.009 A 
ATOM     70  C   UNL A   1      40.994  32.047  33.607  1.00  0.00     0.009 A 
ATOM     71  C   UNL A   1      38.819  30.307  33.889  1.00  0.00     0.001 A 
ATOM     72  C   UNL A   1      39.989  32.311  34.543  1.00  0.00     0.001 A 
ATOM     73  C   UNL A   1      38.934  31.416  34.722  1.00  0.00     0.000 A 
ENDBRANCH  49  68
BRANCH  61  74
ATOM     74  C   UNL A   1      44.782  24.647  33.338  1.00  0.00    -0.014 A 
ATOM     75  C   UNL A   1      46.061  24.371  33.834  1.00  0.00     0.009 A 
ATOM     76  C   UNL A   1      43.816  23.629  33.542  1.00  0.00     0.009 A 
ATOM     77  C   UNL A   1      46.337  23.198  34.557  1.00  0.00     0.001 A 
ATOM     78  C   UNL A   1      44.086  22.454  34.251  1.00  0.00     0.001 A 
ATOM     79  C   UNL A   1      45.349  22.245  34.775  1.00  0.00     0.000 A 
ENDBRANCH  61  74
ENDBRANCH  35  36
ENDBRANCH  27  30
ENDBRANCH  25  26
ENDBRANCH  24  25
ENDBRANCH   1  24
TORSDOF 13
ENDMDL
MODEL 3
REMARK VINA RESULT:     -12.1      1.867      3.152
REMARK SMILES Cc1ccc(S(=O)(=O)Nc2ccccn2)cc1C(=O)NCCCNC(=O)c1ccc(-c2c3nc(c(-c4ccccc4)c4ccc([nH]4)c(-c4ccccc4)c4nc(c(-c5ccccc5)c5ccc2[nH]5)C=C4)C=C3)cc1
REMARK SMILES IDX 21 1 20 2 18 3 19 4 17 6 1 7 2 8 3 9 4 10 16 11 5 12 6 13
REMARK SMILES IDX 7 14 8 15 9 16 10 18 11 19 15 20 12 21 14 22 13 23 22 24
REMARK SMILES IDX 23 25 24 26 25 27 26 29 27 30 28 31 74 32 29 33 73 34 30 35
REMARK SMILES IDX 31 36 32 37 67 38 33 39 72 40 66 41 68 42 34 43 71 44 65 45
REMARK SMILES IDX 64 46 35 48 57 49 42 50 56 51 43 52 46 53 55 54 69 55 44 56
REMARK SMILES IDX 45 57 54 59 70 60 47 61 36 62 37 63 41 64 38 65 40 66 39 67
REMARK SMILES IDX 58 68 59 69 63 70 60 71 62 72 61 73 48 74 49 75 53 76 50 77
REMARK SMILES IDX 52 78 51 79
REMARK H PARENT 20 5 9 17 24 28 68 47 46 58
REMARK Flexibility Score: inf
ROOT
ATOM      1  C   UNL A   1      38.177  21.308  25.316  1.00  0.00     0.118 C 
ENDROOT
BRANCH   1   2
ATOM      2  N   UNL A   1      37.745  21.974  24.102  1.00  0.00    -0.352 N 
ATOM      3  C   UNL A   1      36.686  22.739  23.695  1.00  0.00     0.251 C 
ATOM      4  O   UNL A   1      36.800  23.129  22.525  1.00  0.00    -0.269 OA
ATOM      5  H   UNL A   1      38.391  21.839  23.370  1.00  0.00     0.163 HD
BRANCH   3   6
ATOM      6  C   UNL A   1      35.447  23.171  24.453  1.00  0.00     0.044 A 
ATOM      7  C   UNL A   1      36.389  24.816  26.219  1.00  0.00     0.045 C 
ATOM      8  C   UNL A   1      35.296  24.083  25.519  1.00  0.00    -0.038 A 
ATOM      9  C   UNL A   1      34.026  24.266  26.117  1.00  0.00     0.005 A 
ATOM     10  C   UNL A   1      32.966  23.424  25.834  1.00  0.00     0.022 A 
ATOM     11  C   UNL A   1      34.309  22.375  24.135  1.00  0.00     0.036 A 
ATOM     12  C   UNL A   1      33.136  22.416  24.894  1.00  0.00     0.088 A 
BRANCH  12  13
ATOM     13  S   UNL A   1      31.915  21.116  24.950  1.00  0.00     0.263 S 
ATOM     14  O   UNL A   1      30.778  21.689  25.671  1.00  0.00    -0.201 OA
ATOM     15  O   UNL A   1      31.764  20.650  23.602  1.00  0.00    -0.201 OA
BRANCH  13  16
ATOM     16  N   UNL A   1      32.480  19.833  25.817  1.00  0.00    -0.263 N 
ATOM     17  H   UNL A   1      32.397  19.881  26.797  1.00  0.00     0.182 HD
BRANCH  16  18
ATOM     18  C   UNL A   1      33.063  18.684  25.284  1.00  0.00     0.139 A 
ATOM     19  C   UNL A   1      34.213  18.623  24.511  1.00  0.00     0.048 A 
ATOM     20  N   UNL A   1      32.293  17.621  25.578  1.00  0.00    -0.239 NA
ATOM     21  C   UNL A   1      34.528  17.402  23.920  1.00  0.00     0.005 A 
ATOM     22  C   UNL A   1      32.634  16.447  25.006  1.00  0.00     0.113 A 
ATOM     23  C   UNL A   1      33.719  16.295  24.161  1.00  0.00     0.020 A 
ENDBRANCH  16  18
ENDBRANCH  13  16
ENDBRANCH  12  13
ENDBRANCH   3   6
ENDBRANCH   1   2
BRANCH   1  24
ATOM     24  C   UNL A   1      38.948  22.268  26.222  1.00  0.00     0.042 C 
BRANCH  24  25
ATOM     25  C   UNL A   1      40.143  21.677  26.946  1.00  0.00     0.118 C 
BRANCH  25  26
ATOM     26  N   UNL A   1      40.911  20.723  26.143  1.00  0.00    -0.352 N 
ATOM     27  C   UNL A   1      42.284  20.682  25.961  1.00  0.00     0.251 C 
ATOM     28  H   UNL A   1      40.390  20.028  25.679  1.00  0.00     0.163 HD
ATOM     29  O   UNL A   1      42.818  19.785  25.320  1.00  0.00    -0.269 OA
BRANCH  27  30
ATOM     30  C   UNL A   1      43.098  21.679  26.691  1.00  0.00     0.039 A 
ATOM     31  C   UNL A   1      43.125  21.561  28.080  1.00  0.00     0.014 A 
ATOM     32  C   UNL A   1      43.424  22.877  26.061  1.00  0.00     0.014 A 
ATOM     33  C   UNL A   1      43.161  22.720  28.843  1.00  0.00     0.010 A 
ATOM     34  C   UNL A   1      43.360  24.035  26.811  1.00  0.00     0.010 A 
ATOM     35  C   UNL A   1      43.141  23.955  28.190  1.00  0.00    -0.014 A 
BRANCH  35  36
ATOM     36  C   UNL A   1      42.846  25.194  28.892  1.00  0.00     0.031 A 
ATOM     37  C   UNL A   1      41.672  25.974  28.475  1.00  0.00     0.074 A 
ATOM     38  C   UNL A   1      43.661  25.697  29.848  1.00  0.00     0.049 A 
ATOM     39  N   UNL A   1      41.640  27.262  28.421  1.00  0.00    -0.248 NA
ATOM     40  C   UNL A   1      40.446  25.335  28.017  1.00  0.00     0.031 C 
ATOM     41  C   UNL A   1      43.421  26.888  30.662  1.00  0.00     0.029 A 
ATOM     42  N   UNL A   1      44.994  25.382  30.106  1.00  0.00    -0.354 N 
ATOM     43  C   UNL A   1      40.325  27.618  28.242  1.00  0.00     0.074 A 
ATOM     44  C   UNL A   1      39.646  26.394  27.880  1.00  0.00     0.031 C 
ATOM     45  C   UNL A   1      44.605  27.390  31.044  1.00  0.00     0.029 A 
ATOM     46  C   UNL A   1      45.640  26.595  30.408  1.00  0.00     0.049 A 
ATOM     47  H   UNL A   1      45.402  24.486  30.084  1.00  0.00     0.167 HD
ATOM     48  C   UNL A   1      39.911  28.871  28.583  1.00  0.00     0.031 A 
ATOM     49  C   UNL A   1      46.708  27.076  29.709  1.00  0.00     0.031 A 
ATOM     50  C   UNL A   1      41.010  29.708  29.067  1.00  0.00     0.049 A 
ATOM     51  C   UNL A   1      46.464  28.437  29.085  1.00  0.00     0.074 A 
ATOM     52  C   UNL A   1      41.412  30.114  30.330  1.00  0.00     0.029 A 
ATOM     53  N   UNL A   1      42.063  30.010  28.215  1.00  0.00    -0.354 N 
ATOM     54  N   UNL A   1      45.336  29.087  29.146  1.00  0.00    -0.248 NA
ATOM     55  C   UNL A   1      47.443  29.113  28.238  1.00  0.00     0.031 C 
ATOM     56  C   UNL A   1      42.720  30.663  30.229  1.00  0.00     0.029 A 
ATOM     57  C   UNL A   1      43.107  30.605  28.903  1.00  0.00     0.049 A 
ATOM     58  H   UNL A   1      42.067  29.826  27.248  1.00  0.00     0.167 HD
ATOM     59  C   UNL A   1      45.391  30.201  28.341  1.00  0.00     0.074 A 
ATOM     60  C   UNL A   1      46.736  30.167  27.794  1.00  0.00     0.031 C 
ATOM     61  C   UNL A   1      44.305  31.017  28.173  1.00  0.00     0.031 A 
BRANCH  48  62
ATOM     62  C   UNL A   1      38.449  29.207  28.768  1.00  0.00    -0.014 A 
ATOM     63  C   UNL A   1      37.702  29.701  27.684  1.00  0.00     0.009 A 
ATOM     64  C   UNL A   1      37.765  29.117  29.993  1.00  0.00     0.009 A 
ATOM     65  C   UNL A   1      36.398  30.190  27.841  1.00  0.00     0.001 A 
ATOM     66  C   UNL A   1      36.480  29.650  30.171  1.00  0.00     0.001 A 
ATOM     67  C   UNL A   1      35.801  30.201  29.095  1.00  0.00     0.000 A 
ENDBRANCH  48  62
BRANCH  49  68
ATOM     68  C   UNL A   1      47.550  26.005  29.111  1.00  0.00    -0.014 A 
ATOM     69  C   UNL A   1      47.275  25.629  27.780  1.00  0.00     0.009 A 
ATOM     70  C   UNL A   1      48.810  25.709  29.649  1.00  0.00     0.009 A 
ATOM     71  C   UNL A   1      48.288  25.129  26.959  1.00  0.00     0.001 A 
ATOM     72  C   UNL A   1      49.815  25.192  28.824  1.00  0.00     0.001 A 
ATOM     73  C   UNL A   1      49.570  24.955  27.471  1.00  0.00     0.000 A 
ENDBRANCH  49  68
BRANCH  61  74
ATOM     74  C   UNL A   1      44.207  32.266  27.310  1.00  0.00    -0.014 A 
ATOM     75  C   UNL A   1      44.361  32.310  25.920  1.00  0.00     0.009 A 
ATOM     76  C   UNL A   1      43.993  33.518  27.939  1.00  0.00     0.009 A 
ATOM     77  C   UNL A   1      44.226  33.508  25.197  1.00  0.00     0.001 A 
ATOM     78  C   UNL A   1      43.868  34.717  27.229  1.00  0.00     0.001 A 
ATOM     79  C   UNL A   1      43.970  34.708  25.850  1.00  0.00     0.000 A 
ENDBRANCH  61  74
ENDBRANCH  35  36
ENDBRANCH  27  30
ENDBRANCH  25  26
ENDBRANCH  24  25
ENDBRANCH   1  24
TORSDOF 13
ENDMDL
