MODEL 1
REMARK VINA RESULT:     -11.7      0.000      0.000
REMARK SMILES Nc1c(Cl)ccc2c1C=C(C(=O)NCCCNC(=O)c1ccc(-c3c4nc(c(-c5ccccc5)c5ccc([nH]5)c(-c5ccccc5)c5nc(c(-c6ccccc6)c6ccc3[nH]6)C=C5)C=C4)cc1)[C@@H](C(F)(F)F)O2
REMARK SMILES IDX 15 1 14 2 13 3 11 4 12 5 10 7 2 8 3 9 8 10 4 11 5 12 7 13
REMARK SMILES IDX 9 14 6 15 73 16 68 17 1 18 69 21 70 22 71 23 72 24 16 25
REMARK SMILES IDX 17 26 18 27 19 29 20 30 21 31 67 32 22 33 66 34 23 35 24 36
REMARK SMILES IDX 25 37 60 38 26 39 65 40 59 41 61 42 27 43 64 44 58 45 57 46
REMARK SMILES IDX 28 48 50 49 35 50 49 51 36 52 39 53 48 54 62 55 37 56 38 57
REMARK SMILES IDX 47 59 63 60 40 61 29 62 30 63 34 64 31 65 33 66 32 67 51 68
REMARK SMILES IDX 52 69 56 70 53 71 55 72 54 73 41 74 42 75 46 76 43 77 45 78
REMARK SMILES IDX 44 79
REMARK H PARENT 13 6 1 19 1 20 17 28 61 47 39 58
REMARK Flexibility Score: inf
ROOT
ATOM      1  C   UNL A   1      37.755  19.714  24.820  1.00  0.00     0.042 C 
ENDROOT
BRANCH   1   2
ATOM      2  C   UNL A   1      36.445  20.468  24.996  1.00  0.00     0.118 C 
BRANCH   2   3
ATOM      3  N   UNL A   1      35.299  19.577  24.889  1.00  0.00    -0.352 N 
ATOM      4  C   UNL A   1      33.952  19.684  24.876  1.00  0.00     0.251 C 
ATOM      5  O   UNL A   1      33.346  18.610  24.797  1.00  0.00    -0.270 OA
ATOM      6  H   UNL A   1      35.583  18.639  24.802  1.00  0.00     0.163 HD
BRANCH   4   7
ATOM      7  C   UNL A   1      33.189  20.963  24.946  1.00  0.00     0.067 C 
ATOM      8  C   UNL A   1      32.348  23.769  22.635  1.00  0.00     0.061 A 
ATOM      9  C   UNL A   1      31.628  24.983  22.726  1.00  0.00     0.064 A 
ATOM     10  C   UNL A   1      32.340  22.906  23.754  1.00  0.00     0.042 A 
ATOM     11  Cl  UNL A   1      31.621  26.107  21.408  1.00  0.00    -0.082 Cl
ATOM     12  C   UNL A   1      30.887  25.312  23.864  1.00  0.00     0.026 A 
ATOM     13  C   UNL A   1      31.603  23.262  24.894  1.00  0.00     0.130 A 
ATOM     14  C   UNL A   1      33.041  21.619  23.780  1.00  0.00     0.027 C 
ATOM     15  C   UNL A   1      30.869  24.445  24.948  1.00  0.00     0.049 A 
ATOM     16  O   UNL A   1      31.526  22.470  26.007  1.00  0.00    -0.475 OA
ATOM     17  C   UNL A   1      32.629  21.547  26.207  1.00  0.00     0.314 C 
BRANCH   8  18
ATOM     18  N   UNL A   1      33.125  23.506  21.503  1.00  0.00    -0.397 N 
ATOM     19  H   UNL A   1      33.418  24.247  20.924  1.00  0.00     0.156 HD
ATOM     20  H   UNL A   1      33.381  22.581  21.285  1.00  0.00     0.156 HD
ENDBRANCH   8  18
BRANCH  17  21
ATOM     21  C   UNL A   1      33.705  22.207  27.092  1.00  0.00     0.429 C 
ATOM     22  F   UNL A   1      33.125  23.023  28.007  1.00  0.00    -0.167 F 
ATOM     23  F   UNL A   1      34.428  21.301  27.793  1.00  0.00    -0.167 F 
ATOM     24  F   UNL A   1      34.585  22.948  26.385  1.00  0.00    -0.167 F 
ENDBRANCH  17  21
ENDBRANCH   4   7
ENDBRANCH   2   3
ENDBRANCH   1   2
BRANCH   1  25
ATOM     25  C   UNL A   1      38.859  20.273  25.712  1.00  0.00     0.118 C 
BRANCH  25  26
ATOM     26  N   UNL A   1      39.977  19.341  25.823  1.00  0.00    -0.352 N 
ATOM     27  C   UNL A   1      41.305  19.599  26.047  1.00  0.00     0.251 C 
ATOM     28  H   UNL A   1      39.744  18.389  25.725  1.00  0.00     0.163 HD
ATOM     29  O   UNL A   1      42.154  18.742  25.817  1.00  0.00    -0.269 OA
BRANCH  27  30
ATOM     30  C   UNL A   1      41.707  20.916  26.570  1.00  0.00     0.039 A 
ATOM     31  C   UNL A   1      42.176  21.895  25.692  1.00  0.00     0.014 A 
ATOM     32  C   UNL A   1      41.639  21.167  27.944  1.00  0.00     0.014 A 
ATOM     33  C   UNL A   1      42.526  23.151  26.189  1.00  0.00     0.010 A 
ATOM     34  C   UNL A   1      41.914  22.437  28.427  1.00  0.00     0.010 A 
ATOM     35  C   UNL A   1      42.376  23.433  27.555  1.00  0.00    -0.014 A 
BRANCH  35  36
ATOM     36  C   UNL A   1      42.752  24.748  28.119  1.00  0.00     0.031 A 
ATOM     37  C   UNL A   1      41.692  25.796  28.310  1.00  0.00     0.074 A 
ATOM     38  C   UNL A   1      44.040  25.015  28.400  1.00  0.00     0.049 A 
ATOM     39  N   UNL A   1      41.824  27.031  28.715  1.00  0.00    -0.248 NA
ATOM     40  C   UNL A   1      40.307  25.412  27.987  1.00  0.00     0.031 C 
ATOM     41  C   UNL A   1      45.157  24.081  28.232  1.00  0.00     0.029 A 
ATOM     42  N   UNL A   1      44.628  26.155  28.885  1.00  0.00    -0.354 N 
ATOM     43  C   UNL A   1      40.546  27.571  28.684  1.00  0.00     0.074 A 
ATOM     44  C   UNL A   1      39.657  26.551  28.178  1.00  0.00     0.031 C 
ATOM     45  C   UNL A   1      46.289  24.679  28.636  1.00  0.00     0.029 A 
ATOM     46  C   UNL A   1      45.985  26.044  29.057  1.00  0.00     0.049 A 
ATOM     47  H   UNL A   1      44.124  26.975  29.090  1.00  0.00     0.167 HD
ATOM     48  C   UNL A   1      40.144  28.802  29.072  1.00  0.00     0.031 A 
ATOM     49  C   UNL A   1      46.883  26.942  29.503  1.00  0.00     0.031 A 
ATOM     50  C   UNL A   1      41.022  29.804  29.602  1.00  0.00     0.049 A 
ATOM     51  C   UNL A   1      46.414  28.311  29.907  1.00  0.00     0.074 A 
ATOM     52  C   UNL A   1      40.699  31.067  30.066  1.00  0.00     0.029 A 
ATOM     53  N   UNL A   1      42.390  29.654  29.750  1.00  0.00    -0.354 N 
ATOM     54  N   UNL A   1      45.196  28.797  29.903  1.00  0.00    -0.248 NA
ATOM     55  C   UNL A   1      47.437  29.255  30.380  1.00  0.00     0.031 C 
ATOM     56  C   UNL A   1      41.881  31.696  30.461  1.00  0.00     0.029 A 
ATOM     57  C   UNL A   1      42.931  30.809  30.284  1.00  0.00     0.049 A 
ATOM     58  H   UNL A   1      42.901  28.847  29.510  1.00  0.00     0.167 HD
ATOM     59  C   UNL A   1      45.303  30.092  30.390  1.00  0.00     0.074 A 
ATOM     60  C   UNL A   1      46.702  30.317  30.687  1.00  0.00     0.031 C 
ATOM     61  C   UNL A   1      44.325  31.010  30.576  1.00  0.00     0.031 A 
BRANCH  48  62
ATOM     62  C   UNL A   1      38.685  29.130  28.965  1.00  0.00    -0.014 A 
ATOM     63  C   UNL A   1      37.837  28.987  30.074  1.00  0.00     0.009 A 
ATOM     64  C   UNL A   1      38.173  29.673  27.777  1.00  0.00     0.009 A 
ATOM     65  C   UNL A   1      36.500  29.376  29.993  1.00  0.00     0.001 A 
ATOM     66  C   UNL A   1      36.840  30.080  27.706  1.00  0.00     0.001 A 
ATOM     67  C   UNL A   1      36.005  29.931  28.813  1.00  0.00     0.000 A 
ENDBRANCH  48  62
BRANCH  49  68
ATOM     68  C   UNL A   1      48.311  26.554  29.622  1.00  0.00    -0.014 A 
ATOM     69  C   UNL A   1      48.774  25.915  30.781  1.00  0.00     0.009 A 
ATOM     70  C   UNL A   1      49.207  26.780  28.564  1.00  0.00     0.009 A 
ATOM     71  C   UNL A   1      50.109  25.515  30.883  1.00  0.00     0.001 A 
ATOM     72  C   UNL A   1      50.535  26.360  28.662  1.00  0.00     0.001 A 
ATOM     73  C   UNL A   1      50.986  25.732  29.822  1.00  0.00     0.000 A 
ENDBRANCH  49  68
BRANCH  61  74
ATOM     74  C   UNL A   1      44.711  32.345  31.140  1.00  0.00    -0.014 A 
ATOM     75  C   UNL A   1      44.995  33.425  30.294  1.00  0.00     0.009 A 
ATOM     76  C   UNL A   1      44.650  32.555  32.527  1.00  0.00     0.009 A 
ATOM     77  C   UNL A   1      45.213  34.696  30.827  1.00  0.00     0.001 A 
ATOM     78  C   UNL A   1      44.847  33.831  33.055  1.00  0.00     0.001 A 
ATOM     79  C   UNL A   1      45.128  34.900  32.205  1.00  0.00     0.000 A 
ENDBRANCH  61  74
ENDBRANCH  35  36
ENDBRANCH  27  30
ENDBRANCH  25  26
ENDBRANCH   1  25
TORSDOF 12
ENDMDL
MODEL 2
REMARK VINA RESULT:     -11.7      0.265      6.014
REMARK SMILES Nc1c(Cl)ccc2c1C=C(C(=O)NCCCNC(=O)c1ccc(-c3c4nc(c(-c5ccccc5)c5ccc([nH]5)c(-c5ccccc5)c5nc(c(-c6ccccc6)c6ccc3[nH]6)C=C5)C=C4)cc1)[C@@H](C(F)(F)F)O2
REMARK SMILES IDX 15 1 14 2 13 3 11 4 12 5 10 7 2 8 3 9 8 10 4 11 5 12 7 13
REMARK SMILES IDX 9 14 6 15 73 16 68 17 1 18 69 21 70 22 71 23 72 24 16 25
REMARK SMILES IDX 17 26 18 27 19 29 20 30 21 31 67 32 22 33 66 34 23 35 24 36
REMARK SMILES IDX 25 37 60 38 26 39 65 40 59 41 61 42 27 43 64 44 58 45 57 46
REMARK SMILES IDX 28 48 50 49 35 50 49 51 36 52 39 53 48 54 62 55 37 56 38 57
REMARK SMILES IDX 47 59 63 60 40 61 29 62 30 63 34 64 31 65 33 66 32 67 51 68
REMARK SMILES IDX 52 69 56 70 53 71 55 72 54 73 41 74 42 75 46 76 43 77 45 78
REMARK SMILES IDX 44 79
REMARK H PARENT 13 6 1 19 1 20 17 28 61 47 39 58
REMARK Flexibility Score: inf
ROOT
ATOM      1  C   UNL A   1      37.560  19.394  24.941  1.00  0.00     0.042 C 
ENDROOT
BRANCH   1   2
ATOM      2  C   UNL A   1      36.298  20.243  25.000  1.00  0.00     0.118 C 
BRANCH   2   3
ATOM      3  N   UNL A   1      35.101  19.428  24.860  1.00  0.00    -0.352 N 
ATOM      4  C   UNL A   1      33.764  19.620  24.828  1.00  0.00     0.251 C 
ATOM      5  O   UNL A   1      33.093  18.588  24.720  1.00  0.00    -0.270 OA
ATOM      6  H   UNL A   1      35.327  18.475  24.760  1.00  0.00     0.163 HD
BRANCH   4   7
ATOM      7  C   UNL A   1      33.081  20.943  24.909  1.00  0.00     0.067 C 
ATOM      8  C   UNL A   1      32.319  23.767  22.593  1.00  0.00     0.061 A 
ATOM      9  C   UNL A   1      31.677  25.023  22.695  1.00  0.00     0.064 A 
ATOM     10  C   UNL A   1      32.303  22.919  23.723  1.00  0.00     0.042 A 
ATOM     11  Cl  UNL A   1      31.686  26.130  21.362  1.00  0.00    -0.082 Cl
ATOM     12  C   UNL A   1      31.001  25.409  23.855  1.00  0.00     0.026 A 
ATOM     13  C   UNL A   1      31.633  23.332  24.885  1.00  0.00     0.130 A 
ATOM     14  C   UNL A   1      32.927  21.593  23.740  1.00  0.00     0.027 C 
ATOM     15  C   UNL A   1      30.973  24.556  24.951  1.00  0.00     0.049 A 
ATOM     16  O   UNL A   1      31.552  22.558  26.010  1.00  0.00    -0.475 OA
ATOM     17  C   UNL A   1      32.606  21.574  26.182  1.00  0.00     0.314 C 
BRANCH   8  18
ATOM     18  N   UNL A   1      33.036  23.446  21.436  1.00  0.00    -0.397 N 
ATOM     19  H   UNL A   1      33.783  24.018  21.146  1.00  0.00     0.156 HD
ATOM     20  H   UNL A   1      32.795  22.648  20.913  1.00  0.00     0.156 HD
ENDBRANCH   8  18
BRANCH  17  21
ATOM     21  C   UNL A   1      33.752  22.178  27.016  1.00  0.00     0.429 C 
ATOM     22  F   UNL A   1      33.258  23.049  27.932  1.00  0.00    -0.167 F 
ATOM     23  F   UNL A   1      34.436  21.240  27.714  1.00  0.00    -0.167 F 
ATOM     24  F   UNL A   1      34.655  22.844  26.265  1.00  0.00    -0.167 F 
ENDBRANCH  17  21
ENDBRANCH   4   7
ENDBRANCH   2   3
ENDBRANCH   1   2
BRANCH   1  25
ATOM     25  C   UNL A   1      38.767  20.126  25.518  1.00  0.00     0.118 C 
BRANCH  25  26
ATOM     26  N   UNL A   1      39.883  19.213  25.750  1.00  0.00    -0.352 N 
ATOM     27  C   UNL A   1      41.188  19.497  26.062  1.00  0.00     0.251 C 
ATOM     28  H   UNL A   1      39.668  18.255  25.672  1.00  0.00     0.163 HD
ATOM     29  O   UNL A   1      42.060  18.643  25.930  1.00  0.00    -0.269 OA
BRANCH  27  30
ATOM     30  C   UNL A   1      41.537  20.838  26.561  1.00  0.00     0.039 A 
ATOM     31  C   UNL A   1      42.036  21.797  25.677  1.00  0.00     0.014 A 
ATOM     32  C   UNL A   1      41.388  21.133  27.920  1.00  0.00     0.014 A 
ATOM     33  C   UNL A   1      42.335  23.075  26.149  1.00  0.00     0.010 A 
ATOM     34  C   UNL A   1      41.612  22.424  28.373  1.00  0.00     0.010 A 
ATOM     35  C   UNL A   1      42.104  23.400  27.494  1.00  0.00    -0.014 A 
BRANCH  35  36
ATOM     36  C   UNL A   1      42.425  24.739  28.032  1.00  0.00     0.031 A 
ATOM     37  C   UNL A   1      43.840  25.050  28.432  1.00  0.00     0.074 A 
ATOM     38  C   UNL A   1      41.446  25.644  28.212  1.00  0.00     0.049 A 
ATOM     39  N   UNL A   1      44.315  26.131  28.993  1.00  0.00    -0.248 NA
ATOM     40  C   UNL A   1      44.849  24.004  28.189  1.00  0.00     0.031 C 
ATOM     41  C   UNL A   1      40.034  25.443  27.881  1.00  0.00     0.029 A 
ATOM     42  N   UNL A   1      41.493  26.916  28.722  1.00  0.00    -0.354 N 
ATOM     43  C   UNL A   1      45.669  25.889  29.177  1.00  0.00     0.074 A 
ATOM     44  C   UNL A   1      45.937  24.547  28.716  1.00  0.00     0.031 C 
ATOM     45  C   UNL A   1      39.354  26.564  28.170  1.00  0.00     0.029 A 
ATOM     46  C   UNL A   1      40.273  27.547  28.737  1.00  0.00     0.049 A 
ATOM     47  H   UNL A   1      42.321  27.337  29.047  1.00  0.00     0.167 HD
ATOM     48  C   UNL A   1      46.613  26.726  29.663  1.00  0.00     0.031 A 
ATOM     49  C   UNL A   1      39.936  28.779  29.162  1.00  0.00     0.031 A 
ATOM     50  C   UNL A   1      46.353  28.069  30.093  1.00  0.00     0.049 A 
ATOM     51  C   UNL A   1      40.999  29.682  29.717  1.00  0.00     0.074 A 
ATOM     52  C   UNL A   1      47.254  29.010  30.557  1.00  0.00     0.029 A 
ATOM     53  N   UNL A   1      45.103  28.665  30.101  1.00  0.00    -0.354 N 
ATOM     54  N   UNL A   1      42.283  29.451  29.856  1.00  0.00    -0.248 NA
ATOM     55  C   UNL A   1      40.575  31.014  30.173  1.00  0.00     0.031 C 
ATOM     56  C   UNL A   1      46.542  30.166  30.883  1.00  0.00     0.029 A 
ATOM     57  C   UNL A   1      45.206  29.958  30.579  1.00  0.00     0.049 A 
ATOM     58  H   UNL A   1      44.267  28.233  29.811  1.00  0.00     0.167 HD
ATOM     59  C   UNL A   1      42.821  30.612  30.393  1.00  0.00     0.074 A 
ATOM     60  C   UNL A   1      41.729  31.550  30.551  1.00  0.00     0.031 C 
ATOM     61  C   UNL A   1      44.108  30.875  30.723  1.00  0.00     0.031 A 
BRANCH  48  62
ATOM     62  C   UNL A   1      48.025  26.228  29.730  1.00  0.00    -0.014 A 
ATOM     63  C   UNL A   1      48.877  26.339  28.621  1.00  0.00     0.009 A 
ATOM     64  C   UNL A   1      48.536  25.727  30.938  1.00  0.00     0.009 A 
ATOM     65  C   UNL A   1      50.214  25.954  28.718  1.00  0.00     0.001 A 
ATOM     66  C   UNL A   1      49.879  25.361  31.037  1.00  0.00     0.001 A 
ATOM     67  C   UNL A   1      50.716  25.474  29.928  1.00  0.00     0.000 A 
ENDBRANCH  48  62
BRANCH  49  68
ATOM     68  C   UNL A   1      38.528  29.236  29.040  1.00  0.00    -0.014 A 
ATOM     69  C   UNL A   1      37.665  29.163  30.142  1.00  0.00     0.009 A 
ATOM     70  C   UNL A   1      38.053  29.787  27.838  1.00  0.00     0.009 A 
ATOM     71  C   UNL A   1      36.350  29.625  30.043  1.00  0.00     0.001 A 
ATOM     72  C   UNL A   1      36.745  30.266  27.749  1.00  0.00     0.001 A 
ATOM     73  C   UNL A   1      35.894  30.182  28.850  1.00  0.00     0.000 A 
ENDBRANCH  49  68
BRANCH  61  74
ATOM     74  C   UNL A   1      44.429  32.232  31.275  1.00  0.00    -0.014 A 
ATOM     75  C   UNL A   1      44.457  32.454  32.659  1.00  0.00     0.009 A 
ATOM     76  C   UNL A   1      44.845  33.253  30.406  1.00  0.00     0.009 A 
ATOM     77  C   UNL A   1      44.895  33.678  33.164  1.00  0.00     0.001 A 
ATOM     78  C   UNL A   1      45.302  34.469  30.916  1.00  0.00     0.001 A 
ATOM     79  C   UNL A   1      45.327  34.680  32.294  1.00  0.00     0.000 A 
ENDBRANCH  61  74
ENDBRANCH  35  36
ENDBRANCH  27  30
ENDBRANCH  25  26
ENDBRANCH   1  25
TORSDOF 12
ENDMDL
MODEL 3
REMARK VINA RESULT:     -11.6      1.908      6.441
REMARK SMILES Nc1c(Cl)ccc2c1C=C(C(=O)NCCCNC(=O)c1ccc(-c3c4nc(c(-c5ccccc5)c5ccc([nH]5)c(-c5ccccc5)c5nc(c(-c6ccccc6)c6ccc3[nH]6)C=C5)C=C4)cc1)[C@@H](C(F)(F)F)O2
REMARK SMILES IDX 15 1 14 2 13 3 11 4 12 5 10 7 2 8 3 9 8 10 4 11 5 12 7 13
REMARK SMILES IDX 9 14 6 15 73 16 68 17 1 18 69 21 70 22 71 23 72 24 16 25
REMARK SMILES IDX 17 26 18 27 19 29 20 30 21 31 67 32 22 33 66 34 23 35 24 36
REMARK SMILES IDX 25 37 60 38 26 39 65 40 59 41 61 42 27 43 64 44 58 45 57 46
REMARK SMILES IDX 28 48 50 49 35 50 49 51 36 52 39 53 48 54 62 55 37 56 38 57
REMARK SMILES IDX 47 59 63 60 40 61 29 62 30 63 34 64 31 65 33 66 32 67 51 68
REMARK SMILES IDX 52 69 56 70 53 71 55 72 54 73 41 74 42 75 46 76 43 77 45 78
REMARK SMILES IDX 44 79
REMARK H PARENT 13 6 1 19 1 20 17 28 61 47 39 58
REMARK Flexibility Score: inf
ROOT
ATOM      1  C   UNL A   1      38.404  19.656  25.015  1.00  0.00     0.042 C 
ENDROOT
BRANCH   1   2
ATOM      2  C   UNL A   1      37.233  20.628  25.014  1.00  0.00     0.118 C 
BRANCH   2   3
ATOM      3  N   UNL A   1      37.570  21.870  25.693  1.00  0.00    -0.352 N 
ATOM      4  C   UNL A   1      36.974  23.053  25.958  1.00  0.00     0.251 C 
ATOM      5  O   UNL A   1      37.680  23.866  26.564  1.00  0.00    -0.270 OA
ATOM      6  H   UNL A   1      38.482  21.839  26.062  1.00  0.00     0.163 HD
BRANCH   4   7
ATOM      7  C   UNL A   1      35.578  23.418  25.583  1.00  0.00     0.067 C 
ATOM      8  C   UNL A   1      32.160  22.961  27.008  1.00  0.00     0.061 A 
ATOM      9  C   UNL A   1      30.843  23.308  26.628  1.00  0.00     0.064 A 
ATOM     10  C   UNL A   1      33.228  23.431  26.210  1.00  0.00     0.042 A 
ATOM     11  Cl  UNL A   1      29.482  22.739  27.536  1.00  0.00    -0.082 Cl
ATOM     12  C   UNL A   1      30.590  24.129  25.525  1.00  0.00     0.026 A 
ATOM     13  C   UNL A   1      32.953  24.241  25.098  1.00  0.00     0.130 A 
ATOM     14  C   UNL A   1      34.635  23.145  26.504  1.00  0.00     0.027 C 
ATOM     15  C   UNL A   1      31.650  24.603  24.764  1.00  0.00     0.049 A 
ATOM     16  O   UNL A   1      33.932  24.754  24.292  1.00  0.00    -0.475 OA
ATOM     17  C   UNL A   1      35.185  24.020  24.269  1.00  0.00     0.314 C 
BRANCH   8  18
ATOM     18  N   UNL A   1      32.366  22.087  28.080  1.00  0.00    -0.397 N 
ATOM     19  H   UNL A   1      33.260  22.006  28.484  1.00  0.00     0.156 HD
ATOM     20  H   UNL A   1      31.617  21.554  28.431  1.00  0.00     0.156 HD
ENDBRANCH   8  18
BRANCH  17  21
ATOM     21  C   UNL A   1      35.165  22.993  23.120  1.00  0.00     0.429 C 
ATOM     22  F   UNL A   1      34.706  21.797  23.567  1.00  0.00    -0.167 F 
ATOM     23  F   UNL A   1      34.343  23.362  22.108  1.00  0.00    -0.167 F 
ATOM     24  F   UNL A   1      36.385  22.785  22.579  1.00  0.00    -0.167 F 
ENDBRANCH  17  21
ENDBRANCH   4   7
ENDBRANCH   2   3
ENDBRANCH   1   2
BRANCH   1  25
ATOM     25  C   UNL A   1      39.374  19.934  26.158  1.00  0.00     0.118 C 
BRANCH  25  26
ATOM     26  N   UNL A   1      40.623  19.196  25.989  1.00  0.00    -0.352 N 
ATOM     27  C   UNL A   1      41.911  19.666  25.942  1.00  0.00     0.251 C 
ATOM     28  H   UNL A   1      40.527  18.220  25.895  1.00  0.00     0.163 HD
ATOM     29  O   UNL A   1      42.815  18.962  25.499  1.00  0.00    -0.269 OA
BRANCH  27  30
ATOM     30  C   UNL A   1      42.203  21.023  26.433  1.00  0.00     0.039 A 
ATOM     31  C   UNL A   1      42.508  22.037  25.521  1.00  0.00     0.014 A 
ATOM     32  C   UNL A   1      42.198  21.280  27.807  1.00  0.00     0.014 A 
ATOM     33  C   UNL A   1      42.753  23.328  25.990  1.00  0.00     0.010 A 
ATOM     34  C   UNL A   1      42.366  22.578  28.265  1.00  0.00     0.010 A 
ATOM     35  C   UNL A   1      42.662  23.608  27.362  1.00  0.00    -0.014 A 
BRANCH  35  36
ATOM     36  C   UNL A   1      42.932  24.961  27.894  1.00  0.00     0.031 A 
ATOM     37  C   UNL A   1      44.343  25.346  28.241  1.00  0.00     0.074 A 
ATOM     38  C   UNL A   1      41.914  25.812  28.116  1.00  0.00     0.049 A 
ATOM     39  N   UNL A   1      44.781  26.448  28.789  1.00  0.00    -0.248 NA
ATOM     40  C   UNL A   1      45.395  24.356  27.953  1.00  0.00     0.031 C 
ATOM     41  C   UNL A   1      40.503  25.537  27.838  1.00  0.00     0.029 A 
ATOM     42  N   UNL A   1      41.913  27.083  28.631  1.00  0.00    -0.354 N 
ATOM     43  C   UNL A   1      46.153  26.279  28.919  1.00  0.00     0.074 A 
ATOM     44  C   UNL A   1      46.473  24.954  28.440  1.00  0.00     0.031 C 
ATOM     45  C   UNL A   1      39.776  26.620  28.160  1.00  0.00     0.029 A 
ATOM     46  C   UNL A   1      40.663  27.648  28.696  1.00  0.00     0.049 A 
ATOM     47  H   UNL A   1      42.729  27.546  28.926  1.00  0.00     0.167 HD
ATOM     48  C   UNL A   1      47.069  27.163  29.372  1.00  0.00     0.031 A 
ATOM     49  C   UNL A   1      40.277  28.859  29.139  1.00  0.00     0.031 A 
ATOM     50  C   UNL A   1      46.754  28.489  29.819  1.00  0.00     0.049 A 
ATOM     51  C   UNL A   1      41.312  29.815  29.659  1.00  0.00     0.074 A 
ATOM     52  C   UNL A   1      47.622  29.474  30.254  1.00  0.00     0.029 A 
ATOM     53  N   UNL A   1      45.476  29.017  29.878  1.00  0.00    -0.354 N 
ATOM     54  N   UNL A   1      42.611  29.653  29.746  1.00  0.00    -0.248 NA
ATOM     55  C   UNL A   1      40.835  31.121  30.137  1.00  0.00     0.031 C 
ATOM     56  C   UNL A   1      46.863  30.590  30.613  1.00  0.00     0.029 A 
ATOM     57  C   UNL A   1      45.528  30.312  30.359  1.00  0.00     0.049 A 
ATOM     58  H   UNL A   1      44.653  28.542  29.619  1.00  0.00     0.167 HD
ATOM     59  C   UNL A   1      43.107  30.839  30.269  1.00  0.00     0.074 A 
ATOM     60  C   UNL A   1      41.973  31.716  30.473  1.00  0.00     0.031 C 
ATOM     61  C   UNL A   1      44.389  31.169  30.550  1.00  0.00     0.031 A 
BRANCH  48  62
ATOM     62  C   UNL A   1      48.507  26.740  29.383  1.00  0.00    -0.014 A 
ATOM     63  C   UNL A   1      49.037  26.034  30.474  1.00  0.00     0.009 A 
ATOM     64  C   UNL A   1      49.313  26.968  28.258  1.00  0.00     0.009 A 
ATOM     65  C   UNL A   1      50.351  25.568  30.440  1.00  0.00     0.001 A 
ATOM     66  C   UNL A   1      50.621  26.482  28.219  1.00  0.00     0.001 A 
ATOM     67  C   UNL A   1      51.139  25.784  29.309  1.00  0.00     0.000 A 
ENDBRANCH  48  62
BRANCH  49  68
ATOM     68  C   UNL A   1      38.844  29.241  29.074  1.00  0.00    -0.014 A 
ATOM     69  C   UNL A   1      38.302  29.747  27.884  1.00  0.00     0.009 A 
ATOM     70  C   UNL A   1      38.001  29.061  30.183  1.00  0.00     0.009 A 
ATOM     71  C   UNL A   1      36.946  30.073  27.806  1.00  0.00     0.001 A 
ATOM     72  C   UNL A   1      36.642  29.370  30.096  1.00  0.00     0.001 A 
ATOM     73  C   UNL A   1      36.117  29.878  28.909  1.00  0.00     0.000 A 
ENDBRANCH  49  68
BRANCH  61  74
ATOM     74  C   UNL A   1      44.659  32.539  31.097  1.00  0.00    -0.014 A 
ATOM     75  C   UNL A   1      44.739  32.756  32.479  1.00  0.00     0.009 A 
ATOM     76  C   UNL A   1      44.976  33.587  30.217  1.00  0.00     0.009 A 
ATOM     77  C   UNL A   1      45.131  34.001  32.973  1.00  0.00     0.001 A 
ATOM     78  C   UNL A   1      45.388  34.823  30.714  1.00  0.00     0.001 A 
ATOM     79  C   UNL A   1      45.465  35.030  32.091  1.00  0.00     0.000 A 
ENDBRANCH  61  74
ENDBRANCH  35  36
ENDBRANCH  27  30
ENDBRANCH  25  26
ENDBRANCH   1  25
TORSDOF 12
ENDMDL
