MODEL 1
REMARK VINA RESULT:     -10.5      0.000      0.000
REMARK SMILES CC[NH2+][C@@]1(C(=O)NCCCNC(=O)c2ccc(-c3c4nc(c(-c5ccccc5)c5ccc([nH]5)c(-c5ccccc5)c5nc(c(-c6ccccc6)c6ccc3[nH]6)C=C5)C=C4)cc2)CC[C@@H]([NH+]2CC[NH+](C(C)C)CC2)C1
REMARK SMILES IDX 9 1 8 2 7 3 5 4 6 5 4 7 62 8 74 9 63 10 64 11 3 12 2 15 1 16
REMARK SMILES IDX 65 17 66 18 73 19 67 21 72 22 68 23 69 25 70 26 71 27 10 28
REMARK SMILES IDX 11 29 12 30 13 32 14 33 15 34 61 35 16 36 60 37 17 38 18 39
REMARK SMILES IDX 19 40 54 41 20 42 59 43 53 44 55 45 21 46 58 47 52 48 51 49
REMARK SMILES IDX 22 51 44 52 29 53 43 54 30 55 33 56 42 57 56 58 31 59 32 60
REMARK SMILES IDX 41 62 57 63 34 64 23 65 24 66 28 67 25 68 27 69 26 70 45 71
REMARK SMILES IDX 46 72 50 73 47 74 49 75 48 76 35 77 36 78 40 79 37 80 39 81
REMARK SMILES IDX 38 82
REMARK H PARENT 7 6 3 13 3 14 65 20 68 24 11 31 55 50 33 61
REMARK Flexibility Score: inf
ROOT
ATOM      1  C   UNL A   1      32.660  28.207  27.491  1.00  0.00     0.042 C 
ENDROOT
BRANCH   1   2
ATOM      2  C   UNL A   1      31.439  28.108  26.582  1.00  0.00     0.118 C 
BRANCH   2   3
ATOM      3  N   UNL A   1      30.755  26.848  26.778  1.00  0.00    -0.351 N 
ATOM      4  C   UNL A   1      30.351  25.854  25.947  1.00  0.00     0.281 C 
ATOM      5  O   UNL A   1      29.529  25.087  26.467  1.00  0.00    -0.268 OA
ATOM      6  H   UNL A   1      30.532  26.675  27.721  1.00  0.00     0.163 HD
BRANCH   4   7
ATOM      7  C   UNL A   1      30.830  25.662  24.450  1.00  0.00     0.181 C 
ATOM      8  C   UNL A   1      30.534  24.298  23.804  1.00  0.00     0.085 C 
ATOM      9  C   UNL A   1      32.367  25.827  24.348  1.00  0.00     0.144 C 
ATOM     10  C   UNL A   1      31.877  23.590  23.598  1.00  0.00     0.072 C 
ATOM     11  C   UNL A   1      32.925  24.405  24.365  1.00  0.00     0.191 C 
BRANCH   7  12
ATOM     12  N   UNL A   1      30.230  26.755  23.630  1.00  0.00    -0.334 N 
ATOM     13  H   UNL A   1      29.535  26.340  23.009  1.00  0.00     0.347 HD
ATOM     14  H   UNL A   1      29.835  27.423  24.292  1.00  0.00     0.347 HD
BRANCH  12  15
ATOM     15  C   UNL A   1      31.178  27.508  22.809  1.00  0.00     0.257 C 
ATOM     16  C   UNL A   1      30.646  28.920  22.615  1.00  0.00     0.071 C 
ENDBRANCH  12  15
ENDBRANCH   7  12
BRANCH  11  17
ATOM     17  N   UNL A   1      34.332  24.154  24.048  1.00  0.00    -0.323 N 
ATOM     18  C   UNL A   1      35.339  24.432  25.074  1.00  0.00     0.324 C 
ATOM     19  C   UNL A   1      34.594  22.852  23.404  1.00  0.00     0.324 C 
ATOM     20  H   UNL A   1      34.468  24.896  23.363  1.00  0.00     0.348 HD
ATOM     21  C   UNL A   1      35.593  23.278  26.056  1.00  0.00     0.324 C 
ATOM     22  C   UNL A   1      34.997  21.682  24.347  1.00  0.00     0.324 C 
ATOM     23  N   UNL A   1      35.953  22.005  25.421  1.00  0.00    -0.324 N 
ATOM     24  H   UNL A   1      35.860  21.309  26.160  1.00  0.00     0.348 HD
BRANCH  23  25
ATOM     25  C   UNL A   1      37.371  21.780  25.083  1.00  0.00     0.178 C 
ATOM     26  C   UNL A   1      38.429  22.441  25.973  1.00  0.00     0.075 C 
ATOM     27  C   UNL A   1      37.709  20.289  24.928  1.00  0.00     0.075 C 
ENDBRANCH  23  25
ENDBRANCH  11  17
ENDBRANCH   4   7
ENDBRANCH   2   3
ENDBRANCH   1   2
BRANCH   1  28
ATOM     28  C   UNL A   1      33.734  29.127  26.940  1.00  0.00     0.118 C 
BRANCH  28  29
ATOM     29  N   UNL A   1      33.751  30.403  27.636  1.00  0.00    -0.352 N 
ATOM     30  C   UNL A   1      34.689  30.928  28.486  1.00  0.00     0.251 C 
ATOM     31  H   UNL A   1      32.969  30.978  27.473  1.00  0.00     0.163 HD
ATOM     32  O   UNL A   1      34.407  31.916  29.155  1.00  0.00    -0.269 OA
BRANCH  30  33
ATOM     33  C   UNL A   1      36.032  30.319  28.597  1.00  0.00     0.039 A 
ATOM     34  C   UNL A   1      36.388  29.699  29.798  1.00  0.00     0.014 A 
ATOM     35  C   UNL A   1      36.967  30.420  27.562  1.00  0.00     0.014 A 
ATOM     36  C   UNL A   1      37.673  29.182  29.957  1.00  0.00     0.010 A 
ATOM     37  C   UNL A   1      38.211  29.816  27.682  1.00  0.00     0.010 A 
ATOM     38  C   UNL A   1      38.593  29.235  28.899  1.00  0.00    -0.014 A 
BRANCH  38  39
ATOM     39  C   UNL A   1      39.990  28.777  29.074  1.00  0.00     0.031 A 
ATOM     40  C   UNL A   1      41.002  29.705  29.695  1.00  0.00     0.074 A 
ATOM     41  C   UNL A   1      40.353  27.553  28.651  1.00  0.00     0.049 A 
ATOM     42  N   UNL A   1      42.279  29.514  29.905  1.00  0.00    -0.248 NA
ATOM     43  C   UNL A   1      40.522  31.037  30.103  1.00  0.00     0.031 C 
ATOM     44  C   UNL A   1      39.469  26.583  27.999  1.00  0.00     0.029 A 
ATOM     45  N   UNL A   1      41.564  26.915  28.708  1.00  0.00    -0.354 N 
ATOM     46  C   UNL A   1      42.753  30.706  30.441  1.00  0.00     0.074 A 
ATOM     47  C   UNL A   1      41.645  31.633  30.466  1.00  0.00     0.031 C 
ATOM     48  C   UNL A   1      40.160  25.458  27.753  1.00  0.00     0.029 A 
ATOM     49  C   UNL A   1      41.538  25.641  28.197  1.00  0.00     0.049 A 
ATOM     50  H   UNL A   1      42.375  27.331  29.081  1.00  0.00     0.167 HD
ATOM     51  C   UNL A   1      43.995  30.997  30.897  1.00  0.00     0.031 A 
ATOM     52  C   UNL A   1      42.517  24.722  28.106  1.00  0.00     0.031 A 
ATOM     53  C   UNL A   1      45.084  30.060  30.898  1.00  0.00     0.049 A 
ATOM     54  C   UNL A   1      43.881  25.059  28.643  1.00  0.00     0.074 A 
ATOM     55  C   UNL A   1      46.369  30.230  31.381  1.00  0.00     0.029 A 
ATOM     56  N   UNL A   1      45.009  28.770  30.395  1.00  0.00    -0.354 N 
ATOM     57  N   UNL A   1      44.300  26.171  29.198  1.00  0.00    -0.248 NA
ATOM     58  C   UNL A   1      44.898  24.004  28.561  1.00  0.00     0.031 C 
ATOM     59  C   UNL A   1      47.083  29.051  31.136  1.00  0.00     0.029 A 
ATOM     60  C   UNL A   1      46.227  28.133  30.550  1.00  0.00     0.049 A 
ATOM     61  H   UNL A   1      44.208  28.369  29.988  1.00  0.00     0.167 HD
ATOM     62  C   UNL A   1      45.619  25.937  29.563  1.00  0.00     0.074 A 
ATOM     63  C   UNL A   1      45.923  24.574  29.178  1.00  0.00     0.031 C 
ATOM     64  C   UNL A   1      46.500  26.773  30.166  1.00  0.00     0.031 A 
BRANCH  51  65
ATOM     65  C   UNL A   1      44.227  32.383  31.432  1.00  0.00    -0.014 A 
ATOM     66  C   UNL A   1      44.651  33.427  30.593  1.00  0.00     0.009 A 
ATOM     67  C   UNL A   1      44.011  32.654  32.791  1.00  0.00     0.009 A 
ATOM     68  C   UNL A   1      44.894  34.701  31.112  1.00  0.00     0.001 A 
ATOM     69  C   UNL A   1      44.223  33.936  33.303  1.00  0.00     0.001 A 
ATOM     70  C   UNL A   1      44.676  34.955  32.466  1.00  0.00     0.000 A 
ENDBRANCH  51  65
BRANCH  52  71
ATOM     71  C   UNL A   1      42.232  23.386  27.525  1.00  0.00    -0.014 A 
ATOM     72  C   UNL A   1      42.543  23.115  26.183  1.00  0.00     0.009 A 
ATOM     73  C   UNL A   1      41.651  22.375  28.304  1.00  0.00     0.009 A 
ATOM     74  C   UNL A   1      42.249  21.868  25.626  1.00  0.00     0.001 A 
ATOM     75  C   UNL A   1      41.385  21.119  27.753  1.00  0.00     0.001 A 
ATOM     76  C   UNL A   1      41.674  20.870  26.412  1.00  0.00     0.000 A 
ENDBRANCH  52  71
BRANCH  64  77
ATOM     77  C   UNL A   1      47.855  26.215  30.492  1.00  0.00    -0.014 A 
ATOM     78  C   UNL A   1      48.883  26.181  29.537  1.00  0.00     0.009 A 
ATOM     79  C   UNL A   1      48.114  25.747  31.790  1.00  0.00     0.009 A 
ATOM     80  C   UNL A   1      50.131  25.652  29.865  1.00  0.00     0.001 A 
ATOM     81  C   UNL A   1      49.373  25.247  32.124  1.00  0.00     0.001 A 
ATOM     82  C   UNL A   1      50.377  25.189  31.158  1.00  0.00     0.000 A 
ENDBRANCH  64  77
ENDBRANCH  38  39
ENDBRANCH  30  33
ENDBRANCH  28  29
ENDBRANCH   1  28
TORSDOF 14
ENDMDL
MODEL 2
REMARK VINA RESULT:     -10.4      2.255      7.833
REMARK SMILES CC[NH2+][C@@]1(C(=O)NCCCNC(=O)c2ccc(-c3c4nc(c(-c5ccccc5)c5ccc([nH]5)c(-c5ccccc5)c5nc(c(-c6ccccc6)c6ccc3[nH]6)C=C5)C=C4)cc2)CC[C@@H]([NH+]2CC[NH+](C(C)C)CC2)C1
REMARK SMILES IDX 9 1 8 2 7 3 5 4 6 5 4 7 62 8 74 9 63 10 64 11 3 12 2 15 1 16
REMARK SMILES IDX 65 17 66 18 73 19 67 21 72 22 68 23 69 25 70 26 71 27 10 28
REMARK SMILES IDX 11 29 12 30 13 32 14 33 15 34 61 35 16 36 60 37 17 38 18 39
REMARK SMILES IDX 19 40 54 41 20 42 59 43 53 44 55 45 21 46 58 47 52 48 51 49
REMARK SMILES IDX 22 51 44 52 29 53 43 54 30 55 33 56 42 57 56 58 31 59 32 60
REMARK SMILES IDX 41 62 57 63 34 64 23 65 24 66 28 67 25 68 27 69 26 70 45 71
REMARK SMILES IDX 46 72 50 73 47 74 49 75 48 76 35 77 36 78 40 79 37 80 39 81
REMARK SMILES IDX 38 82
REMARK H PARENT 7 6 3 13 3 14 65 20 68 24 11 31 55 50 33 61
REMARK Flexibility Score: inf
ROOT
ATOM      1  C   UNL A   1      37.689  19.712  24.994  1.00  0.00     0.042 C 
ENDROOT
BRANCH   1   2
ATOM      2  C   UNL A   1      36.553  20.703  24.758  1.00  0.00     0.118 C 
BRANCH   2   3
ATOM      3  N   UNL A   1      36.007  21.165  26.016  1.00  0.00    -0.351 N 
ATOM      4  C   UNL A   1      34.765  21.522  26.431  1.00  0.00     0.281 C 
ATOM      5  O   UNL A   1      34.769  22.150  27.500  1.00  0.00    -0.268 OA
ATOM      6  H   UNL A   1      36.685  21.237  26.726  1.00  0.00     0.163 HD
BRANCH   4   7
ATOM      7  C   UNL A   1      33.418  21.215  25.656  1.00  0.00     0.181 C 
ATOM      8  C   UNL A   1      33.474  21.304  24.121  1.00  0.00     0.085 C 
ATOM      9  C   UNL A   1      32.313  22.216  26.075  1.00  0.00     0.144 C 
ATOM     10  C   UNL A   1      32.631  22.513  23.704  1.00  0.00     0.072 C 
ATOM     11  C   UNL A   1      32.311  23.289  24.988  1.00  0.00     0.191 C 
BRANCH   7  12
ATOM     12  N   UNL A   1      32.946  19.861  26.071  1.00  0.00    -0.334 N 
ATOM     13  H   UNL A   1      33.446  19.599  26.920  1.00  0.00     0.347 HD
ATOM     14  H   UNL A   1      31.937  19.941  26.202  1.00  0.00     0.347 HD
BRANCH  12  15
ATOM     15  C   UNL A   1      33.145  18.804  25.081  1.00  0.00     0.257 C 
ATOM     16  C   UNL A   1      32.575  17.504  25.629  1.00  0.00     0.071 C 
ENDBRANCH  12  15
ENDBRANCH   7  12
BRANCH  11  17
ATOM     17  N   UNL A   1      31.236  24.280  24.921  1.00  0.00    -0.323 N 
ATOM     18  C   UNL A   1      31.283  25.425  25.832  1.00  0.00     0.324 C 
ATOM     19  C   UNL A   1      30.886  24.717  23.555  1.00  0.00     0.324 C 
ATOM     20  H   UNL A   1      30.478  23.705  25.289  1.00  0.00     0.348 HD
ATOM     21  C   UNL A   1      32.102  26.620  25.320  1.00  0.00     0.324 C 
ATOM     22  C   UNL A   1      31.585  26.010  23.043  1.00  0.00     0.324 C 
ATOM     23  N   UNL A   1      31.691  27.123  24.004  1.00  0.00    -0.324 N 
ATOM     24  H   UNL A   1      32.450  27.736  23.710  1.00  0.00     0.348 HD
BRANCH  23  25
ATOM     25  C   UNL A   1      30.586  28.098  23.953  1.00  0.00     0.178 C 
ATOM     26  C   UNL A   1      30.855  29.507  24.493  1.00  0.00     0.075 C 
ATOM     27  C   UNL A   1      29.965  28.210  22.552  1.00  0.00     0.075 C 
ENDBRANCH  23  25
ENDBRANCH  11  17
ENDBRANCH   4   7
ENDBRANCH   2   3
ENDBRANCH   1   2
BRANCH   1  28
ATOM     28  C   UNL A   1      38.859  20.322  25.743  1.00  0.00     0.118 C 
BRANCH  28  29
ATOM     29  N   UNL A   1      39.995  19.415  25.786  1.00  0.00    -0.352 N 
ATOM     30  C   UNL A   1      41.319  19.675  26.023  1.00  0.00     0.251 C 
ATOM     31  H   UNL A   1      39.780  18.468  25.621  1.00  0.00     0.163 HD
ATOM     32  O   UNL A   1      42.154  18.809  25.782  1.00  0.00    -0.269 OA
BRANCH  30  33
ATOM     33  C   UNL A   1      41.746  20.981  26.568  1.00  0.00     0.039 A 
ATOM     34  C   UNL A   1      41.688  21.181  27.950  1.00  0.00     0.014 A 
ATOM     35  C   UNL A   1      42.129  22.032  25.728  1.00  0.00     0.014 A 
ATOM     36  C   UNL A   1      42.014  22.427  28.485  1.00  0.00     0.010 A 
ATOM     37  C   UNL A   1      42.552  23.239  26.268  1.00  0.00     0.010 A 
ATOM     38  C   UNL A   1      42.451  23.464  27.647  1.00  0.00    -0.014 A 
BRANCH  38  39
ATOM     39  C   UNL A   1      42.713  24.820  28.181  1.00  0.00     0.031 A 
ATOM     40  C   UNL A   1      44.117  25.205  28.568  1.00  0.00     0.074 A 
ATOM     41  C   UNL A   1      41.696  25.684  28.346  1.00  0.00     0.049 A 
ATOM     42  N   UNL A   1      44.555  26.324  29.086  1.00  0.00    -0.248 NA
ATOM     43  C   UNL A   1      45.164  24.185  28.379  1.00  0.00     0.031 C 
ATOM     44  C   UNL A   1      40.289  25.409  28.043  1.00  0.00     0.029 A 
ATOM     45  N   UNL A   1      41.691  26.974  28.809  1.00  0.00    -0.354 N 
ATOM     46  C   UNL A   1      45.913  26.129  29.308  1.00  0.00     0.074 A 
ATOM     47  C   UNL A   1      46.217  24.769  28.927  1.00  0.00     0.031 C 
ATOM     48  C   UNL A   1      39.564  26.511  28.292  1.00  0.00     0.029 A 
ATOM     49  C   UNL A   1      40.447  27.555  28.803  1.00  0.00     0.049 A 
ATOM     50  H   UNL A   1      42.503  27.439  29.117  1.00  0.00     0.167 HD
ATOM     51  C   UNL A   1      46.834  27.012  29.762  1.00  0.00     0.031 A 
ATOM     52  C   UNL A   1      40.067  28.795  29.160  1.00  0.00     0.031 A 
ATOM     53  C   UNL A   1      46.531  28.373  30.109  1.00  0.00     0.049 A 
ATOM     54  C   UNL A   1      41.111  29.766  29.637  1.00  0.00     0.074 A 
ATOM     55  C   UNL A   1      47.393  29.369  30.532  1.00  0.00     0.029 A 
ATOM     56  N   UNL A   1      45.262  28.930  30.063  1.00  0.00    -0.354 N 
ATOM     57  N   UNL A   1      42.401  29.584  29.789  1.00  0.00    -0.248 NA
ATOM     58  C   UNL A   1      40.648  31.118  29.970  1.00  0.00     0.031 C 
ATOM     59  C   UNL A   1      46.638  30.521  30.777  1.00  0.00     0.029 A 
ATOM     60  C   UNL A   1      45.316  30.255  30.455  1.00  0.00     0.049 A 
ATOM     61  H   UNL A   1      44.446  28.452  29.792  1.00  0.00     0.167 HD
ATOM     62  C   UNL A   1      42.909  30.810  30.201  1.00  0.00     0.074 A 
ATOM     63  C   UNL A   1      41.789  31.726  30.262  1.00  0.00     0.031 C 
ATOM     64  C   UNL A   1      44.188  31.148  30.499  1.00  0.00     0.031 A 
BRANCH  51  65
ATOM     65  C   UNL A   1      48.249  26.523  29.903  1.00  0.00    -0.014 A 
ATOM     66  C   UNL A   1      48.699  25.922  31.091  1.00  0.00     0.009 A 
ATOM     67  C   UNL A   1      49.145  26.654  28.831  1.00  0.00     0.009 A 
ATOM     68  C   UNL A   1      50.026  25.504  31.217  1.00  0.00     0.001 A 
ATOM     69  C   UNL A   1      50.462  26.206  28.947  1.00  0.00     0.001 A 
ATOM     70  C   UNL A   1      50.905  25.642  30.143  1.00  0.00     0.000 A 
ENDBRANCH  51  65
BRANCH  52  71
ATOM     71  C   UNL A   1      38.643  29.201  29.039  1.00  0.00    -0.014 A 
ATOM     72  C   UNL A   1      37.784  29.115  30.147  1.00  0.00     0.009 A 
ATOM     73  C   UNL A   1      38.134  29.676  27.822  1.00  0.00     0.009 A 
ATOM     74  C   UNL A   1      36.438  29.469  30.028  1.00  0.00     0.001 A 
ATOM     75  C   UNL A   1      36.795  30.057  27.713  1.00  0.00     0.001 A 
ATOM     76  C   UNL A   1      35.945  29.943  28.813  1.00  0.00     0.000 A 
ENDBRANCH  52  71
BRANCH  64  77
ATOM     77  C   UNL A   1      44.446  32.581  30.864  1.00  0.00    -0.014 A 
ATOM     78  C   UNL A   1      44.735  33.546  29.888  1.00  0.00     0.009 A 
ATOM     79  C   UNL A   1      44.363  32.974  32.210  1.00  0.00     0.009 A 
ATOM     80  C   UNL A   1      44.976  34.870  30.257  1.00  0.00     0.001 A 
ATOM     81  C   UNL A   1      44.575  34.305  32.572  1.00  0.00     0.001 A 
ATOM     82  C   UNL A   1      44.892  35.249  31.597  1.00  0.00     0.000 A 
ENDBRANCH  64  77
ENDBRANCH  38  39
ENDBRANCH  30  33
ENDBRANCH  28  29
ENDBRANCH   1  28
TORSDOF 14
ENDMDL
MODEL 3
REMARK VINA RESULT:     -10.4      3.071      4.603
REMARK SMILES CC[NH2+][C@@]1(C(=O)NCCCNC(=O)c2ccc(-c3c4nc(c(-c5ccccc5)c5ccc([nH]5)c(-c5ccccc5)c5nc(c(-c6ccccc6)c6ccc3[nH]6)C=C5)C=C4)cc2)CC[C@@H]([NH+]2CC[NH+](C(C)C)CC2)C1
REMARK SMILES IDX 9 1 8 2 7 3 5 4 6 5 4 7 62 8 74 9 63 10 64 11 3 12 2 15 1 16
REMARK SMILES IDX 65 17 66 18 73 19 67 21 72 22 68 23 69 25 70 26 71 27 10 28
REMARK SMILES IDX 11 29 12 30 13 32 14 33 15 34 61 35 16 36 60 37 17 38 18 39
REMARK SMILES IDX 19 40 54 41 20 42 59 43 53 44 55 45 21 46 58 47 52 48 51 49
REMARK SMILES IDX 22 51 44 52 29 53 43 54 30 55 33 56 42 57 56 58 31 59 32 60
REMARK SMILES IDX 41 62 57 63 34 64 23 65 24 66 28 67 25 68 27 69 26 70 45 71
REMARK SMILES IDX 46 72 50 73 47 74 49 75 48 76 35 77 36 78 40 79 37 80 39 81
REMARK SMILES IDX 38 82
REMARK H PARENT 7 6 3 13 3 14 65 20 68 24 11 31 55 50 33 61
REMARK Flexibility Score: inf
ROOT
ATOM      1  C   UNL A   1      31.274  32.213  26.541  1.00  0.00     0.042 C 
ENDROOT
BRANCH   1   2
ATOM      2  C   UNL A   1      31.431  30.833  25.909  1.00  0.00     0.118 C 
BRANCH   2   3
ATOM      3  N   UNL A   1      31.656  29.827  26.925  1.00  0.00    -0.351 N 
ATOM      4  C   UNL A   1      31.756  28.473  26.906  1.00  0.00     0.281 C 
ATOM      5  O   UNL A   1      31.648  27.961  28.030  1.00  0.00    -0.268 OA
ATOM      6  H   UNL A   1      31.759  30.208  27.827  1.00  0.00     0.163 HD
BRANCH   4   7
ATOM      7  C   UNL A   1      31.963  27.589  25.609  1.00  0.00     0.181 C 
ATOM      8  C   UNL A   1      30.739  27.415  24.694  1.00  0.00     0.085 C 
ATOM      9  C   UNL A   1      32.381  26.149  25.997  1.00  0.00     0.144 C 
ATOM     10  C   UNL A   1      30.307  25.949  24.786  1.00  0.00     0.072 C 
ATOM     11  C   UNL A   1      31.091  25.332  25.951  1.00  0.00     0.191 C 
BRANCH   7  12
ATOM     12  N   UNL A   1      33.101  28.167  24.834  1.00  0.00    -0.334 N 
ATOM     13  H   UNL A   1      33.360  29.053  25.267  1.00  0.00     0.347 HD
ATOM     14  H   UNL A   1      33.845  27.470  24.860  1.00  0.00     0.347 HD
BRANCH  12  15
ATOM     15  C   UNL A   1      32.825  28.417  23.420  1.00  0.00     0.257 C 
ATOM     16  C   UNL A   1      34.146  28.558  22.680  1.00  0.00     0.071 C 
ENDBRANCH  12  15
ENDBRANCH   7  12
BRANCH  11  17
ATOM     17  N   UNL A   1      31.132  23.871  26.031  1.00  0.00    -0.323 N 
ATOM     18  C   UNL A   1      30.978  23.098  24.796  1.00  0.00     0.324 C 
ATOM     19  C   UNL A   1      32.237  23.330  26.847  1.00  0.00     0.324 C 
ATOM     20  H   UNL A   1      30.252  23.721  26.524  1.00  0.00     0.348 HD
ATOM     21  C   UNL A   1      32.283  22.862  24.019  1.00  0.00     0.324 C 
ATOM     22  C   UNL A   1      33.534  22.939  26.082  1.00  0.00     0.324 C 
ATOM     23  N   UNL A   1      33.353  22.231  24.802  1.00  0.00    -0.324 N 
ATOM     24  H   UNL A   1      34.194  22.354  24.240  1.00  0.00     0.348 HD
BRANCH  23  25
ATOM     25  C   UNL A   1      33.362  20.759  24.895  1.00  0.00     0.178 C 
ATOM     26  C   UNL A   1      32.530  19.975  23.874  1.00  0.00     0.075 C 
ATOM     27  C   UNL A   1      34.785  20.181  24.930  1.00  0.00     0.075 C 
ENDBRANCH  23  25
ENDBRANCH  11  17
ENDBRANCH   4   7
ENDBRANCH   2   3
ENDBRANCH   1   2
BRANCH   1  28
ATOM     28  C   UNL A   1      32.535  32.690  27.238  1.00  0.00     0.118 C 
BRANCH  28  29
ATOM     29  N   UNL A   1      32.420  34.078  27.655  1.00  0.00    -0.352 N 
ATOM     30  C   UNL A   1      33.118  34.770  28.609  1.00  0.00     0.251 C 
ATOM     31  H   UNL A   1      31.735  34.602  27.179  1.00  0.00     0.163 HD
ATOM     32  O   UNL A   1      32.710  35.868  28.975  1.00  0.00    -0.269 OA
BRANCH  30  33
ATOM     33  C   UNL A   1      34.356  34.211  29.193  1.00  0.00     0.039 A 
ATOM     34  C   UNL A   1      35.570  34.451  28.544  1.00  0.00     0.014 A 
ATOM     35  C   UNL A   1      34.322  33.392  30.326  1.00  0.00     0.014 A 
ATOM     36  C   UNL A   1      36.743  33.874  29.031  1.00  0.00     0.010 A 
ATOM     37  C   UNL A   1      35.502  32.902  30.870  1.00  0.00     0.010 A 
ATOM     38  C   UNL A   1      36.716  33.097  30.199  1.00  0.00    -0.014 A 
BRANCH  38  39
ATOM     39  C   UNL A   1      37.930  32.400  30.682  1.00  0.00     0.031 A 
ATOM     40  C   UNL A   1      38.669  32.942  31.878  1.00  0.00     0.074 A 
ATOM     41  C   UNL A   1      38.381  31.311  30.033  1.00  0.00     0.049 A 
ATOM     42  N   UNL A   1      39.768  32.505  32.438  1.00  0.00    -0.248 NA
ATOM     43  C   UNL A   1      38.118  34.155  32.508  1.00  0.00     0.031 C 
ATOM     44  C   UNL A   1      37.770  30.720  28.841  1.00  0.00     0.029 A 
ATOM     45  N   UNL A   1      39.460  30.507  30.290  1.00  0.00    -0.354 N 
ATOM     46  C   UNL A   1      40.050  33.403  33.462  1.00  0.00     0.074 A 
ATOM     47  C   UNL A   1      39.046  34.440  33.407  1.00  0.00     0.031 C 
ATOM     48  C   UNL A   1      38.463  29.623  28.493  1.00  0.00     0.029 A 
ATOM     49  C   UNL A   1      39.582  29.456  29.415  1.00  0.00     0.049 A 
ATOM     50  H   UNL A   1      40.088  30.668  31.032  1.00  0.00     0.167 HD
ATOM     51  C   UNL A   1      41.041  33.355  34.383  1.00  0.00     0.031 A 
ATOM     52  C   UNL A   1      40.491  28.465  29.370  1.00  0.00     0.031 A 
ATOM     53  C   UNL A   1      42.018  32.303  34.450  1.00  0.00     0.049 A 
ATOM     54  C   UNL A   1      41.567  28.418  30.420  1.00  0.00     0.074 A 
ATOM     55  C   UNL A   1      43.035  32.127  35.371  1.00  0.00     0.029 A 
ATOM     56  N   UNL A   1      42.090  31.243  33.560  1.00  0.00    -0.354 N 
ATOM     57  N   UNL A   1      41.788  29.244  31.415  1.00  0.00    -0.248 NA
ATOM     58  C   UNL A   1      42.503  27.290  30.351  1.00  0.00     0.031 C 
ATOM     59  C   UNL A   1      43.747  30.976  35.015  1.00  0.00     0.029 A 
ATOM     60  C   UNL A   1      43.139  30.410  33.906  1.00  0.00     0.049 A 
ATOM     61  H   UNL A   1      41.485  31.104  32.797  1.00  0.00     0.167 HD
ATOM     62  C   UNL A   1      42.866  28.715  32.112  1.00  0.00     0.074 A 
ATOM     63  C   UNL A   1      43.244  27.493  31.431  1.00  0.00     0.031 C 
ATOM     64  C   UNL A   1      43.488  29.195  33.217  1.00  0.00     0.031 A 
BRANCH  51  65
ATOM     65  C   UNL A   1      41.106  34.473  35.386  1.00  0.00    -0.014 A 
ATOM     66  C   UNL A   1      40.396  34.409  36.597  1.00  0.00     0.009 A 
ATOM     67  C   UNL A   1      41.895  35.603  35.125  1.00  0.00     0.009 A 
ATOM     68  C   UNL A   1      40.440  35.470  37.504  1.00  0.00     0.001 A 
ATOM     69  C   UNL A   1      41.964  36.650  36.047  1.00  0.00     0.001 A 
ATOM     70  C   UNL A   1      41.228  36.588  37.230  1.00  0.00     0.000 A 
ENDBRANCH  51  65
BRANCH  52  71
ATOM     71  C   UNL A   1      40.396  27.415  28.324  1.00  0.00    -0.014 A 
ATOM     72  C   UNL A   1      39.653  26.247  28.558  1.00  0.00     0.009 A 
ATOM     73  C   UNL A   1      41.043  27.572  27.090  1.00  0.00     0.009 A 
ATOM     74  C   UNL A   1      39.586  25.244  27.586  1.00  0.00     0.001 A 
ATOM     75  C   UNL A   1      40.950  26.582  26.109  1.00  0.00     0.001 A 
ATOM     76  C   UNL A   1      40.231  25.414  26.362  1.00  0.00     0.000 A 
ENDBRANCH  52  71
BRANCH  64  77
ATOM     77  C   UNL A   1      44.603  28.366  33.785  1.00  0.00    -0.014 A 
ATOM     78  C   UNL A   1      45.919  28.484  33.311  1.00  0.00     0.009 A 
ATOM     79  C   UNL A   1      44.334  27.477  34.838  1.00  0.00     0.009 A 
ATOM     80  C   UNL A   1      46.935  27.697  33.855  1.00  0.00     0.001 A 
ATOM     81  C   UNL A   1      45.358  26.714  35.400  1.00  0.00     0.001 A 
ATOM     82  C   UNL A   1      46.656  26.817  34.900  1.00  0.00     0.000 A 
ENDBRANCH  64  77
ENDBRANCH  38  39
ENDBRANCH  30  33
ENDBRANCH  28  29
ENDBRANCH   1  28
TORSDOF 14
ENDMDL
