MODEL 1
REMARK VINA RESULT:     -12.8      0.000      0.000
REMARK SMILES CC(=O)Oc1ccc2oc(N)c([C@@H]3[NH2+][C@@H](C(=O)NCCCNC(=O)c4ccc(-c5c6nc(c(-c7ccccc7)c7ccc([nH]7)c(-c7ccccc7)c7nc(c(-c8ccccc8)c8ccc5[nH]8)C=C7)C=C6)cc4)C(C)(C)S3)c(=O)c2c1
REMARK SMILES IDX 19 1 18 2 16 3 17 4 15 6 13 7 14 8 76 9 73 12 74 13 75 14
REMARK SMILES IDX 12 15 5 16 6 17 80 18 7 19 79 20 8 21 77 22 9 23 78 24 10 25
REMARK SMILES IDX 4 26 2 27 1 28 3 29 11 30 20 33 21 34 22 35 23 36 24 38
REMARK SMILES IDX 25 39 26 40 72 41 27 42 71 43 28 44 29 45 30 46 65 47 31 48
REMARK SMILES IDX 70 49 64 50 66 51 32 52 69 53 63 54 62 55 33 57 55 58 40 59
REMARK SMILES IDX 54 60 41 61 44 62 53 63 67 64 42 65 43 66 52 68 68 69 45 70
REMARK SMILES IDX 34 71 35 72 39 73 36 74 38 75 37 76 56 77 57 78 61 79 58 80
REMARK SMILES IDX 60 81 59 82 46 83 47 84 51 85 48 86 50 87 49 88
REMARK H PARENT 18 5 14 10 14 11 11 31 11 32 22 37 66 56 44 67
REMARK Flexibility Score: inf
ROOT
ATOM      1  C   UNL A   1      35.418  23.420  23.325  1.00  0.00     0.118 C 
ENDROOT
BRANCH   1   2
ATOM      2  N   UNL A   1      34.294  22.496  23.336  1.00  0.00    -0.351 N 
ATOM      3  C   UNL A   1      33.042  22.511  23.863  1.00  0.00     0.279 C 
ATOM      4  O   UNL A   1      32.437  21.432  23.821  1.00  0.00    -0.268 OA
ATOM      5  H   UNL A   1      34.486  21.665  22.846  1.00  0.00     0.163 HD
BRANCH   3   6
ATOM      6  C   UNL A   1      32.375  23.733  24.514  1.00  0.00     0.289 C 
ATOM      7  C   UNL A   1      32.215  26.122  24.619  1.00  0.00     0.284 C 
ATOM      8  N   UNL A   1      32.681  24.994  23.806  1.00  0.00    -0.320 N 
ATOM      9  S   UNL A   1      32.111  25.599  26.365  1.00  0.00    -0.081 SA
ATOM     10  H   UNL A   1      33.688  25.070  23.662  1.00  0.00     0.348 HD
ATOM     11  H   UNL A   1      32.212  25.005  22.900  1.00  0.00     0.348 HD
ATOM     12  C   UNL A   1      32.538  23.850  26.043  1.00  0.00     0.077 C 
ATOM     13  C   UNL A   1      33.930  23.629  26.619  1.00  0.00     0.030 C 
ATOM     14  C   UNL A   1      31.565  22.927  26.792  1.00  0.00     0.030 C 
BRANCH   7  15
ATOM     15  C   UNL A   1      30.928  26.725  24.110  1.00  0.00     0.128 A 
ATOM     16  C   UNL A   1      28.784  30.496  21.783  1.00  0.00     0.131 A 
ATOM     17  C   UNL A   1      27.543  29.984  22.168  1.00  0.00     0.051 A 
ATOM     18  C   UNL A   1      29.967  29.810  22.062  1.00  0.00     0.063 A 
ATOM     19  C   UNL A   1      27.487  28.790  22.876  1.00  0.00     0.052 A 
ATOM     20  C   UNL A   1      29.897  28.614  22.781  1.00  0.00     0.069 A 
ATOM     21  C   UNL A   1      28.666  28.114  23.183  1.00  0.00     0.140 A 
ATOM     22  C   UNL A   1      31.103  27.857  23.151  1.00  0.00     0.205 A 
ATOM     23  O   UNL A   1      28.537  26.956  23.885  1.00  0.00    -0.440 OA
ATOM     24  O   UNL A   1      32.199  28.193  22.717  1.00  0.00    -0.288 OA
ATOM     25  C   UNL A   1      29.662  26.378  24.435  1.00  0.00     0.205 A 
BRANCH  16  26
ATOM     26  O   UNL A   1      28.881  31.667  21.017  1.00  0.00    -0.427 OA
BRANCH  26  27
ATOM     27  C   UNL A   1      28.274  32.812  21.529  1.00  0.00     0.308 C 
ATOM     28  C   UNL A   1      28.832  33.082  22.893  1.00  0.00     0.139 C 
ATOM     29  O   UNL A   1      27.430  33.506  20.980  1.00  0.00    -0.252 OA
ENDBRANCH  26  27
ENDBRANCH  16  26
BRANCH  25  30
ATOM     30  N   UNL A   1      29.320  25.437  25.359  1.00  0.00    -0.369 N 
ATOM     31  H   UNL A   1      28.570  24.824  25.183  1.00  0.00     0.159 HD
ATOM     32  H   UNL A   1      29.823  25.371  26.204  1.00  0.00     0.159 HD
ENDBRANCH  25  30
ENDBRANCH   7  15
ENDBRANCH   3   6
ENDBRANCH   1   2
BRANCH   1  33
ATOM     33  C   UNL A   1      36.723  22.739  23.718  1.00  0.00     0.042 C 
BRANCH  33  34
ATOM     34  C   UNL A   1      37.286  23.218  25.043  1.00  0.00     0.118 C 
BRANCH  34  35
ATOM     35  N   UNL A   1      38.291  22.310  25.565  1.00  0.00    -0.352 N 
ATOM     36  C   UNL A   1      39.451  22.597  26.249  1.00  0.00     0.251 C 
ATOM     37  H   UNL A   1      38.119  21.353  25.408  1.00  0.00     0.163 HD
ATOM     38  O   UNL A   1      40.310  21.736  26.388  1.00  0.00    -0.269 OA
BRANCH  36  39
ATOM     39  C   UNL A   1      39.672  23.962  26.781  1.00  0.00     0.039 A 
ATOM     40  C   UNL A   1      40.278  24.943  25.998  1.00  0.00     0.014 A 
ATOM     41  C   UNL A   1      39.274  24.263  28.086  1.00  0.00     0.014 A 
ATOM     42  C   UNL A   1      40.677  26.140  26.576  1.00  0.00     0.010 A 
ATOM     43  C   UNL A   1      39.557  25.522  28.624  1.00  0.00     0.010 A 
ATOM     44  C   UNL A   1      40.306  26.457  27.891  1.00  0.00    -0.014 A 
BRANCH  44  45
ATOM     45  C   UNL A   1      40.686  27.778  28.461  1.00  0.00     0.031 A 
ATOM     46  C   UNL A   1      39.657  28.857  28.672  1.00  0.00     0.074 A 
ATOM     47  C   UNL A   1      41.969  27.990  28.822  1.00  0.00     0.049 A 
ATOM     48  N   UNL A   1      39.822  30.065  29.151  1.00  0.00    -0.248 NA
ATOM     49  C   UNL A   1      38.267  28.552  28.295  1.00  0.00     0.031 C 
ATOM     50  C   UNL A   1      43.055  27.016  28.685  1.00  0.00     0.029 A 
ATOM     51  N   UNL A   1      42.575  29.078  29.399  1.00  0.00    -0.354 N 
ATOM     52  C   UNL A   1      38.571  30.669  29.102  1.00  0.00     0.074 A 
ATOM     53  C   UNL A   1      37.660  29.709  28.524  1.00  0.00     0.031 C 
ATOM     54  C   UNL A   1      44.172  27.522  29.224  1.00  0.00     0.029 A 
ATOM     55  C   UNL A   1      43.912  28.889  29.657  1.00  0.00     0.049 A 
ATOM     56  H   UNL A   1      42.097  29.913  29.609  1.00  0.00     0.167 HD
ATOM     57  C   UNL A   1      38.217  31.912  29.511  1.00  0.00     0.031 A 
ATOM     58  C   UNL A   1      44.840  29.725  30.161  1.00  0.00     0.031 A 
ATOM     59  C   UNL A   1      39.127  32.853  30.109  1.00  0.00     0.049 A 
ATOM     60  C   UNL A   1      44.429  31.115  30.552  1.00  0.00     0.074 A 
ATOM     61  C   UNL A   1      38.849  34.117  30.600  1.00  0.00     0.029 A 
ATOM     62  N   UNL A   1      40.484  32.641  30.295  1.00  0.00    -0.354 N 
ATOM     63  N   UNL A   1      43.235  31.655  30.535  1.00  0.00    -0.248 NA
ATOM     64  C   UNL A   1      45.489  32.012  31.031  1.00  0.00     0.031 C 
ATOM     65  C   UNL A   1      40.049  34.702  31.003  1.00  0.00     0.029 A 
ATOM     66  C   UNL A   1      41.064  33.771  30.850  1.00  0.00     0.049 A 
ATOM     67  H   UNL A   1      40.964  31.813  30.065  1.00  0.00     0.167 HD
ATOM     68  C   UNL A   1      43.395  32.945  31.020  1.00  0.00     0.074 A 
ATOM     69  C   UNL A   1      44.798  33.100  31.345  1.00  0.00     0.031 C 
ATOM     70  C   UNL A   1      42.460  33.914  31.177  1.00  0.00     0.031 A 
BRANCH  57  71
ATOM     71  C   UNL A   1      36.789  32.353  29.317  1.00  0.00    -0.014 A 
ATOM     72  C   UNL A   1      36.429  33.023  28.135  1.00  0.00     0.009 A 
ATOM     73  C   UNL A   1      35.831  32.215  30.332  1.00  0.00     0.009 A 
ATOM     74  C   UNL A   1      35.150  33.562  27.983  1.00  0.00     0.001 A 
ATOM     75  C   UNL A   1      34.541  32.726  30.163  1.00  0.00     0.001 A 
ATOM     76  C   UNL A   1      34.205  33.409  28.995  1.00  0.00     0.000 A 
ENDBRANCH  57  71
BRANCH  58  77
ATOM     77  C   UNL A   1      46.246  29.257  30.312  1.00  0.00    -0.014 A 
ATOM     78  C   UNL A   1      47.163  29.387  29.255  1.00  0.00     0.009 A 
ATOM     79  C   UNL A   1      46.670  28.636  31.497  1.00  0.00     0.009 A 
ATOM     80  C   UNL A   1      48.459  28.876  29.367  1.00  0.00     0.001 A 
ATOM     81  C   UNL A   1      47.979  28.163  31.621  1.00  0.00     0.001 A 
ATOM     82  C   UNL A   1      48.867  28.272  30.552  1.00  0.00     0.000 A 
ENDBRANCH  58  77
BRANCH  70  83
ATOM     83  C   UNL A   1      42.901  35.235  31.746  1.00  0.00    -0.014 A 
ATOM     84  C   UNL A   1      43.505  36.187  30.907  1.00  0.00     0.009 A 
ATOM     85  C   UNL A   1      42.828  35.494  33.123  1.00  0.00     0.009 A 
ATOM     86  C   UNL A   1      44.051  37.356  31.438  1.00  0.00     0.001 A 
ATOM     87  C   UNL A   1      43.342  36.682  33.646  1.00  0.00     0.001 A 
ATOM     88  C   UNL A   1      43.966  37.605  32.806  1.00  0.00     0.000 A 
ENDBRANCH  70  83
ENDBRANCH  44  45
ENDBRANCH  36  39
ENDBRANCH  34  35
ENDBRANCH  33  34
ENDBRANCH   1  33
TORSDOF 14
ENDMDL
MODEL 2
REMARK VINA RESULT:     -12.8      0.209      5.700
REMARK SMILES CC(=O)Oc1ccc2oc(N)c([C@@H]3[NH2+][C@@H](C(=O)NCCCNC(=O)c4ccc(-c5c6nc(c(-c7ccccc7)c7ccc([nH]7)c(-c7ccccc7)c7nc(c(-c8ccccc8)c8ccc5[nH]8)C=C7)C=C6)cc4)C(C)(C)S3)c(=O)c2c1
REMARK SMILES IDX 19 1 18 2 16 3 17 4 15 6 13 7 14 8 76 9 73 12 74 13 75 14
REMARK SMILES IDX 12 15 5 16 6 17 80 18 7 19 79 20 8 21 77 22 9 23 78 24 10 25
REMARK SMILES IDX 4 26 2 27 1 28 3 29 11 30 20 33 21 34 22 35 23 36 24 38
REMARK SMILES IDX 25 39 26 40 72 41 27 42 71 43 28 44 29 45 30 46 65 47 31 48
REMARK SMILES IDX 70 49 64 50 66 51 32 52 69 53 63 54 62 55 33 57 55 58 40 59
REMARK SMILES IDX 54 60 41 61 44 62 53 63 67 64 42 65 43 66 52 68 68 69 45 70
REMARK SMILES IDX 34 71 35 72 39 73 36 74 38 75 37 76 56 77 57 78 61 79 58 80
REMARK SMILES IDX 60 81 59 82 46 83 47 84 51 85 48 86 50 87 49 88
REMARK H PARENT 18 5 14 10 14 11 11 31 11 32 22 37 66 56 44 67
REMARK Flexibility Score: inf
ROOT
ATOM      1  C   UNL A   1      35.378  23.484  23.324  1.00  0.00     0.118 C 
ENDROOT
BRANCH   1   2
ATOM      2  N   UNL A   1      34.276  22.535  23.341  1.00  0.00    -0.351 N 
ATOM      3  C   UNL A   1      33.030  22.519  23.880  1.00  0.00     0.279 C 
ATOM      4  O   UNL A   1      32.448  21.427  23.839  1.00  0.00    -0.268 OA
ATOM      5  H   UNL A   1      34.481  21.710  22.845  1.00  0.00     0.163 HD
BRANCH   3   6
ATOM      6  C   UNL A   1      32.341  23.723  24.543  1.00  0.00     0.289 C 
ATOM      7  C   UNL A   1      32.161  26.108  24.693  1.00  0.00     0.284 C 
ATOM      8  N   UNL A   1      32.651  25.000  23.866  1.00  0.00    -0.320 N 
ATOM      9  S   UNL A   1      32.028  25.549  26.426  1.00  0.00    -0.081 SA
ATOM     10  H   UNL A   1      33.660  25.086  23.743  1.00  0.00     0.348 HD
ATOM     11  H   UNL A   1      32.199  25.026  22.952  1.00  0.00     0.348 HD
ATOM     12  C   UNL A   1      32.475  23.810  26.077  1.00  0.00     0.077 C 
ATOM     13  C   UNL A   1      33.858  23.587  26.674  1.00  0.00     0.030 C 
ATOM     14  C   UNL A   1      31.495  22.865  26.788  1.00  0.00     0.030 C 
BRANCH   7  15
ATOM     15  C   UNL A   1      30.880  26.712  24.172  1.00  0.00     0.128 A 
ATOM     16  C   UNL A   1      28.766  30.464  21.787  1.00  0.00     0.131 A 
ATOM     17  C   UNL A   1      27.521  29.966  22.175  1.00  0.00     0.051 A 
ATOM     18  C   UNL A   1      29.944  29.774  22.079  1.00  0.00     0.063 A 
ATOM     19  C   UNL A   1      27.456  28.782  22.900  1.00  0.00     0.052 A 
ATOM     20  C   UNL A   1      29.864  28.589  22.814  1.00  0.00     0.069 A 
ATOM     21  C   UNL A   1      28.629  28.103  23.219  1.00  0.00     0.140 A 
ATOM     22  C   UNL A   1      31.064  27.830  23.198  1.00  0.00     0.205 A 
ATOM     23  O   UNL A   1      28.491  26.956  23.937  1.00  0.00    -0.440 OA
ATOM     24  O   UNL A   1      32.164  28.153  22.762  1.00  0.00    -0.288 OA
ATOM     25  C   UNL A   1      29.611  26.378  24.498  1.00  0.00     0.205 A 
BRANCH  16  26
ATOM     26  O   UNL A   1      28.873  31.624  21.005  1.00  0.00    -0.427 OA
BRANCH  26  27
ATOM     27  C   UNL A   1      28.280  32.782  21.504  1.00  0.00     0.308 C 
ATOM     28  C   UNL A   1      28.858  33.073  22.855  1.00  0.00     0.139 C 
ATOM     29  O   UNL A   1      27.432  33.471  20.954  1.00  0.00    -0.252 OA
ENDBRANCH  26  27
ENDBRANCH  16  26
BRANCH  25  30
ATOM     30  N   UNL A   1      29.260  25.452  25.434  1.00  0.00    -0.369 N 
ATOM     31  H   UNL A   1      28.954  25.743  26.324  1.00  0.00     0.159 HD
ATOM     32  H   UNL A   1      29.314  24.492  25.221  1.00  0.00     0.159 HD
ENDBRANCH  25  30
ENDBRANCH   7  15
ENDBRANCH   3   6
ENDBRANCH   1   2
BRANCH   1  33
ATOM     33  C   UNL A   1      36.709  22.822  23.660  1.00  0.00     0.042 C 
BRANCH  33  34
ATOM     34  C   UNL A   1      37.318  23.305  24.963  1.00  0.00     0.118 C 
BRANCH  34  35
ATOM     35  N   UNL A   1      38.310  22.376  25.475  1.00  0.00    -0.352 N 
ATOM     36  C   UNL A   1      39.461  22.637  26.184  1.00  0.00     0.251 C 
ATOM     37  H   UNL A   1      38.134  21.425  25.288  1.00  0.00     0.163 HD
ATOM     38  O   UNL A   1      40.312  21.767  26.313  1.00  0.00    -0.269 OA
BRANCH  36  39
ATOM     39  C   UNL A   1      39.681  23.984  26.758  1.00  0.00     0.039 A 
ATOM     40  C   UNL A   1      40.359  24.965  26.034  1.00  0.00     0.014 A 
ATOM     41  C   UNL A   1      39.210  24.271  28.041  1.00  0.00     0.014 A 
ATOM     42  C   UNL A   1      40.751  26.140  26.661  1.00  0.00     0.010 A 
ATOM     43  C   UNL A   1      39.490  25.512  28.622  1.00  0.00     0.010 A 
ATOM     44  C   UNL A   1      40.307  26.441  27.957  1.00  0.00    -0.014 A 
BRANCH  44  45
ATOM     45  C   UNL A   1      40.682  27.740  28.577  1.00  0.00     0.031 A 
ATOM     46  C   UNL A   1      42.099  28.014  29.008  1.00  0.00     0.074 A 
ATOM     47  C   UNL A   1      39.738  28.692  28.722  1.00  0.00     0.049 A 
ATOM     48  N   UNL A   1      42.592  29.090  29.569  1.00  0.00    -0.248 NA
ATOM     49  C   UNL A   1      43.092  26.949  28.788  1.00  0.00     0.031 C 
ATOM     50  C   UNL A   1      38.334  28.555  28.326  1.00  0.00     0.029 A 
ATOM     51  N   UNL A   1      39.815  29.971  29.214  1.00  0.00    -0.354 N 
ATOM     52  C   UNL A   1      43.937  28.819  29.798  1.00  0.00     0.074 A 
ATOM     53  C   UNL A   1      44.180  27.471  29.339  1.00  0.00     0.031 C 
ATOM     54  C   UNL A   1      37.702  29.718  28.527  1.00  0.00     0.029 A 
ATOM     55  C   UNL A   1      38.625  30.656  29.155  1.00  0.00     0.049 A 
ATOM     56  H   UNL A   1      40.644  30.361  29.575  1.00  0.00     0.167 HD
ATOM     57  C   UNL A   1      44.881  29.628  30.335  1.00  0.00     0.031 A 
ATOM     58  C   UNL A   1      38.294  31.891  29.578  1.00  0.00     0.031 A 
ATOM     59  C   UNL A   1      44.634  30.979  30.767  1.00  0.00     0.049 A 
ATOM     60  C   UNL A   1      39.350  32.744  30.222  1.00  0.00     0.074 A 
ATOM     61  C   UNL A   1      45.540  31.893  31.277  1.00  0.00     0.029 A 
ATOM     62  N   UNL A   1      43.400  31.610  30.743  1.00  0.00    -0.354 N 
ATOM     63  N   UNL A   1      40.624  32.486  30.393  1.00  0.00    -0.248 NA
ATOM     64  C   UNL A   1      38.927  34.056  30.730  1.00  0.00     0.031 C 
ATOM     65  C   UNL A   1      44.840  33.043  31.642  1.00  0.00     0.029 A 
ATOM     66  C   UNL A   1      43.514  32.885  31.275  1.00  0.00     0.049 A 
ATOM     67  H   UNL A   1      42.567  31.212  30.401  1.00  0.00     0.167 HD
ATOM     68  C   UNL A   1      41.159  33.609  31.008  1.00  0.00     0.074 A 
ATOM     69  C   UNL A   1      40.076  34.560  31.159  1.00  0.00     0.031 C 
ATOM     70  C   UNL A   1      42.432  33.827  31.415  1.00  0.00     0.031 A 
BRANCH  57  71
ATOM     71  C   UNL A   1      46.275  29.086  30.513  1.00  0.00    -0.014 A 
ATOM     72  C   UNL A   1      47.185  29.157  29.444  1.00  0.00     0.009 A 
ATOM     73  C   UNL A   1      46.658  28.407  31.680  1.00  0.00     0.009 A 
ATOM     74  C   UNL A   1      48.437  28.545  29.532  1.00  0.00     0.001 A 
ATOM     75  C   UNL A   1      47.925  27.824  31.777  1.00  0.00     0.001 A 
ATOM     76  C   UNL A   1      48.808  27.883  30.699  1.00  0.00     0.000 A 
ENDBRANCH  57  71
BRANCH  58  77
ATOM     77  C   UNL A   1      36.898  32.379  29.406  1.00  0.00    -0.014 A 
ATOM     78  C   UNL A   1      36.514  33.055  28.235  1.00  0.00     0.009 A 
ATOM     79  C   UNL A   1      35.951  32.214  30.428  1.00  0.00     0.009 A 
ATOM     80  C   UNL A   1      35.227  33.583  28.104  1.00  0.00     0.001 A 
ATOM     81  C   UNL A   1      34.653  32.708  30.278  1.00  0.00     0.001 A 
ATOM     82  C   UNL A   1      34.296  33.403  29.123  1.00  0.00     0.000 A 
ENDBRANCH  58  77
BRANCH  70  83
ATOM     83  C   UNL A   1      42.755  35.153  32.048  1.00  0.00    -0.014 A 
ATOM     84  C   UNL A   1      43.448  36.126  31.308  1.00  0.00     0.009 A 
ATOM     85  C   UNL A   1      42.483  35.398  33.403  1.00  0.00     0.009 A 
ATOM     86  C   UNL A   1      43.885  37.303  31.917  1.00  0.00     0.001 A 
ATOM     87  C   UNL A   1      42.889  36.593  34.000  1.00  0.00     0.001 A 
ATOM     88  C   UNL A   1      43.602  37.538  33.261  1.00  0.00     0.000 A 
ENDBRANCH  70  83
ENDBRANCH  44  45
ENDBRANCH  36  39
ENDBRANCH  34  35
ENDBRANCH  33  34
ENDBRANCH   1  33
TORSDOF 14
ENDMDL
MODEL 3
REMARK VINA RESULT:     -12.3      3.020      8.940
REMARK SMILES CC(=O)Oc1ccc2oc(N)c([C@@H]3[NH2+][C@@H](C(=O)NCCCNC(=O)c4ccc(-c5c6nc(c(-c7ccccc7)c7ccc([nH]7)c(-c7ccccc7)c7nc(c(-c8ccccc8)c8ccc5[nH]8)C=C7)C=C6)cc4)C(C)(C)S3)c(=O)c2c1
REMARK SMILES IDX 19 1 18 2 16 3 17 4 15 6 13 7 14 8 76 9 73 12 74 13 75 14
REMARK SMILES IDX 12 15 5 16 6 17 80 18 7 19 79 20 8 21 77 22 9 23 78 24 10 25
REMARK SMILES IDX 4 26 2 27 1 28 3 29 11 30 20 33 21 34 22 35 23 36 24 38
REMARK SMILES IDX 25 39 26 40 72 41 27 42 71 43 28 44 29 45 30 46 65 47 31 48
REMARK SMILES IDX 70 49 64 50 66 51 32 52 69 53 63 54 62 55 33 57 55 58 40 59
REMARK SMILES IDX 54 60 41 61 44 62 53 63 67 64 42 65 43 66 52 68 68 69 45 70
REMARK SMILES IDX 34 71 35 72 39 73 36 74 38 75 37 76 56 77 57 78 61 79 58 80
REMARK SMILES IDX 60 81 59 82 46 83 47 84 51 85 48 86 50 87 49 88
REMARK H PARENT 18 5 14 10 14 11 11 31 11 32 22 37 66 56 44 67
REMARK Flexibility Score: inf
ROOT
ATOM      1  C   UNL A   1      32.100  27.297  26.763  1.00  0.00     0.118 C 
ENDROOT
BRANCH   1   2
ATOM      2  N   UNL A   1      30.885  27.037  26.007  1.00  0.00    -0.351 N 
ATOM      3  C   UNL A   1      30.584  26.338  24.882  1.00  0.00     0.279 C 
ATOM      4  O   UNL A   1      29.444  26.518  24.435  1.00  0.00    -0.268 OA
ATOM      5  H   UNL A   1      30.094  27.468  26.404  1.00  0.00     0.163 HD
BRANCH   3   6
ATOM      6  C   UNL A   1      31.552  25.402  24.141  1.00  0.00     0.289 C 
ATOM      7  C   UNL A   1      33.275  23.744  24.310  1.00  0.00     0.284 C 
ATOM      8  N   UNL A   1      32.203  24.427  25.042  1.00  0.00    -0.320 N 
ATOM      9  S   UNL A   1      33.815  24.797  22.919  1.00  0.00    -0.081 SA
ATOM     10  H   UNL A   1      32.595  24.913  25.847  1.00  0.00     0.348 HD
ATOM     11  H   UNL A   1      31.517  23.744  25.365  1.00  0.00     0.348 HD
ATOM     12  C   UNL A   1      32.547  26.089  23.183  1.00  0.00     0.077 C 
ATOM     13  C   UNL A   1      33.281  27.320  23.697  1.00  0.00     0.030 C 
ATOM     14  C   UNL A   1      31.888  26.456  21.845  1.00  0.00     0.030 C 
BRANCH   7  15
ATOM     15  C   UNL A   1      32.899  22.348  23.877  1.00  0.00     0.128 A 
ATOM     16  C   UNL A   1      32.894  17.552  24.987  1.00  0.00     0.131 A 
ATOM     17  C   UNL A   1      32.498  17.283  23.674  1.00  0.00     0.051 A 
ATOM     18  C   UNL A   1      33.020  18.863  25.449  1.00  0.00     0.063 A 
ATOM     19  C   UNL A   1      32.265  18.339  22.802  1.00  0.00     0.052 A 
ATOM     20  C   UNL A   1      32.789  19.915  24.559  1.00  0.00     0.069 A 
ATOM     21  C   UNL A   1      32.417  19.649  23.249  1.00  0.00     0.140 A 
ATOM     22  C   UNL A   1      32.946  21.322  24.961  1.00  0.00     0.205 A 
ATOM     23  O   UNL A   1      32.180  20.633  22.339  1.00  0.00    -0.440 OA
ATOM     24  O   UNL A   1      33.154  21.608  26.135  1.00  0.00    -0.288 OA
ATOM     25  C   UNL A   1      32.554  21.927  22.639  1.00  0.00     0.205 A 
BRANCH  16  26
ATOM     26  O   UNL A   1      33.083  16.517  25.915  1.00  0.00    -0.427 OA
BRANCH  26  27
ATOM     27  C   UNL A   1      33.797  15.401  25.484  1.00  0.00     0.308 C 
ATOM     28  C   UNL A   1      35.228  15.796  25.279  1.00  0.00     0.139 C 
ATOM     29  O   UNL A   1      33.360  14.274  25.299  1.00  0.00    -0.252 OA
ENDBRANCH  26  27
ENDBRANCH  16  26
BRANCH  25  30
ATOM     30  N   UNL A   1      32.551  22.703  21.519  1.00  0.00    -0.369 N 
ATOM     31  H   UNL A   1      32.981  23.588  21.533  1.00  0.00     0.159 HD
ATOM     32  H   UNL A   1      32.118  22.378  20.696  1.00  0.00     0.159 HD
ENDBRANCH  25  30
ENDBRANCH   7  15
ENDBRANCH   3   6
ENDBRANCH   1   2
BRANCH   1  33
ATOM     33  C   UNL A   1      32.198  28.752  27.206  1.00  0.00     0.042 C 
BRANCH  33  34
ATOM     34  C   UNL A   1      33.623  29.242  27.380  1.00  0.00     0.118 C 
BRANCH  34  35
ATOM     35  N   UNL A   1      33.672  30.579  27.942  1.00  0.00    -0.352 N 
ATOM     36  C   UNL A   1      34.666  31.174  28.687  1.00  0.00     0.251 C 
ATOM     37  H   UNL A   1      32.883  31.141  27.766  1.00  0.00     0.163 HD
ATOM     38  O   UNL A   1      34.438  32.209  29.298  1.00  0.00    -0.269 OA
BRANCH  36  39
ATOM     39  C   UNL A   1      35.999  30.535  28.776  1.00  0.00     0.039 A 
ATOM     40  C   UNL A   1      36.417  29.917  29.954  1.00  0.00     0.014 A 
ATOM     41  C   UNL A   1      36.849  30.560  27.667  1.00  0.00     0.014 A 
ATOM     42  C   UNL A   1      37.739  29.521  30.096  1.00  0.00     0.010 A 
ATOM     43  C   UNL A   1      38.141  30.036  27.772  1.00  0.00     0.010 A 
ATOM     44  C   UNL A   1      38.617  29.556  29.003  1.00  0.00    -0.014 A 
BRANCH  44  45
ATOM     45  C   UNL A   1      40.010  29.057  29.164  1.00  0.00     0.031 A 
ATOM     46  C   UNL A   1      41.076  29.921  29.785  1.00  0.00     0.074 A 
ATOM     47  C   UNL A   1      40.303  27.799  28.776  1.00  0.00     0.049 A 
ATOM     48  N   UNL A   1      42.339  29.642  29.993  1.00  0.00    -0.248 NA
ATOM     49  C   UNL A   1      40.684  31.270  30.224  1.00  0.00     0.031 C 
ATOM     50  C   UNL A   1      39.352  26.858  28.179  1.00  0.00     0.029 A 
ATOM     51  N   UNL A   1      41.472  27.083  28.846  1.00  0.00    -0.354 N 
ATOM     52  C   UNL A   1      42.895  30.787  30.554  1.00  0.00     0.074 A 
ATOM     53  C   UNL A   1      41.842  31.773  30.632  1.00  0.00     0.031 C 
ATOM     54  C   UNL A   1      39.954  25.675  28.001  1.00  0.00     0.029 A 
ATOM     55  C   UNL A   1      41.357  25.796  28.379  1.00  0.00     0.049 A 
ATOM     56  H   UNL A   1      42.313  27.456  29.198  1.00  0.00     0.167 HD
ATOM     57  C   UNL A   1      44.167  30.988  30.972  1.00  0.00     0.031 A 
ATOM     58  C   UNL A   1      42.276  24.821  28.240  1.00  0.00     0.031 A 
ATOM     59  C   UNL A   1      45.203  29.990  30.913  1.00  0.00     0.049 A 
ATOM     60  C   UNL A   1      43.692  25.094  28.661  1.00  0.00     0.074 A 
ATOM     61  C   UNL A   1      46.510  30.087  31.360  1.00  0.00     0.029 A 
ATOM     62  N   UNL A   1      45.056  28.721  30.377  1.00  0.00    -0.354 N 
ATOM     63  N   UNL A   1      44.189  26.168  29.225  1.00  0.00    -0.248 NA
ATOM     64  C   UNL A   1      44.673  24.026  28.427  1.00  0.00     0.031 C 
ATOM     65  C   UNL A   1      47.176  28.910  31.016  1.00  0.00     0.029 A 
ATOM     66  C   UNL A   1      46.263  28.042  30.439  1.00  0.00     0.049 A 
ATOM     67  H   UNL A   1      44.221  28.356  30.006  1.00  0.00     0.167 HD
ATOM     68  C   UNL A   1      45.534  25.897  29.433  1.00  0.00     0.074 A 
ATOM     69  C   UNL A   1      45.770  24.550  28.956  1.00  0.00     0.031 C 
ATOM     70  C   UNL A   1      46.487  26.699  29.968  1.00  0.00     0.031 A 
BRANCH  57  71
ATOM     71  C   UNL A   1      44.538  32.343  31.518  1.00  0.00    -0.014 A 
ATOM     72  C   UNL A   1      45.071  33.314  30.652  1.00  0.00     0.009 A 
ATOM     73  C   UNL A   1      44.474  32.626  32.891  1.00  0.00     0.009 A 
ATOM     74  C   UNL A   1      45.548  34.527  31.150  1.00  0.00     0.001 A 
ATOM     75  C   UNL A   1      44.921  33.857  33.382  1.00  0.00     0.001 A 
ATOM     76  C   UNL A   1      45.469  34.800  32.513  1.00  0.00     0.000 A 
ENDBRANCH  57  71
BRANCH  58  77
ATOM     77  C   UNL A   1      41.873  23.505  27.673  1.00  0.00    -0.014 A 
ATOM     78  C   UNL A   1      41.558  22.426  28.516  1.00  0.00     0.009 A 
ATOM     79  C   UNL A   1      41.844  23.303  26.284  1.00  0.00     0.009 A 
ATOM     80  C   UNL A   1      41.257  21.169  27.986  1.00  0.00     0.001 A 
ATOM     81  C   UNL A   1      41.503  22.055  25.756  1.00  0.00     0.001 A 
ATOM     82  C   UNL A   1      41.223  20.987  26.607  1.00  0.00     0.000 A 
ENDBRANCH  58  77
BRANCH  70  83
ATOM     83  C   UNL A   1      47.882  26.150  30.097  1.00  0.00    -0.014 A 
ATOM     84  C   UNL A   1      48.318  25.641  31.332  1.00  0.00     0.009 A 
ATOM     85  C   UNL A   1      48.801  26.241  29.040  1.00  0.00     0.009 A 
ATOM     86  C   UNL A   1      49.648  25.263  31.515  1.00  0.00     0.001 A 
ATOM     87  C   UNL A   1      50.122  25.826  29.214  1.00  0.00     0.001 A 
ATOM     88  C   UNL A   1      50.548  25.351  30.455  1.00  0.00     0.000 A 
ENDBRANCH  70  83
ENDBRANCH  44  45
ENDBRANCH  36  39
ENDBRANCH  34  35
ENDBRANCH  33  34
ENDBRANCH   1  33
TORSDOF 14
ENDMDL
