MODEL 1
REMARK VINA RESULT:     -12.0      0.000      0.000
REMARK SMILES C[C@@H](C(=O)NCCCNC(=O)c1ccc(-c2c3nc(c(-c4ccccc4)c4ccc([nH]4)c(-c4ccccc4)c4nc(c(-c5ccccc5)c5ccc2[nH]5)C=C4)C=C3)cc1)c1ccc2c3cc(Cl)ccc3n(C(=O)c3cocn3)c2c1
REMARK SMILES IDX 6 1 5 2 3 3 4 4 2 6 1 7 60 8 61 9 80 10 62 11 79 12 63 13
REMARK SMILES IDX 71 14 64 15 70 16 65 17 69 18 66 19 68 20 67 21 72 22 73 23
REMARK SMILES IDX 74 24 75 25 78 26 76 27 77 28 7 29 8 30 9 31 10 32 11 34
REMARK SMILES IDX 12 35 13 36 59 37 14 38 58 39 15 40 16 41 17 42 52 43 18 44
REMARK SMILES IDX 57 45 51 46 53 47 19 48 56 49 50 50 49 51 20 53 42 54 27 55
REMARK SMILES IDX 41 56 28 57 31 58 40 59 54 60 29 61 30 62 39 64 55 65 32 66
REMARK SMILES IDX 21 67 22 68 26 69 23 70 25 71 24 72 43 73 44 74 48 75 45 76
REMARK SMILES IDX 47 77 46 78 33 79 34 80 38 81 35 82 37 83 36 84
REMARK H PARENT 5 5 9 33 53 52 31 63
REMARK Flexibility Score: inf
ROOT
ATOM      1  C   UNL A   1      31.716  29.485  25.234  1.00  0.00     0.117 C 
ENDROOT
BRANCH   1   2
ATOM      2  N   UNL A   1      31.351  28.470  26.201  1.00  0.00    -0.356 N 
ATOM      3  C   UNL A   1      31.191  27.123  26.052  1.00  0.00     0.227 C 
ATOM      4  O   UNL A   1      30.770  26.512  27.036  1.00  0.00    -0.274 OA
ATOM      5  H   UNL A   1      31.192  28.807  27.112  1.00  0.00     0.163 HD
BRANCH   3   6
ATOM      6  C   UNL A   1      31.558  26.443  24.722  1.00  0.00     0.105 C 
ATOM      7  C   UNL A   1      30.386  25.636  24.147  1.00  0.00     0.023 C 
BRANCH   6   8
ATOM      8  C   UNL A   1      32.789  25.552  24.874  1.00  0.00    -0.034 A 
ATOM      9  C   UNL A   1      34.006  26.080  25.309  1.00  0.00     0.005 A 
ATOM     10  C   UNL A   1      32.696  24.179  24.594  1.00  0.00     0.032 A 
ATOM     11  C   UNL A   1      35.124  25.253  25.481  1.00  0.00     0.011 A 
ATOM     12  C   UNL A   1      33.835  23.364  24.712  1.00  0.00     0.058 A 
ATOM     13  C   UNL A   1      35.036  23.874  25.188  1.00  0.00     0.008 A 
ATOM     14  N   UNL A   1      33.998  22.000  24.447  1.00  0.00    -0.274 N 
ATOM     15  C   UNL A   1      35.954  22.790  25.263  1.00  0.00     0.009 A 
ATOM     16  C   UNL A   1      35.316  21.645  24.764  1.00  0.00     0.057 A 
ATOM     17  C   UNL A   1      37.300  22.710  25.684  1.00  0.00     0.031 A 
ATOM     18  C   UNL A   1      36.036  20.445  24.589  1.00  0.00     0.029 A 
ATOM     19  C   UNL A   1      37.988  21.506  25.561  1.00  0.00     0.041 A 
ATOM     20  C   UNL A   1      37.372  20.392  25.007  1.00  0.00     0.023 A 
ATOM     21  Cl  UNL A   1      39.630  21.412  26.067  1.00  0.00    -0.084 Cl
BRANCH  14  22
ATOM     22  C   UNL A   1      32.982  21.181  23.887  1.00  0.00     0.284 C 
ATOM     23  O   UNL A   1      32.294  21.710  23.008  1.00  0.00    -0.266 OA
BRANCH  22  24
ATOM     24  C   UNL A   1      32.686  19.814  24.302  1.00  0.00     0.167 A 
ATOM     25  C   UNL A   1      32.508  18.688  23.526  1.00  0.00     0.231 A 
ATOM     26  N   UNL A   1      32.667  19.432  25.636  1.00  0.00    -0.211 NA
ATOM     27  O   UNL A   1      32.360  17.612  24.352  1.00  0.00    -0.451 OA
ATOM     28  C   UNL A   1      32.483  18.135  25.601  1.00  0.00     0.308 A 
ENDBRANCH  22  24
ENDBRANCH  14  22
ENDBRANCH   6   8
ENDBRANCH   3   6
ENDBRANCH   1   2
BRANCH   1  29
ATOM     29  C   UNL A   1      31.433  30.891  25.762  1.00  0.00     0.042 C 
BRANCH  29  30
ATOM     30  C   UNL A   1      32.343  31.331  26.907  1.00  0.00     0.118 C 
BRANCH  30  31
ATOM     31  N   UNL A   1      32.193  32.740  27.231  1.00  0.00    -0.352 N 
ATOM     32  C   UNL A   1      32.958  33.563  28.016  1.00  0.00     0.251 C 
ATOM     33  H   UNL A   1      31.413  33.175  26.819  1.00  0.00     0.163 HD
ATOM     34  O   UNL A   1      32.531  34.678  28.305  1.00  0.00    -0.269 OA
BRANCH  32  35
ATOM     35  C   UNL A   1      34.277  33.131  28.531  1.00  0.00     0.039 A 
ATOM     36  C   UNL A   1      34.312  32.405  29.727  1.00  0.00     0.014 A 
ATOM     37  C   UNL A   1      35.471  33.479  27.896  1.00  0.00     0.014 A 
ATOM     38  C   UNL A   1      35.536  31.988  30.254  1.00  0.00     0.010 A 
ATOM     39  C   UNL A   1      36.689  33.005  28.386  1.00  0.00     0.010 A 
ATOM     40  C   UNL A   1      36.733  32.259  29.572  1.00  0.00    -0.014 A 
BRANCH  40  41
ATOM     41  C   UNL A   1      38.026  31.748  30.094  1.00  0.00     0.031 A 
ATOM     42  C   UNL A   1      38.744  32.456  31.209  1.00  0.00     0.074 A 
ATOM     43  C   UNL A   1      38.570  30.648  29.538  1.00  0.00     0.049 A 
ATOM     44  N   UNL A   1      39.867  32.134  31.801  1.00  0.00    -0.248 NA
ATOM     45  C   UNL A   1      38.132  33.694  31.715  1.00  0.00     0.031 C 
ATOM     46  C   UNL A   1      38.002  29.896  28.416  1.00  0.00     0.029 A 
ATOM     47  N   UNL A   1      39.722  29.968  29.844  1.00  0.00    -0.354 N 
ATOM     48  C   UNL A   1      40.099  33.130  32.741  1.00  0.00     0.074 A 
ATOM     49  C   UNL A   1      39.026  34.091  32.609  1.00  0.00     0.031 C 
ATOM     50  C   UNL A   1      38.788  28.841  28.151  1.00  0.00     0.029 A 
ATOM     51  C   UNL A   1      39.929  28.858  29.060  1.00  0.00     0.049 A 
ATOM     52  H   UNL A   1      40.341  30.249  30.556  1.00  0.00     0.167 HD
ATOM     53  C   UNL A   1      41.102  33.225  33.647  1.00  0.00     0.031 A 
ATOM     54  C   UNL A   1      40.922  27.951  29.075  1.00  0.00     0.031 A 
ATOM     55  C   UNL A   1      42.171  32.271  33.783  1.00  0.00     0.049 A 
ATOM     56  C   UNL A   1      42.020  28.078  30.092  1.00  0.00     0.074 A 
ATOM     57  C   UNL A   1      43.207  32.259  34.701  1.00  0.00     0.029 A 
ATOM     58  N   UNL A   1      42.342  31.159  32.973  1.00  0.00    -0.354 N 
ATOM     59  N   UNL A   1      42.185  28.988  31.021  1.00  0.00    -0.248 NA
ATOM     60  C   UNL A   1      43.060  27.039  30.072  1.00  0.00     0.031 C 
ATOM     61  C   UNL A   1      44.030  31.163  34.419  1.00  0.00     0.029 A 
ATOM     62  C   UNL A   1      43.478  30.465  33.357  1.00  0.00     0.049 A 
ATOM     63  H   UNL A   1      41.745  30.900  32.234  1.00  0.00     0.167 HD
ATOM     64  C   UNL A   1      43.338  28.625  31.704  1.00  0.00     0.074 A 
ATOM     65  C   UNL A   1      43.814  27.397  31.101  1.00  0.00     0.031 C 
ATOM     66  C   UNL A   1      43.948  29.254  32.737  1.00  0.00     0.031 A 
BRANCH  53  67
ATOM     67  C   UNL A   1      41.088  34.414  34.569  1.00  0.00    -0.014 A 
ATOM     68  C   UNL A   1      40.391  34.375  35.788  1.00  0.00     0.009 A 
ATOM     69  C   UNL A   1      41.807  35.571  34.234  1.00  0.00     0.009 A 
ATOM     70  C   UNL A   1      40.389  35.483  36.637  1.00  0.00     0.001 A 
ATOM     71  C   UNL A   1      41.824  36.668  35.098  1.00  0.00     0.001 A 
ATOM     72  C   UNL A   1      41.109  36.627  36.294  1.00  0.00     0.000 A 
ENDBRANCH  53  67
BRANCH  54  73
ATOM     73  C   UNL A   1      40.913  26.827  28.104  1.00  0.00    -0.014 A 
ATOM     74  C   UNL A   1      41.554  26.953  26.863  1.00  0.00     0.009 A 
ATOM     75  C   UNL A   1      40.261  25.624  28.415  1.00  0.00     0.009 A 
ATOM     76  C   UNL A   1      41.522  25.905  25.941  1.00  0.00     0.001 A 
ATOM     77  C   UNL A   1      40.254  24.567  27.502  1.00  0.00     0.001 A 
ATOM     78  C   UNL A   1      40.877  24.713  26.263  1.00  0.00     0.000 A 
ENDBRANCH  54  73
BRANCH  66  79
ATOM     79  C   UNL A   1      45.191  28.612  33.283  1.00  0.00    -0.014 A 
ATOM     80  C   UNL A   1      45.123  27.657  34.312  1.00  0.00     0.009 A 
ATOM     81  C   UNL A   1      46.445  28.955  32.756  1.00  0.00     0.009 A 
ATOM     82  C   UNL A   1      46.289  27.092  34.828  1.00  0.00     0.001 A 
ATOM     83  C   UNL A   1      47.608  28.367  33.255  1.00  0.00     0.001 A 
ATOM     84  C   UNL A   1      47.530  27.445  34.298  1.00  0.00     0.000 A 
ENDBRANCH  66  79
ENDBRANCH  40  41
ENDBRANCH  32  35
ENDBRANCH  30  31
ENDBRANCH  29  30
ENDBRANCH   1  29
TORSDOF 13
ENDMDL
MODEL 2
REMARK VINA RESULT:     -12.0      0.358      5.746
REMARK SMILES C[C@@H](C(=O)NCCCNC(=O)c1ccc(-c2c3nc(c(-c4ccccc4)c4ccc([nH]4)c(-c4ccccc4)c4nc(c(-c5ccccc5)c5ccc2[nH]5)C=C4)C=C3)cc1)c1ccc2c3cc(Cl)ccc3n(C(=O)c3cocn3)c2c1
REMARK SMILES IDX 6 1 5 2 3 3 4 4 2 6 1 7 60 8 61 9 80 10 62 11 79 12 63 13
REMARK SMILES IDX 71 14 64 15 70 16 65 17 69 18 66 19 68 20 67 21 72 22 73 23
REMARK SMILES IDX 74 24 75 25 78 26 76 27 77 28 7 29 8 30 9 31 10 32 11 34
REMARK SMILES IDX 12 35 13 36 59 37 14 38 58 39 15 40 16 41 17 42 52 43 18 44
REMARK SMILES IDX 57 45 51 46 53 47 19 48 56 49 50 50 49 51 20 53 42 54 27 55
REMARK SMILES IDX 41 56 28 57 31 58 40 59 54 60 29 61 30 62 39 64 55 65 32 66
REMARK SMILES IDX 21 67 22 68 26 69 23 70 25 71 24 72 43 73 44 74 48 75 45 76
REMARK SMILES IDX 47 77 46 78 33 79 34 80 38 81 35 82 37 83 36 84
REMARK H PARENT 5 5 9 33 53 52 31 63
REMARK Flexibility Score: inf
ROOT
ATOM      1  C   UNL A   1      31.873  29.249  25.274  1.00  0.00     0.117 C 
ENDROOT
BRANCH   1   2
ATOM      2  N   UNL A   1      31.339  28.228  26.153  1.00  0.00    -0.356 N 
ATOM      3  C   UNL A   1      31.077  26.910  25.919  1.00  0.00     0.227 C 
ATOM      4  O   UNL A   1      30.523  26.294  26.832  1.00  0.00    -0.274 OA
ATOM      5  H   UNL A   1      31.133  28.535  27.065  1.00  0.00     0.163 HD
BRANCH   3   6
ATOM      6  C   UNL A   1      31.496  26.261  24.589  1.00  0.00     0.105 C 
ATOM      7  C   UNL A   1      30.354  25.453  23.960  1.00  0.00     0.023 C 
BRANCH   6   8
ATOM      8  C   UNL A   1      32.732  25.382  24.764  1.00  0.00    -0.034 A 
ATOM      9  C   UNL A   1      33.949  25.930  25.172  1.00  0.00     0.005 A 
ATOM     10  C   UNL A   1      32.645  23.999  24.532  1.00  0.00     0.032 A 
ATOM     11  C   UNL A   1      35.072  25.116  25.365  1.00  0.00     0.011 A 
ATOM     12  C   UNL A   1      33.788  23.194  24.671  1.00  0.00     0.058 A 
ATOM     13  C   UNL A   1      34.990  23.727  25.121  1.00  0.00     0.008 A 
ATOM     14  N   UNL A   1      33.957  21.823  24.452  1.00  0.00    -0.274 N 
ATOM     15  C   UNL A   1      35.914  22.650  25.227  1.00  0.00     0.009 A 
ATOM     16  C   UNL A   1      35.279  21.485  24.773  1.00  0.00     0.057 A 
ATOM     17  C   UNL A   1      37.263  22.592  25.642  1.00  0.00     0.031 A 
ATOM     18  C   UNL A   1      36.003  20.284  24.635  1.00  0.00     0.029 A 
ATOM     19  C   UNL A   1      37.956  21.387  25.555  1.00  0.00     0.041 A 
ATOM     20  C   UNL A   1      37.342  20.252  25.045  1.00  0.00     0.023 A 
ATOM     21  Cl  UNL A   1      39.602  21.319  26.054  1.00  0.00    -0.084 Cl
BRANCH  14  22
ATOM     22  C   UNL A   1      32.941  20.980  23.927  1.00  0.00     0.284 C 
ATOM     23  O   UNL A   1      32.177  21.508  23.113  1.00  0.00    -0.266 OA
BRANCH  22  24
ATOM     24  C   UNL A   1      32.728  19.589  24.311  1.00  0.00     0.167 A 
ATOM     25  C   UNL A   1      32.801  18.451  23.536  1.00  0.00     0.231 A 
ATOM     26  N   UNL A   1      32.530  19.206  25.631  1.00  0.00    -0.211 NA
ATOM     27  O   UNL A   1      32.634  17.365  24.344  1.00  0.00    -0.451 OA
ATOM     28  C   UNL A   1      32.493  17.896  25.587  1.00  0.00     0.308 A 
ENDBRANCH  22  24
ENDBRANCH  14  22
ENDBRANCH   6   8
ENDBRANCH   3   6
ENDBRANCH   1   2
BRANCH   1  29
ATOM     29  C   UNL A   1      31.505  30.652  25.757  1.00  0.00     0.042 C 
BRANCH  29  30
ATOM     30  C   UNL A   1      32.318  31.143  26.952  1.00  0.00     0.118 C 
BRANCH  30  31
ATOM     31  N   UNL A   1      32.178  32.572  27.175  1.00  0.00    -0.352 N 
ATOM     32  C   UNL A   1      32.951  33.445  27.896  1.00  0.00     0.251 C 
ATOM     33  H   UNL A   1      31.399  32.982  26.736  1.00  0.00     0.163 HD
ATOM     34  O   UNL A   1      32.531  34.580  28.108  1.00  0.00    -0.269 OA
BRANCH  32  35
ATOM     35  C   UNL A   1      34.269  33.043  28.436  1.00  0.00     0.039 A 
ATOM     36  C   UNL A   1      34.299  32.315  29.631  1.00  0.00     0.014 A 
ATOM     37  C   UNL A   1      35.467  33.420  27.825  1.00  0.00     0.014 A 
ATOM     38  C   UNL A   1      35.522  31.927  30.181  1.00  0.00     0.010 A 
ATOM     39  C   UNL A   1      36.686  32.974  28.338  1.00  0.00     0.010 A 
ATOM     40  C   UNL A   1      36.725  32.227  29.523  1.00  0.00    -0.014 A 
BRANCH  40  41
ATOM     41  C   UNL A   1      38.020  31.745  30.069  1.00  0.00     0.031 A 
ATOM     42  C   UNL A   1      38.672  30.503  29.530  1.00  0.00     0.074 A 
ATOM     43  C   UNL A   1      38.599  32.423  31.079  1.00  0.00     0.049 A 
ATOM     44  N   UNL A   1      39.812  29.956  29.873  1.00  0.00    -0.248 NA
ATOM     45  C   UNL A   1      37.945  29.769  28.482  1.00  0.00     0.031 C 
ATOM     46  C   UNL A   1      38.046  33.615  31.726  1.00  0.00     0.029 A 
ATOM     47  N   UNL A   1      39.785  32.209  31.735  1.00  0.00    -0.354 N 
ATOM     48  C   UNL A   1      39.935  28.814  29.091  1.00  0.00     0.074 A 
ATOM     49  C   UNL A   1      38.734  28.721  28.290  1.00  0.00     0.031 C 
ATOM     50  C   UNL A   1      38.905  34.045  32.663  1.00  0.00     0.029 A 
ATOM     51  C   UNL A   1      40.054  33.146  32.703  1.00  0.00     0.049 A 
ATOM     52  H   UNL A   1      40.385  31.456  31.532  1.00  0.00     0.167 HD
ATOM     53  C   UNL A   1      40.963  27.935  29.029  1.00  0.00     0.031 A 
ATOM     54  C   UNL A   1      41.109  33.272  33.528  1.00  0.00     0.031 A 
ATOM     55  C   UNL A   1      42.160  28.023  29.823  1.00  0.00     0.049 A 
ATOM     56  C   UNL A   1      42.238  32.285  33.437  1.00  0.00     0.074 A 
ATOM     57  C   UNL A   1      43.277  27.205  29.798  1.00  0.00     0.029 A 
ATOM     58  N   UNL A   1      42.395  28.989  30.789  1.00  0.00    -0.354 N 
ATOM     59  N   UNL A   1      42.369  31.253  32.641  1.00  0.00    -0.248 NA
ATOM     60  C   UNL A   1      43.372  32.495  34.347  1.00  0.00     0.031 C 
ATOM     61  C   UNL A   1      44.170  27.650  30.778  1.00  0.00     0.029 A 
ATOM     62  C   UNL A   1      43.630  28.776  31.380  1.00  0.00     0.049 A 
ATOM     63  H   UNL A   1      41.777  29.720  31.021  1.00  0.00     0.167 HD
ATOM     64  C   UNL A   1      43.605  30.697  32.944  1.00  0.00     0.074 A 
ATOM     65  C   UNL A   1      44.195  31.525  33.976  1.00  0.00     0.031 C 
ATOM     66  C   UNL A   1      44.197  29.599  32.417  1.00  0.00     0.031 A 
BRANCH  53  67
ATOM     67  C   UNL A   1      40.835  26.791  28.061  1.00  0.00    -0.014 A 
ATOM     68  C   UNL A   1      41.289  26.909  26.737  1.00  0.00     0.009 A 
ATOM     69  C   UNL A   1      40.288  25.570  28.485  1.00  0.00     0.009 A 
ATOM     70  C   UNL A   1      41.167  25.838  25.849  1.00  0.00     0.001 A 
ATOM     71  C   UNL A   1      40.192  24.493  27.602  1.00  0.00     0.001 A 
ATOM     72  C   UNL A   1      40.623  24.630  26.283  1.00  0.00     0.000 A 
ENDBRANCH  53  67
BRANCH  54  73
ATOM     73  C   UNL A   1      41.157  34.392  34.503  1.00  0.00    -0.014 A 
ATOM     74  C   UNL A   1      40.602  34.246  35.783  1.00  0.00     0.009 A 
ATOM     75  C   UNL A   1      41.757  35.612  34.156  1.00  0.00     0.009 A 
ATOM     76  C   UNL A   1      40.626  35.308  36.689  1.00  0.00     0.001 A 
ATOM     77  C   UNL A   1      41.803  36.664  35.073  1.00  0.00     0.001 A 
ATOM     78  C   UNL A   1      41.229  36.513  36.335  1.00  0.00     0.000 A 
ENDBRANCH  54  73
BRANCH  66  79
ATOM     79  C   UNL A   1      45.557  29.242  32.944  1.00  0.00    -0.014 A 
ATOM     80  C   UNL A   1      45.707  28.395  34.054  1.00  0.00     0.009 A 
ATOM     81  C   UNL A   1      46.705  29.750  32.316  1.00  0.00     0.009 A 
ATOM     82  C   UNL A   1      46.977  28.097  34.548  1.00  0.00     0.001 A 
ATOM     83  C   UNL A   1      47.975  29.428  32.796  1.00  0.00     0.001 A 
ATOM     84  C   UNL A   1      48.110  28.612  33.918  1.00  0.00     0.000 A 
ENDBRANCH  66  79
ENDBRANCH  40  41
ENDBRANCH  32  35
ENDBRANCH  30  31
ENDBRANCH  29  30
ENDBRANCH   1  29
TORSDOF 13
ENDMDL
MODEL 3
REMARK VINA RESULT:     -11.9      5.212     11.053
REMARK SMILES C[C@@H](C(=O)NCCCNC(=O)c1ccc(-c2c3nc(c(-c4ccccc4)c4ccc([nH]4)c(-c4ccccc4)c4nc(c(-c5ccccc5)c5ccc2[nH]5)C=C4)C=C3)cc1)c1ccc2c3cc(Cl)ccc3n(C(=O)c3cocn3)c2c1
REMARK SMILES IDX 6 1 5 2 3 3 4 4 2 6 1 7 60 8 61 9 80 10 62 11 79 12 63 13
REMARK SMILES IDX 71 14 64 15 70 16 65 17 69 18 66 19 68 20 67 21 72 22 73 23
REMARK SMILES IDX 74 24 75 25 78 26 76 27 77 28 7 29 8 30 9 31 10 32 11 34
REMARK SMILES IDX 12 35 13 36 59 37 14 38 58 39 15 40 16 41 17 42 52 43 18 44
REMARK SMILES IDX 57 45 51 46 53 47 19 48 56 49 50 50 49 51 20 53 42 54 27 55
REMARK SMILES IDX 41 56 28 57 31 58 40 59 54 60 29 61 30 62 39 64 55 65 32 66
REMARK SMILES IDX 21 67 22 68 26 69 23 70 25 71 24 72 43 73 44 74 48 75 45 76
REMARK SMILES IDX 47 77 46 78 33 79 34 80 38 81 35 82 37 83 36 84
REMARK H PARENT 5 5 9 33 53 52 31 63
REMARK Flexibility Score: inf
ROOT
ATOM      1  C   UNL A   1      43.310  21.197  25.700  1.00  0.00     0.117 C 
ENDROOT
BRANCH   1   2
ATOM      2  N   UNL A   1      44.356  21.708  26.562  1.00  0.00    -0.356 N 
ATOM      3  C   UNL A   1      45.258  22.711  26.360  1.00  0.00     0.227 C 
ATOM      4  O   UNL A   1      46.111  22.863  27.237  1.00  0.00    -0.274 OA
ATOM      5  H   UNL A   1      44.427  21.258  27.435  1.00  0.00     0.163 HD
BRANCH   3   6
ATOM      6  C   UNL A   1      45.159  23.599  25.107  1.00  0.00     0.105 C 
ATOM      7  C   UNL A   1      46.308  23.335  24.125  1.00  0.00     0.023 C 
BRANCH   6   8
ATOM      8  C   UNL A   1      45.110  25.079  25.478  1.00  0.00    -0.034 A 
ATOM      9  C   UNL A   1      43.889  25.733  25.653  1.00  0.00     0.005 A 
ATOM     10  C   UNL A   1      46.305  25.793  25.666  1.00  0.00     0.032 A 
ATOM     11  C   UNL A   1      43.847  27.082  26.028  1.00  0.00     0.011 A 
ATOM     12  C   UNL A   1      46.259  27.161  25.983  1.00  0.00     0.058 A 
ATOM     13  C   UNL A   1      45.048  27.806  26.205  1.00  0.00     0.008 A 
ATOM     14  N   UNL A   1      47.298  28.079  26.169  1.00  0.00    -0.274 N 
ATOM     15  C   UNL A   1      45.346  29.145  26.581  1.00  0.00     0.009 A 
ATOM     16  C   UNL A   1      46.737  29.315  26.516  1.00  0.00     0.057 A 
ATOM     17  C   UNL A   1      44.525  30.238  26.935  1.00  0.00     0.031 A 
ATOM     18  C   UNL A   1      47.309  30.590  26.705  1.00  0.00     0.029 A 
ATOM     19  C   UNL A   1      45.105  31.482  27.175  1.00  0.00     0.041 A 
ATOM     20  C   UNL A   1      46.475  31.661  27.048  1.00  0.00     0.023 A 
ATOM     21  Cl  UNL A   1      44.103  32.816  27.599  1.00  0.00    -0.084 Cl
BRANCH  14  22
ATOM     22  C   UNL A   1      48.668  27.767  25.959  1.00  0.00     0.284 C 
ATOM     23  O   UNL A   1      49.356  27.673  26.979  1.00  0.00    -0.266 OA
BRANCH  22  24
ATOM     24  C   UNL A   1      49.296  27.598  24.653  1.00  0.00     0.167 A 
ATOM     25  C   UNL A   1      50.556  27.129  24.348  1.00  0.00     0.231 A 
ATOM     26  N   UNL A   1      48.602  27.790  23.466  1.00  0.00    -0.211 NA
ATOM     27  O   UNL A   1      50.669  27.042  22.991  1.00  0.00    -0.451 OA
ATOM     28  C   UNL A   1      49.453  27.440  22.532  1.00  0.00     0.308 A 
ENDBRANCH  22  24
ENDBRANCH  14  22
ENDBRANCH   6   8
ENDBRANCH   3   6
ENDBRANCH   1   2
BRANCH   1  29
ATOM     29  C   UNL A   1      42.082  22.108  25.708  1.00  0.00     0.042 C 
BRANCH  29  30
ATOM     30  C   UNL A   1      40.919  21.593  26.552  1.00  0.00     0.118 C 
BRANCH  30  31
ATOM     31  N   UNL A   1      39.625  21.880  25.957  1.00  0.00    -0.352 N 
ATOM     32  C   UNL A   1      38.791  22.958  26.106  1.00  0.00     0.251 C 
ATOM     33  H   UNL A   1      39.292  21.186  25.344  1.00  0.00     0.163 HD
ATOM     34  O   UNL A   1      37.650  22.898  25.653  1.00  0.00    -0.269 OA
BRANCH  32  35
ATOM     35  C   UNL A   1      39.230  24.181  26.814  1.00  0.00     0.039 A 
ATOM     36  C   UNL A   1      40.010  25.106  26.111  1.00  0.00     0.014 A 
ATOM     37  C   UNL A   1      38.943  24.400  28.163  1.00  0.00     0.014 A 
ATOM     38  C   UNL A   1      40.456  26.267  26.745  1.00  0.00     0.010 A 
ATOM     39  C   UNL A   1      39.330  25.592  28.777  1.00  0.00     0.010 A 
ATOM     40  C   UNL A   1      40.094  26.535  28.075  1.00  0.00    -0.014 A 
BRANCH  40  41
ATOM     41  C   UNL A   1      40.504  27.807  28.723  1.00  0.00     0.031 A 
ATOM     42  C   UNL A   1      41.899  27.992  29.251  1.00  0.00     0.074 A 
ATOM     43  C   UNL A   1      39.598  28.796  28.860  1.00  0.00     0.049 A 
ATOM     44  N   UNL A   1      42.431  29.044  29.822  1.00  0.00    -0.248 NA
ATOM     45  C   UNL A   1      42.811  26.843  29.139  1.00  0.00     0.031 C 
ATOM     46  C   UNL A   1      38.198  28.726  28.436  1.00  0.00     0.029 A 
ATOM     47  N   UNL A   1      39.723  30.055  29.388  1.00  0.00    -0.354 N 
ATOM     48  C   UNL A   1      43.733  28.683  30.142  1.00  0.00     0.074 A 
ATOM     49  C   UNL A   1      43.897  27.301  29.746  1.00  0.00     0.031 C 
ATOM     50  C   UNL A   1      37.602  29.902  28.691  1.00  0.00     0.029 A 
ATOM     51  C   UNL A   1      38.568  30.796  29.322  1.00  0.00     0.049 A 
ATOM     52  H   UNL A   1      40.560  30.396  29.779  1.00  0.00     0.167 HD
ATOM     53  C   UNL A   1      44.712  29.438  30.696  1.00  0.00     0.031 A 
ATOM     54  C   UNL A   1      38.313  32.057  29.718  1.00  0.00     0.031 A 
ATOM     55  C   UNL A   1      44.555  30.814  31.091  1.00  0.00     0.049 A 
ATOM     56  C   UNL A   1      39.417  32.874  30.326  1.00  0.00     0.074 A 
ATOM     57  C   UNL A   1      45.501  31.675  31.620  1.00  0.00     0.029 A 
ATOM     58  N   UNL A   1      43.370  31.528  31.003  1.00  0.00    -0.354 N 
ATOM     59  N   UNL A   1      40.662  32.539  30.556  1.00  0.00    -0.248 NA
ATOM     60  C   UNL A   1      39.080  34.251  30.712  1.00  0.00     0.031 C 
ATOM     61  C   UNL A   1      44.879  32.898  31.891  1.00  0.00     0.029 A 
ATOM     62  C   UNL A   1      43.556  32.813  31.485  1.00  0.00     0.049 A 
ATOM     63  H   UNL A   1      42.521  31.175  30.650  1.00  0.00     0.167 HD
ATOM     64  C   UNL A   1      41.262  33.666  31.101  1.00  0.00     0.074 A 
ATOM     65  C   UNL A   1      40.250  34.702  31.139  1.00  0.00     0.031 C 
ATOM     66  C   UNL A   1      42.536  33.828  31.533  1.00  0.00     0.031 A 
BRANCH  53  67
ATOM     67  C   UNL A   1      46.050  28.786  30.909  1.00  0.00    -0.014 A 
ATOM     68  C   UNL A   1      46.292  27.980  32.034  1.00  0.00     0.009 A 
ATOM     69  C   UNL A   1      47.069  28.947  29.958  1.00  0.00     0.009 A 
ATOM     70  C   UNL A   1      47.537  27.377  32.218  1.00  0.00     0.001 A 
ATOM     71  C   UNL A   1      48.305  28.321  30.132  1.00  0.00     0.001 A 
ATOM     72  C   UNL A   1      48.542  27.544  31.265  1.00  0.00     0.000 A 
ENDBRANCH  53  67
BRANCH  54  73
ATOM     73  C   UNL A   1      36.956  32.631  29.532  1.00  0.00    -0.014 A 
ATOM     74  C   UNL A   1      36.000  32.544  30.554  1.00  0.00     0.009 A 
ATOM     75  C   UNL A   1      36.612  33.269  28.330  1.00  0.00     0.009 A 
ATOM     76  C   UNL A   1      34.717  33.062  30.368  1.00  0.00     0.001 A 
ATOM     77  C   UNL A   1      35.337  33.810  28.156  1.00  0.00     0.001 A 
ATOM     78  C   UNL A   1      34.389  33.698  29.172  1.00  0.00     0.000 A 
ENDBRANCH  54  73
BRANCH  66  79
ATOM     79  C   UNL A   1      42.903  35.181  32.071  1.00  0.00    -0.014 A 
ATOM     80  C   UNL A   1      42.620  35.535  33.401  1.00  0.00     0.009 A 
ATOM     81  C   UNL A   1      43.550  36.111  31.243  1.00  0.00     0.009 A 
ATOM     82  C   UNL A   1      42.942  36.806  33.877  1.00  0.00     0.001 A 
ATOM     83  C   UNL A   1      43.896  37.372  31.730  1.00  0.00     0.001 A 
ATOM     84  C   UNL A   1      43.581  37.723  33.042  1.00  0.00     0.000 A 
ENDBRANCH  66  79
ENDBRANCH  40  41
ENDBRANCH  32  35
ENDBRANCH  30  31
ENDBRANCH  29  30
ENDBRANCH   1  29
TORSDOF 13
ENDMDL
