MODEL 1
REMARK VINA RESULT:     -14.2      0.000      0.000
REMARK SMILES C[C@]1(C(=O)NCCCNC(=O)c2ccc(-c3c4nc(c(-c5ccccc5)c5ccc([nH]5)c(-c5ccccc5)c5nc(c(-c6ccccc6)c6ccc3[nH]6)C=C5)C=C4)cc2)[NH2+]C2(C(=O)c3ccccc3C2=O)[C@@H]2C(=O)N(c3ccccc3)C(=O)[C@H]21
REMARK SMILES IDX 7 1 6 2 5 3 3 4 4 5 2 7 1 8 60 9 84 10 61 11 72 14 82 15
REMARK SMILES IDX 62 16 70 17 73 18 75 19 83 20 63 21 64 22 69 23 71 24 74 25
REMARK SMILES IDX 65 26 68 27 66 28 67 29 76 30 77 31 81 32 78 33 80 34 79 35
REMARK SMILES IDX 8 36 9 37 10 38 11 40 12 41 13 42 59 43 14 44 58 45 15 46
REMARK SMILES IDX 16 47 17 48 52 49 18 50 57 51 51 52 53 53 19 54 56 55 50 56
REMARK SMILES IDX 49 57 20 59 42 60 27 61 41 62 28 63 31 64 40 65 54 66 29 67
REMARK SMILES IDX 30 68 39 70 55 71 32 72 21 73 22 74 26 75 23 76 25 77 24 78
REMARK SMILES IDX 43 79 44 80 48 81 45 82 47 83 46 84 33 85 34 86 38 87 35 88
REMARK SMILES IDX 37 89 36 90
REMARK H PARENT 5 6 60 12 60 13 9 39 53 58 31 69
REMARK Flexibility Score: inf
ROOT
ATOM      1  C   UNL A   1      33.332  32.134  27.658  1.00  0.00     0.042 C 
ENDROOT
BRANCH   1   2
ATOM      2  C   UNL A   1      33.724  30.690  27.396  1.00  0.00     0.118 C 
BRANCH   2   3
ATOM      3  N   UNL A   1      32.851  29.664  27.894  1.00  0.00    -0.351 N 
ATOM      4  C   UNL A   1      32.561  28.421  27.416  1.00  0.00     0.281 C 
ATOM      5  O   UNL A   1      31.699  27.830  28.086  1.00  0.00    -0.268 OA
ATOM      6  H   UNL A   1      32.382  29.901  28.726  1.00  0.00     0.163 HD
BRANCH   4   7
ATOM      7  C   UNL A   1      33.200  27.712  26.140  1.00  0.00     0.186 C 
ATOM      8  C   UNL A   1      34.609  28.349  25.981  1.00  0.00     0.091 C 
ATOM      9  N   UNL A   1      33.381  26.215  26.301  1.00  0.00    -0.314 N 
ATOM     10  C   UNL A   1      32.510  27.793  24.805  1.00  0.00     0.170 C 
ATOM     11  C   UNL A   1      32.514  25.487  25.278  1.00  0.00     0.236 C 
ATOM     12  H   UNL A   1      33.101  25.937  27.243  1.00  0.00     0.348 HD
ATOM     13  H   UNL A   1      34.360  25.971  26.153  1.00  0.00     0.348 HD
ATOM     14  C   UNL A   1      31.628  26.565  24.723  1.00  0.00     0.177 C 
ATOM     15  C   UNL A   1      31.561  28.847  24.367  1.00  0.00     0.244 C 
ATOM     16  C   UNL A   1      33.318  24.706  24.238  1.00  0.00     0.232 C 
ATOM     17  C   UNL A   1      31.786  24.353  26.031  1.00  0.00     0.232 C 
ATOM     18  C   UNL A   1      30.983  26.818  23.402  1.00  0.00     0.245 C 
ATOM     19  N   UNL A   1      30.785  28.205  23.398  1.00  0.00    -0.250 N 
ATOM     20  O   UNL A   1      31.521  29.984  24.784  1.00  0.00    -0.273 OA
ATOM     21  O   UNL A   1      34.133  25.167  23.457  1.00  0.00    -0.286 OA
ATOM     22  C   UNL A   1      32.984  23.275  24.357  1.00  0.00     0.036 A 
ATOM     23  C   UNL A   1      32.111  23.086  25.415  1.00  0.00     0.036 A 
ATOM     24  O   UNL A   1      31.071  24.391  27.015  1.00  0.00    -0.286 OA
ATOM     25  O   UNL A   1      30.567  25.953  22.650  1.00  0.00    -0.273 OA
ATOM     26  C   UNL A   1      33.418  22.190  23.619  1.00  0.00     0.013 A 
ATOM     27  C   UNL A   1      31.651  21.841  25.811  1.00  0.00     0.013 A 
ATOM     28  C   UNL A   1      32.951  20.916  23.987  1.00  0.00     0.001 A 
ATOM     29  C   UNL A   1      32.079  20.742  25.079  1.00  0.00     0.001 A 
BRANCH  19  30
ATOM     30  C   UNL A   1      29.725  28.880  22.766  1.00  0.00     0.052 A 
ATOM     31  C   UNL A   1      29.995  29.888  21.833  1.00  0.00     0.027 A 
ATOM     32  C   UNL A   1      28.411  28.679  23.203  1.00  0.00     0.027 A 
ATOM     33  C   UNL A   1      28.960  30.678  21.329  1.00  0.00     0.002 A 
ATOM     34  C   UNL A   1      27.387  29.508  22.739  1.00  0.00     0.002 A 
ATOM     35  C   UNL A   1      27.660  30.500  21.798  1.00  0.00     0.000 A 
ENDBRANCH  19  30
ENDBRANCH   4   7
ENDBRANCH   2   3
ENDBRANCH   1   2
BRANCH   1  36
ATOM     36  C   UNL A   1      34.401  32.917  28.392  1.00  0.00     0.118 C 
BRANCH  36  37
ATOM     37  N   UNL A   1      34.354  32.725  29.841  1.00  0.00    -0.352 N 
ATOM     38  C   UNL A   1      35.174  32.114  30.764  1.00  0.00     0.251 C 
ATOM     39  H   UNL A   1      33.554  33.126  30.251  1.00  0.00     0.163 HD
ATOM     40  O   UNL A   1      34.758  32.034  31.922  1.00  0.00    -0.269 OA
BRANCH  38  41
ATOM     41  C   UNL A   1      36.501  31.514  30.444  1.00  0.00     0.039 A 
ATOM     42  C   UNL A   1      37.099  31.611  29.196  1.00  0.00     0.014 A 
ATOM     43  C   UNL A   1      37.222  30.868  31.465  1.00  0.00     0.014 A 
ATOM     44  C   UNL A   1      38.278  30.928  28.912  1.00  0.00     0.010 A 
ATOM     45  C   UNL A   1      38.485  30.300  31.218  1.00  0.00     0.010 A 
ATOM     46  C   UNL A   1      39.013  30.291  29.921  1.00  0.00    -0.014 A 
BRANCH  46  47
ATOM     47  C   UNL A   1      40.334  29.692  29.569  1.00  0.00     0.031 A 
ATOM     48  C   UNL A   1      40.451  28.277  29.065  1.00  0.00     0.074 A 
ATOM     49  C   UNL A   1      41.435  30.473  29.612  1.00  0.00     0.049 A 
ATOM     50  N   UNL A   1      41.514  27.653  28.618  1.00  0.00    -0.248 NA
ATOM     51  C   UNL A   1      39.234  27.451  29.070  1.00  0.00     0.031 C 
ATOM     52  C   UNL A   1      41.463  31.859  30.090  1.00  0.00     0.029 A 
ATOM     53  N   UNL A   1      42.726  30.246  29.199  1.00  0.00    -0.354 N 
ATOM     54  C   UNL A   1      41.099  26.362  28.313  1.00  0.00     0.074 A 
ATOM     55  C   UNL A   1      39.695  26.279  28.652  1.00  0.00     0.031 C 
ATOM     56  C   UNL A   1      42.667  32.389  29.841  1.00  0.00     0.029 A 
ATOM     57  C   UNL A   1      43.533  31.359  29.280  1.00  0.00     0.049 A 
ATOM     58  H   UNL A   1      43.043  29.372  28.877  1.00  0.00     0.167 HD
ATOM     59  C   UNL A   1      41.821  25.343  27.789  1.00  0.00     0.031 A 
ATOM     60  C   UNL A   1      44.826  31.543  28.952  1.00  0.00     0.031 A 
ATOM     61  C   UNL A   1      43.212  25.433  27.429  1.00  0.00     0.049 A 
ATOM     62  C   UNL A   1      45.606  30.391  28.391  1.00  0.00     0.074 A 
ATOM     63  C   UNL A   1      44.013  24.460  26.855  1.00  0.00     0.029 A 
ATOM     64  N   UNL A   1      44.010  26.554  27.601  1.00  0.00    -0.354 N 
ATOM     65  N   UNL A   1      45.187  29.186  28.091  1.00  0.00    -0.248 NA
ATOM     66  C   UNL A   1      47.035  30.617  28.133  1.00  0.00     0.031 C 
ATOM     67  C   UNL A   1      45.308  24.968  26.744  1.00  0.00     0.029 A 
ATOM     68  C   UNL A   1      45.301  26.283  27.179  1.00  0.00     0.049 A 
ATOM     69  H   UNL A   1      43.704  27.415  27.969  1.00  0.00     0.167 HD
ATOM     70  C   UNL A   1      46.300  28.508  27.613  1.00  0.00     0.074 A 
ATOM     71  C   UNL A   1      47.403  29.447  27.627  1.00  0.00     0.031 C 
ATOM     72  C   UNL A   1      46.397  27.217  27.213  1.00  0.00     0.031 A 
BRANCH  59  73
ATOM     73  C   UNL A   1      41.135  24.020  27.573  1.00  0.00    -0.014 A 
ATOM     74  C   UNL A   1      41.606  22.878  28.240  1.00  0.00     0.009 A 
ATOM     75  C   UNL A   1      40.107  23.877  26.629  1.00  0.00     0.009 A 
ATOM     76  C   UNL A   1      41.076  21.618  27.955  1.00  0.00     0.001 A 
ATOM     77  C   UNL A   1      39.558  22.620  26.367  1.00  0.00     0.001 A 
ATOM     78  C   UNL A   1      40.050  21.490  27.021  1.00  0.00     0.000 A 
ENDBRANCH  59  73
BRANCH  60  79
ATOM     79  C   UNL A   1      45.452  32.877  29.164  1.00  0.00    -0.014 A 
ATOM     80  C   UNL A   1      46.038  33.200  30.400  1.00  0.00     0.009 A 
ATOM     81  C   UNL A   1      45.416  33.856  28.160  1.00  0.00     0.009 A 
ATOM     82  C   UNL A   1      46.532  34.483  30.642  1.00  0.00     0.001 A 
ATOM     83  C   UNL A   1      45.947  35.128  28.392  1.00  0.00     0.001 A 
ATOM     84  C   UNL A   1      46.491  35.445  29.636  1.00  0.00     0.000 A 
ENDBRANCH  60  79
BRANCH  72  85
ATOM     85  C   UNL A   1      47.744  26.725  26.763  1.00  0.00    -0.014 A 
ATOM     86  C   UNL A   1      48.644  26.191  27.699  1.00  0.00     0.009 A 
ATOM     87  C   UNL A   1      48.158  26.875  25.431  1.00  0.00     0.009 A 
ATOM     88  C   UNL A   1      49.936  25.832  27.314  1.00  0.00     0.001 A 
ATOM     89  C   UNL A   1      49.441  26.486  25.042  1.00  0.00     0.001 A 
ATOM     90  C   UNL A   1      50.332  25.975  25.985  1.00  0.00     0.000 A 
ENDBRANCH  72  85
ENDBRANCH  46  47
ENDBRANCH  38  41
ENDBRANCH  36  37
ENDBRANCH   1  36
TORSDOF 11
ENDMDL
MODEL 2
REMARK VINA RESULT:     -14.1      3.993      9.434
REMARK SMILES C[C@]1(C(=O)NCCCNC(=O)c2ccc(-c3c4nc(c(-c5ccccc5)c5ccc([nH]5)c(-c5ccccc5)c5nc(c(-c6ccccc6)c6ccc3[nH]6)C=C5)C=C4)cc2)[NH2+]C2(C(=O)c3ccccc3C2=O)[C@@H]2C(=O)N(c3ccccc3)C(=O)[C@H]21
REMARK SMILES IDX 7 1 6 2 5 3 3 4 4 5 2 7 1 8 60 9 84 10 61 11 72 14 82 15
REMARK SMILES IDX 62 16 70 17 73 18 75 19 83 20 63 21 64 22 69 23 71 24 74 25
REMARK SMILES IDX 65 26 68 27 66 28 67 29 76 30 77 31 81 32 78 33 80 34 79 35
REMARK SMILES IDX 8 36 9 37 10 38 11 40 12 41 13 42 59 43 14 44 58 45 15 46
REMARK SMILES IDX 16 47 17 48 52 49 18 50 57 51 51 52 53 53 19 54 56 55 50 56
REMARK SMILES IDX 49 57 20 59 42 60 27 61 41 62 28 63 31 64 40 65 54 66 29 67
REMARK SMILES IDX 30 68 39 70 55 71 32 72 21 73 22 74 26 75 23 76 25 77 24 78
REMARK SMILES IDX 43 79 44 80 48 81 45 82 47 83 46 84 33 85 34 86 38 87 35 88
REMARK SMILES IDX 37 89 36 90
REMARK H PARENT 5 6 60 12 60 13 9 39 53 58 31 69
REMARK Flexibility Score: inf
ROOT
ATOM      1  C   UNL A   1      39.778  21.033  25.882  1.00  0.00     0.042 C 
ENDROOT
BRANCH   1   2
ATOM      2  C   UNL A   1      38.524  21.891  25.870  1.00  0.00     0.118 C 
BRANCH   2   3
ATOM      3  N   UNL A   1      38.085  22.408  24.605  1.00  0.00    -0.351 N 
ATOM      4  C   UNL A   1      36.923  23.019  24.237  1.00  0.00     0.281 C 
ATOM      5  O   UNL A   1      36.870  23.277  23.024  1.00  0.00    -0.268 OA
ATOM      6  H   UNL A   1      38.738  22.304  23.876  1.00  0.00     0.163 HD
BRANCH   4   7
ATOM      7  C   UNL A   1      35.700  23.401  25.185  1.00  0.00     0.186 C 
ATOM      8  C   UNL A   1      36.338  23.717  26.567  1.00  0.00     0.091 C 
ATOM      9  N   UNL A   1      34.938  24.631  24.732  1.00  0.00    -0.314 N 
ATOM     10  C   UNL A   1      34.584  22.418  25.412  1.00  0.00     0.170 C 
ATOM     11  C   UNL A   1      33.507  24.238  24.380  1.00  0.00     0.236 C 
ATOM     12  H   UNL A   1      35.393  25.029  23.910  1.00  0.00     0.348 HD
ATOM     13  H   UNL A   1      34.927  25.322  25.482  1.00  0.00     0.348 HD
ATOM     14  C   UNL A   1      33.536  22.737  24.367  1.00  0.00     0.177 C 
ATOM     15  C   UNL A   1      34.670  20.942  25.279  1.00  0.00     0.244 C 
ATOM     16  C   UNL A   1      32.456  24.860  25.302  1.00  0.00     0.232 C 
ATOM     17  C   UNL A   1      33.176  24.906  23.029  1.00  0.00     0.232 C 
ATOM     18  C   UNL A   1      32.548  21.663  24.679  1.00  0.00     0.245 C 
ATOM     19  N   UNL A   1      33.354  20.563  24.997  1.00  0.00    -0.250 N 
ATOM     20  O   UNL A   1      35.674  20.275  25.404  1.00  0.00    -0.273 OA
ATOM     21  O   UNL A   1      32.371  24.709  26.508  1.00  0.00    -0.286 OA
ATOM     22  C   UNL A   1      31.572  25.723  24.498  1.00  0.00     0.036 A 
ATOM     23  C   UNL A   1      32.016  25.755  23.187  1.00  0.00     0.036 A 
ATOM     24  O   UNL A   1      33.746  24.842  21.956  1.00  0.00    -0.286 OA
ATOM     25  O   UNL A   1      31.348  21.739  24.479  1.00  0.00    -0.273 OA
ATOM     26  C   UNL A   1      30.463  26.460  24.869  1.00  0.00     0.013 A 
ATOM     27  C   UNL A   1      31.420  26.521  22.198  1.00  0.00     0.013 A 
ATOM     28  C   UNL A   1      29.826  27.231  23.880  1.00  0.00     0.001 A 
ATOM     29  C   UNL A   1      30.305  27.266  22.557  1.00  0.00     0.001 A 
BRANCH  19  30
ATOM     30  C   UNL A   1      33.034  19.214  24.757  1.00  0.00     0.052 A 
ATOM     31  C   UNL A   1      32.762  18.358  25.830  1.00  0.00     0.027 A 
ATOM     32  C   UNL A   1      33.169  18.684  23.469  1.00  0.00     0.027 A 
ATOM     33  C   UNL A   1      32.611  16.987  25.617  1.00  0.00     0.002 A 
ATOM     34  C   UNL A   1      33.073  17.305  23.268  1.00  0.00     0.002 A 
ATOM     35  C   UNL A   1      32.786  16.459  24.339  1.00  0.00     0.000 A 
ENDBRANCH  19  30
ENDBRANCH   4   7
ENDBRANCH   2   3
ENDBRANCH   1   2
BRANCH   1  36
ATOM     36  C   UNL A   1      40.926  21.667  26.640  1.00  0.00     0.118 C 
BRANCH  36  37
ATOM     37  N   UNL A   1      41.875  22.356  25.766  1.00  0.00    -0.352 N 
ATOM     38  C   UNL A   1      42.399  23.628  25.718  1.00  0.00     0.251 C 
ATOM     39  H   UNL A   1      42.219  21.776  25.049  1.00  0.00     0.163 HD
ATOM     40  O   UNL A   1      43.105  23.910  24.747  1.00  0.00    -0.269 OA
BRANCH  38  41
ATOM     41  C   UNL A   1      42.137  24.686  26.735  1.00  0.00     0.039 A 
ATOM     42  C   UNL A   1      41.284  24.509  27.815  1.00  0.00     0.014 A 
ATOM     43  C   UNL A   1      42.827  25.909  26.642  1.00  0.00     0.014 A 
ATOM     44  C   UNL A   1      40.976  25.567  28.665  1.00  0.00     0.010 A 
ATOM     45  C   UNL A   1      42.626  26.933  27.586  1.00  0.00     0.010 A 
ATOM     46  C   UNL A   1      41.664  26.786  28.591  1.00  0.00    -0.014 A 
BRANCH  46  47
ATOM     47  C   UNL A   1      41.373  27.829  29.619  1.00  0.00     0.031 A 
ATOM     48  C   UNL A   1      40.201  28.766  29.483  1.00  0.00     0.074 A 
ATOM     49  C   UNL A   1      42.125  27.865  30.741  1.00  0.00     0.049 A 
ATOM     50  N   UNL A   1      39.758  29.652  30.343  1.00  0.00    -0.248 NA
ATOM     51  C   UNL A   1      39.433  28.718  28.230  1.00  0.00     0.031 C 
ATOM     52  C   UNL A   1      43.295  27.020  30.995  1.00  0.00     0.029 A 
ATOM     53  N   UNL A   1      41.991  28.592  31.900  1.00  0.00    -0.354 N 
ATOM     54  C   UNL A   1      38.681  30.277  29.727  1.00  0.00     0.074 A 
ATOM     55  C   UNL A   1      38.552  29.693  28.409  1.00  0.00     0.031 C 
ATOM     56  C   UNL A   1      43.700  27.193  32.259  1.00  0.00     0.029 A 
ATOM     57  C   UNL A   1      42.888  28.232  32.880  1.00  0.00     0.049 A 
ATOM     58  H   UNL A   1      41.319  29.301  32.017  1.00  0.00     0.167 HD
ATOM     59  C   UNL A   1      37.868  31.242  30.218  1.00  0.00     0.031 A 
ATOM     60  C   UNL A   1      43.055  28.683  34.138  1.00  0.00     0.031 A 
ATOM     61  C   UNL A   1      37.982  31.806  31.539  1.00  0.00     0.049 A 
ATOM     62  C   UNL A   1      42.151  29.766  34.650  1.00  0.00     0.074 A 
ATOM     63  C   UNL A   1      37.175  32.761  32.133  1.00  0.00     0.029 A 
ATOM     64  N   UNL A   1      38.952  31.468  32.469  1.00  0.00    -0.354 N 
ATOM     65  N   UNL A   1      41.126  30.327  34.057  1.00  0.00    -0.248 NA
ATOM     66  C   UNL A   1      42.431  30.286  35.995  1.00  0.00     0.031 C 
ATOM     67  C   UNL A   1      37.698  33.052  33.395  1.00  0.00     0.029 A 
ATOM     68  C   UNL A   1      38.786  32.224  33.618  1.00  0.00     0.049 A 
ATOM     69  H   UNL A   1      39.655  30.793  32.333  1.00  0.00     0.167 HD
ATOM     70  C   UNL A   1      40.641  31.268  34.953  1.00  0.00     0.074 A 
ATOM     71  C   UNL A   1      41.460  31.176  36.144  1.00  0.00     0.031 C 
ATOM     72  C   UNL A   1      39.615  32.140  34.792  1.00  0.00     0.031 A 
BRANCH  59  73
ATOM     73  C   UNL A   1      36.776  31.775  29.330  1.00  0.00    -0.014 A 
ATOM     74  C   UNL A   1      36.943  33.016  28.694  1.00  0.00     0.009 A 
ATOM     75  C   UNL A   1      35.542  31.116  29.215  1.00  0.00     0.009 A 
ATOM     76  C   UNL A   1      35.895  33.595  27.976  1.00  0.00     0.001 A 
ATOM     77  C   UNL A   1      34.504  31.683  28.471  1.00  0.00     0.001 A 
ATOM     78  C   UNL A   1      34.677  32.926  27.862  1.00  0.00     0.000 A 
ENDBRANCH  59  73
BRANCH  60  79
ATOM     79  C   UNL A   1      44.136  28.107  34.985  1.00  0.00    -0.014 A 
ATOM     80  C   UNL A   1      43.871  27.016  35.831  1.00  0.00     0.009 A 
ATOM     81  C   UNL A   1      45.417  28.676  35.002  1.00  0.00     0.009 A 
ATOM     82  C   UNL A   1      44.849  26.536  36.705  1.00  0.00     0.001 A 
ATOM     83  C   UNL A   1      46.406  28.170  35.850  1.00  0.00     0.001 A 
ATOM     84  C   UNL A   1      46.118  27.111  36.711  1.00  0.00     0.000 A 
ENDBRANCH  60  79
BRANCH  72  85
ATOM     85  C   UNL A   1      39.316  33.082  35.925  1.00  0.00    -0.014 A 
ATOM     86  C   UNL A   1      39.964  34.325  35.993  1.00  0.00     0.009 A 
ATOM     87  C   UNL A   1      38.464  32.701  36.972  1.00  0.00     0.009 A 
ATOM     88  C   UNL A   1      39.778  35.161  37.094  1.00  0.00     0.001 A 
ATOM     89  C   UNL A   1      38.254  33.553  38.057  1.00  0.00     0.001 A 
ATOM     90  C   UNL A   1      38.919  34.777  38.124  1.00  0.00     0.000 A 
ENDBRANCH  72  85
ENDBRANCH  46  47
ENDBRANCH  38  41
ENDBRANCH  36  37
ENDBRANCH   1  36
TORSDOF 11
ENDMDL
MODEL 3
REMARK VINA RESULT:     -13.9      4.384      9.718
REMARK SMILES C[C@]1(C(=O)NCCCNC(=O)c2ccc(-c3c4nc(c(-c5ccccc5)c5ccc([nH]5)c(-c5ccccc5)c5nc(c(-c6ccccc6)c6ccc3[nH]6)C=C5)C=C4)cc2)[NH2+]C2(C(=O)c3ccccc3C2=O)[C@@H]2C(=O)N(c3ccccc3)C(=O)[C@H]21
REMARK SMILES IDX 7 1 6 2 5 3 3 4 4 5 2 7 1 8 60 9 84 10 61 11 72 14 82 15
REMARK SMILES IDX 62 16 70 17 73 18 75 19 83 20 63 21 64 22 69 23 71 24 74 25
REMARK SMILES IDX 65 26 68 27 66 28 67 29 76 30 77 31 81 32 78 33 80 34 79 35
REMARK SMILES IDX 8 36 9 37 10 38 11 40 12 41 13 42 59 43 14 44 58 45 15 46
REMARK SMILES IDX 16 47 17 48 52 49 18 50 57 51 51 52 53 53 19 54 56 55 50 56
REMARK SMILES IDX 49 57 20 59 42 60 27 61 41 62 28 63 31 64 40 65 54 66 29 67
REMARK SMILES IDX 30 68 39 70 55 71 32 72 21 73 22 74 26 75 23 76 25 77 24 78
REMARK SMILES IDX 43 79 44 80 48 81 45 82 47 83 46 84 33 85 34 86 38 87 35 88
REMARK SMILES IDX 37 89 36 90
REMARK H PARENT 5 6 60 12 60 13 9 39 53 58 31 69
REMARK Flexibility Score: inf
ROOT
ATOM      1  C   UNL A   1      39.934  21.790  26.234  1.00  0.00     0.042 C 
ENDROOT
BRANCH   1   2
ATOM      2  C   UNL A   1      38.471  21.714  25.833  1.00  0.00     0.118 C 
BRANCH   2   3
ATOM      3  N   UNL A   1      38.090  22.328  24.592  1.00  0.00    -0.351 N 
ATOM      4  C   UNL A   1      36.971  23.022  24.239  1.00  0.00     0.281 C 
ATOM      5  O   UNL A   1      36.960  23.353  23.043  1.00  0.00    -0.268 OA
ATOM      6  H   UNL A   1      38.753  22.230  23.871  1.00  0.00     0.163 HD
BRANCH   4   7
ATOM      7  C   UNL A   1      35.749  23.414  25.184  1.00  0.00     0.186 C 
ATOM      8  C   UNL A   1      36.386  23.729  26.566  1.00  0.00     0.091 C 
ATOM      9  N   UNL A   1      34.997  24.649  24.726  1.00  0.00    -0.314 N 
ATOM     10  C   UNL A   1      34.626  22.440  25.411  1.00  0.00     0.170 C 
ATOM     11  C   UNL A   1      33.563  24.265  24.373  1.00  0.00     0.236 C 
ATOM     12  H   UNL A   1      35.456  25.042  23.904  1.00  0.00     0.348 HD
ATOM     13  H   UNL A   1      34.989  25.342  25.475  1.00  0.00     0.348 HD
ATOM     14  C   UNL A   1      33.582  22.764  24.363  1.00  0.00     0.177 C 
ATOM     15  C   UNL A   1      34.701  20.963  25.281  1.00  0.00     0.244 C 
ATOM     16  C   UNL A   1      32.515  24.896  25.291  1.00  0.00     0.232 C 
ATOM     17  C   UNL A   1      33.239  24.933  23.019  1.00  0.00     0.232 C 
ATOM     18  C   UNL A   1      32.586  21.698  24.675  1.00  0.00     0.245 C 
ATOM     19  N   UNL A   1      33.384  20.592  24.997  1.00  0.00    -0.250 N 
ATOM     20  O   UNL A   1      35.701  20.289  25.410  1.00  0.00    -0.273 OA
ATOM     21  O   UNL A   1      32.427  24.748  26.498  1.00  0.00    -0.286 OA
ATOM     22  C   UNL A   1      31.639  25.764  24.483  1.00  0.00     0.036 A 
ATOM     23  C   UNL A   1      32.085  25.790  23.173  1.00  0.00     0.036 A 
ATOM     24  O   UNL A   1      33.811  24.862  21.947  1.00  0.00    -0.286 OA
ATOM     25  O   UNL A   1      31.387  21.781  24.473  1.00  0.00    -0.273 OA
ATOM     26  C   UNL A   1      30.534  26.510  24.850  1.00  0.00     0.013 A 
ATOM     27  C   UNL A   1      31.497  26.558  22.182  1.00  0.00     0.013 A 
ATOM     28  C   UNL A   1      29.905  27.283  23.859  1.00  0.00     0.001 A 
ATOM     29  C   UNL A   1      30.386  27.312  22.536  1.00  0.00     0.001 A 
BRANCH  19  30
ATOM     30  C   UNL A   1      33.054  19.246  24.759  1.00  0.00     0.052 A 
ATOM     31  C   UNL A   1      32.825  18.381  25.836  1.00  0.00     0.027 A 
ATOM     32  C   UNL A   1      33.139  18.726  23.463  1.00  0.00     0.027 A 
ATOM     33  C   UNL A   1      32.666  17.011  25.618  1.00  0.00     0.002 A 
ATOM     34  C   UNL A   1      33.035  17.348  23.256  1.00  0.00     0.002 A 
ATOM     35  C   UNL A   1      32.791  16.494  24.331  1.00  0.00     0.000 A 
ENDBRANCH  19  30
ENDBRANCH   4   7
ENDBRANCH   2   3
ENDBRANCH   1   2
BRANCH   1  36
ATOM     36  C   UNL A   1      40.303  23.103  26.892  1.00  0.00     0.118 C 
BRANCH  36  37
ATOM     37  N   UNL A   1      40.913  24.055  25.964  1.00  0.00    -0.352 N 
ATOM     38  C   UNL A   1      41.182  25.405  26.000  1.00  0.00     0.251 C 
ATOM     39  H   UNL A   1      41.198  23.633  25.121  1.00  0.00     0.163 HD
ATOM     40  O   UNL A   1      41.609  25.921  24.964  1.00  0.00    -0.269 OA
BRANCH  38  41
ATOM     41  C   UNL A   1      40.953  26.278  27.186  1.00  0.00     0.039 A 
ATOM     42  C   UNL A   1      41.616  27.480  27.386  1.00  0.00     0.014 A 
ATOM     43  C   UNL A   1      39.975  25.907  28.127  1.00  0.00     0.014 A 
ATOM     44  C   UNL A   1      41.460  28.196  28.569  1.00  0.00     0.010 A 
ATOM     45  C   UNL A   1      39.711  26.705  29.256  1.00  0.00     0.010 A 
ATOM     46  C   UNL A   1      40.482  27.845  29.510  1.00  0.00    -0.014 A 
BRANCH  46  47
ATOM     47  C   UNL A   1      40.282  28.734  30.693  1.00  0.00     0.031 A 
ATOM     48  C   UNL A   1      41.201  28.681  31.885  1.00  0.00     0.074 A 
ATOM     49  C   UNL A   1      39.312  29.673  30.644  1.00  0.00     0.049 A 
ATOM     50  N   UNL A   1      41.219  29.461  32.939  1.00  0.00    -0.248 NA
ATOM     51  C   UNL A   1      42.219  27.620  31.912  1.00  0.00     0.031 C 
ATOM     52  C   UNL A   1      38.346  29.827  29.552  1.00  0.00     0.029 A 
ATOM     53  N   UNL A   1      39.008  30.709  31.495  1.00  0.00    -0.354 N 
ATOM     54  C   UNL A   1      42.229  28.972  33.759  1.00  0.00     0.074 A 
ATOM     55  C   UNL A   1      42.783  27.810  33.098  1.00  0.00     0.031 C 
ATOM     56  C   UNL A   1      37.639  30.949  29.740  1.00  0.00     0.029 A 
ATOM     57  C   UNL A   1      38.025  31.544  31.014  1.00  0.00     0.049 A 
ATOM     58  H   UNL A   1      39.451  30.841  32.363  1.00  0.00     0.167 HD
ATOM     59  C   UNL A   1      42.661  29.453  34.949  1.00  0.00     0.031 A 
ATOM     60  C   UNL A   1      37.480  32.662  31.531  1.00  0.00     0.031 A 
ATOM     61  C   UNL A   1      42.126  30.624  35.594  1.00  0.00     0.049 A 
ATOM     62  C   UNL A   1      37.965  33.162  32.860  1.00  0.00     0.074 A 
ATOM     63  C   UNL A   1      42.531  31.205  36.784  1.00  0.00     0.029 A 
ATOM     64  N   UNL A   1      41.079  31.393  35.111  1.00  0.00    -0.354 N 
ATOM     65  N   UNL A   1      38.936  32.695  33.607  1.00  0.00    -0.248 NA
ATOM     66  C   UNL A   1      37.277  34.331  33.423  1.00  0.00     0.031 C 
ATOM     67  C   UNL A   1      41.687  32.283  37.054  1.00  0.00     0.029 A 
ATOM     68  C   UNL A   1      40.802  32.421  35.997  1.00  0.00     0.049 A 
ATOM     69  H   UNL A   1      40.603  31.232  34.264  1.00  0.00     0.167 HD
ATOM     70  C   UNL A   1      38.973  33.510  34.729  1.00  0.00     0.074 A 
ATOM     71  C   UNL A   1      37.954  34.523  34.548  1.00  0.00     0.031 C 
ATOM     72  C   UNL A   1      39.774  33.414  35.818  1.00  0.00     0.031 A 
BRANCH  59  73
ATOM     73  C   UNL A   1      43.768  28.718  35.656  1.00  0.00    -0.014 A 
ATOM     74  C   UNL A   1      45.105  29.019  35.352  1.00  0.00     0.009 A 
ATOM     75  C   UNL A   1      43.496  27.654  36.530  1.00  0.00     0.009 A 
ATOM     76  C   UNL A   1      46.146  28.262  35.892  1.00  0.00     0.001 A 
ATOM     77  C   UNL A   1      44.541  26.916  37.092  1.00  0.00     0.001 A 
ATOM     78  C   UNL A   1      45.863  27.213  36.764  1.00  0.00     0.000 A 
ENDBRANCH  59  73
BRANCH  60  79
ATOM     79  C   UNL A   1      36.403  33.366  30.781  1.00  0.00    -0.014 A 
ATOM     80  C   UNL A   1      35.087  33.382  31.273  1.00  0.00     0.009 A 
ATOM     81  C   UNL A   1      36.667  33.971  29.544  1.00  0.00     0.009 A 
ATOM     82  C   UNL A   1      34.052  33.948  30.526  1.00  0.00     0.001 A 
ATOM     83  C   UNL A   1      35.635  34.571  28.815  1.00  0.00     0.001 A 
ATOM     84  C   UNL A   1      34.328  34.546  29.299  1.00  0.00     0.000 A 
ENDBRANCH  60  79
BRANCH  72  85
ATOM     85  C   UNL A   1      39.583  34.423  36.916  1.00  0.00    -0.014 A 
ATOM     86  C   UNL A   1      40.219  35.672  36.840  1.00  0.00     0.009 A 
ATOM     87  C   UNL A   1      38.849  34.103  38.068  1.00  0.00     0.009 A 
ATOM     88  C   UNL A   1      40.139  36.574  37.901  1.00  0.00     0.001 A 
ATOM     89  C   UNL A   1      38.744  35.020  39.115  1.00  0.00     0.001 A 
ATOM     90  C   UNL A   1      39.396  36.250  39.036  1.00  0.00     0.000 A 
ENDBRANCH  72  85
ENDBRANCH  46  47
ENDBRANCH  38  41
ENDBRANCH  36  37
ENDBRANCH   1  36
TORSDOF 11
ENDMDL
