MODEL 1
REMARK VINA RESULT:     -11.7      0.000      0.000
REMARK SMILES O=C(NCCCNC(=O)c1ccc(-c2c3nc(c(-c4ccccc4)c4ccc([nH]4)c(-c4ccccc4)c4nc(c(-c5ccccc5)c5ccc2[nH]5)C=C4)C=C3)cc1)C1=Cc2c(cc(Cl)c(Cl)c2Cl)O[C@H]1C(F)(F)F
REMARK SMILES IDX 5 1 4 2 3 3 1 4 2 5 58 7 59 8 70 9 60 10 69 11 61 12 67 13
REMARK SMILES IDX 62 14 65 15 68 16 63 17 66 18 64 19 71 20 72 21 73 22 74 23
REMARK SMILES IDX 6 24 7 25 8 26 9 28 10 29 11 30 57 31 12 32 56 33 13 34
REMARK SMILES IDX 14 35 15 36 50 37 16 38 55 39 49 40 51 41 17 42 54 43 48 44
REMARK SMILES IDX 47 45 18 47 40 48 25 49 39 50 26 51 29 52 38 53 52 54 27 55
REMARK SMILES IDX 28 56 37 58 53 59 30 60 19 61 20 62 24 63 21 64 23 65 22 66
REMARK SMILES IDX 41 67 42 68 46 69 43 70 45 71 44 72 31 73 32 74 36 75 33 76
REMARK SMILES IDX 35 77 34 78
REMARK H PARENT 3 6 7 27 51 46 29 57
REMARK Flexibility Score: inf
ROOT
ATOM      1  C   UNL A   1      34.156  28.213  25.358  1.00  0.00     0.042 C 
ENDROOT
BRANCH   1   2
ATOM      2  C   UNL A   1      33.068  27.605  24.497  1.00  0.00     0.118 C 
BRANCH   2   3
ATOM      3  N   UNL A   1      33.485  26.660  23.482  1.00  0.00    -0.352 N 
ATOM      4  O   UNL A   1      34.106  24.643  22.684  1.00  0.00    -0.270 OA
ATOM      5  C   UNL A   1      33.717  25.315  23.632  1.00  0.00     0.251 C 
ATOM      6  H   UNL A   1      33.619  27.025  22.578  1.00  0.00     0.163 HD
BRANCH   5   7
ATOM      7  C   UNL A   1      33.553  24.671  24.966  1.00  0.00     0.067 C 
ATOM      8  C   UNL A   1      34.663  24.328  25.643  1.00  0.00     0.027 C 
ATOM      9  C   UNL A   1      32.260  23.920  25.158  1.00  0.00     0.314 C 
ATOM     10  C   UNL A   1      34.866  22.856  25.652  1.00  0.00     0.037 A 
ATOM     11  O   UNL A   1      32.454  22.511  25.499  1.00  0.00    -0.475 OA
ATOM     12  C   UNL A   1      33.739  22.032  25.509  1.00  0.00     0.131 A 
ATOM     13  C   UNL A   1      36.158  22.298  25.567  1.00  0.00     0.072 A 
ATOM     14  C   UNL A   1      33.894  20.679  25.213  1.00  0.00     0.069 A 
ATOM     15  C   UNL A   1      36.316  20.943  25.228  1.00  0.00     0.079 A 
ATOM     16  Cl  UNL A   1      37.540  23.337  25.770  1.00  0.00    -0.082 Cl
ATOM     17  C   UNL A   1      35.174  20.150  25.026  1.00  0.00     0.064 A 
ATOM     18  Cl  UNL A   1      37.899  20.274  24.983  1.00  0.00    -0.081 Cl
ATOM     19  Cl  UNL A   1      35.268  18.519  24.452  1.00  0.00    -0.083 Cl
BRANCH   9  20
ATOM     20  C   UNL A   1      31.339  24.603  26.189  1.00  0.00     0.429 C 
ATOM     21  F   UNL A   1      30.277  25.219  25.623  1.00  0.00    -0.167 F 
ATOM     22  F   UNL A   1      30.855  23.702  27.077  1.00  0.00    -0.167 F 
ATOM     23  F   UNL A   1      31.999  25.549  26.903  1.00  0.00    -0.167 F 
ENDBRANCH   9  20
ENDBRANCH   5   7
ENDBRANCH   2   3
ENDBRANCH   1   2
BRANCH   1  24
ATOM     24  C   UNL A   1      33.819  28.289  26.838  1.00  0.00     0.118 C 
BRANCH  24  25
ATOM     25  N   UNL A   1      33.646  29.651  27.341  1.00  0.00    -0.352 N 
ATOM     26  C   UNL A   1      34.479  30.512  28.021  1.00  0.00     0.251 C 
ATOM     27  H   UNL A   1      32.757  30.028  27.157  1.00  0.00     0.163 HD
ATOM     28  O   UNL A   1      34.032  31.594  28.395  1.00  0.00    -0.269 OA
BRANCH  26  29
ATOM     29  C   UNL A   1      35.881  30.159  28.344  1.00  0.00     0.039 A 
ATOM     30  C   UNL A   1      36.187  29.671  29.622  1.00  0.00     0.014 A 
ATOM     31  C   UNL A   1      36.907  30.323  27.420  1.00  0.00     0.014 A 
ATOM     32  C   UNL A   1      37.490  29.258  29.924  1.00  0.00     0.010 A 
ATOM     33  C   UNL A   1      38.164  29.786  27.671  1.00  0.00     0.010 A 
ATOM     34  C   UNL A   1      38.478  29.256  28.929  1.00  0.00    -0.014 A 
BRANCH  34  35
ATOM     35  C   UNL A   1      39.853  28.738  29.163  1.00  0.00     0.031 A 
ATOM     36  C   UNL A   1      40.913  29.652  29.723  1.00  0.00     0.074 A 
ATOM     37  C   UNL A   1      40.183  27.492  28.766  1.00  0.00     0.049 A 
ATOM     38  N   UNL A   1      42.204  29.461  29.827  1.00  0.00    -0.248 NA
ATOM     39  C   UNL A   1      40.466  30.979  30.183  1.00  0.00     0.031 C 
ATOM     40  C   UNL A   1      39.271  26.516  28.167  1.00  0.00     0.029 A 
ATOM     41  N   UNL A   1      41.391  26.839  28.796  1.00  0.00    -0.354 N 
ATOM     42  C   UNL A   1      42.723  30.655  30.315  1.00  0.00     0.074 A 
ATOM     43  C   UNL A   1      41.619  31.581  30.433  1.00  0.00     0.031 C 
ATOM     44  C   UNL A   1      39.943  25.381  27.915  1.00  0.00     0.029 A 
ATOM     45  C   UNL A   1      41.341  25.563  28.286  1.00  0.00     0.049 A 
ATOM     46  H   UNL A   1      42.215  27.245  29.149  1.00  0.00     0.167 HD
ATOM     47  C   UNL A   1      43.999  30.952  30.657  1.00  0.00     0.031 A 
ATOM     48  C   UNL A   1      42.314  24.647  28.125  1.00  0.00     0.031 A 
ATOM     49  C   UNL A   1      45.088  30.016  30.589  1.00  0.00     0.049 A 
ATOM     50  C   UNL A   1      43.718  24.989  28.537  1.00  0.00     0.074 A 
ATOM     51  C   UNL A   1      46.403  30.191  30.984  1.00  0.00     0.029 A 
ATOM     52  N   UNL A   1      44.982  28.721  30.107  1.00  0.00    -0.354 N 
ATOM     53  N   UNL A   1      44.183  26.105  29.041  1.00  0.00    -0.248 NA
ATOM     54  C   UNL A   1      44.732  23.938  28.365  1.00  0.00     0.031 C 
ATOM     55  C   UNL A   1      47.102  29.013  30.703  1.00  0.00     0.029 A 
ATOM     56  C   UNL A   1      46.211  28.089  30.181  1.00  0.00     0.049 A 
ATOM     57  H   UNL A   1      44.155  28.311  29.762  1.00  0.00     0.167 HD
ATOM     58  C   UNL A   1      45.534  25.883  29.275  1.00  0.00     0.074 A 
ATOM     59  C   UNL A   1      45.810  24.520  28.869  1.00  0.00     0.031 C 
ATOM     60  C   UNL A   1      46.463  26.731  29.779  1.00  0.00     0.031 A 
BRANCH  47  61
ATOM     61  C   UNL A   1      44.279  32.348  31.143  1.00  0.00    -0.014 A 
ATOM     62  C   UNL A   1      44.671  33.364  30.258  1.00  0.00     0.009 A 
ATOM     63  C   UNL A   1      44.132  32.655  32.505  1.00  0.00     0.009 A 
ATOM     64  C   UNL A   1      44.955  34.647  30.732  1.00  0.00     0.001 A 
ATOM     65  C   UNL A   1      44.384  33.948  32.971  1.00  0.00     0.001 A 
ATOM     66  C   UNL A   1      44.808  34.938  32.087  1.00  0.00     0.000 A 
ENDBRANCH  47  61
BRANCH  48  67
ATOM     67  C   UNL A   1      41.993  23.307  27.568  1.00  0.00    -0.014 A 
ATOM     68  C   UNL A   1      42.174  23.049  26.200  1.00  0.00     0.009 A 
ATOM     69  C   UNL A   1      41.503  22.281  28.392  1.00  0.00     0.009 A 
ATOM     70  C   UNL A   1      41.845  21.802  25.663  1.00  0.00     0.001 A 
ATOM     71  C   UNL A   1      41.202  21.026  27.857  1.00  0.00     0.001 A 
ATOM     72  C   UNL A   1      41.364  20.790  26.493  1.00  0.00     0.000 A 
ENDBRANCH  48  67
BRANCH  60  73
ATOM     73  C   UNL A   1      47.854  26.195  29.959  1.00  0.00    -0.014 A 
ATOM     74  C   UNL A   1      48.767  26.164  28.894  1.00  0.00     0.009 A 
ATOM     75  C   UNL A   1      48.269  25.757  31.226  1.00  0.00     0.009 A 
ATOM     76  C   UNL A   1      50.061  25.677  29.090  1.00  0.00     0.001 A 
ATOM     77  C   UNL A   1      49.571  25.297  31.426  1.00  0.00     0.001 A 
ATOM     78  C   UNL A   1      50.463  25.249  30.356  1.00  0.00     0.000 A 
ENDBRANCH  60  73
ENDBRANCH  34  35
ENDBRANCH  26  29
ENDBRANCH  24  25
ENDBRANCH   1  24
TORSDOF 11
ENDMDL
MODEL 2
REMARK VINA RESULT:     -11.3      3.431      6.789
REMARK SMILES O=C(NCCCNC(=O)c1ccc(-c2c3nc(c(-c4ccccc4)c4ccc([nH]4)c(-c4ccccc4)c4nc(c(-c5ccccc5)c5ccc2[nH]5)C=C4)C=C3)cc1)C1=Cc2c(cc(Cl)c(Cl)c2Cl)O[C@H]1C(F)(F)F
REMARK SMILES IDX 5 1 4 2 3 3 1 4 2 5 58 7 59 8 70 9 60 10 69 11 61 12 67 13
REMARK SMILES IDX 62 14 65 15 68 16 63 17 66 18 64 19 71 20 72 21 73 22 74 23
REMARK SMILES IDX 6 24 7 25 8 26 9 28 10 29 11 30 57 31 12 32 56 33 13 34
REMARK SMILES IDX 14 35 15 36 50 37 16 38 55 39 49 40 51 41 17 42 54 43 48 44
REMARK SMILES IDX 47 45 18 47 40 48 25 49 39 50 26 51 29 52 38 53 52 54 27 55
REMARK SMILES IDX 28 56 37 58 53 59 30 60 19 61 20 62 24 63 21 64 23 65 22 66
REMARK SMILES IDX 41 67 42 68 46 69 43 70 45 71 44 72 31 73 32 74 36 75 33 76
REMARK SMILES IDX 35 77 34 78
REMARK H PARENT 3 6 7 27 51 46 29 57
REMARK Flexibility Score: inf
ROOT
ATOM      1  C   UNL A   1      35.085  22.036  26.963  1.00  0.00     0.042 C 
ENDROOT
BRANCH   1   2
ATOM      2  C   UNL A   1      33.713  21.394  26.967  1.00  0.00     0.118 C 
BRANCH   2   3
ATOM      3  N   UNL A   1      32.603  22.219  27.393  1.00  0.00    -0.352 N 
ATOM      4  O   UNL A   1      31.089  23.881  27.209  1.00  0.00    -0.270 OA
ATOM      5  C   UNL A   1      32.002  23.241  26.701  1.00  0.00     0.251 C 
ATOM      6  H   UNL A   1      32.236  22.025  28.285  1.00  0.00     0.163 HD
BRANCH   5   7
ATOM      7  C   UNL A   1      32.494  23.618  25.345  1.00  0.00     0.067 C 
ATOM      8  C   UNL A   1      33.165  24.777  25.217  1.00  0.00     0.027 C 
ATOM      9  C   UNL A   1      31.707  23.042  24.196  1.00  0.00     0.314 C 
ATOM     10  C   UNL A   1      32.349  25.807  24.524  1.00  0.00     0.037 A 
ATOM     11  O   UNL A   1      31.161  24.060  23.300  1.00  0.00    -0.475 OA
ATOM     12  C   UNL A   1      31.341  25.375  23.649  1.00  0.00     0.131 A 
ATOM     13  C   UNL A   1      32.417  27.164  24.901  1.00  0.00     0.072 A 
ATOM     14  C   UNL A   1      30.365  26.267  23.210  1.00  0.00     0.069 A 
ATOM     15  C   UNL A   1      31.410  28.056  24.492  1.00  0.00     0.079 A 
ATOM     16  Cl  UNL A   1      33.691  27.680  25.969  1.00  0.00    -0.082 Cl
ATOM     17  C   UNL A   1      30.373  27.588  23.668  1.00  0.00     0.064 A 
ATOM     18  Cl  UNL A   1      31.402  29.696  25.060  1.00  0.00    -0.081 Cl
ATOM     19  Cl  UNL A   1      29.010  28.568  23.247  1.00  0.00    -0.083 Cl
BRANCH   9  20
ATOM     20  C   UNL A   1      32.519  22.001  23.400  1.00  0.00     0.429 C 
ATOM     21  F   UNL A   1      32.930  20.958  24.157  1.00  0.00    -0.167 F 
ATOM     22  F   UNL A   1      31.785  21.492  22.381  1.00  0.00    -0.167 F 
ATOM     23  F   UNL A   1      33.634  22.545  22.853  1.00  0.00    -0.167 F 
ENDBRANCH   9  20
ENDBRANCH   5   7
ENDBRANCH   2   3
ENDBRANCH   1   2
BRANCH   1  24
ATOM     24  C   UNL A   1      35.758  22.078  25.601  1.00  0.00     0.118 C 
BRANCH  24  25
ATOM     25  N   UNL A   1      36.796  21.065  25.417  1.00  0.00    -0.352 N 
ATOM     26  C   UNL A   1      38.160  21.077  25.604  1.00  0.00     0.251 C 
ATOM     27  H   UNL A   1      36.451  20.202  25.095  1.00  0.00     0.163 HD
ATOM     28  O   UNL A   1      38.809  20.082  25.287  1.00  0.00    -0.269 OA
BRANCH  26  29
ATOM     29  C   UNL A   1      38.871  22.261  26.140  1.00  0.00     0.039 A 
ATOM     30  C   UNL A   1      40.024  22.075  26.914  1.00  0.00     0.014 A 
ATOM     31  C   UNL A   1      38.408  23.553  25.916  1.00  0.00     0.014 A 
ATOM     32  C   UNL A   1      40.754  23.181  27.365  1.00  0.00     0.010 A 
ATOM     33  C   UNL A   1      39.203  24.645  26.242  1.00  0.00     0.010 A 
ATOM     34  C   UNL A   1      40.382  24.478  26.981  1.00  0.00    -0.014 A 
BRANCH  34  35
ATOM     35  C   UNL A   1      41.173  25.683  27.346  1.00  0.00     0.031 A 
ATOM     36  C   UNL A   1      40.568  26.732  28.245  1.00  0.00     0.074 A 
ATOM     37  C   UNL A   1      42.380  25.897  26.784  1.00  0.00     0.049 A 
ATOM     38  N   UNL A   1      41.007  27.932  28.533  1.00  0.00    -0.248 NA
ATOM     39  C   UNL A   1      39.271  26.405  28.863  1.00  0.00     0.031 C 
ATOM     40  C   UNL A   1      43.066  24.989  25.861  1.00  0.00     0.029 A 
ATOM     41  N   UNL A   1      43.240  26.962  26.898  1.00  0.00    -0.354 N 
ATOM     42  C   UNL A   1      40.020  28.514  29.320  1.00  0.00     0.074 A 
ATOM     43  C   UNL A   1      38.938  27.560  29.418  1.00  0.00     0.031 C 
ATOM     44  C   UNL A   1      44.251  25.520  25.520  1.00  0.00     0.029 A 
ATOM     45  C   UNL A   1      44.388  26.826  26.155  1.00  0.00     0.049 A 
ATOM     46  H   UNL A   1      43.051  27.749  27.459  1.00  0.00     0.167 HD
ATOM     47  C   UNL A   1      40.019  29.724  29.928  1.00  0.00     0.031 A 
ATOM     48  C   UNL A   1      45.429  27.663  25.994  1.00  0.00     0.031 A 
ATOM     49  C   UNL A   1      41.116  30.651  29.873  1.00  0.00     0.049 A 
ATOM     50  C   UNL A   1      45.420  28.990  26.700  1.00  0.00     0.074 A 
ATOM     51  C   UNL A   1      41.249  31.870  30.515  1.00  0.00     0.029 A 
ATOM     52  N   UNL A   1      42.276  30.452  29.143  1.00  0.00    -0.354 N 
ATOM     53  N   UNL A   1      44.501  29.504  27.479  1.00  0.00    -0.248 NA
ATOM     54  C   UNL A   1      46.598  29.848  26.509  1.00  0.00     0.031 C 
ATOM     55  C   UNL A   1      42.476  32.428  30.142  1.00  0.00     0.029 A 
ATOM     56  C   UNL A   1      43.127  31.533  29.308  1.00  0.00     0.049 A 
ATOM     57  H   UNL A   1      42.469  29.661  28.590  1.00  0.00     0.167 HD
ATOM     58  C   UNL A   1      45.001  30.731  27.896  1.00  0.00     0.074 A 
ATOM     59  C   UNL A   1      46.310  30.877  27.293  1.00  0.00     0.031 C 
ATOM     60  C   UNL A   1      44.427  31.655  28.705  1.00  0.00     0.031 A 
BRANCH  47  61
ATOM     61  C   UNL A   1      38.792  30.105  30.711  1.00  0.00    -0.014 A 
ATOM     62  C   UNL A   1      38.704  29.868  32.092  1.00  0.00     0.009 A 
ATOM     63  C   UNL A   1      37.715  30.728  30.061  1.00  0.00     0.009 A 
ATOM     64  C   UNL A   1      37.546  30.203  32.797  1.00  0.00     0.001 A 
ATOM     65  C   UNL A   1      36.571  31.092  30.775  1.00  0.00     0.001 A 
ATOM     66  C   UNL A   1      36.483  30.818  32.139  1.00  0.00     0.000 A 
ENDBRANCH  47  61
BRANCH  48  67
ATOM     67  C   UNL A   1      46.583  27.265  25.146  1.00  0.00    -0.014 A 
ATOM     68  C   UNL A   1      47.503  26.309  25.607  1.00  0.00     0.009 A 
ATOM     69  C   UNL A   1      46.777  27.834  23.877  1.00  0.00     0.009 A 
ATOM     70  C   UNL A   1      48.607  25.952  24.829  1.00  0.00     0.001 A 
ATOM     71  C   UNL A   1      47.868  27.454  23.090  1.00  0.00     0.001 A 
ATOM     72  C   UNL A   1      48.786  26.522  23.569  1.00  0.00     0.000 A 
ENDBRANCH  48  67
BRANCH  60  73
ATOM     73  C   UNL A   1      45.230  32.885  29.018  1.00  0.00    -0.014 A 
ATOM     74  C   UNL A   1      46.127  32.915  30.097  1.00  0.00     0.009 A 
ATOM     75  C   UNL A   1      45.120  34.013  28.190  1.00  0.00     0.009 A 
ATOM     76  C   UNL A   1      46.875  34.065  30.358  1.00  0.00     0.001 A 
ATOM     77  C   UNL A   1      45.889  35.150  28.437  1.00  0.00     0.001 A 
ATOM     78  C   UNL A   1      46.759  35.179  29.526  1.00  0.00     0.000 A 
ENDBRANCH  60  73
ENDBRANCH  34  35
ENDBRANCH  26  29
ENDBRANCH  24  25
ENDBRANCH   1  24
TORSDOF 11
ENDMDL
MODEL 3
REMARK VINA RESULT:     -11.1      4.309      8.110
REMARK SMILES O=C(NCCCNC(=O)c1ccc(-c2c3nc(c(-c4ccccc4)c4ccc([nH]4)c(-c4ccccc4)c4nc(c(-c5ccccc5)c5ccc2[nH]5)C=C4)C=C3)cc1)C1=Cc2c(cc(Cl)c(Cl)c2Cl)O[C@H]1C(F)(F)F
REMARK SMILES IDX 5 1 4 2 3 3 1 4 2 5 58 7 59 8 70 9 60 10 69 11 61 12 67 13
REMARK SMILES IDX 62 14 65 15 68 16 63 17 66 18 64 19 71 20 72 21 73 22 74 23
REMARK SMILES IDX 6 24 7 25 8 26 9 28 10 29 11 30 57 31 12 32 56 33 13 34
REMARK SMILES IDX 14 35 15 36 50 37 16 38 55 39 49 40 51 41 17 42 54 43 48 44
REMARK SMILES IDX 47 45 18 47 40 48 25 49 39 50 26 51 29 52 38 53 52 54 27 55
REMARK SMILES IDX 28 56 37 58 53 59 30 60 19 61 20 62 24 63 21 64 23 65 22 66
REMARK SMILES IDX 41 67 42 68 46 69 43 70 45 71 44 72 31 73 32 74 36 75 33 76
REMARK SMILES IDX 35 77 34 78
REMARK H PARENT 3 6 7 27 51 46 29 57
REMARK Flexibility Score: inf
ROOT
ATOM      1  C   UNL A   1      31.385  32.196  26.501  1.00  0.00     0.042 C 
ENDROOT
BRANCH   1   2
ATOM      2  C   UNL A   1      31.505  30.704  26.264  1.00  0.00     0.118 C 
BRANCH   2   3
ATOM      3  N   UNL A   1      32.673  30.246  25.542  1.00  0.00    -0.352 N 
ATOM      4  O   UNL A   1      33.812  28.954  24.085  1.00  0.00    -0.270 OA
ATOM      5  C   UNL A   1      32.737  29.262  24.587  1.00  0.00     0.251 C 
ATOM      6  H   UNL A   1      33.522  30.693  25.761  1.00  0.00     0.163 HD
BRANCH   5   7
ATOM      7  C   UNL A   1      31.507  28.519  24.193  1.00  0.00     0.067 C 
ATOM      8  C   UNL A   1      31.176  27.425  24.902  1.00  0.00     0.027 C 
ATOM      9  C   UNL A   1      31.112  28.658  22.746  1.00  0.00     0.314 C 
ATOM     10  C   UNL A   1      31.422  26.178  24.131  1.00  0.00     0.037 A 
ATOM     11  O   UNL A   1      31.028  27.379  22.042  1.00  0.00    -0.475 OA
ATOM     12  C   UNL A   1      31.399  26.251  22.730  1.00  0.00     0.131 A 
ATOM     13  C   UNL A   1      31.896  25.012  24.765  1.00  0.00     0.072 A 
ATOM     14  C   UNL A   1      31.909  25.205  21.966  1.00  0.00     0.069 A 
ATOM     15  C   UNL A   1      32.449  23.972  23.998  1.00  0.00     0.079 A 
ATOM     16  Cl  UNL A   1      31.894  24.937  26.504  1.00  0.00    -0.082 Cl
ATOM     17  C   UNL A   1      32.475  24.093  22.598  1.00  0.00     0.064 A 
ATOM     18  Cl  UNL A   1      33.163  22.591  24.769  1.00  0.00    -0.081 Cl
ATOM     19  Cl  UNL A   1      33.275  22.942  21.583  1.00  0.00    -0.083 Cl
BRANCH   9  20
ATOM     20  C   UNL A   1      29.802  29.455  22.575  1.00  0.00     0.429 C 
ATOM     21  F   UNL A   1      29.570  30.315  23.592  1.00  0.00    -0.167 F 
ATOM     22  F   UNL A   1      29.825  30.182  21.432  1.00  0.00    -0.167 F 
ATOM     23  F   UNL A   1      28.723  28.637  22.505  1.00  0.00    -0.167 F 
ENDBRANCH   9  20
ENDBRANCH   5   7
ENDBRANCH   2   3
ENDBRANCH   1   2
BRANCH   1  24
ATOM     24  C   UNL A   1      32.565  32.815  27.231  1.00  0.00     0.118 C 
BRANCH  24  25
ATOM     25  N   UNL A   1      32.350  34.201  27.645  1.00  0.00    -0.352 N 
ATOM     26  C   UNL A   1      32.991  35.020  28.547  1.00  0.00     0.251 C 
ATOM     27  H   UNL A   1      31.597  34.636  27.186  1.00  0.00     0.163 HD
ATOM     28  O   UNL A   1      32.537  36.143  28.754  1.00  0.00    -0.269 OA
BRANCH  26  29
ATOM     29  C   UNL A   1      34.187  34.576  29.300  1.00  0.00     0.039 A 
ATOM     30  C   UNL A   1      34.033  34.091  30.606  1.00  0.00     0.014 A 
ATOM     31  C   UNL A   1      35.464  34.652  28.754  1.00  0.00     0.014 A 
ATOM     32  C   UNL A   1      35.139  33.594  31.307  1.00  0.00     0.010 A 
ATOM     33  C   UNL A   1      36.534  34.034  29.391  1.00  0.00     0.010 A 
ATOM     34  C   UNL A   1      36.391  33.506  30.680  1.00  0.00    -0.014 A 
BRANCH  34  35
ATOM     35  C   UNL A   1      37.578  32.898  31.339  1.00  0.00     0.031 A 
ATOM     36  C   UNL A   1      38.263  31.715  30.703  1.00  0.00     0.074 A 
ATOM     37  C   UNL A   1      37.969  33.324  32.557  1.00  0.00     0.049 A 
ATOM     38  N   UNL A   1      39.184  30.925  31.195  1.00  0.00    -0.248 NA
ATOM     39  C   UNL A   1      37.814  31.339  29.350  1.00  0.00     0.031 C 
ATOM     40  C   UNL A   1      37.369  34.428  33.309  1.00  0.00     0.029 A 
ATOM     41  N   UNL A   1      38.964  32.863  33.384  1.00  0.00    -0.354 N 
ATOM     42  C   UNL A   1      39.386  29.939  30.236  1.00  0.00     0.074 A 
ATOM     43  C   UNL A   1      38.455  30.196  29.161  1.00  0.00     0.031 C 
ATOM     44  C   UNL A   1      38.027  34.578  34.471  1.00  0.00     0.029 A 
ATOM     45  C   UNL A   1      39.059  33.553  34.570  1.00  0.00     0.049 A 
ATOM     46  H   UNL A   1      39.553  32.110  33.151  1.00  0.00     0.167 HD
ATOM     47  C   UNL A   1      40.282  28.923  30.235  1.00  0.00     0.031 A 
ATOM     48  C   UNL A   1      39.877  33.374  35.623  1.00  0.00     0.031 A 
ATOM     49  C   UNL A   1      41.243  28.698  31.279  1.00  0.00     0.049 A 
ATOM     50  C   UNL A   1      40.882  32.256  35.589  1.00  0.00     0.074 A 
ATOM     51  C   UNL A   1      42.245  27.745  31.340  1.00  0.00     0.029 A 
ATOM     52  N   UNL A   1      41.330  29.448  32.441  1.00  0.00    -0.354 N 
ATOM     53  N   UNL A   1      41.093  31.363  34.653  1.00  0.00    -0.248 NA
ATOM     54  C   UNL A   1      41.768  32.128  36.754  1.00  0.00     0.031 C 
ATOM     55  C   UNL A   1      42.914  27.894  32.559  1.00  0.00     0.029 A 
ATOM     56  C   UNL A   1      42.361  28.971  33.233  1.00  0.00     0.049 A 
ATOM     57  H   UNL A   1      40.747  30.208  32.670  1.00  0.00     0.167 HD
ATOM     58  C   UNL A   1      42.153  30.586  35.102  1.00  0.00     0.074 A 
ATOM     59  C   UNL A   1      42.550  31.123  36.388  1.00  0.00     0.031 C 
ATOM     60  C   UNL A   1      42.745  29.523  34.505  1.00  0.00     0.031 A 
BRANCH  47  61
ATOM     61  C   UNL A   1      40.263  27.984  29.059  1.00  0.00    -0.014 A 
ATOM     62  C   UNL A   1      41.001  28.256  27.896  1.00  0.00     0.009 A 
ATOM     63  C   UNL A   1      39.510  26.801  29.123  1.00  0.00     0.009 A 
ATOM     64  C   UNL A   1      40.948  27.387  26.804  1.00  0.00     0.001 A 
ATOM     65  C   UNL A   1      39.487  25.917  28.042  1.00  0.00     0.001 A 
ATOM     66  C   UNL A   1      40.195  26.217  26.879  1.00  0.00     0.000 A 
ENDBRANCH  47  61
BRANCH  48  67
ATOM     67  C   UNL A   1      39.800  34.287  36.793  1.00  0.00    -0.014 A 
ATOM     68  C   UNL A   1      39.005  33.952  37.900  1.00  0.00     0.009 A 
ATOM     69  C   UNL A   1      40.513  35.496  36.812  1.00  0.00     0.009 A 
ATOM     70  C   UNL A   1      38.903  34.819  38.990  1.00  0.00     0.001 A 
ATOM     71  C   UNL A   1      40.431  36.349  37.916  1.00  0.00     0.001 A 
ATOM     72  C   UNL A   1      39.620  36.015  38.999  1.00  0.00     0.000 A 
ENDBRANCH  48  67
BRANCH  60  73
ATOM     73  C   UNL A   1      43.910  28.899  35.215  1.00  0.00    -0.014 A 
ATOM     74  C   UNL A   1      45.221  29.354  35.007  1.00  0.00     0.009 A 
ATOM     75  C   UNL A   1      43.685  27.869  36.142  1.00  0.00     0.009 A 
ATOM     76  C   UNL A   1      46.287  28.768  35.693  1.00  0.00     0.001 A 
ATOM     77  C   UNL A   1      44.749  27.304  36.847  1.00  0.00     0.001 A 
ATOM     78  C   UNL A   1      46.050  27.748  36.615  1.00  0.00     0.000 A 
ENDBRANCH  60  73
ENDBRANCH  34  35
ENDBRANCH  26  29
ENDBRANCH  24  25
ENDBRANCH   1  24
TORSDOF 11
ENDMDL
