MODEL 1
REMARK VINA RESULT:     -10.4      0.000      0.000
REMARK SMILES Cc1cc(N(C)C(C)C)cc(C(=O)NCCCNC(=O)c2ccc(-c3c4nc(c(-c5ccccc5)c5ccc([nH]5)c(-c5ccccc5)c5nc(c(-c6ccccc6)c6ccc3[nH]6)C=C5)C=C4)cc2)c1N
REMARK SMILES IDX 16 1 15 2 14 3 12 4 13 5 11 7 1 8 2 9 3 10 69 11 4 12 10 13
REMARK SMILES IDX 70 14 5 17 6 18 7 19 8 20 9 21 17 22 18 23 19 24 20 26 21 27
REMARK SMILES IDX 22 28 68 29 23 30 67 31 24 32 25 33 26 34 61 35 27 36 66 37
REMARK SMILES IDX 60 38 62 39 28 40 65 41 59 42 58 43 29 45 51 46 36 47 50 48
REMARK SMILES IDX 37 49 40 50 49 51 63 52 38 53 39 54 48 56 64 57 41 58 30 59
REMARK SMILES IDX 31 60 35 61 32 62 34 63 33 64 52 65 53 66 57 67 54 68 56 69
REMARK SMILES IDX 55 70 42 71 43 72 47 73 44 74 46 75 45 76
REMARK H PARENT 14 6 70 15 70 16 18 25 62 44 40 55
REMARK Flexibility Score: inf
ROOT
ATOM      1  C   UNL A   1      33.985  28.038  26.058  1.00  0.00     0.042 C 
ENDROOT
BRANCH   1   2
ATOM      2  C   UNL A   1      32.938  27.289  25.230  1.00  0.00     0.118 C 
BRANCH   2   3
ATOM      3  N   UNL A   1      33.315  27.266  23.830  1.00  0.00    -0.352 N 
ATOM      4  C   UNL A   1      33.703  26.265  22.973  1.00  0.00     0.253 C 
ATOM      5  O   UNL A   1      33.984  26.624  21.825  1.00  0.00    -0.269 OA
ATOM      6  H   UNL A   1      33.289  28.154  23.405  1.00  0.00     0.163 HD
BRANCH   4   7
ATOM      7  C   UNL A   1      33.749  24.809  23.336  1.00  0.00     0.065 A 
ATOM      8  C   UNL A   1      31.984  21.549  22.424  1.00  0.00     0.046 C 
ATOM      9  C   UNL A   1      32.889  22.565  23.071  1.00  0.00    -0.025 A 
ATOM     10  C   UNL A   1      33.779  22.132  24.077  1.00  0.00     0.031 A 
ATOM     11  C   UNL A   1      32.858  23.918  22.698  1.00  0.00     0.047 A 
ATOM     12  C   UNL A   1      34.677  22.980  24.735  1.00  0.00     0.038 A 
ATOM     13  C   UNL A   1      34.687  24.300  24.255  1.00  0.00     0.042 A 
BRANCH  11  14
ATOM     14  N   UNL A   1      31.859  24.372  21.829  1.00  0.00    -0.398 N 
ATOM     15  H   UNL A   1      31.213  25.050  22.135  1.00  0.00     0.156 HD
ATOM     16  H   UNL A   1      31.802  24.014  20.914  1.00  0.00     0.156 HD
ENDBRANCH  11  14
BRANCH  12  17
ATOM     17  N   UNL A   1      35.483  22.570  25.792  1.00  0.00    -0.372 N 
ATOM     18  C   UNL A   1      34.891  22.187  27.082  1.00  0.00     0.144 C 
BRANCH  17  19
ATOM     19  C   UNL A   1      36.948  22.348  25.735  1.00  0.00     0.075 C 
ATOM     20  C   UNL A   1      37.359  21.425  24.588  1.00  0.00     0.030 C 
ATOM     21  C   UNL A   1      37.756  23.639  25.838  1.00  0.00     0.030 C 
ENDBRANCH  17  19
ENDBRANCH  12  17
ENDBRANCH   4   7
ENDBRANCH   2   3
ENDBRANCH   1   2
BRANCH   1  22
ATOM     22  C   UNL A   1      33.468  28.475  27.426  1.00  0.00     0.118 C 
BRANCH  22  23
ATOM     23  N   UNL A   1      33.484  29.924  27.573  1.00  0.00    -0.352 N 
ATOM     24  C   UNL A   1      34.450  30.744  28.099  1.00  0.00     0.251 C 
ATOM     25  H   UNL A   1      32.679  30.385  27.243  1.00  0.00     0.163 HD
ATOM     26  O   UNL A   1      34.182  31.915  28.347  1.00  0.00    -0.269 OA
BRANCH  24  27
ATOM     27  C   UNL A   1      35.807  30.227  28.379  1.00  0.00     0.039 A 
ATOM     28  C   UNL A   1      36.761  30.255  27.356  1.00  0.00     0.014 A 
ATOM     29  C   UNL A   1      36.130  29.672  29.620  1.00  0.00     0.014 A 
ATOM     30  C   UNL A   1      38.051  29.774  27.594  1.00  0.00     0.010 A 
ATOM     31  C   UNL A   1      37.433  29.255  29.877  1.00  0.00     0.010 A 
ATOM     32  C   UNL A   1      38.405  29.296  28.866  1.00  0.00    -0.014 A 
BRANCH  32  33
ATOM     33  C   UNL A   1      39.785  28.835  29.159  1.00  0.00     0.031 A 
ATOM     34  C   UNL A   1      40.775  29.769  29.800  1.00  0.00     0.074 A 
ATOM     35  C   UNL A   1      40.167  27.600  28.782  1.00  0.00     0.049 A 
ATOM     36  N   UNL A   1      42.045  29.578  30.052  1.00  0.00    -0.248 NA
ATOM     37  C   UNL A   1      40.278  31.100  30.184  1.00  0.00     0.031 C 
ATOM     38  C   UNL A   1      39.313  26.611  28.124  1.00  0.00     0.029 A 
ATOM     39  N   UNL A   1      41.382  26.969  28.890  1.00  0.00    -0.354 N 
ATOM     40  C   UNL A   1      42.503  30.769  30.602  1.00  0.00     0.074 A 
ATOM     41  C   UNL A   1      41.386  31.689  30.609  1.00  0.00     0.031 C 
ATOM     42  C   UNL A   1      40.023  25.494  27.900  1.00  0.00     0.029 A 
ATOM     43  C   UNL A   1      41.391  25.702  28.362  1.00  0.00     0.049 A 
ATOM     44  H   UNL A   1      42.171  27.387  29.305  1.00  0.00     0.167 HD
ATOM     45  C   UNL A   1      43.738  31.066  31.072  1.00  0.00     0.031 A 
ATOM     46  C   UNL A   1      42.394  24.809  28.248  1.00  0.00     0.031 A 
ATOM     47  C   UNL A   1      44.845  30.147  31.075  1.00  0.00     0.049 A 
ATOM     48  C   UNL A   1      43.758  25.167  28.767  1.00  0.00     0.074 A 
ATOM     49  C   UNL A   1      46.119  30.334  31.582  1.00  0.00     0.029 A 
ATOM     50  N   UNL A   1      44.809  28.868  30.544  1.00  0.00    -0.354 N 
ATOM     51  N   UNL A   1      44.158  26.275  29.341  1.00  0.00    -0.248 NA
ATOM     52  C   UNL A   1      44.806  24.146  28.630  1.00  0.00     0.031 C 
ATOM     53  C   UNL A   1      46.869  29.184  31.314  1.00  0.00     0.029 A 
ATOM     54  C   UNL A   1      46.045  28.262  30.690  1.00  0.00     0.049 A 
ATOM     55  H   UNL A   1      44.021  28.451  30.126  1.00  0.00     0.167 HD
ATOM     56  C   UNL A   1      45.495  26.076  29.658  1.00  0.00     0.074 A 
ATOM     57  C   UNL A   1      45.834  24.736  29.226  1.00  0.00     0.031 C 
ATOM     58  C   UNL A   1      46.364  26.927  30.255  1.00  0.00     0.031 A 
BRANCH  45  59
ATOM     59  C   UNL A   1      43.960  32.452  31.613  1.00  0.00    -0.014 A 
ATOM     60  C   UNL A   1      44.373  33.502  30.778  1.00  0.00     0.009 A 
ATOM     61  C   UNL A   1      43.716  32.719  32.969  1.00  0.00     0.009 A 
ATOM     62  C   UNL A   1      44.573  34.783  31.297  1.00  0.00     0.001 A 
ATOM     63  C   UNL A   1      43.889  34.008  33.480  1.00  0.00     0.001 A 
ATOM     64  C   UNL A   1      44.326  35.035  32.646  1.00  0.00     0.000 A 
ENDBRANCH  45  59
BRANCH  46  65
ATOM     65  C   UNL A   1      42.141  23.485  27.623  1.00  0.00    -0.014 A 
ATOM     66  C   UNL A   1      42.396  23.282  26.259  1.00  0.00     0.009 A 
ATOM     67  C   UNL A   1      41.645  22.418  28.387  1.00  0.00     0.009 A 
ATOM     68  C   UNL A   1      42.137  22.044  25.666  1.00  0.00     0.001 A 
ATOM     69  C   UNL A   1      41.413  21.172  27.798  1.00  0.00     0.001 A 
ATOM     70  C   UNL A   1      41.651  20.990  26.437  1.00  0.00     0.000 A 
ENDBRANCH  46  65
BRANCH  58  71
ATOM     71  C   UNL A   1      47.757  26.422  30.509  1.00  0.00    -0.014 A 
ATOM     72  C   UNL A   1      48.102  25.818  31.727  1.00  0.00     0.009 A 
ATOM     73  C   UNL A   1      48.722  26.510  29.493  1.00  0.00     0.009 A 
ATOM     74  C   UNL A   1      49.397  25.338  31.934  1.00  0.00     0.001 A 
ATOM     75  C   UNL A   1      50.007  26.004  29.693  1.00  0.00     0.001 A 
ATOM     76  C   UNL A   1      50.345  25.426  30.915  1.00  0.00     0.000 A 
ENDBRANCH  58  71
ENDBRANCH  32  33
ENDBRANCH  24  27
ENDBRANCH  22  23
ENDBRANCH   1  22
TORSDOF 13
ENDMDL
MODEL 2
REMARK VINA RESULT:     -10.2      2.168      7.412
REMARK SMILES Cc1cc(N(C)C(C)C)cc(C(=O)NCCCNC(=O)c2ccc(-c3c4nc(c(-c5ccccc5)c5ccc([nH]5)c(-c5ccccc5)c5nc(c(-c6ccccc6)c6ccc3[nH]6)C=C5)C=C4)cc2)c1N
REMARK SMILES IDX 16 1 15 2 14 3 12 4 13 5 11 7 1 8 2 9 3 10 69 11 4 12 10 13
REMARK SMILES IDX 70 14 5 17 6 18 7 19 8 20 9 21 17 22 18 23 19 24 20 26 21 27
REMARK SMILES IDX 22 28 68 29 23 30 67 31 24 32 25 33 26 34 61 35 27 36 66 37
REMARK SMILES IDX 60 38 62 39 28 40 65 41 59 42 58 43 29 45 51 46 36 47 50 48
REMARK SMILES IDX 37 49 40 50 49 51 63 52 38 53 39 54 48 56 64 57 41 58 30 59
REMARK SMILES IDX 31 60 35 61 32 62 34 63 33 64 52 65 53 66 57 67 54 68 56 69
REMARK SMILES IDX 55 70 42 71 43 72 47 73 44 74 46 75 45 76
REMARK H PARENT 14 6 70 15 70 16 18 25 62 44 40 55
REMARK Flexibility Score: inf
ROOT
ATOM      1  C   UNL A   1      37.998  19.977  24.811  1.00  0.00     0.042 C 
ENDROOT
BRANCH   1   2
ATOM      2  C   UNL A   1      37.153  21.221  24.526  1.00  0.00     0.118 C 
BRANCH   2   3
ATOM      3  N   UNL A   1      37.563  22.322  25.376  1.00  0.00    -0.352 N 
ATOM      4  C   UNL A   1      36.914  23.429  25.865  1.00  0.00     0.253 C 
ATOM      5  O   UNL A   1      37.602  24.190  26.554  1.00  0.00    -0.269 OA
ATOM      6  H   UNL A   1      38.504  22.264  25.660  1.00  0.00     0.163 HD
BRANCH   4   7
ATOM      7  C   UNL A   1      35.457  23.719  25.655  1.00  0.00     0.065 A 
ATOM      8  C   UNL A   1      32.091  22.913  27.267  1.00  0.00     0.046 C 
ATOM      9  C   UNL A   1      33.153  23.434  26.335  1.00  0.00    -0.025 A 
ATOM     10  C   UNL A   1      32.755  24.186  25.209  1.00  0.00     0.031 A 
ATOM     11  C   UNL A   1      34.516  23.183  26.562  1.00  0.00     0.047 A 
ATOM     12  C   UNL A   1      33.651  24.734  24.286  1.00  0.00     0.038 A 
ATOM     13  C   UNL A   1      35.005  24.550  24.611  1.00  0.00     0.042 A 
BRANCH  11  14
ATOM     14  N   UNL A   1      34.894  22.296  27.576  1.00  0.00    -0.398 N 
ATOM     15  H   UNL A   1      35.613  21.642  27.414  1.00  0.00     0.156 HD
ATOM     16  H   UNL A   1      34.442  22.325  28.450  1.00  0.00     0.156 HD
ENDBRANCH  11  14
BRANCH  12  17
ATOM     17  N   UNL A   1      33.251  25.391  23.126  1.00  0.00    -0.372 N 
ATOM     18  C   UNL A   1      33.522  26.824  22.943  1.00  0.00     0.144 C 
BRANCH  17  19
ATOM     19  C   UNL A   1      32.650  24.754  21.928  1.00  0.00     0.075 C 
ATOM     20  C   UNL A   1      32.615  25.689  20.720  1.00  0.00     0.030 C 
ATOM     21  C   UNL A   1      33.208  23.362  21.645  1.00  0.00     0.030 C 
ENDBRANCH  17  19
ENDBRANCH  12  17
ENDBRANCH   4   7
ENDBRANCH   2   3
ENDBRANCH   1   2
BRANCH   1  22
ATOM     22  C   UNL A   1      38.949  20.155  25.992  1.00  0.00     0.118 C 
BRANCH  22  23
ATOM     23  N   UNL A   1      40.119  19.296  25.878  1.00  0.00    -0.352 N 
ATOM     24  C   UNL A   1      41.451  19.604  25.994  1.00  0.00     0.251 C 
ATOM     25  H   UNL A   1      39.925  18.350  25.689  1.00  0.00     0.163 HD
ATOM     26  O   UNL A   1      42.296  18.790  25.635  1.00  0.00    -0.269 OA
BRANCH  24  27
ATOM     27  C   UNL A   1      41.878  20.911  26.540  1.00  0.00     0.039 A 
ATOM     28  C   UNL A   1      42.270  21.915  25.649  1.00  0.00     0.014 A 
ATOM     29  C   UNL A   1      41.942  21.135  27.918  1.00  0.00     0.014 A 
ATOM     30  C   UNL A   1      42.676  23.159  26.137  1.00  0.00     0.010 A 
ATOM     31  C   UNL A   1      42.282  22.396  28.401  1.00  0.00     0.010 A 
ATOM     32  C   UNL A   1      42.659  23.418  27.517  1.00  0.00    -0.014 A 
BRANCH  32  33
ATOM     33  C   UNL A   1      43.030  24.750  28.057  1.00  0.00     0.031 A 
ATOM     34  C   UNL A   1      41.970  25.787  28.308  1.00  0.00     0.074 A 
ATOM     35  C   UNL A   1      44.329  25.051  28.250  1.00  0.00     0.049 A 
ATOM     36  N   UNL A   1      42.107  27.031  28.691  1.00  0.00    -0.248 NA
ATOM     37  C   UNL A   1      40.575  25.379  28.076  1.00  0.00     0.031 C 
ATOM     38  C   UNL A   1      45.454  24.146  28.012  1.00  0.00     0.029 A 
ATOM     39  N   UNL A   1      44.922  26.211  28.681  1.00  0.00    -0.354 N 
ATOM     40  C   UNL A   1      40.822  27.559  28.723  1.00  0.00     0.074 A 
ATOM     41  C   UNL A   1      39.924  26.514  28.282  1.00  0.00     0.031 C 
ATOM     42  C   UNL A   1      46.598  24.777  28.316  1.00  0.00     0.029 A 
ATOM     43  C   UNL A   1      46.292  26.143  28.729  1.00  0.00     0.049 A 
ATOM     44  H   UNL A   1      44.413  27.017  28.931  1.00  0.00     0.167 HD
ATOM     45  C   UNL A   1      40.424  28.798  29.099  1.00  0.00     0.031 A 
ATOM     46  C   UNL A   1      47.204  27.079  29.056  1.00  0.00     0.031 A 
ATOM     47  C   UNL A   1      41.317  29.833  29.549  1.00  0.00     0.049 A 
ATOM     48  C   UNL A   1      46.738  28.449  29.458  1.00  0.00     0.074 A 
ATOM     49  C   UNL A   1      41.005  31.101  30.006  1.00  0.00     0.029 A 
ATOM     50  N   UNL A   1      42.697  29.718  29.596  1.00  0.00    -0.354 N 
ATOM     51  N   UNL A   1      45.515  28.913  29.543  1.00  0.00    -0.248 NA
ATOM     52  C   UNL A   1      47.778  29.422  29.820  1.00  0.00     0.031 C 
ATOM     53  C   UNL A   1      42.201  31.771  30.285  1.00  0.00     0.029 A 
ATOM     54  C   UNL A   1      43.253  30.901  30.054  1.00  0.00     0.049 A 
ATOM     55  H   UNL A   1      43.206  28.914  29.343  1.00  0.00     0.167 HD
ATOM     56  C   UNL A   1      45.636  30.221  29.992  1.00  0.00     0.074 A 
ATOM     57  C   UNL A   1      47.051  30.472  30.176  1.00  0.00     0.031 C 
ATOM     58  C   UNL A   1      44.663  31.132  30.231  1.00  0.00     0.031 A 
BRANCH  45  59
ATOM     59  C   UNL A   1      38.953  29.106  29.027  1.00  0.00    -0.014 A 
ATOM     60  C   UNL A   1      38.124  28.963  30.150  1.00  0.00     0.009 A 
ATOM     61  C   UNL A   1      38.398  29.584  27.830  1.00  0.00     0.009 A 
ATOM     62  C   UNL A   1      36.761  29.256  30.066  1.00  0.00     0.001 A 
ATOM     63  C   UNL A   1      37.040  29.903  27.756  1.00  0.00     0.001 A 
ATOM     64  C   UNL A   1      36.222  29.729  28.871  1.00  0.00     0.000 A 
ENDBRANCH  45  59
BRANCH  46  65
ATOM     65  C   UNL A   1      48.653  26.747  29.023  1.00  0.00    -0.014 A 
ATOM     66  C   UNL A   1      49.401  26.945  27.854  1.00  0.00     0.009 A 
ATOM     67  C   UNL A   1      49.293  26.233  30.161  1.00  0.00     0.009 A 
ATOM     68  C   UNL A   1      50.757  26.612  27.817  1.00  0.00     0.001 A 
ATOM     69  C   UNL A   1      50.656  25.927  30.129  1.00  0.00     0.001 A 
ATOM     70  C   UNL A   1      51.384  26.108  28.955  1.00  0.00     0.000 A 
ENDBRANCH  46  65
BRANCH  58  71
ATOM     71  C   UNL A   1      45.091  32.475  30.754  1.00  0.00    -0.014 A 
ATOM     72  C   UNL A   1      45.359  33.543  29.885  1.00  0.00     0.009 A 
ATOM     73  C   UNL A   1      45.178  32.684  32.139  1.00  0.00     0.009 A 
ATOM     74  C   UNL A   1      45.736  34.788  30.393  1.00  0.00     0.001 A 
ATOM     75  C   UNL A   1      45.528  33.937  32.645  1.00  0.00     0.001 A 
ATOM     76  C   UNL A   1      45.814  34.984  31.772  1.00  0.00     0.000 A 
ENDBRANCH  58  71
ENDBRANCH  32  33
ENDBRANCH  24  27
ENDBRANCH  22  23
ENDBRANCH   1  22
TORSDOF 13
ENDMDL
MODEL 3
REMARK VINA RESULT:     -10.1      2.901      7.432
REMARK SMILES Cc1cc(N(C)C(C)C)cc(C(=O)NCCCNC(=O)c2ccc(-c3c4nc(c(-c5ccccc5)c5ccc([nH]5)c(-c5ccccc5)c5nc(c(-c6ccccc6)c6ccc3[nH]6)C=C5)C=C4)cc2)c1N
REMARK SMILES IDX 16 1 15 2 14 3 12 4 13 5 11 7 1 8 2 9 3 10 69 11 4 12 10 13
REMARK SMILES IDX 70 14 5 17 6 18 7 19 8 20 9 21 17 22 18 23 19 24 20 26 21 27
REMARK SMILES IDX 22 28 68 29 23 30 67 31 24 32 25 33 26 34 61 35 27 36 66 37
REMARK SMILES IDX 60 38 62 39 28 40 65 41 59 42 58 43 29 45 51 46 36 47 50 48
REMARK SMILES IDX 37 49 40 50 49 51 63 52 38 53 39 54 48 56 64 57 41 58 30 59
REMARK SMILES IDX 31 60 35 61 32 62 34 63 33 64 52 65 53 66 57 67 54 68 56 69
REMARK SMILES IDX 55 70 42 71 43 72 47 73 44 74 46 75 45 76
REMARK H PARENT 14 6 70 15 70 16 18 25 62 44 40 55
REMARK Flexibility Score: inf
ROOT
ATOM      1  C   UNL A   1      31.457  31.860  26.839  1.00  0.00     0.042 C 
ENDROOT
BRANCH   1   2
ATOM      2  C   UNL A   1      31.769  30.389  26.553  1.00  0.00     0.118 C 
BRANCH   2   3
ATOM      3  N   UNL A   1      33.158  30.095  26.852  1.00  0.00    -0.352 N 
ATOM      4  C   UNL A   1      33.988  29.045  26.544  1.00  0.00     0.253 C 
ATOM      5  O   UNL A   1      35.132  29.117  27.002  1.00  0.00    -0.269 OA
ATOM      6  H   UNL A   1      33.596  30.795  27.389  1.00  0.00     0.163 HD
BRANCH   4   7
ATOM      7  C   UNL A   1      33.601  27.887  25.671  1.00  0.00     0.065 A 
ATOM      8  C   UNL A   1      33.483  26.980  21.965  1.00  0.00     0.046 C 
ATOM      9  C   UNL A   1      33.346  26.933  23.463  1.00  0.00    -0.025 A 
ATOM     10  C   UNL A   1      32.800  25.774  24.056  1.00  0.00     0.031 A 
ATOM     11  C   UNL A   1      33.743  28.010  24.271  1.00  0.00     0.047 A 
ATOM     12  C   UNL A   1      32.641  25.610  25.436  1.00  0.00     0.038 A 
ATOM     13  C   UNL A   1      33.150  26.666  26.209  1.00  0.00     0.042 A 
BRANCH  11  14
ATOM     14  N   UNL A   1      34.119  29.218  23.673  1.00  0.00    -0.398 N 
ATOM     15  H   UNL A   1      34.831  29.766  24.077  1.00  0.00     0.156 HD
ATOM     16  H   UNL A   1      33.672  29.521  22.850  1.00  0.00     0.156 HD
ENDBRANCH  11  14
BRANCH  12  17
ATOM     17  N   UNL A   1      32.014  24.508  26.009  1.00  0.00    -0.372 N 
ATOM     18  C   UNL A   1      32.769  23.566  26.847  1.00  0.00     0.144 C 
BRANCH  17  19
ATOM     19  C   UNL A   1      30.560  24.215  25.969  1.00  0.00     0.075 C 
ATOM     20  C   UNL A   1      30.165  23.068  26.897  1.00  0.00     0.030 C 
ATOM     21  C   UNL A   1      29.692  25.465  26.090  1.00  0.00     0.030 C 
ENDBRANCH  17  19
ENDBRANCH  12  17
ENDBRANCH   4   7
ENDBRANCH   2   3
ENDBRANCH   1   2
BRANCH   1  22
ATOM     22  C   UNL A   1      32.701  32.746  26.857  1.00  0.00     0.118 C 
BRANCH  22  23
ATOM     23  N   UNL A   1      32.483  33.968  27.618  1.00  0.00    -0.352 N 
ATOM     24  C   UNL A   1      33.149  34.451  28.716  1.00  0.00     0.251 C 
ATOM     25  H   UNL A   1      31.746  34.535  27.294  1.00  0.00     0.163 HD
ATOM     26  O   UNL A   1      32.670  35.382  29.355  1.00  0.00    -0.269 OA
BRANCH  24  27
ATOM     27  C   UNL A   1      34.433  33.854  29.141  1.00  0.00     0.039 A 
ATOM     28  C   UNL A   1      35.608  34.255  28.497  1.00  0.00     0.014 A 
ATOM     29  C   UNL A   1      34.481  32.869  30.132  1.00  0.00     0.014 A 
ATOM     30  C   UNL A   1      36.834  33.708  28.881  1.00  0.00     0.010 A 
ATOM     31  C   UNL A   1      35.711  32.373  30.559  1.00  0.00     0.010 A 
ATOM     32  C   UNL A   1      36.898  32.782  29.935  1.00  0.00    -0.014 A 
BRANCH  32  33
ATOM     33  C   UNL A   1      38.195  32.231  30.400  1.00  0.00     0.031 A 
ATOM     34  C   UNL A   1      38.719  30.941  29.830  1.00  0.00     0.074 A 
ATOM     35  C   UNL A   1      38.867  32.855  31.387  1.00  0.00     0.049 A 
ATOM     36  N   UNL A   1      39.783  30.260  30.171  1.00  0.00    -0.248 NA
ATOM     37  C   UNL A   1      37.928  30.325  28.752  1.00  0.00     0.031 C 
ATOM     38  C   UNL A   1      38.450  34.094  32.046  1.00  0.00     0.029 A 
ATOM     39  N   UNL A   1      40.039  32.522  32.018  1.00  0.00    -0.354 N 
ATOM     40  C   UNL A   1      39.777  29.126  29.369  1.00  0.00     0.074 A 
ATOM     41  C   UNL A   1      38.584  29.191  28.553  1.00  0.00     0.031 C 
ATOM     42  C   UNL A   1      39.359  34.425  32.976  1.00  0.00     0.029 A 
ATOM     43  C   UNL A   1      40.400  33.404  33.008  1.00  0.00     0.049 A 
ATOM     44  H   UNL A   1      40.571  31.727  31.784  1.00  0.00     0.167 HD
ATOM     45  C   UNL A   1      40.690  28.128  29.305  1.00  0.00     0.031 A 
ATOM     46  C   UNL A   1      41.446  33.385  33.857  1.00  0.00     0.031 A 
ATOM     47  C   UNL A   1      41.883  28.071  30.108  1.00  0.00     0.049 A 
ATOM     48  C   UNL A   1      42.439  32.261  33.775  1.00  0.00     0.074 A 
ATOM     49  C   UNL A   1      42.899  27.131  30.077  1.00  0.00     0.029 A 
ATOM     50  N   UNL A   1      42.218  28.991  31.088  1.00  0.00    -0.354 N 
ATOM     51  N   UNL A   1      42.452  31.229  32.967  1.00  0.00    -0.248 NA
ATOM     52  C   UNL A   1      43.567  32.305  34.715  1.00  0.00     0.031 C 
ATOM     53  C   UNL A   1      43.826  27.457  31.072  1.00  0.00     0.029 A 
ATOM     54  C   UNL A   1      43.415  28.629  31.685  1.00  0.00     0.049 A 
ATOM     55  H   UNL A   1      41.686  29.785  31.325  1.00  0.00     0.167 HD
ATOM     56  C   UNL A   1      43.600  30.515  33.283  1.00  0.00     0.074 A 
ATOM     57  C   UNL A   1      44.266  31.240  34.346  1.00  0.00     0.031 C 
ATOM     58  C   UNL A   1      44.063  29.363  32.740  1.00  0.00     0.031 A 
BRANCH  45  59
ATOM     59  C   UNL A   1      40.427  27.005  28.339  1.00  0.00    -0.014 A 
ATOM     60  C   UNL A   1      39.635  25.905  28.701  1.00  0.00     0.009 A 
ATOM     61  C   UNL A   1      40.946  27.070  27.037  1.00  0.00     0.009 A 
ATOM     62  C   UNL A   1      39.399  24.872  27.789  1.00  0.00     0.001 A 
ATOM     63  C   UNL A   1      40.685  26.050  26.118  1.00  0.00     0.001 A 
ATOM     64  C   UNL A   1      39.921  24.948  26.499  1.00  0.00     0.000 A 
ENDBRANCH  45  59
BRANCH  46  65
ATOM     65  C   UNL A   1      41.611  34.475  34.854  1.00  0.00    -0.014 A 
ATOM     66  C   UNL A   1      42.385  35.604  34.552  1.00  0.00     0.009 A 
ATOM     67  C   UNL A   1      40.995  34.390  36.112  1.00  0.00     0.009 A 
ATOM     68  C   UNL A   1      42.559  36.617  35.498  1.00  0.00     0.001 A 
ATOM     69  C   UNL A   1      41.147  35.418  37.046  1.00  0.00     0.001 A 
ATOM     70  C   UNL A   1      41.936  36.525  36.741  1.00  0.00     0.000 A 
ENDBRANCH  46  65
BRANCH  58  71
ATOM     71  C   UNL A   1      45.369  28.833  33.261  1.00  0.00    -0.014 A 
ATOM     72  C   UNL A   1      45.413  27.941  34.343  1.00  0.00     0.009 A 
ATOM     73  C   UNL A   1      46.567  29.196  32.627  1.00  0.00     0.009 A 
ATOM     74  C   UNL A   1      46.637  27.445  34.798  1.00  0.00     0.001 A 
ATOM     75  C   UNL A   1      47.786  28.677  33.066  1.00  0.00     0.001 A 
ATOM     76  C   UNL A   1      47.820  27.809  34.155  1.00  0.00     0.000 A 
ENDBRANCH  58  71
ENDBRANCH  32  33
ENDBRANCH  24  27
ENDBRANCH  22  23
ENDBRANCH   1  22
TORSDOF 13
ENDMDL
