MODEL 1
REMARK VINA RESULT:     -11.6      0.000      0.000
REMARK SMILES Cc1cc(C)c2c(c1)C=C(C(=O)NCCCNC(=O)c1ccc(-c3c4nc(c(-c5ccccc5)c5ccc([nH]5)c(-c5ccccc5)c5nc(c(-c6ccccc6)c6ccc3[nH]6)C=C5)C=C4)cc1)[C@@H](C(F)(F)F)O2
REMARK SMILES IDX 15 1 14 2 13 3 11 4 12 5 10 7 1 8 2 9 3 10 8 11 4 12 7 13
REMARK SMILES IDX 5 14 6 15 9 16 73 17 68 18 69 19 70 20 71 21 72 22 16 23
REMARK SMILES IDX 17 24 18 25 19 27 20 28 21 29 67 30 22 31 66 32 23 33 24 34
REMARK SMILES IDX 25 35 60 36 26 37 65 38 59 39 61 40 27 41 64 42 58 43 57 44
REMARK SMILES IDX 28 46 50 47 35 48 49 49 36 50 39 51 48 52 62 53 37 54 38 55
REMARK SMILES IDX 47 57 63 58 40 59 29 60 30 61 34 62 31 63 33 64 32 65 51 66
REMARK SMILES IDX 52 67 56 68 53 69 55 70 54 71 41 72 42 73 46 74 43 75 45 76
REMARK SMILES IDX 44 77
REMARK H PARENT 13 6 17 26 61 45 39 56
REMARK Flexibility Score: inf
ROOT
ATOM      1  C   UNL A   1      34.029  28.343  25.805  1.00  0.00     0.042 C 
ENDROOT
BRANCH   1   2
ATOM      2  C   UNL A   1      32.934  27.764  24.923  1.00  0.00     0.118 C 
BRANCH   2   3
ATOM      3  N   UNL A   1      31.896  27.111  25.705  1.00  0.00    -0.352 N 
ATOM      4  C   UNL A   1      31.600  25.853  26.108  1.00  0.00     0.251 C 
ATOM      5  O   UNL A   1      30.576  25.747  26.789  1.00  0.00    -0.270 OA
ATOM      6  H   UNL A   1      31.230  27.759  26.030  1.00  0.00     0.163 HD
BRANCH   4   7
ATOM      7  C   UNL A   1      32.406  24.642  25.784  1.00  0.00     0.067 C 
ATOM      8  C   UNL A   1      38.218  22.532  25.795  1.00  0.00     0.044 C 
ATOM      9  C   UNL A   1      36.728  22.473  25.631  1.00  0.00    -0.050 A 
ATOM     10  C   UNL A   1      36.104  21.272  25.263  1.00  0.00     0.010 A 
ATOM     11  C   UNL A   1      35.943  23.602  25.905  1.00  0.00     0.015 A 
ATOM     12  C   UNL A   1      34.712  21.192  25.151  1.00  0.00    -0.008 A 
ATOM     13  C   UNL A   1      34.551  23.538  25.792  1.00  0.00     0.018 A 
ATOM     14  C   UNL A   1      34.045  19.910  24.744  1.00  0.00     0.048 C 
ATOM     15  C   UNL A   1      33.950  22.336  25.414  1.00  0.00     0.130 A 
ATOM     16  C   UNL A   1      33.713  24.693  26.099  1.00  0.00     0.025 C 
ATOM     17  O   UNL A   1      32.593  22.200  25.338  1.00  0.00    -0.475 OA
ATOM     18  C   UNL A   1      31.842  23.419  25.122  1.00  0.00     0.314 C 
BRANCH  18  19
ATOM     19  C   UNL A   1      31.601  23.613  23.613  1.00  0.00     0.429 C 
ATOM     20  F   UNL A   1      30.347  24.086  23.395  1.00  0.00    -0.167 F 
ATOM     21  F   UNL A   1      32.449  24.514  23.061  1.00  0.00    -0.167 F 
ATOM     22  F   UNL A   1      31.732  22.470  22.906  1.00  0.00    -0.167 F 
ENDBRANCH  18  19
ENDBRANCH   4   7
ENDBRANCH   2   3
ENDBRANCH   1   2
BRANCH   1  23
ATOM     23  C   UNL A   1      33.539  28.598  27.223  1.00  0.00     0.118 C 
BRANCH  23  24
ATOM     24  N   UNL A   1      33.565  30.021  27.555  1.00  0.00    -0.352 N 
ATOM     25  C   UNL A   1      34.505  30.754  28.232  1.00  0.00     0.251 C 
ATOM     26  H   UNL A   1      32.784  30.535  27.245  1.00  0.00     0.163 HD
ATOM     27  O   UNL A   1      34.220  31.868  28.666  1.00  0.00    -0.269 OA
BRANCH  25  28
ATOM     28  C   UNL A   1      35.858  30.205  28.436  1.00  0.00     0.039 A 
ATOM     29  C   UNL A   1      36.787  30.263  27.395  1.00  0.00     0.014 A 
ATOM     30  C   UNL A   1      36.196  29.610  29.653  1.00  0.00     0.014 A 
ATOM     31  C   UNL A   1      38.078  29.778  27.603  1.00  0.00     0.010 A 
ATOM     32  C   UNL A   1      37.506  29.227  29.893  1.00  0.00     0.010 A 
ATOM     33  C   UNL A   1      38.455  29.288  28.865  1.00  0.00    -0.014 A 
BRANCH  33  34
ATOM     34  C   UNL A   1      39.827  28.795  29.125  1.00  0.00     0.031 A 
ATOM     35  C   UNL A   1      40.826  29.696  29.797  1.00  0.00     0.074 A 
ATOM     36  C   UNL A   1      40.183  27.565  28.709  1.00  0.00     0.049 A 
ATOM     37  N   UNL A   1      42.088  29.475  30.059  1.00  0.00    -0.248 NA
ATOM     38  C   UNL A   1      40.354  31.032  30.205  1.00  0.00     0.031 C 
ATOM     39  C   UNL A   1      39.308  26.616  28.016  1.00  0.00     0.029 A 
ATOM     40  N   UNL A   1      41.379  26.901  28.812  1.00  0.00    -0.354 N 
ATOM     41  C   UNL A   1      42.558  30.640  30.651  1.00  0.00     0.074 A 
ATOM     42  C   UNL A   1      41.470  31.591  30.651  1.00  0.00     0.031 C 
ATOM     43  C   UNL A   1      39.983  25.477  27.795  1.00  0.00     0.029 A 
ATOM     44  C   UNL A   1      41.349  25.630  28.288  1.00  0.00     0.049 A 
ATOM     45  H   UNL A   1      42.181  27.295  29.222  1.00  0.00     0.167 HD
ATOM     46  C   UNL A   1      43.780  30.886  31.176  1.00  0.00     0.031 A 
ATOM     47  C   UNL A   1      42.315  24.696  28.213  1.00  0.00     0.031 A 
ATOM     48  C   UNL A   1      44.851  29.930  31.193  1.00  0.00     0.049 A 
ATOM     49  C   UNL A   1      43.673  25.007  28.778  1.00  0.00     0.074 A 
ATOM     50  C   UNL A   1      46.113  30.065  31.743  1.00  0.00     0.029 A 
ATOM     51  N   UNL A   1      44.784  28.661  30.641  1.00  0.00    -0.354 N 
ATOM     52  N   UNL A   1      44.085  26.095  29.385  1.00  0.00    -0.248 NA
ATOM     53  C   UNL A   1      44.697  23.960  28.655  1.00  0.00     0.031 C 
ATOM     54  C   UNL A   1      46.829  28.896  31.474  1.00  0.00     0.029 A 
ATOM     55  C   UNL A   1      45.993  28.011  30.813  1.00  0.00     0.049 A 
ATOM     56  H   UNL A   1      43.995  28.279  30.191  1.00  0.00     0.167 HD
ATOM     57  C   UNL A   1      45.407  25.855  29.736  1.00  0.00     0.074 A 
ATOM     58  C   UNL A   1      45.721  24.512  29.293  1.00  0.00     0.031 C 
ATOM     59  C   UNL A   1      46.283  26.673  30.366  1.00  0.00     0.031 A 
BRANCH  46  60
ATOM     60  C   UNL A   1      44.019  32.234  31.793  1.00  0.00    -0.014 A 
ATOM     61  C   UNL A   1      44.489  33.309  31.022  1.00  0.00     0.009 A 
ATOM     62  C   UNL A   1      43.705  32.453  33.143  1.00  0.00     0.009 A 
ATOM     63  C   UNL A   1      44.656  34.571  31.594  1.00  0.00     0.001 A 
ATOM     64  C   UNL A   1      43.846  33.723  33.705  1.00  0.00     0.001 A 
ATOM     65  C   UNL A   1      44.325  34.779  32.932  1.00  0.00     0.000 A 
ENDBRANCH  46  60
BRANCH  47  66
ATOM     66  C   UNL A   1      42.025  23.372  27.604  1.00  0.00    -0.014 A 
ATOM     67  C   UNL A   1      42.357  23.117  26.264  1.00  0.00     0.009 A 
ATOM     68  C   UNL A   1      41.425  22.351  28.357  1.00  0.00     0.009 A 
ATOM     69  C   UNL A   1      42.073  21.878  25.685  1.00  0.00     0.001 A 
ATOM     70  C   UNL A   1      41.170  21.101  27.785  1.00  0.00     0.001 A 
ATOM     71  C   UNL A   1      41.486  20.869  26.448  1.00  0.00     0.000 A 
ENDBRANCH  47  66
BRANCH  59  72
ATOM     72  C   UNL A   1      47.661  26.141  30.636  1.00  0.00    -0.014 A 
ATOM     73  C   UNL A   1      48.661  26.189  29.653  1.00  0.00     0.009 A 
ATOM     74  C   UNL A   1      47.986  25.669  31.919  1.00  0.00     0.009 A 
ATOM     75  C   UNL A   1      49.955  25.756  29.943  1.00  0.00     0.001 A 
ATOM     76  C   UNL A   1      49.288  25.267  32.215  1.00  0.00     0.001 A 
ATOM     77  C   UNL A   1      50.270  25.304  31.225  1.00  0.00     0.000 A 
ENDBRANCH  59  72
ENDBRANCH  33  34
ENDBRANCH  25  28
ENDBRANCH  23  24
ENDBRANCH   1  23
TORSDOF 11
ENDMDL
MODEL 2
REMARK VINA RESULT:     -11.5      2.221      7.304
REMARK SMILES Cc1cc(C)c2c(c1)C=C(C(=O)NCCCNC(=O)c1ccc(-c3c4nc(c(-c5ccccc5)c5ccc([nH]5)c(-c5ccccc5)c5nc(c(-c6ccccc6)c6ccc3[nH]6)C=C5)C=C4)cc1)[C@@H](C(F)(F)F)O2
REMARK SMILES IDX 15 1 14 2 13 3 11 4 12 5 10 7 1 8 2 9 3 10 8 11 4 12 7 13
REMARK SMILES IDX 5 14 6 15 9 16 73 17 68 18 69 19 70 20 71 21 72 22 16 23
REMARK SMILES IDX 17 24 18 25 19 27 20 28 21 29 67 30 22 31 66 32 23 33 24 34
REMARK SMILES IDX 25 35 60 36 26 37 65 38 59 39 61 40 27 41 64 42 58 43 57 44
REMARK SMILES IDX 28 46 50 47 35 48 49 49 36 50 39 51 48 52 62 53 37 54 38 55
REMARK SMILES IDX 47 57 63 58 40 59 29 60 30 61 34 62 31 63 33 64 32 65 51 66
REMARK SMILES IDX 52 67 56 68 53 69 55 70 54 71 41 72 42 73 46 74 43 75 45 76
REMARK SMILES IDX 44 77
REMARK H PARENT 13 6 17 26 61 45 39 56
REMARK Flexibility Score: inf
ROOT
ATOM      1  C   UNL A   1      37.760  19.660  24.975  1.00  0.00     0.042 C 
ENDROOT
BRANCH   1   2
ATOM      2  C   UNL A   1      36.681  20.687  24.669  1.00  0.00     0.118 C 
BRANCH   2   3
ATOM      3  N   UNL A   1      35.719  20.800  25.755  1.00  0.00    -0.352 N 
ATOM      4  C   UNL A   1      34.703  21.626  26.099  1.00  0.00     0.251 C 
ATOM      5  O   UNL A   1      34.127  21.340  27.153  1.00  0.00    -0.270 OA
ATOM      6  H   UNL A   1      35.839  20.082  26.418  1.00  0.00     0.163 HD
BRANCH   4   7
ATOM      7  C   UNL A   1      34.264  22.812  25.311  1.00  0.00     0.067 C 
ATOM      8  C   UNL A   1      33.656  28.952  25.715  1.00  0.00     0.044 C 
ATOM      9  C   UNL A   1      33.631  27.602  25.061  1.00  0.00    -0.050 A 
ATOM     10  C   UNL A   1      33.282  27.479  23.709  1.00  0.00     0.010 A 
ATOM     11  C   UNL A   1      34.016  26.462  25.781  1.00  0.00     0.015 A 
ATOM     12  C   UNL A   1      33.299  26.232  23.075  1.00  0.00    -0.008 A 
ATOM     13  C   UNL A   1      34.032  25.209  25.163  1.00  0.00     0.018 A 
ATOM     14  C   UNL A   1      32.913  26.097  21.631  1.00  0.00     0.048 C 
ATOM     15  C   UNL A   1      33.672  25.106  23.818  1.00  0.00     0.130 A 
ATOM     16  C   UNL A   1      34.456  24.014  25.885  1.00  0.00     0.025 C 
ATOM     17  O   UNL A   1      33.718  23.916  23.147  1.00  0.00    -0.475 OA
ATOM     18  C   UNL A   1      33.616  22.723  23.961  1.00  0.00     0.314 C 
BRANCH  18  19
ATOM     19  C   UNL A   1      32.144  22.274  24.031  1.00  0.00     0.429 C 
ATOM     20  F   UNL A   1      31.415  22.902  23.073  1.00  0.00    -0.167 F 
ATOM     21  F   UNL A   1      31.993  20.945  23.815  1.00  0.00    -0.167 F 
ATOM     22  F   UNL A   1      31.566  22.542  25.222  1.00  0.00    -0.167 F 
ENDBRANCH  18  19
ENDBRANCH   4   7
ENDBRANCH   2   3
ENDBRANCH   1   2
BRANCH   1  23
ATOM     23  C   UNL A   1      38.913  20.267  25.760  1.00  0.00     0.118 C 
BRANCH  23  24
ATOM     24  N   UNL A   1      40.027  19.330  25.895  1.00  0.00    -0.352 N 
ATOM     25  C   UNL A   1      41.360  19.565  26.105  1.00  0.00     0.251 C 
ATOM     26  H   UNL A   1      39.780  18.379  25.822  1.00  0.00     0.163 HD
ATOM     27  O   UNL A   1      42.181  18.673  25.899  1.00  0.00    -0.269 OA
BRANCH  25  28
ATOM     28  C   UNL A   1      41.808  20.887  26.579  1.00  0.00     0.039 A 
ATOM     29  C   UNL A   1      42.206  21.851  25.651  1.00  0.00     0.014 A 
ATOM     30  C   UNL A   1      41.857  21.160  27.948  1.00  0.00     0.014 A 
ATOM     31  C   UNL A   1      42.592  23.114  26.099  1.00  0.00     0.010 A 
ATOM     32  C   UNL A   1      42.138  22.445  28.384  1.00  0.00     0.010 A 
ATOM     33  C   UNL A   1      42.529  23.429  27.468  1.00  0.00    -0.014 A 
BRANCH  33  34
ATOM     34  C   UNL A   1      42.903  24.770  27.970  1.00  0.00     0.031 A 
ATOM     35  C   UNL A   1      41.837  25.810  28.179  1.00  0.00     0.074 A 
ATOM     36  C   UNL A   1      44.199  25.064  28.185  1.00  0.00     0.049 A 
ATOM     37  N   UNL A   1      41.966  27.056  28.556  1.00  0.00    -0.248 NA
ATOM     38  C   UNL A   1      40.446  25.408  27.906  1.00  0.00     0.031 C 
ATOM     39  C   UNL A   1      45.323  24.145  27.983  1.00  0.00     0.029 A 
ATOM     40  N   UNL A   1      44.791  26.221  28.622  1.00  0.00    -0.354 N 
ATOM     41  C   UNL A   1      40.681  27.583  28.554  1.00  0.00     0.074 A 
ATOM     42  C   UNL A   1      39.793  26.548  28.078  1.00  0.00     0.031 C 
ATOM     43  C   UNL A   1      46.462  24.760  28.338  1.00  0.00     0.029 A 
ATOM     44  C   UNL A   1      46.157  26.128  28.746  1.00  0.00     0.049 A 
ATOM     45  H   UNL A   1      44.286  27.040  28.828  1.00  0.00     0.167 HD
ATOM     46  C   UNL A   1      40.272  28.812  28.944  1.00  0.00     0.031 A 
ATOM     47  C   UNL A   1      47.060  27.043  29.145  1.00  0.00     0.031 A 
ATOM     48  C   UNL A   1      41.157  29.830  29.437  1.00  0.00     0.049 A 
ATOM     49  C   UNL A   1      46.581  28.411  29.545  1.00  0.00     0.074 A 
ATOM     50  C   UNL A   1      40.836  31.093  29.902  1.00  0.00     0.029 A 
ATOM     51  N   UNL A   1      42.532  29.701  29.535  1.00  0.00    -0.354 N 
ATOM     52  N   UNL A   1      45.355  28.875  29.591  1.00  0.00    -0.248 NA
ATOM     53  C   UNL A   1      47.608  29.379  29.955  1.00  0.00     0.031 C 
ATOM     54  C   UNL A   1      42.025  31.748  30.230  1.00  0.00     0.029 A 
ATOM     55  C   UNL A   1      43.080  30.871  30.028  1.00  0.00     0.049 A 
ATOM     56  H   UNL A   1      43.044  28.896  29.289  1.00  0.00     0.167 HD
ATOM     57  C   UNL A   1      45.461  30.180  30.056  1.00  0.00     0.074 A 
ATOM     58  C   UNL A   1      46.868  30.425  30.297  1.00  0.00     0.031 C 
ATOM     59  C   UNL A   1      44.483  31.093  30.263  1.00  0.00     0.031 A 
BRANCH  46  60
ATOM     60  C   UNL A   1      38.804  29.118  28.873  1.00  0.00    -0.014 A 
ATOM     61  C   UNL A   1      37.982  28.984  30.003  1.00  0.00     0.009 A 
ATOM     62  C   UNL A   1      38.248  29.615  27.684  1.00  0.00     0.009 A 
ATOM     63  C   UNL A   1      36.629  29.322  29.940  1.00  0.00     0.001 A 
ATOM     64  C   UNL A   1      36.901  29.980  27.632  1.00  0.00     0.001 A 
ATOM     65  C   UNL A   1      36.092  29.830  28.757  1.00  0.00     0.000 A 
ENDBRANCH  46  60
BRANCH  47  66
ATOM     66  C   UNL A   1      48.502  26.688  29.211  1.00  0.00    -0.014 A 
ATOM     67  C   UNL A   1      49.035  26.089  30.363  1.00  0.00     0.009 A 
ATOM     68  C   UNL A   1      49.353  26.935  28.122  1.00  0.00     0.009 A 
ATOM     69  C   UNL A   1      50.392  25.767  30.433  1.00  0.00     0.001 A 
ATOM     70  C   UNL A   1      50.704  26.584  28.182  1.00  0.00     0.001 A 
ATOM     71  C   UNL A   1      51.224  26.009  29.340  1.00  0.00     0.000 A 
ENDBRANCH  47  66
BRANCH  59  72
ATOM     72  C   UNL A   1      44.888  32.439  30.792  1.00  0.00    -0.014 A 
ATOM     73  C   UNL A   1      45.159  33.506  29.924  1.00  0.00     0.009 A 
ATOM     74  C   UNL A   1      44.910  32.662  32.179  1.00  0.00     0.009 A 
ATOM     75  C   UNL A   1      45.465  34.769  30.435  1.00  0.00     0.001 A 
ATOM     76  C   UNL A   1      45.184  33.932  32.686  1.00  0.00     0.001 A 
ATOM     77  C   UNL A   1      45.468  34.983  31.814  1.00  0.00     0.000 A 
ENDBRANCH  59  72
ENDBRANCH  33  34
ENDBRANCH  25  28
ENDBRANCH  23  24
ENDBRANCH   1  23
TORSDOF 11
ENDMDL
MODEL 3
REMARK VINA RESULT:     -11.5      2.084      7.323
REMARK SMILES Cc1cc(C)c2c(c1)C=C(C(=O)NCCCNC(=O)c1ccc(-c3c4nc(c(-c5ccccc5)c5ccc([nH]5)c(-c5ccccc5)c5nc(c(-c6ccccc6)c6ccc3[nH]6)C=C5)C=C4)cc1)[C@@H](C(F)(F)F)O2
REMARK SMILES IDX 15 1 14 2 13 3 11 4 12 5 10 7 1 8 2 9 3 10 8 11 4 12 7 13
REMARK SMILES IDX 5 14 6 15 9 16 73 17 68 18 69 19 70 20 71 21 72 22 16 23
REMARK SMILES IDX 17 24 18 25 19 27 20 28 21 29 67 30 22 31 66 32 23 33 24 34
REMARK SMILES IDX 25 35 60 36 26 37 65 38 59 39 61 40 27 41 64 42 58 43 57 44
REMARK SMILES IDX 28 46 50 47 35 48 49 49 36 50 39 51 48 52 62 53 37 54 38 55
REMARK SMILES IDX 47 57 63 58 40 59 29 60 30 61 34 62 31 63 33 64 32 65 51 66
REMARK SMILES IDX 52 67 56 68 53 69 55 70 54 71 41 72 42 73 46 74 43 75 45 76
REMARK SMILES IDX 44 77
REMARK H PARENT 13 6 17 26 61 45 39 56
REMARK Flexibility Score: inf
ROOT
ATOM      1  C   UNL A   1      37.506  19.521  25.004  1.00  0.00     0.042 C 
ENDROOT
BRANCH   1   2
ATOM      2  C   UNL A   1      36.382  20.491  24.676  1.00  0.00     0.118 C 
BRANCH   2   3
ATOM      3  N   UNL A   1      35.507  20.712  25.818  1.00  0.00    -0.352 N 
ATOM      4  C   UNL A   1      34.591  21.630  26.203  1.00  0.00     0.251 C 
ATOM      5  O   UNL A   1      34.064  21.419  27.300  1.00  0.00    -0.270 OA
ATOM      6  H   UNL A   1      35.609  20.001  26.492  1.00  0.00     0.163 HD
BRANCH   4   7
ATOM      7  C   UNL A   1      34.204  22.832  25.413  1.00  0.00     0.067 C 
ATOM      8  C   UNL A   1      33.631  28.971  25.881  1.00  0.00     0.044 C 
ATOM      9  C   UNL A   1      33.627  27.632  25.206  1.00  0.00    -0.050 A 
ATOM     10  C   UNL A   1      33.348  27.532  23.836  1.00  0.00     0.010 A 
ATOM     11  C   UNL A   1      33.965  26.477  25.927  1.00  0.00     0.015 A 
ATOM     12  C   UNL A   1      33.385  26.295  23.184  1.00  0.00    -0.008 A 
ATOM     13  C   UNL A   1      34.001  25.234  25.291  1.00  0.00     0.018 A 
ATOM     14  C   UNL A   1      33.073  26.186  21.720  1.00  0.00     0.048 C 
ATOM     15  C   UNL A   1      33.710  25.154  23.927  1.00  0.00     0.130 A 
ATOM     16  C   UNL A   1      34.377  24.024  26.015  1.00  0.00     0.025 C 
ATOM     17  O   UNL A   1      33.780  23.974  23.241  1.00  0.00    -0.475 OA
ATOM     18  C   UNL A   1      33.626  22.770  24.030  1.00  0.00     0.314 C 
BRANCH  18  19
ATOM     19  C   UNL A   1      32.148  22.335  24.017  1.00  0.00     0.429 C 
ATOM     20  F   UNL A   1      32.056  20.988  23.877  1.00  0.00    -0.167 F 
ATOM     21  F   UNL A   1      31.504  22.642  25.170  1.00  0.00    -0.167 F 
ATOM     22  F   UNL A   1      31.439  22.898  23.015  1.00  0.00    -0.167 F 
ENDBRANCH  18  19
ENDBRANCH   4   7
ENDBRANCH   2   3
ENDBRANCH   1   2
BRANCH   1  23
ATOM     23  C   UNL A   1      38.768  20.244  25.450  1.00  0.00     0.118 C 
BRANCH  23  24
ATOM     24  N   UNL A   1      39.864  19.311  25.703  1.00  0.00    -0.352 N 
ATOM     25  C   UNL A   1      41.166  19.551  26.057  1.00  0.00     0.251 C 
ATOM     26  H   UNL A   1      39.631  18.359  25.604  1.00  0.00     0.163 HD
ATOM     27  O   UNL A   1      42.008  18.663  25.940  1.00  0.00    -0.269 OA
BRANCH  25  28
ATOM     28  C   UNL A   1      41.554  20.874  26.578  1.00  0.00     0.039 A 
ATOM     29  C   UNL A   1      42.088  21.826  25.707  1.00  0.00     0.014 A 
ATOM     30  C   UNL A   1      41.412  21.160  27.937  1.00  0.00     0.014 A 
ATOM     31  C   UNL A   1      42.419  23.090  26.194  1.00  0.00     0.010 A 
ATOM     32  C   UNL A   1      41.641  22.447  28.398  1.00  0.00     0.010 A 
ATOM     33  C   UNL A   1      42.166  23.419  27.537  1.00  0.00    -0.014 A 
BRANCH  33  34
ATOM     34  C   UNL A   1      42.478  24.762  28.075  1.00  0.00     0.031 A 
ATOM     35  C   UNL A   1      43.886  25.090  28.487  1.00  0.00     0.074 A 
ATOM     36  C   UNL A   1      41.488  25.659  28.242  1.00  0.00     0.049 A 
ATOM     37  N   UNL A   1      44.350  26.185  29.032  1.00  0.00    -0.248 NA
ATOM     38  C   UNL A   1      44.904  24.044  28.283  1.00  0.00     0.031 C 
ATOM     39  C   UNL A   1      40.077  25.440  27.910  1.00  0.00     0.029 A 
ATOM     40  N   UNL A   1      41.517  26.940  28.732  1.00  0.00    -0.354 N 
ATOM     41  C   UNL A   1      45.703  25.953  29.244  1.00  0.00     0.074 A 
ATOM     42  C   UNL A   1      45.977  24.597  28.831  1.00  0.00     0.031 C 
ATOM     43  C   UNL A   1      39.387  26.562  28.165  1.00  0.00     0.029 A 
ATOM     44  C   UNL A   1      40.292  27.563  28.721  1.00  0.00     0.049 A 
ATOM     45  H   UNL A   1      42.338  27.372  29.060  1.00  0.00     0.167 HD
ATOM     46  C   UNL A   1      46.642  26.808  29.712  1.00  0.00     0.031 A 
ATOM     47  C   UNL A   1      39.940  28.800  29.115  1.00  0.00     0.031 A 
ATOM     48  C   UNL A   1      46.369  28.163  30.100  1.00  0.00     0.049 A 
ATOM     49  C   UNL A   1      40.999  29.719  29.659  1.00  0.00     0.074 A 
ATOM     50  C   UNL A   1      47.259  29.124  30.543  1.00  0.00     0.029 A 
ATOM     51  N   UNL A   1      45.114  28.750  30.086  1.00  0.00    -0.354 N 
ATOM     52  N   UNL A   1      42.285  29.504  29.799  1.00  0.00    -0.248 NA
ATOM     53  C   UNL A   1      40.560  31.054  30.091  1.00  0.00     0.031 C 
ATOM     54  C   UNL A   1      46.534  30.277  30.850  1.00  0.00     0.029 A 
ATOM     55  C   UNL A   1      45.201  30.054  30.539  1.00  0.00     0.049 A 
ATOM     56  H   UNL A   1      44.284  28.305  29.798  1.00  0.00     0.167 HD
ATOM     57  C   UNL A   1      42.812  30.681  30.314  1.00  0.00     0.074 A 
ATOM     58  C   UNL A   1      41.711  31.613  30.441  1.00  0.00     0.031 C 
ATOM     59  C   UNL A   1      44.092  30.965  30.654  1.00  0.00     0.031 A 
BRANCH  46  60
ATOM     60  C   UNL A   1      48.055  26.310  29.812  1.00  0.00    -0.014 A 
ATOM     61  C   UNL A   1      48.938  26.419  28.725  1.00  0.00     0.009 A 
ATOM     62  C   UNL A   1      48.532  25.791  31.025  1.00  0.00     0.009 A 
ATOM     63  C   UNL A   1      50.265  26.002  28.847  1.00  0.00     0.001 A 
ATOM     64  C   UNL A   1      49.867  25.403  31.153  1.00  0.00     0.001 A 
ATOM     65  C   UNL A   1      50.731  25.503  30.063  1.00  0.00     0.000 A 
ENDBRANCH  46  60
BRANCH  47  66
ATOM     66  C   UNL A   1      38.530  29.252  28.984  1.00  0.00    -0.014 A 
ATOM     67  C   UNL A   1      37.657  29.183  30.081  1.00  0.00     0.009 A 
ATOM     68  C   UNL A   1      38.049  29.763  27.768  1.00  0.00     0.009 A 
ATOM     69  C   UNL A   1      36.328  29.593  29.957  1.00  0.00     0.001 A 
ATOM     70  C   UNL A   1      36.728  30.202  27.655  1.00  0.00     0.001 A 
ATOM     71  C   UNL A   1      35.866  30.108  28.746  1.00  0.00     0.000 A 
ENDBRANCH  47  66
BRANCH  59  72
ATOM     72  C   UNL A   1      44.384  32.341  31.179  1.00  0.00    -0.014 A 
ATOM     73  C   UNL A   1      44.677  33.401  30.308  1.00  0.00     0.009 A 
ATOM     74  C   UNL A   1      44.277  32.597  32.556  1.00  0.00     0.009 A 
ATOM     75  C   UNL A   1      44.876  34.689  30.808  1.00  0.00     0.001 A 
ATOM     76  C   UNL A   1      44.445  33.891  33.049  1.00  0.00     0.001 A 
ATOM     77  C   UNL A   1      44.751  34.934  32.176  1.00  0.00     0.000 A 
ENDBRANCH  59  72
ENDBRANCH  33  34
ENDBRANCH  25  28
ENDBRANCH  23  24
ENDBRANCH   1  23
TORSDOF 11
ENDMDL
