MODEL 1
REMARK VINA RESULT:     -12.1      0.000      0.000
REMARK SMILES CCOC(=O)c1c(NC(=O)c2ncccc2C(=O)NCCCNC(=O)c2ccc(-c3c4nc(c(-c5ccccc5)c5ccc([nH]5)c(-c5ccccc5)c5nc(c(-c6ccccc6)c6ccc3[nH]6)C=C5)C=C4)cc2)sc2c1CC[C@H](C)C2
REMARK SMILES IDX 17 1 18 2 19 3 16 5 11 6 12 7 13 8 15 9 14 10 9 11 8 12
REMARK SMILES IDX 10 14 7 15 6 16 76 17 74 18 75 19 77 20 81 21 78 22 79 23
REMARK SMILES IDX 80 24 4 25 5 26 3 27 2 28 1 29 20 30 21 31 22 32 23 33 24 34
REMARK SMILES IDX 25 36 26 37 27 38 73 39 28 40 72 41 29 42 30 43 31 44 66 45
REMARK SMILES IDX 32 46 71 47 65 48 67 49 33 50 70 51 64 52 63 53 34 55 56 56
REMARK SMILES IDX 41 57 55 58 42 59 45 60 54 61 68 62 43 63 44 64 53 66 69 67
REMARK SMILES IDX 46 68 35 69 36 70 40 71 37 72 39 73 38 74 57 75 58 76 62 77
REMARK SMILES IDX 59 78 61 79 60 80 47 81 48 82 52 83 49 84 51 85 50 86
REMARK H PARENT 19 4 8 13 23 35 67 54 45 65
REMARK Flexibility Score: inf
ROOT
ATOM      1  C   UNL A   1      32.727  29.000  24.261  1.00  0.00     0.253 C 
ATOM      2  O   UNL A   1      33.568  28.800  23.389  1.00  0.00    -0.269 OA
ATOM      3  N   UNL A   1      32.948  30.027  25.152  1.00  0.00    -0.352 N 
ATOM      4  H   UNL A   1      33.795  30.505  25.006  1.00  0.00     0.163 HD
ENDROOT
BRANCH   1   5
ATOM      5  C   UNL A   1      31.516  28.154  24.312  1.00  0.00     0.071 A 
ATOM      6  C   UNL A   1      31.371  27.113  25.227  1.00  0.00     0.141 A 
ATOM      7  N   UNL A   1      30.287  26.272  25.238  1.00  0.00    -0.250 NA
ATOM      8  C   UNL A   1      29.335  26.457  24.305  1.00  0.00     0.112 A 
ATOM      9  C   UNL A   1      30.508  28.293  23.348  1.00  0.00     0.018 A 
ATOM     10  C   UNL A   1      29.392  27.457  23.359  1.00  0.00     0.021 A 
BRANCH   6  11
ATOM     11  C   UNL A   1      32.433  26.658  26.154  1.00  0.00     0.275 C 
ATOM     12  N   UNL A   1      33.042  25.437  26.111  1.00  0.00    -0.311 N 
ATOM     13  H   UNL A   1      33.667  25.303  26.861  1.00  0.00     0.171 HD
ATOM     14  O   UNL A   1      32.783  27.436  27.050  1.00  0.00    -0.267 OA
BRANCH  12  15
ATOM     15  C   UNL A   1      32.992  24.355  25.276  1.00  0.00     0.110 A 
ATOM     16  C   UNL A   1      32.951  24.057  23.923  1.00  0.00     0.098 A 
ATOM     17  C   UNL A   1      32.734  22.626  23.737  1.00  0.00    -0.017 A 
ATOM     18  S   UNL A   1      32.965  22.959  26.263  1.00  0.00    -0.122 S 
ATOM     19  C   UNL A   1      32.701  21.950  24.941  1.00  0.00     0.011 A 
ATOM     20  C   UNL A   1      32.623  21.868  22.437  1.00  0.00     0.038 C 
ATOM     21  C   UNL A   1      32.463  20.488  25.129  1.00  0.00     0.050 C 
ATOM     22  C   UNL A   1      32.010  20.464  22.646  1.00  0.00     0.008 C 
ATOM     23  C   UNL A   1      32.716  19.736  23.810  1.00  0.00    -0.009 C 
ATOM     24  C   UNL A   1      32.279  18.284  23.958  1.00  0.00     0.008 C 
BRANCH  16  25
ATOM     25  C   UNL A   1      33.103  25.004  22.833  1.00  0.00     0.341 C 
ATOM     26  O   UNL A   1      34.161  25.598  22.619  1.00  0.00    -0.246 OA
BRANCH  25  27
ATOM     27  O   UNL A   1      31.964  25.186  22.119  1.00  0.00    -0.462 OA
BRANCH  27  28
ATOM     28  C   UNL A   1      32.031  26.047  20.968  1.00  0.00     0.230 C 
ATOM     29  C   UNL A   1      32.425  25.361  19.671  1.00  0.00     0.049 C 
ENDBRANCH  27  28
ENDBRANCH  25  27
ENDBRANCH  16  25
ENDBRANCH  12  15
ENDBRANCH   6  11
ENDBRANCH   1   5
BRANCH   3  30
ATOM     30  C   UNL A   1      32.163  30.542  26.272  1.00  0.00     0.118 C 
BRANCH  30  31
ATOM     31  C   UNL A   1      32.731  31.805  26.911  1.00  0.00     0.042 C 
BRANCH  31  32
ATOM     32  C   UNL A   1      34.021  31.607  27.675  1.00  0.00     0.118 C 
BRANCH  32  33
ATOM     33  N   UNL A   1      34.103  32.381  28.906  1.00  0.00    -0.352 N 
ATOM     34  C   UNL A   1      34.994  32.209  29.946  1.00  0.00     0.251 C 
ATOM     35  H   UNL A   1      33.450  33.111  29.008  1.00  0.00     0.163 HD
ATOM     36  O   UNL A   1      34.787  32.723  31.039  1.00  0.00    -0.269 OA
BRANCH  34  37
ATOM     37  C   UNL A   1      36.188  31.365  29.735  1.00  0.00     0.039 A 
ATOM     38  C   UNL A   1      37.390  31.937  29.313  1.00  0.00     0.014 A 
ATOM     39  C   UNL A   1      36.113  29.997  29.996  1.00  0.00     0.014 A 
ATOM     40  C   UNL A   1      38.528  31.137  29.240  1.00  0.00     0.010 A 
ATOM     41  C   UNL A   1      37.261  29.240  30.056  1.00  0.00     0.010 A 
ATOM     42  C   UNL A   1      38.467  29.791  29.644  1.00  0.00    -0.014 A 
BRANCH  42  43
ATOM     43  C   UNL A   1      39.696  29.007  29.740  1.00  0.00     0.031 A 
ATOM     44  C   UNL A   1      40.073  28.589  31.120  1.00  0.00     0.074 A 
ATOM     45  C   UNL A   1      40.378  28.522  28.679  1.00  0.00     0.049 A 
ATOM     46  N   UNL A   1      41.145  28.893  31.772  1.00  0.00    -0.248 NA
ATOM     47  C   UNL A   1      39.109  27.805  31.905  1.00  0.00     0.031 C 
ATOM     48  C   UNL A   1      40.017  28.561  27.257  1.00  0.00     0.029 A 
ATOM     49  N   UNL A   1      41.527  27.789  28.674  1.00  0.00    -0.354 N 
ATOM     50  C   UNL A   1      41.080  28.213  32.986  1.00  0.00     0.074 A 
ATOM     51  C   UNL A   1      39.769  27.618  33.049  1.00  0.00     0.031 C 
ATOM     52  C   UNL A   1      40.798  27.700  26.565  1.00  0.00     0.029 A 
ATOM     53  C   UNL A   1      41.826  27.194  27.455  1.00  0.00     0.049 A 
ATOM     54  H   UNL A   1      42.099  27.690  29.470  1.00  0.00     0.167 HD
ATOM     55  C   UNL A   1      42.186  28.055  33.763  1.00  0.00     0.031 A 
ATOM     56  C   UNL A   1      42.846  26.343  27.191  1.00  0.00     0.031 A 
ATOM     57  C   UNL A   1      43.220  28.989  33.403  1.00  0.00     0.049 A 
ATOM     58  C   UNL A   1      43.863  26.531  28.248  1.00  0.00     0.074 A 
ATOM     59  C   UNL A   1      43.307  30.367  33.360  1.00  0.00     0.029 A 
ATOM     60  N   UNL A   1      44.247  28.524  32.618  1.00  0.00    -0.354 N 
ATOM     61  N   UNL A   1      44.579  27.610  28.369  1.00  0.00    -0.248 NA
ATOM     62  C   UNL A   1      43.804  25.682  29.425  1.00  0.00     0.031 C 
ATOM     63  C   UNL A   1      44.043  30.648  32.171  1.00  0.00     0.029 A 
ATOM     64  C   UNL A   1      44.427  29.429  31.606  1.00  0.00     0.049 A 
ATOM     65  H   UNL A   1      44.757  27.693  32.756  1.00  0.00     0.167 HD
ATOM     66  C   UNL A   1      44.679  27.810  29.736  1.00  0.00     0.074 A 
ATOM     67  C   UNL A   1      44.290  26.533  30.332  1.00  0.00     0.031 C 
ATOM     68  C   UNL A   1      44.797  29.068  30.256  1.00  0.00     0.031 A 
BRANCH  55  69
ATOM     69  C   UNL A   1      42.484  26.810  34.563  1.00  0.00    -0.014 A 
ATOM     70  C   UNL A   1      43.431  25.899  34.054  1.00  0.00     0.009 A 
ATOM     71  C   UNL A   1      41.665  26.352  35.610  1.00  0.00     0.009 A 
ATOM     72  C   UNL A   1      43.477  24.572  34.493  1.00  0.00     0.001 A 
ATOM     73  C   UNL A   1      41.738  25.037  36.081  1.00  0.00     0.001 A 
ATOM     74  C   UNL A   1      42.620  24.137  35.497  1.00  0.00     0.000 A 
ENDBRANCH  55  69
BRANCH  56  75
ATOM     75  C   UNL A   1      42.942  25.248  26.205  1.00  0.00    -0.014 A 
ATOM     76  C   UNL A   1      44.036  25.171  25.328  1.00  0.00     0.009 A 
ATOM     77  C   UNL A   1      42.111  24.120  26.321  1.00  0.00     0.009 A 
ATOM     78  C   UNL A   1      44.320  23.987  24.634  1.00  0.00     0.001 A 
ATOM     79  C   UNL A   1      42.393  22.939  25.626  1.00  0.00     0.001 A 
ATOM     80  C   UNL A   1      43.509  22.867  24.798  1.00  0.00     0.000 A 
ENDBRANCH  56  75
BRANCH  68  81
ATOM     81  C   UNL A   1      45.077  30.209  29.308  1.00  0.00    -0.014 A 
ATOM     82  C   UNL A   1      46.372  30.667  29.009  1.00  0.00     0.009 A 
ATOM     83  C   UNL A   1      44.001  30.738  28.578  1.00  0.00     0.009 A 
ATOM     84  C   UNL A   1      46.577  31.650  28.033  1.00  0.00     0.001 A 
ATOM     85  C   UNL A   1      44.208  31.699  27.586  1.00  0.00     0.001 A 
ATOM     86  C   UNL A   1      45.495  32.161  27.320  1.00  0.00     0.000 A 
ENDBRANCH  68  81
ENDBRANCH  42  43
ENDBRANCH  34  37
ENDBRANCH  32  33
ENDBRANCH  31  32
ENDBRANCH  30  31
ENDBRANCH   3  30
TORSDOF 15
ENDMDL
MODEL 2
REMARK VINA RESULT:     -12.0      2.609      7.994
REMARK SMILES CCOC(=O)c1c(NC(=O)c2ncccc2C(=O)NCCCNC(=O)c2ccc(-c3c4nc(c(-c5ccccc5)c5ccc([nH]5)c(-c5ccccc5)c5nc(c(-c6ccccc6)c6ccc3[nH]6)C=C5)C=C4)cc2)sc2c1CC[C@H](C)C2
REMARK SMILES IDX 17 1 18 2 19 3 16 5 11 6 12 7 13 8 15 9 14 10 9 11 8 12
REMARK SMILES IDX 10 14 7 15 6 16 76 17 74 18 75 19 77 20 81 21 78 22 79 23
REMARK SMILES IDX 80 24 4 25 5 26 3 27 2 28 1 29 20 30 21 31 22 32 23 33 24 34
REMARK SMILES IDX 25 36 26 37 27 38 73 39 28 40 72 41 29 42 30 43 31 44 66 45
REMARK SMILES IDX 32 46 71 47 65 48 67 49 33 50 70 51 64 52 63 53 34 55 56 56
REMARK SMILES IDX 41 57 55 58 42 59 45 60 54 61 68 62 43 63 44 64 53 66 69 67
REMARK SMILES IDX 46 68 35 69 36 70 40 71 37 72 39 73 38 74 57 75 58 76 62 77
REMARK SMILES IDX 59 78 61 79 60 80 47 81 48 82 52 83 49 84 51 85 50 86
REMARK H PARENT 19 4 8 13 23 35 67 54 45 65
REMARK Flexibility Score: inf
ROOT
ATOM      1  C   UNL A   1      34.406  21.981  26.081  1.00  0.00     0.253 C 
ATOM      2  O   UNL A   1      33.795  22.390  27.064  1.00  0.00    -0.269 OA
ATOM      3  N   UNL A   1      35.616  21.354  26.284  1.00  0.00    -0.352 N 
ATOM      4  H   UNL A   1      35.888  21.310  27.229  1.00  0.00     0.163 HD
ENDROOT
BRANCH   1   5
ATOM      5  C   UNL A   1      33.822  22.157  24.735  1.00  0.00     0.071 A 
ATOM      6  C   UNL A   1      34.096  23.269  23.942  1.00  0.00     0.141 A 
ATOM      7  N   UNL A   1      33.504  23.484  22.723  1.00  0.00    -0.250 NA
ATOM      8  C   UNL A   1      32.602  22.583  22.292  1.00  0.00     0.112 A 
ATOM      9  C   UNL A   1      32.860  21.258  24.252  1.00  0.00     0.018 A 
ATOM     10  C   UNL A   1      32.264  21.455  23.008  1.00  0.00     0.021 A 
BRANCH   6  11
ATOM     11  C   UNL A   1      34.887  24.440  24.386  1.00  0.00     0.275 C 
ATOM     12  N   UNL A   1      34.419  25.720  24.467  1.00  0.00    -0.311 N 
ATOM     13  H   UNL A   1      35.123  26.363  24.712  1.00  0.00     0.171 HD
ATOM     14  O   UNL A   1      36.072  24.249  24.688  1.00  0.00    -0.267 OA
BRANCH  12  15
ATOM     15  C   UNL A   1      33.204  26.322  24.291  1.00  0.00     0.110 A 
ATOM     16  C   UNL A   1      31.882  26.185  24.683  1.00  0.00     0.098 A 
ATOM     17  C   UNL A   1      31.046  27.131  23.951  1.00  0.00    -0.017 A 
ATOM     18  S   UNL A   1      33.448  27.650  23.242  1.00  0.00    -0.122 S 
ATOM     19  C   UNL A   1      31.796  27.949  23.129  1.00  0.00     0.011 A 
ATOM     20  C   UNL A   1      29.554  27.326  24.061  1.00  0.00     0.038 C 
ATOM     21  C   UNL A   1      31.269  29.004  22.212  1.00  0.00     0.050 C 
ATOM     22  C   UNL A   1      28.993  28.127  22.864  1.00  0.00     0.008 C 
ATOM     23  C   UNL A   1      29.839  29.397  22.623  1.00  0.00    -0.009 C 
ATOM     24  C   UNL A   1      29.240  30.320  21.569  1.00  0.00     0.008 C 
BRANCH  16  25
ATOM     25  C   UNL A   1      31.376  25.251  25.674  1.00  0.00     0.341 C 
ATOM     26  O   UNL A   1      30.860  24.177  25.363  1.00  0.00    -0.246 OA
BRANCH  25  27
ATOM     27  O   UNL A   1      31.498  25.702  26.948  1.00  0.00    -0.462 OA
BRANCH  27  28
ATOM     28  C   UNL A   1      30.972  27.008  27.244  1.00  0.00     0.230 C 
ATOM     29  C   UNL A   1      32.014  28.067  27.555  1.00  0.00     0.049 C 
ENDBRANCH  27  28
ENDBRANCH  25  27
ENDBRANCH  16  25
ENDBRANCH  12  15
ENDBRANCH   6  11
ENDBRANCH   1   5
BRANCH   3  30
ATOM     30  C   UNL A   1      36.572  20.743  25.363  1.00  0.00     0.118 C 
BRANCH  30  31
ATOM     31  C   UNL A   1      37.734  21.649  24.969  1.00  0.00     0.042 C 
BRANCH  31  32
ATOM     32  C   UNL A   1      38.672  22.009  26.100  1.00  0.00     0.118 C 
BRANCH  32  33
ATOM     33  N   UNL A   1      40.073  21.725  25.819  1.00  0.00    -0.352 N 
ATOM     34  C   UNL A   1      41.152  22.566  26.006  1.00  0.00     0.251 C 
ATOM     35  H   UNL A   1      40.273  20.833  25.454  1.00  0.00     0.163 HD
ATOM     36  O   UNL A   1      42.229  22.328  25.472  1.00  0.00    -0.269 OA
BRANCH  34  37
ATOM     37  C   UNL A   1      40.982  23.777  26.834  1.00  0.00     0.039 A 
ATOM     38  C   UNL A   1      41.807  23.997  27.939  1.00  0.00     0.014 A 
ATOM     39  C   UNL A   1      40.014  24.716  26.480  1.00  0.00     0.014 A 
ATOM     40  C   UNL A   1      41.704  25.204  28.627  1.00  0.00     0.010 A 
ATOM     41  C   UNL A   1      40.006  25.959  27.071  1.00  0.00     0.010 A 
ATOM     42  C   UNL A   1      40.822  26.199  28.170  1.00  0.00    -0.014 A 
BRANCH  42  43
ATOM     43  C   UNL A   1      40.848  27.527  28.780  1.00  0.00     0.031 A 
ATOM     44  C   UNL A   1      41.817  28.483  28.173  1.00  0.00     0.074 A 
ATOM     45  C   UNL A   1      39.964  27.960  29.705  1.00  0.00     0.049 A 
ATOM     46  N   UNL A   1      42.820  29.060  28.745  1.00  0.00    -0.248 NA
ATOM     47  C   UNL A   1      41.711  28.773  26.736  1.00  0.00     0.031 C 
ATOM     48  C   UNL A   1      38.761  27.289  30.214  1.00  0.00     0.029 A 
ATOM     49  N   UNL A   1      39.914  29.172  30.327  1.00  0.00    -0.354 N 
ATOM     50  C   UNL A   1      43.381  29.914  27.798  1.00  0.00     0.074 A 
ATOM     51  C   UNL A   1      42.707  29.642  26.554  1.00  0.00     0.031 C 
ATOM     52  C   UNL A   1      37.992  28.179  30.882  1.00  0.00     0.029 A 
ATOM     53  C   UNL A   1      38.729  29.423  31.006  1.00  0.00     0.049 A 
ATOM     54  H   UNL A   1      40.658  29.816  30.297  1.00  0.00     0.167 HD
ATOM     55  C   UNL A   1      44.243  30.902  28.165  1.00  0.00     0.031 A 
ATOM     56  C   UNL A   1      38.372  30.572  31.629  1.00  0.00     0.031 A 
ATOM     57  C   UNL A   1      44.783  30.667  29.479  1.00  0.00     0.049 A 
ATOM     58  C   UNL A   1      39.613  31.331  31.898  1.00  0.00     0.074 A 
ATOM     59  C   UNL A   1      45.523  29.651  30.052  1.00  0.00     0.029 A 
ATOM     60  N   UNL A   1      44.230  31.366  30.524  1.00  0.00    -0.354 N 
ATOM     61  N   UNL A   1      40.512  30.951  32.759  1.00  0.00    -0.248 NA
ATOM     62  C   UNL A   1      40.056  32.305  30.917  1.00  0.00     0.031 C 
ATOM     63  C   UNL A   1      44.970  29.493  31.357  1.00  0.00     0.029 A 
ATOM     64  C   UNL A   1      43.985  30.468  31.528  1.00  0.00     0.049 A 
ATOM     65  H   UNL A   1      44.044  32.333  30.547  1.00  0.00     0.167 HD
ATOM     66  C   UNL A   1      41.721  31.274  32.165  1.00  0.00     0.074 A 
ATOM     67  C   UNL A   1      41.376  32.210  31.095  1.00  0.00     0.031 C 
ATOM     68  C   UNL A   1      42.845  30.541  32.415  1.00  0.00     0.031 A 
BRANCH  55  69
ATOM     69  C   UNL A   1      44.284  32.266  27.521  1.00  0.00    -0.014 A 
ATOM     70  C   UNL A   1      43.759  33.360  28.238  1.00  0.00     0.009 A 
ATOM     71  C   UNL A   1      44.524  32.465  26.150  1.00  0.00     0.009 A 
ATOM     72  C   UNL A   1      43.391  34.546  27.594  1.00  0.00     0.001 A 
ATOM     73  C   UNL A   1      44.196  33.665  25.511  1.00  0.00     0.001 A 
ATOM     74  C   UNL A   1      43.597  34.693  26.227  1.00  0.00     0.000 A 
ENDBRANCH  55  69
BRANCH  56  75
ATOM     75  C   UNL A   1      37.037  31.160  31.851  1.00  0.00    -0.014 A 
ATOM     76  C   UNL A   1      36.708  31.738  33.088  1.00  0.00     0.009 A 
ATOM     77  C   UNL A   1      36.188  31.415  30.760  1.00  0.00     0.009 A 
ATOM     78  C   UNL A   1      35.600  32.586  33.215  1.00  0.00     0.001 A 
ATOM     79  C   UNL A   1      35.080  32.260  30.887  1.00  0.00     0.001 A 
ATOM     80  C   UNL A   1      34.798  32.861  32.110  1.00  0.00     0.000 A 
ENDBRANCH  56  75
BRANCH  68  81
ATOM     81  C   UNL A   1      42.808  29.539  33.543  1.00  0.00    -0.014 A 
ATOM     82  C   UNL A   1      43.330  29.794  34.824  1.00  0.00     0.009 A 
ATOM     83  C   UNL A   1      42.084  28.352  33.348  1.00  0.00     0.009 A 
ATOM     84  C   UNL A   1      43.162  28.873  35.864  1.00  0.00     0.001 A 
ATOM     85  C   UNL A   1      41.893  27.446  34.393  1.00  0.00     0.001 A 
ATOM     86  C   UNL A   1      42.438  27.702  35.648  1.00  0.00     0.000 A 
ENDBRANCH  68  81
ENDBRANCH  42  43
ENDBRANCH  34  37
ENDBRANCH  32  33
ENDBRANCH  31  32
ENDBRANCH  30  31
ENDBRANCH   3  30
TORSDOF 15
ENDMDL
MODEL 3
REMARK VINA RESULT:     -11.8      2.683      5.775
REMARK SMILES CCOC(=O)c1c(NC(=O)c2ncccc2C(=O)NCCCNC(=O)c2ccc(-c3c4nc(c(-c5ccccc5)c5ccc([nH]5)c(-c5ccccc5)c5nc(c(-c6ccccc6)c6ccc3[nH]6)C=C5)C=C4)cc2)sc2c1CC[C@H](C)C2
REMARK SMILES IDX 17 1 18 2 19 3 16 5 11 6 12 7 13 8 15 9 14 10 9 11 8 12
REMARK SMILES IDX 10 14 7 15 6 16 76 17 74 18 75 19 77 20 81 21 78 22 79 23
REMARK SMILES IDX 80 24 4 25 5 26 3 27 2 28 1 29 20 30 21 31 22 32 23 33 24 34
REMARK SMILES IDX 25 36 26 37 27 38 73 39 28 40 72 41 29 42 30 43 31 44 66 45
REMARK SMILES IDX 32 46 71 47 65 48 67 49 33 50 70 51 64 52 63 53 34 55 56 56
REMARK SMILES IDX 41 57 55 58 42 59 45 60 54 61 68 62 43 63 44 64 53 66 69 67
REMARK SMILES IDX 46 68 35 69 36 70 40 71 37 72 39 73 38 74 57 75 58 76 62 77
REMARK SMILES IDX 59 78 61 79 60 80 47 81 48 82 52 83 49 84 51 85 50 86
REMARK H PARENT 19 4 8 13 23 35 67 54 45 65
REMARK Flexibility Score: inf
ROOT
ATOM      1  C   UNL A   1      33.494  28.458  26.066  1.00  0.00     0.253 C 
ATOM      2  O   UNL A   1      34.541  28.102  26.600  1.00  0.00    -0.269 OA
ATOM      3  N   UNL A   1      32.732  29.411  26.705  1.00  0.00    -0.352 N 
ATOM      4  H   UNL A   1      33.108  29.711  27.564  1.00  0.00     0.163 HD
ENDROOT
BRANCH   1   5
ATOM      5  C   UNL A   1      33.103  27.872  24.767  1.00  0.00     0.071 A 
ATOM      6  C   UNL A   1      32.203  26.812  24.667  1.00  0.00     0.141 A 
ATOM      7  N   UNL A   1      31.887  26.208  23.477  1.00  0.00    -0.250 NA
ATOM      8  C   UNL A   1      32.496  26.654  22.362  1.00  0.00     0.112 A 
ATOM      9  C   UNL A   1      33.725  28.286  23.582  1.00  0.00     0.018 A 
ATOM     10  C   UNL A   1      33.400  27.694  22.362  1.00  0.00     0.021 A 
BRANCH   6  11
ATOM     11  C   UNL A   1      31.638  26.081  25.825  1.00  0.00     0.275 C 
ATOM     12  N   UNL A   1      32.015  24.831  26.225  1.00  0.00    -0.311 N 
ATOM     13  H   UNL A   1      31.466  24.493  26.969  1.00  0.00     0.171 HD
ATOM     14  O   UNL A   1      30.739  26.636  26.470  1.00  0.00    -0.267 OA
BRANCH  12  15
ATOM     15  C   UNL A   1      32.974  23.936  25.838  1.00  0.00     0.110 A 
ATOM     16  C   UNL A   1      33.087  22.682  25.258  1.00  0.00     0.098 A 
ATOM     17  C   UNL A   1      34.479  22.244  25.289  1.00  0.00    -0.017 A 
ATOM     18  S   UNL A   1      34.490  24.627  26.221  1.00  0.00    -0.122 S 
ATOM     19  C   UNL A   1      35.311  23.215  25.814  1.00  0.00     0.011 A 
ATOM     20  C   UNL A   1      35.054  20.950  24.770  1.00  0.00     0.038 C 
ATOM     21  C   UNL A   1      36.784  23.095  26.028  1.00  0.00     0.050 C 
ATOM     22  C   UNL A   1      36.471  20.690  25.332  1.00  0.00     0.008 C 
ATOM     23  C   UNL A   1      37.352  21.948  25.174  1.00  0.00    -0.009 C 
ATOM     24  C   UNL A   1      38.809  21.705  25.549  1.00  0.00     0.008 C 
BRANCH  16  25
ATOM     25  C   UNL A   1      32.002  21.900  24.694  1.00  0.00     0.341 C 
ATOM     26  O   UNL A   1      31.566  20.886  25.241  1.00  0.00    -0.246 OA
BRANCH  25  27
ATOM     27  O   UNL A   1      31.558  22.379  23.504  1.00  0.00    -0.462 OA
BRANCH  27  28
ATOM     28  C   UNL A   1      32.331  22.067  22.331  1.00  0.00     0.230 C 
ATOM     29  C   UNL A   1      33.228  23.186  21.833  1.00  0.00     0.049 C 
ENDBRANCH  27  28
ENDBRANCH  25  27
ENDBRANCH  16  25
ENDBRANCH  12  15
ENDBRANCH   6  11
ENDBRANCH   1   5
BRANCH   3  30
ATOM     30  C   UNL A   1      31.473  30.062  26.350  1.00  0.00     0.118 C 
BRANCH  30  31
ATOM     31  C   UNL A   1      31.545  31.585  26.296  1.00  0.00     0.042 C 
BRANCH  31  32
ATOM     32  C   UNL A   1      32.521  32.211  27.267  1.00  0.00     0.118 C 
BRANCH  32  33
ATOM     33  N   UNL A   1      32.221  33.598  27.595  1.00  0.00    -0.352 N 
ATOM     34  C   UNL A   1      32.948  34.441  28.411  1.00  0.00     0.251 C 
ATOM     35  H   UNL A   1      31.409  33.977  27.190  1.00  0.00     0.163 HD
ATOM     36  O   UNL A   1      32.453  35.478  28.838  1.00  0.00    -0.269 OA
BRANCH  34  37
ATOM     37  C   UNL A   1      34.324  34.062  28.792  1.00  0.00     0.039 A 
ATOM     38  C   UNL A   1      34.581  33.508  30.047  1.00  0.00     0.014 A 
ATOM     39  C   UNL A   1      35.358  34.230  27.872  1.00  0.00     0.014 A 
ATOM     40  C   UNL A   1      35.865  33.049  30.332  1.00  0.00     0.010 A 
ATOM     41  C   UNL A   1      36.588  33.654  28.100  1.00  0.00     0.010 A 
ATOM     42  C   UNL A   1      36.861  33.095  29.342  1.00  0.00    -0.014 A 
BRANCH  42  43
ATOM     43  C   UNL A   1      38.151  32.448  29.580  1.00  0.00     0.031 A 
ATOM     44  C   UNL A   1      38.182  30.982  29.312  1.00  0.00     0.074 A 
ATOM     45  C   UNL A   1      39.298  33.108  29.851  1.00  0.00     0.049 A 
ATOM     46  N   UNL A   1      38.436  30.033  30.149  1.00  0.00    -0.248 NA
ATOM     47  C   UNL A   1      37.806  30.504  27.975  1.00  0.00     0.031 C 
ATOM     48  C   UNL A   1      39.547  34.555  29.861  1.00  0.00     0.029 A 
ATOM     49  N   UNL A   1      40.536  32.592  30.089  1.00  0.00    -0.354 N 
ATOM     50  C   UNL A   1      38.418  28.845  29.421  1.00  0.00     0.074 A 
ATOM     51  C   UNL A   1      37.949  29.184  28.101  1.00  0.00     0.031 C 
ATOM     52  C   UNL A   1      40.880  34.787  29.868  1.00  0.00     0.029 A 
ATOM     53  C   UNL A   1      41.567  33.522  30.048  1.00  0.00     0.049 A 
ATOM     54  H   UNL A   1      40.688  31.637  30.275  1.00  0.00     0.167 HD
ATOM     55  C   UNL A   1      38.962  27.703  29.925  1.00  0.00     0.031 A 
ATOM     56  C   UNL A   1      42.895  33.275  30.155  1.00  0.00     0.031 A 
ATOM     57  C   UNL A   1      39.130  27.786  31.352  1.00  0.00     0.049 A 
ATOM     58  C   UNL A   1      43.047  31.956  30.807  1.00  0.00     0.074 A 
ATOM     59  C   UNL A   1      38.272  27.984  32.417  1.00  0.00     0.029 A 
ATOM     60  N   UNL A   1      40.388  28.069  31.824  1.00  0.00    -0.354 N 
ATOM     61  N   UNL A   1      42.739  31.732  32.051  1.00  0.00    -0.248 NA
ATOM     62  C   UNL A   1      43.159  30.777  29.966  1.00  0.00     0.031 C 
ATOM     63  C   UNL A   1      38.986  28.848  33.300  1.00  0.00     0.029 A 
ATOM     64  C   UNL A   1      40.257  29.059  32.762  1.00  0.00     0.049 A 
ATOM     65  H   UNL A   1      41.229  27.640  31.542  1.00  0.00     0.167 HD
ATOM     66  C   UNL A   1      42.180  30.465  32.048  1.00  0.00     0.074 A 
ATOM     67  C   UNL A   1      42.575  29.882  30.767  1.00  0.00     0.031 C 
ATOM     68  C   UNL A   1      41.223  30.117  32.958  1.00  0.00     0.031 A 
BRANCH  55  69
ATOM     69  C   UNL A   1      39.707  26.687  29.094  1.00  0.00    -0.014 A 
ATOM     70  C   UNL A   1      40.910  27.081  28.476  1.00  0.00     0.009 A 
ATOM     71  C   UNL A   1      39.131  25.484  28.648  1.00  0.00     0.009 A 
ATOM     72  C   UNL A   1      41.444  26.369  27.397  1.00  0.00     0.001 A 
ATOM     73  C   UNL A   1      39.686  24.747  27.597  1.00  0.00     0.001 A 
ATOM     74  C   UNL A   1      40.824  25.209  26.948  1.00  0.00     0.000 A 
ENDBRANCH  55  69
BRANCH  56  75
ATOM     75  C   UNL A   1      44.046  33.996  29.579  1.00  0.00    -0.014 A 
ATOM     76  C   UNL A   1      45.264  34.067  30.275  1.00  0.00     0.009 A 
ATOM     77  C   UNL A   1      44.042  34.363  28.222  1.00  0.00     0.009 A 
ATOM     78  C   UNL A   1      46.447  34.439  29.621  1.00  0.00     0.001 A 
ATOM     79  C   UNL A   1      45.222  34.738  27.569  1.00  0.00     0.001 A 
ATOM     80  C   UNL A   1      46.427  34.756  28.265  1.00  0.00     0.000 A 
ENDBRANCH  56  75
BRANCH  68  81
ATOM     81  C   UNL A   1      40.974  31.045  34.123  1.00  0.00    -0.014 A 
ATOM     82  C   UNL A   1      40.051  32.106  34.085  1.00  0.00     0.009 A 
ATOM     83  C   UNL A   1      41.581  30.739  35.351  1.00  0.00     0.009 A 
ATOM     84  C   UNL A   1      39.776  32.857  35.232  1.00  0.00     0.001 A 
ATOM     85  C   UNL A   1      41.286  31.472  36.502  1.00  0.00     0.001 A 
ATOM     86  C   UNL A   1      40.389  32.536  36.441  1.00  0.00     0.000 A 
ENDBRANCH  68  81
ENDBRANCH  42  43
ENDBRANCH  34  37
ENDBRANCH  32  33
ENDBRANCH  31  32
ENDBRANCH  30  31
ENDBRANCH   3  30
TORSDOF 15
ENDMDL
