MODEL 1
REMARK VINA RESULT:     -11.2      0.000      0.000
REMARK SMILES O=C(NCCCNC(=O)C1(CC#Cc2ccccc2)CC1)c1ccc(-c2c3nc(c(-c4ccccc4)c4ccc([nH]4)c(-c4ccccc4)c4nc(c(-c5ccccc5)c5ccc2[nH]5)C=C4)C=C3)cc1
REMARK SMILES IDX 5 1 4 2 3 3 1 4 2 5 22 7 23 8 69 9 24 10 68 11 25 12 26 13
REMARK SMILES IDX 27 14 62 15 28 16 67 17 61 18 63 19 29 20 66 21 60 22 59 23
REMARK SMILES IDX 30 25 52 26 37 27 51 28 38 29 41 30 50 31 64 32 39 33 40 34
REMARK SMILES IDX 49 36 65 37 42 38 31 39 32 40 36 41 33 42 35 43 34 44 53 45
REMARK SMILES IDX 54 46 58 47 55 48 57 49 56 50 43 51 44 52 48 53 45 54 47 55
REMARK SMILES IDX 46 56 6 57 7 58 8 59 9 61 10 62 20 63 21 64 11 65 12 66
REMARK SMILES IDX 13 67 14 68 15 69 19 70 16 71 18 72 17 73
REMARK H PARENT 3 6 63 24 41 35 7 60
REMARK Flexibility Score: inf
ROOT
ATOM      1  C   UNL A   1      37.882  19.566  24.911  1.00  0.00     0.042 C 
ENDROOT
BRANCH   1   2
ATOM      2  C   UNL A   1      39.043  20.071  25.751  1.00  0.00     0.118 C 
BRANCH   2   3
ATOM      3  N   UNL A   1      40.120  19.091  25.839  1.00  0.00    -0.352 N 
ATOM      4  O   UNL A   1      42.260  18.379  25.785  1.00  0.00    -0.269 OA
ATOM      5  C   UNL A   1      41.468  19.295  25.981  1.00  0.00     0.251 C 
ATOM      6  H   UNL A   1      39.839  18.149  25.790  1.00  0.00     0.163 HD
BRANCH   5   7
ATOM      7  C   UNL A   1      41.952  20.633  26.365  1.00  0.00     0.039 A 
ATOM      8  C   UNL A   1      42.255  21.571  25.376  1.00  0.00     0.014 A 
ATOM      9  C   UNL A   1      42.097  20.952  27.716  1.00  0.00     0.014 A 
ATOM     10  C   UNL A   1      42.846  22.773  25.728  1.00  0.00     0.010 A 
ATOM     11  C   UNL A   1      42.581  22.210  28.073  1.00  0.00     0.010 A 
ATOM     12  C   UNL A   1      42.973  23.123  27.080  1.00  0.00    -0.014 A 
BRANCH  12  13
ATOM     13  C   UNL A   1      43.407  24.495  27.426  1.00  0.00     0.031 A 
ATOM     14  C   UNL A   1      42.425  25.538  27.868  1.00  0.00     0.074 A 
ATOM     15  C   UNL A   1      44.719  24.787  27.330  1.00  0.00     0.049 A 
ATOM     16  N   UNL A   1      42.646  26.789  28.182  1.00  0.00    -0.248 NA
ATOM     17  C   UNL A   1      41.014  25.134  27.964  1.00  0.00     0.031 C 
ATOM     18  C   UNL A   1      45.765  23.846  26.912  1.00  0.00     0.029 A 
ATOM     19  N   UNL A   1      45.403  25.946  27.585  1.00  0.00    -0.354 N 
ATOM     20  C   UNL A   1      41.406  27.329  28.492  1.00  0.00     0.074 A 
ATOM     21  C   UNL A   1      40.430  26.276  28.304  1.00  0.00     0.031 C 
ATOM     22  C   UNL A   1      46.958  24.453  26.979  1.00  0.00     0.029 A 
ATOM     23  C   UNL A   1      46.753  25.844  27.360  1.00  0.00     0.049 A 
ATOM     24  H   UNL A   1      44.968  26.772  27.901  1.00  0.00     0.167 HD
ATOM     25  C   UNL A   1      41.113  28.588  28.895  1.00  0.00     0.031 A 
ATOM     26  C   UNL A   1      47.721  26.775  27.413  1.00  0.00     0.031 A 
ATOM     27  C   UNL A   1      42.094  29.630  29.062  1.00  0.00     0.049 A 
ATOM     28  C   UNL A   1      47.353  28.178  27.791  1.00  0.00     0.074 A 
ATOM     29  C   UNL A   1      41.901  30.929  29.501  1.00  0.00     0.029 A 
ATOM     30  N   UNL A   1      43.445  29.500  28.781  1.00  0.00    -0.354 N 
ATOM     31  N   UNL A   1      46.182  28.659  28.134  1.00  0.00    -0.248 NA
ATOM     32  C   UNL A   1      48.437  29.167  27.792  1.00  0.00     0.031 C 
ATOM     33  C   UNL A   1      43.119  31.608  29.405  1.00  0.00     0.029 A 
ATOM     34  C   UNL A   1      44.090  30.709  28.992  1.00  0.00     0.049 A 
ATOM     35  H   UNL A   1      43.882  28.673  28.476  1.00  0.00     0.167 HD
ATOM     36  C   UNL A   1      46.395  30.001  28.418  1.00  0.00     0.074 A 
ATOM     37  C   UNL A   1      47.810  30.250  28.230  1.00  0.00     0.031 C 
ATOM     38  C   UNL A   1      45.499  30.942  28.798  1.00  0.00     0.031 A 
BRANCH  25  39
ATOM     39  C   UNL A   1      39.667  28.928  29.142  1.00  0.00    -0.014 A 
ATOM     40  C   UNL A   1      38.838  29.414  28.119  1.00  0.00     0.009 A 
ATOM     41  C   UNL A   1      39.112  28.702  30.412  1.00  0.00     0.009 A 
ATOM     42  C   UNL A   1      37.494  29.698  28.372  1.00  0.00     0.001 A 
ATOM     43  C   UNL A   1      37.760  28.954  30.654  1.00  0.00     0.001 A 
ATOM     44  C   UNL A   1      36.954  29.461  29.637  1.00  0.00     0.000 A 
ENDBRANCH  25  39
BRANCH  26  45
ATOM     45  C   UNL A   1      49.119  26.417  27.055  1.00  0.00    -0.014 A 
ATOM     46  C   UNL A   1      50.031  26.009  28.039  1.00  0.00     0.009 A 
ATOM     47  C   UNL A   1      49.552  26.492  25.720  1.00  0.00     0.009 A 
ATOM     48  C   UNL A   1      51.355  25.722  27.701  1.00  0.00     0.001 A 
ATOM     49  C   UNL A   1      50.865  26.164  25.378  1.00  0.00     0.001 A 
ATOM     50  C   UNL A   1      51.770  25.796  26.371  1.00  0.00     0.000 A 
ENDBRANCH  26  45
BRANCH  38  51
ATOM     51  C   UNL A   1      46.027  32.323  29.078  1.00  0.00    -0.014 A 
ATOM     52  C   UNL A   1      46.061  33.312  28.081  1.00  0.00     0.009 A 
ATOM     53  C   UNL A   1      46.458  32.649  30.373  1.00  0.00     0.009 A 
ATOM     54  C   UNL A   1      46.546  34.589  28.372  1.00  0.00     0.001 A 
ATOM     55  C   UNL A   1      46.907  33.937  30.669  1.00  0.00     0.001 A 
ATOM     56  C   UNL A   1      46.960  34.902  29.666  1.00  0.00     0.000 A 
ENDBRANCH  38  51
ENDBRANCH  12  13
ENDBRANCH   5   7
ENDBRANCH   2   3
ENDBRANCH   1   2
BRANCH   1  57
ATOM     57  C   UNL A   1      36.655  20.463  25.001  1.00  0.00     0.117 C 
BRANCH  57  58
ATOM     58  N   UNL A   1      36.835  21.658  24.208  1.00  0.00    -0.356 N 
ATOM     59  C   UNL A   1      35.962  22.620  23.800  1.00  0.00     0.227 C 
ATOM     60  H   UNL A   1      37.760  21.802  23.907  1.00  0.00     0.163 HD
ATOM     61  O   UNL A   1      36.243  23.199  22.751  1.00  0.00    -0.274 OA
BRANCH  59  62
ATOM     62  C   UNL A   1      34.736  23.047  24.559  1.00  0.00     0.060 C 
ATOM     63  C   UNL A   1      34.950  23.103  26.091  1.00  0.00     0.019 C 
ATOM     64  C   UNL A   1      34.508  24.323  25.362  1.00  0.00     0.019 C 
BRANCH  62  65
ATOM     65  C   UNL A   1      33.444  22.600  23.855  1.00  0.00     0.106 C 
BRANCH  65  66
ATOM     66  C   UNL A   1      33.286  21.167  24.083  1.00  0.00    -0.097 C 
ATOM     67  C   UNL A   1      33.233  19.986  24.266  1.00  0.00    -0.067 C 
BRANCH  67  68
ATOM     68  C   UNL A   1      33.248  18.577  24.474  1.00  0.00     0.024 A 
ATOM     69  C   UNL A   1      33.988  17.759  23.617  1.00  0.00     0.017 A 
ATOM     70  C   UNL A   1      32.528  18.026  25.531  1.00  0.00     0.017 A 
ATOM     71  C   UNL A   1      34.028  16.383  23.838  1.00  0.00     0.001 A 
ATOM     72  C   UNL A   1      32.570  16.651  25.751  1.00  0.00     0.001 A 
ATOM     73  C   UNL A   1      33.324  15.833  24.910  1.00  0.00     0.000 A 
ENDBRANCH  67  68
ENDBRANCH  65  66
ENDBRANCH  62  65
ENDBRANCH  59  62
ENDBRANCH  57  58
ENDBRANCH   1  57
TORSDOF 13
ENDMDL
MODEL 2
REMARK VINA RESULT:     -11.2      1.738      3.769
REMARK SMILES O=C(NCCCNC(=O)C1(CC#Cc2ccccc2)CC1)c1ccc(-c2c3nc(c(-c4ccccc4)c4ccc([nH]4)c(-c4ccccc4)c4nc(c(-c5ccccc5)c5ccc2[nH]5)C=C4)C=C3)cc1
REMARK SMILES IDX 5 1 4 2 3 3 1 4 2 5 22 7 23 8 69 9 24 10 68 11 25 12 26 13
REMARK SMILES IDX 27 14 62 15 28 16 67 17 61 18 63 19 29 20 66 21 60 22 59 23
REMARK SMILES IDX 30 25 52 26 37 27 51 28 38 29 41 30 50 31 64 32 39 33 40 34
REMARK SMILES IDX 49 36 65 37 42 38 31 39 32 40 36 41 33 42 35 43 34 44 53 45
REMARK SMILES IDX 54 46 58 47 55 48 57 49 56 50 43 51 44 52 48 53 45 54 47 55
REMARK SMILES IDX 46 56 6 57 7 58 8 59 9 61 10 62 20 63 21 64 11 65 12 66
REMARK SMILES IDX 13 67 14 68 15 69 19 70 16 71 18 72 17 73
REMARK H PARENT 3 6 63 24 41 35 7 60
REMARK Flexibility Score: inf
ROOT
ATOM      1  C   UNL A   1      37.738  19.653  24.976  1.00  0.00     0.042 C 
ENDROOT
BRANCH   1   2
ATOM      2  C   UNL A   1      38.923  20.236  25.729  1.00  0.00     0.118 C 
BRANCH   2   3
ATOM      3  N   UNL A   1      40.028  19.288  25.827  1.00  0.00    -0.352 N 
ATOM      4  O   UNL A   1      42.191  18.651  25.872  1.00  0.00    -0.269 OA
ATOM      5  C   UNL A   1      41.355  19.526  26.071  1.00  0.00     0.251 C 
ATOM      6  H   UNL A   1      39.785  18.343  25.701  1.00  0.00     0.163 HD
BRANCH   5   7
ATOM      7  C   UNL A   1      41.764  20.852  26.569  1.00  0.00     0.039 A 
ATOM      8  C   UNL A   1      42.053  21.874  25.663  1.00  0.00     0.014 A 
ATOM      9  C   UNL A   1      41.852  21.074  27.945  1.00  0.00     0.014 A 
ATOM     10  C   UNL A   1      42.575  23.071  26.124  1.00  0.00     0.010 A 
ATOM     11  C   UNL A   1      42.266  22.322  28.409  1.00  0.00     0.010 A 
ATOM     12  C   UNL A   1      42.645  23.324  27.501  1.00  0.00    -0.014 A 
BRANCH  12  13
ATOM     13  C   UNL A   1      43.003  24.684  27.962  1.00  0.00     0.031 A 
ATOM     14  C   UNL A   1      41.952  25.708  28.268  1.00  0.00     0.074 A 
ATOM     15  C   UNL A   1      44.310  24.981  28.098  1.00  0.00     0.049 A 
ATOM     16  N   UNL A   1      42.107  26.948  28.658  1.00  0.00    -0.248 NA
ATOM     17  C   UNL A   1      40.548  25.297  28.111  1.00  0.00     0.031 C 
ATOM     18  C   UNL A   1      45.419  24.059  27.830  1.00  0.00     0.029 A 
ATOM     19  N   UNL A   1      44.931  26.132  28.505  1.00  0.00    -0.354 N 
ATOM     20  C   UNL A   1      40.827  27.473  28.773  1.00  0.00     0.074 A 
ATOM     21  C   UNL A   1      39.906  26.425  28.387  1.00  0.00     0.031 C 
ATOM     22  C   UNL A   1      46.578  24.665  28.118  1.00  0.00     0.029 A 
ATOM     23  C   UNL A   1      46.301  26.042  28.506  1.00  0.00     0.049 A 
ATOM     24  H   UNL A   1      44.443  26.946  28.771  1.00  0.00     0.167 HD
ATOM     25  C   UNL A   1      40.461  28.717  29.164  1.00  0.00     0.031 A 
ATOM     26  C   UNL A   1      47.239  26.972  28.753  1.00  0.00     0.031 A 
ATOM     27  C   UNL A   1      41.391  29.755  29.530  1.00  0.00     0.049 A 
ATOM     28  C   UNL A   1      46.800  28.361  29.112  1.00  0.00     0.074 A 
ATOM     29  C   UNL A   1      41.116  31.037  29.974  1.00  0.00     0.029 A 
ATOM     30  N   UNL A   1      42.772  29.638  29.475  1.00  0.00    -0.354 N 
ATOM     31  N   UNL A   1      45.585  28.826  29.270  1.00  0.00    -0.248 NA
ATOM     32  C   UNL A   1      47.861  29.352  29.329  1.00  0.00     0.031 C 
ATOM     33  C   UNL A   1      42.328  31.721  30.108  1.00  0.00     0.029 A 
ATOM     34  C   UNL A   1      43.362  30.840  29.834  1.00  0.00     0.049 A 
ATOM     35  H   UNL A   1      43.261  28.823  29.220  1.00  0.00     0.167 HD
ATOM     36  C   UNL A   1      45.736  30.158  29.632  1.00  0.00     0.074 A 
ATOM     37  C   UNL A   1      47.160  30.416  29.693  1.00  0.00     0.031 C 
ATOM     38  C   UNL A   1      44.781  31.083  29.888  1.00  0.00     0.031 A 
BRANCH  25  39
ATOM     39  C   UNL A   1      38.991  29.045  29.176  1.00  0.00    -0.014 A 
ATOM     40  C   UNL A   1      38.225  28.957  30.348  1.00  0.00     0.009 A 
ATOM     41  C   UNL A   1      38.377  29.505  28.000  1.00  0.00     0.009 A 
ATOM     42  C   UNL A   1      36.868  29.291  30.333  1.00  0.00     0.001 A 
ATOM     43  C   UNL A   1      37.030  29.871  27.995  1.00  0.00     0.001 A 
ATOM     44  C   UNL A   1      36.274  29.754  29.159  1.00  0.00     0.000 A 
ENDBRANCH  25  39
BRANCH  26  45
ATOM     45  C   UNL A   1      48.680  26.630  28.623  1.00  0.00    -0.014 A 
ATOM     46  C   UNL A   1      49.343  26.767  27.395  1.00  0.00     0.009 A 
ATOM     47  C   UNL A   1      49.400  26.153  29.732  1.00  0.00     0.009 A 
ATOM     48  C   UNL A   1      50.684  26.396  27.271  1.00  0.00     0.001 A 
ATOM     49  C   UNL A   1      50.751  25.823  29.615  1.00  0.00     0.001 A 
ATOM     50  C   UNL A   1      51.387  25.929  28.381  1.00  0.00     0.000 A 
ENDBRANCH  26  45
BRANCH  38  51
ATOM     51  C   UNL A   1      45.244  32.454  30.299  1.00  0.00    -0.014 A 
ATOM     52  C   UNL A   1      45.440  33.477  29.357  1.00  0.00     0.009 A 
ATOM     53  C   UNL A   1      45.445  32.736  31.659  1.00  0.00     0.009 A 
ATOM     54  C   UNL A   1      45.858  34.744  29.768  1.00  0.00     0.001 A 
ATOM     55  C   UNL A   1      45.827  34.014  32.070  1.00  0.00     0.001 A 
ATOM     56  C   UNL A   1      46.043  35.013  31.124  1.00  0.00     0.000 A 
ENDBRANCH  38  51
ENDBRANCH  12  13
ENDBRANCH   5   7
ENDBRANCH   2   3
ENDBRANCH   1   2
BRANCH   1  57
ATOM     57  C   UNL A   1      36.669  20.691  24.666  1.00  0.00     0.117 C 
BRANCH  57  58
ATOM     58  N   UNL A   1      35.687  20.747  25.724  1.00  0.00    -0.356 N 
ATOM     59  C   UNL A   1      34.638  21.585  25.951  1.00  0.00     0.227 C 
ATOM     60  H   UNL A   1      35.797  20.049  26.409  1.00  0.00     0.163 HD
ATOM     61  O   UNL A   1      34.312  21.743  27.127  1.00  0.00    -0.274 OA
BRANCH  59  62
ATOM     62  C   UNL A   1      33.839  22.272  24.878  1.00  0.00     0.060 C 
ATOM     63  C   UNL A   1      32.939  21.306  24.069  1.00  0.00     0.019 C 
ATOM     64  C   UNL A   1      32.328  22.458  24.787  1.00  0.00     0.019 C 
BRANCH  62  65
ATOM     65  C   UNL A   1      34.581  23.491  24.305  1.00  0.00     0.106 C 
BRANCH  65  66
ATOM     66  C   UNL A   1      34.144  24.668  25.050  1.00  0.00    -0.097 C 
ATOM     67  C   UNL A   1      33.750  25.656  25.599  1.00  0.00    -0.067 C 
BRANCH  67  68
ATOM     68  C   UNL A   1      33.251  26.856  26.181  1.00  0.00     0.024 A 
ATOM     69  C   UNL A   1      34.065  27.989  26.237  1.00  0.00     0.017 A 
ATOM     70  C   UNL A   1      31.954  26.891  26.686  1.00  0.00     0.017 A 
ATOM     71  C   UNL A   1      33.566  29.172  26.779  1.00  0.00     0.001 A 
ATOM     72  C   UNL A   1      31.456  28.074  27.227  1.00  0.00     0.001 A 
ATOM     73  C   UNL A   1      32.259  29.214  27.267  1.00  0.00     0.000 A 
ENDBRANCH  67  68
ENDBRANCH  65  66
ENDBRANCH  62  65
ENDBRANCH  59  62
ENDBRANCH  57  58
ENDBRANCH   1  57
TORSDOF 13
ENDMDL
MODEL 3
REMARK VINA RESULT:     -11.1      5.397     10.008
REMARK SMILES O=C(NCCCNC(=O)C1(CC#Cc2ccccc2)CC1)c1ccc(-c2c3nc(c(-c4ccccc4)c4ccc([nH]4)c(-c4ccccc4)c4nc(c(-c5ccccc5)c5ccc2[nH]5)C=C4)C=C3)cc1
REMARK SMILES IDX 5 1 4 2 3 3 1 4 2 5 22 7 23 8 69 9 24 10 68 11 25 12 26 13
REMARK SMILES IDX 27 14 62 15 28 16 67 17 61 18 63 19 29 20 66 21 60 22 59 23
REMARK SMILES IDX 30 25 52 26 37 27 51 28 38 29 41 30 50 31 64 32 39 33 40 34
REMARK SMILES IDX 49 36 65 37 42 38 31 39 32 40 36 41 33 42 35 43 34 44 53 45
REMARK SMILES IDX 54 46 58 47 55 48 57 49 56 50 43 51 44 52 48 53 45 54 47 55
REMARK SMILES IDX 46 56 6 57 7 58 8 59 9 61 10 62 20 63 21 64 11 65 12 66
REMARK SMILES IDX 13 67 14 68 15 69 19 70 16 71 18 72 17 73
REMARK H PARENT 3 6 63 24 41 35 7 60
REMARK Flexibility Score: inf
ROOT
ATOM      1  C   UNL A   1      31.398  31.924  26.498  1.00  0.00     0.042 C 
ENDROOT
BRANCH   1   2
ATOM      2  C   UNL A   1      32.672  32.473  27.116  1.00  0.00     0.118 C 
BRANCH   2   3
ATOM      3  N   UNL A   1      32.493  33.827  27.628  1.00  0.00    -0.352 N 
ATOM      4  O   UNL A   1      32.731  35.514  29.106  1.00  0.00    -0.269 OA
ATOM      5  C   UNL A   1      33.169  34.472  28.629  1.00  0.00     0.251 C 
ATOM      6  H   UNL A   1      31.784  34.352  27.191  1.00  0.00     0.163 HD
BRANCH   5   7
ATOM      7  C   UNL A   1      34.429  33.893  29.130  1.00  0.00     0.039 A 
ATOM      8  C   UNL A   1      34.405  33.019  30.219  1.00  0.00     0.014 A 
ATOM      9  C   UNL A   1      35.634  34.219  28.506  1.00  0.00     0.014 A 
ATOM     10  C   UNL A   1      35.596  32.590  30.780  1.00  0.00     0.010 A 
ATOM     11  C   UNL A   1      36.825  33.689  29.001  1.00  0.00     0.010 A 
ATOM     12  C   UNL A   1      36.814  32.882  30.152  1.00  0.00    -0.014 A 
BRANCH  12  13
ATOM     13  C   UNL A   1      38.050  32.236  30.648  1.00  0.00     0.031 A 
ATOM     14  C   UNL A   1      38.586  30.986  30.017  1.00  0.00     0.074 A 
ATOM     15  C   UNL A   1      38.684  32.802  31.693  1.00  0.00     0.049 A 
ATOM     16  N   UNL A   1      39.641  30.288  30.352  1.00  0.00    -0.248 NA
ATOM     17  C   UNL A   1      37.844  30.442  28.869  1.00  0.00     0.031 C 
ATOM     18  C   UNL A   1      38.252  34.022  32.384  1.00  0.00     0.029 A 
ATOM     19  N   UNL A   1      39.829  32.440  32.351  1.00  0.00    -0.354 N 
ATOM     20  C   UNL A   1      39.681  29.213  29.474  1.00  0.00     0.074 A 
ATOM     21  C   UNL A   1      38.529  29.336  28.607  1.00  0.00     0.031 C 
ATOM     22  C   UNL A   1      39.140  34.328  33.338  1.00  0.00     0.029 A 
ATOM     23  C   UNL A   1      40.154  33.284  33.385  1.00  0.00     0.049 A 
ATOM     24  H   UNL A   1      40.368  31.652  32.107  1.00  0.00     0.167 HD
ATOM     25  C   UNL A   1      40.597  28.218  29.405  1.00  0.00     0.031 A 
ATOM     26  C   UNL A   1      41.136  33.209  34.299  1.00  0.00     0.031 A 
ATOM     27  C   UNL A   1      41.730  28.101  30.286  1.00  0.00     0.049 A 
ATOM     28  C   UNL A   1      42.091  32.054  34.239  1.00  0.00     0.074 A 
ATOM     29  C   UNL A   1      42.734  27.148  30.273  1.00  0.00     0.029 A 
ATOM     30  N   UNL A   1      42.000  28.950  31.349  1.00  0.00    -0.354 N 
ATOM     31  N   UNL A   1      42.147  31.075  33.369  1.00  0.00    -0.248 NA
ATOM     32  C   UNL A   1      43.119  31.993  35.286  1.00  0.00     0.031 C 
ATOM     33  C   UNL A   1      43.563  27.371  31.377  1.00  0.00     0.029 A 
ATOM     34  C   UNL A   1      43.128  28.516  32.026  1.00  0.00     0.049 A 
ATOM     35  H   UNL A   1      41.469  29.744  31.588  1.00  0.00     0.167 HD
ATOM     36  C   UNL A   1      43.232  30.297  33.747  1.00  0.00     0.074 A 
ATOM     37  C   UNL A   1      43.818  30.932  34.909  1.00  0.00     0.031 C 
ATOM     38  C   UNL A   1      43.699  29.157  33.184  1.00  0.00     0.031 A 
BRANCH  25  39
ATOM     39  C   UNL A   1      40.391  27.146  28.367  1.00  0.00    -0.014 A 
ATOM     40  C   UNL A   1      40.966  27.235  27.090  1.00  0.00     0.009 A 
ATOM     41  C   UNL A   1      39.653  25.998  28.698  1.00  0.00     0.009 A 
ATOM     42  C   UNL A   1      40.777  26.213  26.156  1.00  0.00     0.001 A 
ATOM     43  C   UNL A   1      39.494  24.962  27.776  1.00  0.00     0.001 A 
ATOM     44  C   UNL A   1      40.048  25.075  26.502  1.00  0.00     0.000 A 
ENDBRANCH  25  39
BRANCH  26  45
ATOM     45  C   UNL A   1      41.235  34.234  35.372  1.00  0.00    -0.014 A 
ATOM     46  C   UNL A   1      40.547  34.074  36.583  1.00  0.00     0.009 A 
ATOM     47  C   UNL A   1      42.015  35.388  35.182  1.00  0.00     0.009 A 
ATOM     48  C   UNL A   1      40.606  35.065  37.566  1.00  0.00     0.001 A 
ATOM     49  C   UNL A   1      42.105  36.357  36.183  1.00  0.00     0.001 A 
ATOM     50  C   UNL A   1      41.387  36.203  37.366  1.00  0.00     0.000 A 
ENDBRANCH  26  45
BRANCH  38  51
ATOM     51  C   UNL A   1      44.931  28.544  33.791  1.00  0.00    -0.014 A 
ATOM     52  C   UNL A   1      46.220  28.931  33.388  1.00  0.00     0.009 A 
ATOM     53  C   UNL A   1      44.796  27.593  34.815  1.00  0.00     0.009 A 
ATOM     54  C   UNL A   1      47.346  28.353  33.977  1.00  0.00     0.001 A 
ATOM     55  C   UNL A   1      45.925  27.045  35.427  1.00  0.00     0.001 A 
ATOM     56  C   UNL A   1      47.197  27.418  35.001  1.00  0.00     0.000 A 
ENDBRANCH  38  51
ENDBRANCH  12  13
ENDBRANCH   5   7
ENDBRANCH   2   3
ENDBRANCH   1   2
BRANCH   1  57
ATOM     57  C   UNL A   1      31.460  30.422  26.256  1.00  0.00     0.117 C 
BRANCH  57  58
ATOM     58  N   UNL A   1      32.119  30.132  25.003  1.00  0.00    -0.356 N 
ATOM     59  C   UNL A   1      32.449  28.958  24.397  1.00  0.00     0.227 C 
ATOM     60  H   UNL A   1      32.378  30.933  24.492  1.00  0.00     0.163 HD
ATOM     61  O   UNL A   1      33.424  28.988  23.646  1.00  0.00    -0.274 OA
BRANCH  59  62
ATOM     62  C   UNL A   1      31.684  27.671  24.542  1.00  0.00     0.060 C 
ATOM     63  C   UNL A   1      30.269  27.724  23.916  1.00  0.00     0.019 C 
ATOM     64  C   UNL A   1      31.243  26.698  23.454  1.00  0.00     0.019 C 
BRANCH  62  65
ATOM     65  C   UNL A   1      32.062  26.924  25.831  1.00  0.00     0.106 C 
BRANCH  65  66
ATOM     66  C   UNL A   1      33.207  26.070  25.531  1.00  0.00    -0.097 C 
ATOM     67  C   UNL A   1      34.097  25.319  25.258  1.00  0.00    -0.067 C 
BRANCH  67  68
ATOM     68  C   UNL A   1      35.102  24.370  24.910  1.00  0.00     0.024 A 
ATOM     69  C   UNL A   1      36.116  24.071  25.822  1.00  0.00     0.017 A 
ATOM     70  C   UNL A   1      35.062  23.746  23.666  1.00  0.00     0.017 A 
ATOM     71  C   UNL A   1      37.082  23.120  25.494  1.00  0.00     0.001 A 
ATOM     72  C   UNL A   1      36.027  22.796  23.340  1.00  0.00     0.001 A 
ATOM     73  C   UNL A   1      37.030  22.479  24.255  1.00  0.00     0.000 A 
ENDBRANCH  67  68
ENDBRANCH  65  66
ENDBRANCH  62  65
ENDBRANCH  59  62
ENDBRANCH  57  58
ENDBRANCH   1  57
TORSDOF 13
ENDMDL
