MODEL 1
REMARK VINA RESULT:     -10.4      0.000      0.000
REMARK SMILES COCCNC(=O)Cn1ccc(C(=O)NCCCNC(=O)c2ccc(-c3c4nc(c(-c5ccccc5)c5ccc([nH]5)c(-c5ccccc5)c5nc(c(-c6ccccc6)c6ccc3[nH]6)C=C5)C=C4)cc2)c1
REMARK SMILES IDX 13 1 14 2 15 3 12 5 9 6 10 7 70 8 11 9 8 10 6 11 5 12 7 14
REMARK SMILES IDX 4 15 3 16 2 17 1 18 16 19 17 20 18 21 19 22 20 23 21 25
REMARK SMILES IDX 22 26 23 27 69 28 24 29 68 30 25 31 26 32 27 33 62 34 28 35
REMARK SMILES IDX 67 36 61 37 63 38 29 39 66 40 60 41 59 42 30 44 52 45 37 46
REMARK SMILES IDX 51 47 38 48 41 49 50 50 64 51 39 52 40 53 49 55 65 56 42 57
REMARK SMILES IDX 31 58 32 59 36 60 33 61 35 62 34 63 53 64 54 65 58 66 55 67
REMARK SMILES IDX 57 68 56 69 43 70 44 71 48 72 45 73 47 74 46 75
REMARK H PARENT 15 4 5 13 19 24 63 43 41 54
REMARK Flexibility Score: inf
ROOT
ATOM      1  C   UNL A   1      33.824  20.494  24.912  1.00  0.00     0.252 C 
ATOM      2  O   UNL A   1      32.949  19.651  25.075  1.00  0.00    -0.269 OA
ATOM      3  N   UNL A   1      35.120  20.066  25.068  1.00  0.00    -0.352 N 
ATOM      4  H   UNL A   1      35.201  19.109  25.284  1.00  0.00     0.163 HD
ENDROOT
BRANCH   1   5
ATOM      5  C   UNL A   1      33.484  21.878  24.566  1.00  0.00     0.057 A 
ATOM      6  N   UNL A   1      32.700  23.773  23.631  1.00  0.00    -0.344 N 
ATOM      7  C   UNL A   1      33.264  24.142  24.815  1.00  0.00     0.087 A 
ATOM      8  C   UNL A   1      32.940  22.432  23.422  1.00  0.00     0.100 A 
ATOM      9  C   UNL A   1      33.681  22.992  25.449  1.00  0.00     0.033 A 
BRANCH   6  10
ATOM     10  C   UNL A   1      31.923  24.579  22.699  1.00  0.00     0.221 C 
BRANCH  10  11
ATOM     11  C   UNL A   1      32.637  25.730  22.036  1.00  0.00     0.239 C 
ATOM     12  N   UNL A   1      32.015  26.928  21.857  1.00  0.00    -0.352 N 
ATOM     13  H   UNL A   1      32.502  27.559  21.280  1.00  0.00     0.163 HD
ATOM     14  O   UNL A   1      33.770  25.592  21.572  1.00  0.00    -0.273 OA
BRANCH  12  15
ATOM     15  C   UNL A   1      30.751  27.433  22.376  1.00  0.00     0.144 C 
BRANCH  15  16
ATOM     16  C   UNL A   1      30.876  28.805  23.059  1.00  0.00     0.181 C 
BRANCH  16  17
ATOM     17  O   UNL A   1      31.971  28.878  23.976  1.00  0.00    -0.383 OA
ATOM     18  C   UNL A   1      31.714  29.677  25.125  1.00  0.00     0.194 C 
ENDBRANCH  16  17
ENDBRANCH  15  16
ENDBRANCH  12  15
ENDBRANCH  10  11
ENDBRANCH   6  10
ENDBRANCH   1   5
BRANCH   3  19
ATOM     19  C   UNL A   1      36.389  20.752  24.974  1.00  0.00     0.118 C 
BRANCH  19  20
ATOM     20  C   UNL A   1      37.573  19.780  24.975  1.00  0.00     0.042 C 
BRANCH  20  21
ATOM     21  C   UNL A   1      38.811  20.404  25.621  1.00  0.00     0.118 C 
BRANCH  21  22
ATOM     22  N   UNL A   1      39.840  19.393  25.816  1.00  0.00    -0.352 N 
ATOM     23  C   UNL A   1      41.179  19.486  26.079  1.00  0.00     0.251 C 
ATOM     24  H   UNL A   1      39.511  18.468  25.746  1.00  0.00     0.163 HD
ATOM     25  O   UNL A   1      41.871  18.482  25.924  1.00  0.00    -0.269 OA
BRANCH  23  26
ATOM     26  C   UNL A   1      41.821  20.741  26.514  1.00  0.00     0.039 A 
ATOM     27  C   UNL A   1      42.362  21.560  25.514  1.00  0.00     0.014 A 
ATOM     28  C   UNL A   1      41.985  21.084  27.862  1.00  0.00     0.014 A 
ATOM     29  C   UNL A   1      43.005  22.744  25.853  1.00  0.00     0.010 A 
ATOM     30  C   UNL A   1      42.605  22.281  28.207  1.00  0.00     0.010 A 
ATOM     31  C   UNL A   1      43.094  23.119  27.200  1.00  0.00    -0.014 A 
BRANCH  31  32
ATOM     32  C   UNL A   1      43.502  24.507  27.506  1.00  0.00     0.031 A 
ATOM     33  C   UNL A   1      42.270  25.420  27.659  1.00  0.00     0.074 A 
ATOM     34  C   UNL A   1      44.842  24.774  27.544  1.00  0.00     0.049 A 
ATOM     35  N   UNL A   1      42.147  26.692  27.444  1.00  0.00    -0.248 NA
ATOM     36  C   UNL A   1      40.961  24.820  28.050  1.00  0.00     0.031 C 
ATOM     37  C   UNL A   1      45.908  23.750  27.447  1.00  0.00     0.029 A 
ATOM     38  N   UNL A   1      45.591  25.929  27.665  1.00  0.00    -0.354 N 
ATOM     39  C   UNL A   1      40.832  27.070  27.804  1.00  0.00     0.074 A 
ATOM     40  C   UNL A   1      40.125  25.860  28.085  1.00  0.00     0.031 C 
ATOM     41  C   UNL A   1      47.132  24.323  27.426  1.00  0.00     0.029 A 
ATOM     42  C   UNL A   1      46.993  25.764  27.508  1.00  0.00     0.049 A 
ATOM     43  H   UNL A   1      45.180  26.806  27.847  1.00  0.00     0.167 HD
ATOM     44  C   UNL A   1      40.450  28.371  27.970  1.00  0.00     0.031 A 
ATOM     45  C   UNL A   1      47.970  26.717  27.394  1.00  0.00     0.031 A 
ATOM     46  C   UNL A   1      41.508  29.241  27.589  1.00  0.00     0.049 A 
ATOM     47  C   UNL A   1      47.304  28.005  27.622  1.00  0.00     0.074 A 
ATOM     48  C   UNL A   1      42.065  29.551  26.377  1.00  0.00     0.029 A 
ATOM     49  N   UNL A   1      42.370  29.608  28.592  1.00  0.00    -0.354 N 
ATOM     50  N   UNL A   1      46.911  28.445  28.777  1.00  0.00    -0.248 NA
ATOM     51  C   UNL A   1      46.987  28.851  26.464  1.00  0.00     0.031 C 
ATOM     52  C   UNL A   1      43.444  29.609  26.670  1.00  0.00     0.029 A 
ATOM     53  C   UNL A   1      43.630  29.571  28.056  1.00  0.00     0.049 A 
ATOM     54  H   UNL A   1      42.130  29.851  29.516  1.00  0.00     0.167 HD
ATOM     55  C   UNL A   1      45.975  29.382  28.420  1.00  0.00     0.074 A 
ATOM     56  C   UNL A   1      46.311  29.816  27.080  1.00  0.00     0.031 C 
ATOM     57  C   UNL A   1      44.729  29.315  28.952  1.00  0.00     0.031 A 
BRANCH  44  58
ATOM     58  C   UNL A   1      39.290  28.984  28.710  1.00  0.00    -0.014 A 
ATOM     59  C   UNL A   1      39.149  28.653  30.082  1.00  0.00     0.009 A 
ATOM     60  C   UNL A   1      38.184  29.555  28.076  1.00  0.00     0.009 A 
ATOM     61  C   UNL A   1      37.925  28.752  30.746  1.00  0.00     0.001 A 
ATOM     62  C   UNL A   1      36.963  29.696  28.757  1.00  0.00     0.001 A 
ATOM     63  C   UNL A   1      36.824  29.257  30.073  1.00  0.00     0.000 A 
ENDBRANCH  44  58
BRANCH  45  64
ATOM     64  C   UNL A   1      49.434  26.804  27.030  1.00  0.00    -0.014 A 
ATOM     65  C   UNL A   1      50.457  27.320  27.826  1.00  0.00     0.009 A 
ATOM     66  C   UNL A   1      49.854  26.270  25.777  1.00  0.00     0.009 A 
ATOM     67  C   UNL A   1      51.812  27.217  27.431  1.00  0.00     0.001 A 
ATOM     68  C   UNL A   1      51.191  26.122  25.400  1.00  0.00     0.001 A 
ATOM     69  C   UNL A   1      52.179  26.587  26.240  1.00  0.00     0.000 A 
ENDBRANCH  45  64
BRANCH  57  70
ATOM     70  C   UNL A   1      44.625  28.581  30.278  1.00  0.00    -0.014 A 
ATOM     71  C   UNL A   1      44.033  27.309  30.323  1.00  0.00     0.009 A 
ATOM     72  C   UNL A   1      45.000  29.158  31.506  1.00  0.00     0.009 A 
ATOM     73  C   UNL A   1      43.810  26.649  31.539  1.00  0.00     0.001 A 
ATOM     74  C   UNL A   1      44.777  28.500  32.727  1.00  0.00     0.001 A 
ATOM     75  C   UNL A   1      44.179  27.245  32.742  1.00  0.00     0.000 A 
ENDBRANCH  57  70
ENDBRANCH  31  32
ENDBRANCH  23  26
ENDBRANCH  21  22
ENDBRANCH  20  21
ENDBRANCH  19  20
ENDBRANCH   3  19
TORSDOF 15
ENDMDL
MODEL 2
REMARK VINA RESULT:     -10.4      4.664     10.284
REMARK SMILES COCCNC(=O)Cn1ccc(C(=O)NCCCNC(=O)c2ccc(-c3c4nc(c(-c5ccccc5)c5ccc([nH]5)c(-c5ccccc5)c5nc(c(-c6ccccc6)c6ccc3[nH]6)C=C5)C=C4)cc2)c1
REMARK SMILES IDX 13 1 14 2 15 3 12 5 9 6 10 7 70 8 11 9 8 10 6 11 5 12 7 14
REMARK SMILES IDX 4 15 3 16 2 17 1 18 16 19 17 20 18 21 19 22 20 23 21 25
REMARK SMILES IDX 22 26 23 27 69 28 24 29 68 30 25 31 26 32 27 33 62 34 28 35
REMARK SMILES IDX 67 36 61 37 63 38 29 39 66 40 60 41 59 42 30 44 52 45 37 46
REMARK SMILES IDX 51 47 38 48 41 49 50 50 64 51 39 52 40 53 49 55 65 56 42 57
REMARK SMILES IDX 31 58 32 59 36 60 33 61 35 62 34 63 53 64 54 65 58 66 55 67
REMARK SMILES IDX 57 68 56 69 43 70 44 71 48 72 45 73 47 74 46 75
REMARK H PARENT 15 4 5 13 19 24 63 43 41 54
REMARK Flexibility Score: inf
ROOT
ATOM      1  C   UNL A   1      30.611  28.968  23.616  1.00  0.00     0.252 C 
ATOM      2  O   UNL A   1      30.093  29.240  22.539  1.00  0.00    -0.269 OA
ATOM      3  N   UNL A   1      31.015  30.032  24.386  1.00  0.00    -0.352 N 
ATOM      4  H   UNL A   1      30.826  30.910  23.982  1.00  0.00     0.163 HD
ENDROOT
BRANCH   1   5
ATOM      5  C   UNL A   1      30.778  27.574  24.042  1.00  0.00     0.057 A 
ATOM      6  N   UNL A   1      31.507  25.611  24.874  1.00  0.00    -0.344 N 
ATOM      7  C   UNL A   1      30.206  25.412  24.525  1.00  0.00     0.087 A 
ATOM      8  C   UNL A   1      31.890  26.872  24.470  1.00  0.00     0.100 A 
ATOM      9  C   UNL A   1      29.707  26.621  24.089  1.00  0.00     0.033 A 
BRANCH   6  10
ATOM     10  C   UNL A   1      32.409  24.715  25.586  1.00  0.00     0.221 C 
BRANCH  10  11
ATOM     11  C   UNL A   1      31.774  23.697  26.500  1.00  0.00     0.239 C 
ATOM     12  N   UNL A   1      31.783  22.372  26.184  1.00  0.00    -0.352 N 
ATOM     13  H   UNL A   1      31.211  21.812  26.756  1.00  0.00     0.163 HD
ATOM     14  O   UNL A   1      31.165  24.045  27.514  1.00  0.00    -0.273 OA
BRANCH  12  15
ATOM     15  C   UNL A   1      32.494  21.646  25.141  1.00  0.00     0.144 C 
BRANCH  15  16
ATOM     16  C   UNL A   1      32.972  20.254  25.585  1.00  0.00     0.181 C 
BRANCH  16  17
ATOM     17  O   UNL A   1      32.174  19.191  25.055  1.00  0.00    -0.383 OA
ATOM     18  C   UNL A   1      32.684  17.891  25.328  1.00  0.00     0.194 C 
ENDBRANCH  16  17
ENDBRANCH  15  16
ENDBRANCH  12  15
ENDBRANCH  10  11
ENDBRANCH   6  10
ENDBRANCH   1   5
BRANCH   3  19
ATOM     19  C   UNL A   1      31.664  30.108  25.675  1.00  0.00     0.118 C 
BRANCH  19  20
ATOM     20  C   UNL A   1      31.388  31.439  26.383  1.00  0.00     0.042 C 
BRANCH  20  21
ATOM     21  C   UNL A   1      32.649  31.993  27.048  1.00  0.00     0.118 C 
BRANCH  21  22
ATOM     22  N   UNL A   1      32.463  33.397  27.386  1.00  0.00    -0.352 N 
ATOM     23  C   UNL A   1      33.076  34.209  28.299  1.00  0.00     0.251 C 
ATOM     24  H   UNL A   1      31.764  33.847  26.858  1.00  0.00     0.163 HD
ATOM     25  O   UNL A   1      32.541  35.281  28.573  1.00  0.00    -0.269 OA
BRANCH  23  26
ATOM     26  C   UNL A   1      34.333  33.838  28.979  1.00  0.00     0.039 A 
ATOM     27  C   UNL A   1      34.219  33.143  30.190  1.00  0.00     0.014 A 
ATOM     28  C   UNL A   1      35.593  34.231  28.514  1.00  0.00     0.014 A 
ATOM     29  C   UNL A   1      35.360  32.785  30.898  1.00  0.00     0.010 A 
ATOM     30  C   UNL A   1      36.741  33.853  29.205  1.00  0.00     0.010 A 
ATOM     31  C   UNL A   1      36.622  33.112  30.384  1.00  0.00    -0.014 A 
BRANCH  31  32
ATOM     32  C   UNL A   1      37.805  32.462  30.989  1.00  0.00     0.031 A 
ATOM     33  C   UNL A   1      38.094  31.109  30.310  1.00  0.00     0.074 A 
ATOM     34  C   UNL A   1      38.398  33.094  32.046  1.00  0.00     0.049 A 
ATOM     35  N   UNL A   1      38.661  30.045  30.787  1.00  0.00    -0.248 NA
ATOM     36  C   UNL A   1      37.629  30.880  28.912  1.00  0.00     0.031 C 
ATOM     37  C   UNL A   1      38.032  34.446  32.532  1.00  0.00     0.029 A 
ATOM     38  N   UNL A   1      39.406  32.756  32.928  1.00  0.00    -0.354 N 
ATOM     39  C   UNL A   1      38.758  29.097  29.741  1.00  0.00     0.074 A 
ATOM     40  C   UNL A   1      38.027  29.636  28.636  1.00  0.00     0.031 C 
ATOM     41  C   UNL A   1      38.730  34.767  33.643  1.00  0.00     0.029 A 
ATOM     42  C   UNL A   1      39.613  33.672  33.994  1.00  0.00     0.049 A 
ATOM     43  H   UNL A   1      39.943  31.937  32.825  1.00  0.00     0.167 HD
ATOM     44  C   UNL A   1      39.546  27.985  29.814  1.00  0.00     0.031 A 
ATOM     45  C   UNL A   1      40.395  33.539  35.111  1.00  0.00     0.031 A 
ATOM     46  C   UNL A   1      40.105  27.870  31.117  1.00  0.00     0.049 A 
ATOM     47  C   UNL A   1      41.137  32.284  34.935  1.00  0.00     0.074 A 
ATOM     48  C   UNL A   1      39.561  27.576  32.339  1.00  0.00     0.029 A 
ATOM     49  N   UNL A   1      41.329  28.466  31.297  1.00  0.00    -0.354 N 
ATOM     50  N   UNL A   1      42.138  32.118  34.128  1.00  0.00    -0.248 NA
ATOM     51  C   UNL A   1      40.690  31.093  35.668  1.00  0.00     0.031 C 
ATOM     52  C   UNL A   1      40.229  28.469  33.204  1.00  0.00     0.029 A 
ATOM     53  C   UNL A   1      41.289  29.075  32.522  1.00  0.00     0.049 A 
ATOM     54  H   UNL A   1      42.086  28.457  30.667  1.00  0.00     0.167 HD
ATOM     55  C   UNL A   1      42.152  30.756  33.972  1.00  0.00     0.074 A 
ATOM     56  C   UNL A   1      41.522  30.195  35.148  1.00  0.00     0.031 C 
ATOM     57  C   UNL A   1      42.131  30.228  32.722  1.00  0.00     0.031 A 
BRANCH  44  58
ATOM     58  C   UNL A   1      40.113  27.089  28.744  1.00  0.00    -0.014 A 
ATOM     59  C   UNL A   1      40.946  27.694  27.768  1.00  0.00     0.009 A 
ATOM     60  C   UNL A   1      39.610  25.819  28.453  1.00  0.00     0.009 A 
ATOM     61  C   UNL A   1      41.147  27.123  26.510  1.00  0.00     0.001 A 
ATOM     62  C   UNL A   1      39.848  25.224  27.203  1.00  0.00     0.001 A 
ATOM     63  C   UNL A   1      40.578  25.893  26.221  1.00  0.00     0.000 A 
ENDBRANCH  44  58
BRANCH  45  64
ATOM     64  C   UNL A   1      40.619  34.240  36.430  1.00  0.00    -0.014 A 
ATOM     65  C   UNL A   1      41.850  34.483  37.042  1.00  0.00     0.009 A 
ATOM     66  C   UNL A   1      39.487  34.763  37.121  1.00  0.00     0.009 A 
ATOM     67  C   UNL A   1      41.940  35.277  38.210  1.00  0.00     0.001 A 
ATOM     68  C   UNL A   1      39.571  35.585  38.247  1.00  0.00     0.001 A 
ATOM     69  C   UNL A   1      40.810  35.856  38.789  1.00  0.00     0.000 A 
ENDBRANCH  45  64
BRANCH  57  70
ATOM     70  C   UNL A   1      42.642  31.141  31.620  1.00  0.00    -0.014 A 
ATOM     71  C   UNL A   1      44.024  31.338  31.469  1.00  0.00     0.009 A 
ATOM     72  C   UNL A   1      41.792  31.898  30.793  1.00  0.00     0.009 A 
ATOM     73  C   UNL A   1      44.533  32.261  30.546  1.00  0.00     0.001 A 
ATOM     74  C   UNL A   1      42.299  32.825  29.868  1.00  0.00     0.001 A 
ATOM     75  C   UNL A   1      43.672  33.007  29.746  1.00  0.00     0.000 A 
ENDBRANCH  57  70
ENDBRANCH  31  32
ENDBRANCH  23  26
ENDBRANCH  21  22
ENDBRANCH  20  21
ENDBRANCH  19  20
ENDBRANCH   3  19
TORSDOF 15
ENDMDL
MODEL 3
REMARK VINA RESULT:     -10.3      2.767      7.617
REMARK SMILES COCCNC(=O)Cn1ccc(C(=O)NCCCNC(=O)c2ccc(-c3c4nc(c(-c5ccccc5)c5ccc([nH]5)c(-c5ccccc5)c5nc(c(-c6ccccc6)c6ccc3[nH]6)C=C5)C=C4)cc2)c1
REMARK SMILES IDX 13 1 14 2 15 3 12 5 9 6 10 7 70 8 11 9 8 10 6 11 5 12 7 14
REMARK SMILES IDX 4 15 3 16 2 17 1 18 16 19 17 20 18 21 19 22 20 23 21 25
REMARK SMILES IDX 22 26 23 27 69 28 24 29 68 30 25 31 26 32 27 33 62 34 28 35
REMARK SMILES IDX 67 36 61 37 63 38 29 39 66 40 60 41 59 42 30 44 52 45 37 46
REMARK SMILES IDX 51 47 38 48 41 49 50 50 64 51 39 52 40 53 49 55 65 56 42 57
REMARK SMILES IDX 31 58 32 59 36 60 33 61 35 62 34 63 53 64 54 65 58 66 55 67
REMARK SMILES IDX 57 68 56 69 43 70 44 71 48 72 45 73 47 74 46 75
REMARK H PARENT 15 4 5 13 19 24 63 43 41 54
REMARK Flexibility Score: inf
ROOT
ATOM      1  C   UNL A   1      33.367  28.400  24.294  1.00  0.00     0.252 C 
ATOM      2  O   UNL A   1      34.073  28.363  23.293  1.00  0.00    -0.269 OA
ATOM      3  N   UNL A   1      33.086  29.647  24.798  1.00  0.00    -0.352 N 
ATOM      4  H   UNL A   1      33.481  30.385  24.279  1.00  0.00     0.163 HD
ENDROOT
BRANCH   1   5
ATOM      5  C   UNL A   1      32.858  27.167  24.904  1.00  0.00     0.057 A 
ATOM      6  N   UNL A   1      31.682  25.335  25.486  1.00  0.00    -0.344 N 
ATOM      7  C   UNL A   1      32.856  25.262  26.172  1.00  0.00     0.087 A 
ATOM      8  C   UNL A   1      31.629  26.540  24.819  1.00  0.00     0.100 A 
ATOM      9  C   UNL A   1      33.633  26.329  25.774  1.00  0.00     0.033 A 
BRANCH   6  10
ATOM     10  C   UNL A   1      30.621  24.342  25.384  1.00  0.00     0.221 C 
BRANCH  10  11
ATOM     11  C   UNL A   1      30.684  23.178  26.341  1.00  0.00     0.239 C 
ATOM     12  N   UNL A   1      31.288  22.011  25.984  1.00  0.00    -0.352 N 
ATOM     13  H   UNL A   1      31.140  21.266  26.609  1.00  0.00     0.163 HD
ATOM     14  O   UNL A   1      30.124  23.227  27.438  1.00  0.00    -0.273 OA
BRANCH  12  15
ATOM     15  C   UNL A   1      32.116  21.680  24.831  1.00  0.00     0.144 C 
BRANCH  15  16
ATOM     16  C   UNL A   1      33.145  20.574  25.117  1.00  0.00     0.181 C 
BRANCH  16  17
ATOM     17  O   UNL A   1      32.561  19.397  25.684  1.00  0.00    -0.383 OA
ATOM     18  C   UNL A   1      32.477  18.299  24.782  1.00  0.00     0.194 C 
ENDBRANCH  16  17
ENDBRANCH  15  16
ENDBRANCH  12  15
ENDBRANCH  10  11
ENDBRANCH   6  10
ENDBRANCH   1   5
BRANCH   3  19
ATOM     19  C   UNL A   1      32.321  30.083  25.944  1.00  0.00     0.118 C 
BRANCH  19  20
ATOM     20  C   UNL A   1      32.960  29.645  27.266  1.00  0.00     0.042 C 
BRANCH  20  21
ATOM     21  C   UNL A   1      34.448  29.999  27.314  1.00  0.00     0.118 C 
BRANCH  21  22
ATOM     22  N   UNL A   1      34.724  30.854  28.460  1.00  0.00    -0.352 N 
ATOM     23  C   UNL A   1      35.712  30.829  29.404  1.00  0.00     0.251 C 
ATOM     24  H   UNL A   1      34.078  31.588  28.577  1.00  0.00     0.163 HD
ATOM     25  O   UNL A   1      35.557  31.500  30.423  1.00  0.00    -0.269 OA
BRANCH  23  26
ATOM     26  C   UNL A   1      36.935  30.016  29.259  1.00  0.00     0.039 A 
ATOM     27  C   UNL A   1      37.613  30.099  28.036  1.00  0.00     0.014 A 
ATOM     28  C   UNL A   1      37.372  29.119  30.241  1.00  0.00     0.014 A 
ATOM     29  C   UNL A   1      38.758  29.340  27.820  1.00  0.00     0.010 A 
ATOM     30  C   UNL A   1      38.533  28.377  30.041  1.00  0.00     0.010 A 
ATOM     31  C   UNL A   1      39.235  28.506  28.839  1.00  0.00    -0.014 A 
BRANCH  31  32
ATOM     32  C   UNL A   1      40.600  27.954  28.700  1.00  0.00     0.031 A 
ATOM     33  C   UNL A   1      41.655  29.076  28.782  1.00  0.00     0.074 A 
ATOM     34  C   UNL A   1      40.715  26.612  28.469  1.00  0.00     0.049 A 
ATOM     35  N   UNL A   1      42.837  29.144  28.254  1.00  0.00    -0.248 NA
ATOM     36  C   UNL A   1      41.324  30.337  29.506  1.00  0.00     0.031 C 
ATOM     37  C   UNL A   1      39.586  25.653  28.494  1.00  0.00     0.029 A 
ATOM     38  N   UNL A   1      41.772  25.775  28.166  1.00  0.00    -0.354 N 
ATOM     39  C   UNL A   1      43.439  30.348  28.689  1.00  0.00     0.074 A 
ATOM     40  C   UNL A   1      42.426  31.080  29.384  1.00  0.00     0.031 C 
ATOM     41  C   UNL A   1      39.994  24.414  28.142  1.00  0.00     0.029 A 
ATOM     42  C   UNL A   1      41.415  24.435  27.855  1.00  0.00     0.049 A 
ATOM     43  H   UNL A   1      42.706  26.085  28.165  1.00  0.00     0.167 HD
ATOM     44  C   UNL A   1      44.774  30.604  28.556  1.00  0.00     0.031 A 
ATOM     45  C   UNL A   1      42.192  23.427  27.349  1.00  0.00     0.031 A 
ATOM     46  C   UNL A   1      45.395  29.567  27.805  1.00  0.00     0.049 A 
ATOM     47  C   UNL A   1      43.563  23.952  27.320  1.00  0.00     0.074 A 
ATOM     48  C   UNL A   1      45.324  29.205  26.486  1.00  0.00     0.029 A 
ATOM     49  N   UNL A   1      45.904  28.523  28.536  1.00  0.00    -0.354 N 
ATOM     50  N   UNL A   1      44.322  24.110  28.360  1.00  0.00    -0.248 NA
ATOM     51  C   UNL A   1      44.119  24.402  26.037  1.00  0.00     0.031 C 
ATOM     52  C   UNL A   1      45.298  27.795  26.548  1.00  0.00     0.029 A 
ATOM     53  C   UNL A   1      45.591  27.379  27.851  1.00  0.00     0.049 A 
ATOM     54  H   UNL A   1      46.397  28.585  29.386  1.00  0.00     0.167 HD
ATOM     55  C   UNL A   1      45.236  25.025  27.906  1.00  0.00     0.074 A 
ATOM     56  C   UNL A   1      45.278  24.893  26.465  1.00  0.00     0.031 C 
ATOM     57  C   UNL A   1      45.447  26.164  28.612  1.00  0.00     0.031 A 
BRANCH  44  58
ATOM     58  C   UNL A   1      45.680  31.574  29.266  1.00  0.00    -0.014 A 
ATOM     59  C   UNL A   1      46.010  32.772  28.581  1.00  0.00     0.009 A 
ATOM     60  C   UNL A   1      46.472  31.230  30.364  1.00  0.00     0.009 A 
ATOM     61  C   UNL A   1      47.155  33.509  28.888  1.00  0.00     0.001 A 
ATOM     62  C   UNL A   1      47.601  31.997  30.700  1.00  0.00     0.001 A 
ATOM     63  C   UNL A   1      47.964  33.106  29.939  1.00  0.00     0.000 A 
ENDBRANCH  44  58
BRANCH  45  64
ATOM     64  C   UNL A   1      42.019  22.045  26.765  1.00  0.00    -0.014 A 
ATOM     65  C   UNL A   1      43.040  21.165  26.398  1.00  0.00     0.009 A 
ATOM     66  C   UNL A   1      40.697  21.536  26.607  1.00  0.00     0.009 A 
ATOM     67  C   UNL A   1      42.751  19.840  25.994  1.00  0.00     0.001 A 
ATOM     68  C   UNL A   1      40.406  20.216  26.253  1.00  0.00     0.001 A 
ATOM     69  C   UNL A   1      41.442  19.357  25.958  1.00  0.00     0.000 A 
ENDBRANCH  45  64
BRANCH  57  70
ATOM     70  C   UNL A   1      45.088  26.091  30.087  1.00  0.00    -0.014 A 
ATOM     71  C   UNL A   1      43.941  26.750  30.556  1.00  0.00     0.009 A 
ATOM     72  C   UNL A   1      45.913  25.478  31.049  1.00  0.00     0.009 A 
ATOM     73  C   UNL A   1      43.638  26.809  31.922  1.00  0.00     0.001 A 
ATOM     74  C   UNL A   1      45.614  25.535  32.420  1.00  0.00     0.001 A 
ATOM     75  C   UNL A   1      44.475  26.203  32.856  1.00  0.00     0.000 A 
ENDBRANCH  57  70
ENDBRANCH  31  32
ENDBRANCH  23  26
ENDBRANCH  21  22
ENDBRANCH  20  21
ENDBRANCH  19  20
ENDBRANCH   3  19
TORSDOF 15
ENDMDL
