MODEL 1
REMARK VINA RESULT:     -10.9      0.000      0.000
REMARK SMILES CCOc1ccc(-c2cnc(N)cc2C(=O)NCCCNC(=O)c2ccc(-c3c4nc(c(-c5ccccc5)c5ccc([nH]5)c(-c5ccccc5)c5nc(c(-c6ccccc6)c6ccc3[nH]6)C=C5)C=C4)cc2)c(Cl)c1
REMARK SMILES IDX 18 1 17 2 15 3 16 4 14 6 8 7 9 8 10 9 13 10 11 11 7 12 4 13
REMARK SMILES IDX 5 14 74 15 6 16 72 17 73 18 3 19 2 20 1 21 12 22 19 25 20 26
REMARK SMILES IDX 21 27 22 28 23 30 24 31 25 32 71 33 26 34 70 35 27 36 28 37
REMARK SMILES IDX 29 38 64 39 30 40 69 41 63 42 65 43 31 44 68 45 62 46 61 47
REMARK SMILES IDX 32 49 54 50 39 51 53 52 40 53 43 54 52 55 66 56 41 57 42 58
REMARK SMILES IDX 51 60 67 61 44 62 33 63 34 64 38 65 35 66 37 67 36 68 55 69
REMARK SMILES IDX 56 70 60 71 57 72 59 73 58 74 45 75 46 76 50 77 47 78 49 79
REMARK SMILES IDX 48 80
REMARK H PARENT 17 5 12 23 12 24 21 29 65 48 43 59
REMARK Flexibility Score: inf
ROOT
ATOM      1  C   UNL A   1      31.789  28.211  27.555  1.00  0.00     0.118 C 
ENDROOT
BRANCH   1   2
ATOM      2  N   UNL A   1      31.012  27.113  27.016  1.00  0.00    -0.352 N 
ATOM      3  C   UNL A   1      30.858  26.522  25.787  1.00  0.00     0.252 C 
ATOM      4  O   UNL A   1      30.136  25.525  25.808  1.00  0.00    -0.269 OA
ATOM      5  H   UNL A   1      30.454  26.682  27.704  1.00  0.00     0.163 HD
BRANCH   3   6
ATOM      6  C   UNL A   1      31.524  26.967  24.512  1.00  0.00     0.052 A 
ATOM      7  C   UNL A   1      32.666  26.293  24.022  1.00  0.00     0.014 A 
ATOM      8  C   UNL A   1      33.284  26.845  22.893  1.00  0.00     0.123 A 
ATOM      9  N   UNL A   1      32.883  27.960  22.247  1.00  0.00    -0.239 NA
ATOM     10  C   UNL A   1      31.055  28.062  23.777  1.00  0.00     0.061 A 
ATOM     11  C   UNL A   1      31.777  28.551  22.699  1.00  0.00     0.124 A 
BRANCH   7  12
ATOM     12  C   UNL A   1      33.265  25.067  24.584  1.00  0.00     0.003 A 
ATOM     13  C   UNL A   1      34.538  22.789  25.645  1.00  0.00     0.120 A 
ATOM     14  C   UNL A   1      35.055  24.054  25.897  1.00  0.00     0.047 A 
ATOM     15  C   UNL A   1      33.421  22.639  24.829  1.00  0.00     0.067 A 
ATOM     16  C   UNL A   1      34.413  25.184  25.390  1.00  0.00     0.014 A 
ATOM     17  C   UNL A   1      32.794  23.769  24.291  1.00  0.00     0.052 A 
ATOM     18  Cl  UNL A   1      31.459  23.506  23.216  1.00  0.00    -0.084 Cl
BRANCH  13  19
ATOM     19  O   UNL A   1      35.174  21.660  26.079  1.00  0.00    -0.494 OA
BRANCH  19  20
ATOM     20  C   UNL A   1      35.782  20.911  25.019  1.00  0.00     0.226 C 
ATOM     21  C   UNL A   1      36.911  21.693  24.369  1.00  0.00     0.049 C 
ENDBRANCH  19  20
ENDBRANCH  13  19
ENDBRANCH   7  12
BRANCH  11  22
ATOM     22  N   UNL A   1      31.352  29.669  22.010  1.00  0.00    -0.384 N 
ATOM     23  H   UNL A   1      31.519  30.567  22.378  1.00  0.00     0.158 HD
ATOM     24  H   UNL A   1      30.882  29.569  21.151  1.00  0.00     0.158 HD
ENDBRANCH  11  22
ENDBRANCH   3   6
ENDBRANCH   1   2
BRANCH   1  25
ATOM     25  C   UNL A   1      33.266  28.099  27.176  1.00  0.00     0.042 C 
BRANCH  25  26
ATOM     26  C   UNL A   1      33.766  29.249  26.301  1.00  0.00     0.118 C 
BRANCH  26  27
ATOM     27  N   UNL A   1      33.700  30.528  26.990  1.00  0.00    -0.352 N 
ATOM     28  C   UNL A   1      34.485  31.056  27.982  1.00  0.00     0.251 C 
ATOM     29  H   UNL A   1      32.967  31.114  26.695  1.00  0.00     0.163 HD
ATOM     30  O   UNL A   1      34.087  32.044  28.593  1.00  0.00    -0.269 OA
BRANCH  28  31
ATOM     31  C   UNL A   1      35.802  30.472  28.323  1.00  0.00     0.039 A 
ATOM     32  C   UNL A   1      35.949  29.854  29.570  1.00  0.00     0.014 A 
ATOM     33  C   UNL A   1      36.912  30.619  27.486  1.00  0.00     0.014 A 
ATOM     34  C   UNL A   1      37.196  29.366  29.967  1.00  0.00     0.010 A 
ATOM     35  C   UNL A   1      38.144  30.075  27.856  1.00  0.00     0.010 A 
ATOM     36  C   UNL A   1      38.302  29.463  29.107  1.00  0.00    -0.014 A 
BRANCH  36  37
ATOM     37  C   UNL A   1      39.629  28.947  29.524  1.00  0.00     0.031 A 
ATOM     38  C   UNL A   1      40.502  29.744  30.455  1.00  0.00     0.074 A 
ATOM     39  C   UNL A   1      40.067  27.771  29.036  1.00  0.00     0.049 A 
ATOM     40  N   UNL A   1      41.686  29.448  30.933  1.00  0.00    -0.248 NA
ATOM     41  C   UNL A   1      39.991  31.053  30.887  1.00  0.00     0.031 C 
ATOM     42  C   UNL A   1      39.340  26.926  28.087  1.00  0.00     0.029 A 
ATOM     43  N   UNL A   1      41.231  27.084  29.272  1.00  0.00    -0.354 N 
ATOM     44  C   UNL A   1      42.068  30.542  31.700  1.00  0.00     0.074 A 
ATOM     45  C   UNL A   1      41.010  31.523  31.593  1.00  0.00     0.031 C 
ATOM     46  C   UNL A   1      40.064  25.821  27.841  1.00  0.00     0.029 A 
ATOM     47  C   UNL A   1      41.311  25.893  28.596  1.00  0.00     0.049 A 
ATOM     48  H   UNL A   1      41.940  27.415  29.869  1.00  0.00     0.167 HD
ATOM     49  C   UNL A   1      43.191  30.710  32.439  1.00  0.00     0.031 A 
ATOM     50  C   UNL A   1      42.279  24.958  28.588  1.00  0.00     0.031 A 
ATOM     51  C   UNL A   1      44.237  29.731  32.561  1.00  0.00     0.049 A 
ATOM     52  C   UNL A   1      43.495  25.148  29.447  1.00  0.00     0.074 A 
ATOM     53  C   UNL A   1      45.381  29.780  33.340  1.00  0.00     0.029 A 
ATOM     54  N   UNL A   1      44.266  28.521  31.884  1.00  0.00    -0.354 N 
ATOM     55  N   UNL A   1      43.804  26.153  30.229  1.00  0.00    -0.248 NA
ATOM     56  C   UNL A   1      44.484  24.060  29.437  1.00  0.00     0.031 C 
ATOM     57  C   UNL A   1      46.122  28.616  33.103  1.00  0.00     0.029 A 
ATOM     58  C   UNL A   1      45.416  27.823  32.213  1.00  0.00     0.049 A 
ATOM     59  H   UNL A   1      43.572  28.206  31.262  1.00  0.00     0.167 HD
ATOM     60  C   UNL A   1      45.013  25.812  30.820  1.00  0.00     0.074 A 
ATOM     61  C   UNL A   1      45.370  24.499  30.321  1.00  0.00     0.031 C 
ATOM     62  C   UNL A   1      45.761  26.523  31.700  1.00  0.00     0.031 A 
BRANCH  49  63
ATOM     63  C   UNL A   1      43.345  32.017  33.167  1.00  0.00    -0.014 A 
ATOM     64  C   UNL A   1      42.851  32.190  34.470  1.00  0.00     0.009 A 
ATOM     65  C   UNL A   1      44.008  33.087  32.545  1.00  0.00     0.009 A 
ATOM     66  C   UNL A   1      42.982  33.419  35.119  1.00  0.00     0.001 A 
ATOM     67  C   UNL A   1      44.161  34.308  33.208  1.00  0.00     0.001 A 
ATOM     68  C   UNL A   1      43.637  34.475  34.489  1.00  0.00     0.000 A 
ENDBRANCH  49  63
BRANCH  50  69
ATOM     69  C   UNL A   1      42.113  23.736  27.760  1.00  0.00    -0.014 A 
ATOM     70  C   UNL A   1      41.477  22.602  28.288  1.00  0.00     0.009 A 
ATOM     71  C   UNL A   1      42.575  23.703  26.436  1.00  0.00     0.009 A 
ATOM     72  C   UNL A   1      41.326  21.451  27.511  1.00  0.00     0.001 A 
ATOM     73  C   UNL A   1      42.399  22.561  25.654  1.00  0.00     0.001 A 
ATOM     74  C   UNL A   1      41.781  21.433  26.194  1.00  0.00     0.000 A 
ENDBRANCH  50  69
BRANCH  62  75
ATOM     75  C   UNL A   1      47.026  25.879  32.191  1.00  0.00    -0.014 A 
ATOM     76  C   UNL A   1      48.232  26.011  31.483  1.00  0.00     0.009 A 
ATOM     77  C   UNL A   1      47.014  25.146  33.387  1.00  0.00     0.009 A 
ATOM     78  C   UNL A   1      49.392  25.385  31.944  1.00  0.00     0.001 A 
ATOM     79  C   UNL A   1      48.182  24.545  33.859  1.00  0.00     0.001 A 
ATOM     80  C   UNL A   1      49.366  24.655  33.132  1.00  0.00     0.000 A 
ENDBRANCH  62  75
ENDBRANCH  36  37
ENDBRANCH  28  31
ENDBRANCH  26  27
ENDBRANCH  25  26
ENDBRANCH   1  25
TORSDOF 14
ENDMDL
MODEL 2
REMARK VINA RESULT:     -10.8      3.012      7.802
REMARK SMILES CCOc1ccc(-c2cnc(N)cc2C(=O)NCCCNC(=O)c2ccc(-c3c4nc(c(-c5ccccc5)c5ccc([nH]5)c(-c5ccccc5)c5nc(c(-c6ccccc6)c6ccc3[nH]6)C=C5)C=C4)cc2)c(Cl)c1
REMARK SMILES IDX 18 1 17 2 15 3 16 4 14 6 8 7 9 8 10 9 13 10 11 11 7 12 4 13
REMARK SMILES IDX 5 14 74 15 6 16 72 17 73 18 3 19 2 20 1 21 12 22 19 25 20 26
REMARK SMILES IDX 21 27 22 28 23 30 24 31 25 32 71 33 26 34 70 35 27 36 28 37
REMARK SMILES IDX 29 38 64 39 30 40 69 41 63 42 65 43 31 44 68 45 62 46 61 47
REMARK SMILES IDX 32 49 54 50 39 51 53 52 40 53 43 54 52 55 66 56 41 57 42 58
REMARK SMILES IDX 51 60 67 61 44 62 33 63 34 64 38 65 35 66 37 67 36 68 55 69
REMARK SMILES IDX 56 70 60 71 57 72 59 73 58 74 45 75 46 76 50 77 47 78 49 79
REMARK SMILES IDX 48 80
REMARK H PARENT 17 5 12 23 12 24 21 29 65 48 43 59
REMARK Flexibility Score: inf
ROOT
ATOM      1  C   UNL A   1      37.045  21.058  24.562  1.00  0.00     0.118 C 
ENDROOT
BRANCH   1   2
ATOM      2  N   UNL A   1      36.018  21.245  25.568  1.00  0.00    -0.352 N 
ATOM      3  C   UNL A   1      34.700  20.894  25.708  1.00  0.00     0.252 C 
ATOM      4  O   UNL A   1      34.225  21.194  26.804  1.00  0.00    -0.269 OA
ATOM      5  H   UNL A   1      36.349  21.751  26.345  1.00  0.00     0.163 HD
BRANCH   3   6
ATOM      6  C   UNL A   1      33.874  20.163  24.683  1.00  0.00     0.052 A 
ATOM      7  C   UNL A   1      33.002  20.871  23.823  1.00  0.00     0.014 A 
ATOM      8  C   UNL A   1      32.191  20.101  22.981  1.00  0.00     0.123 A 
ATOM      9  N   UNL A   1      32.172  18.752  22.929  1.00  0.00    -0.239 NA
ATOM     10  C   UNL A   1      33.922  18.771  24.550  1.00  0.00     0.061 A 
ATOM     11  C   UNL A   1      33.036  18.109  23.714  1.00  0.00     0.124 A 
BRANCH   7  12
ATOM     12  C   UNL A   1      32.867  22.337  23.730  1.00  0.00     0.003 A 
ATOM     13  C   UNL A   1      32.751  25.145  23.527  1.00  0.00     0.120 A 
ATOM     14  C   UNL A   1      33.660  24.429  22.757  1.00  0.00     0.047 A 
ATOM     15  C   UNL A   1      31.930  24.483  24.435  1.00  0.00     0.067 A 
ATOM     16  C   UNL A   1      33.704  23.037  22.842  1.00  0.00     0.014 A 
ATOM     17  C   UNL A   1      31.994  23.089  24.546  1.00  0.00     0.052 A 
ATOM     18  Cl  UNL A   1      31.004  22.338  25.755  1.00  0.00    -0.084 Cl
BRANCH  13  19
ATOM     19  O   UNL A   1      32.722  26.511  23.510  1.00  0.00    -0.494 OA
BRANCH  19  20
ATOM     20  C   UNL A   1      33.275  27.073  22.314  1.00  0.00     0.226 C 
ATOM     21  C   UNL A   1      34.066  28.336  22.614  1.00  0.00     0.049 C 
ENDBRANCH  19  20
ENDBRANCH  13  19
ENDBRANCH   7  12
BRANCH  11  22
ATOM     22  N   UNL A   1      33.037  16.732  23.627  1.00  0.00    -0.384 N 
ATOM     23  H   UNL A   1      32.490  16.281  22.944  1.00  0.00     0.158 HD
ATOM     24  H   UNL A   1      33.584  16.200  24.249  1.00  0.00     0.158 HD
ENDBRANCH  11  22
ENDBRANCH   3   6
ENDBRANCH   1   2
BRANCH   1  25
ATOM     25  C   UNL A   1      37.969  19.889  24.907  1.00  0.00     0.042 C 
BRANCH  25  26
ATOM     26  C   UNL A   1      38.967  20.201  26.024  1.00  0.00     0.118 C 
BRANCH  26  27
ATOM     27  N   UNL A   1      40.154  19.365  25.944  1.00  0.00    -0.352 N 
ATOM     28  C   UNL A   1      41.485  19.685  26.014  1.00  0.00     0.251 C 
ATOM     29  H   UNL A   1      39.971  18.406  25.819  1.00  0.00     0.163 HD
ATOM     30  O   UNL A   1      42.315  18.852  25.663  1.00  0.00    -0.269 OA
BRANCH  28  31
ATOM     31  C   UNL A   1      41.941  21.002  26.513  1.00  0.00     0.039 A 
ATOM     32  C   UNL A   1      41.931  21.226  27.895  1.00  0.00     0.014 A 
ATOM     33  C   UNL A   1      42.271  22.044  25.643  1.00  0.00     0.014 A 
ATOM     34  C   UNL A   1      42.272  22.482  28.402  1.00  0.00     0.010 A 
ATOM     35  C   UNL A   1      42.673  23.281  26.153  1.00  0.00     0.010 A 
ATOM     36  C   UNL A   1      42.656  23.517  27.535  1.00  0.00    -0.014 A 
BRANCH  36  37
ATOM     37  C   UNL A   1      43.019  24.853  28.069  1.00  0.00     0.031 A 
ATOM     38  C   UNL A   1      41.958  25.889  28.323  1.00  0.00     0.074 A 
ATOM     39  C   UNL A   1      44.313  25.149  28.294  1.00  0.00     0.049 A 
ATOM     40  N   UNL A   1      42.088  27.105  28.795  1.00  0.00    -0.248 NA
ATOM     41  C   UNL A   1      40.576  25.521  27.983  1.00  0.00     0.031 C 
ATOM     42  C   UNL A   1      45.443  24.252  28.041  1.00  0.00     0.029 A 
ATOM     43  N   UNL A   1      44.896  26.289  28.787  1.00  0.00    -0.354 N 
ATOM     44  C   UNL A   1      40.810  27.651  28.784  1.00  0.00     0.074 A 
ATOM     45  C   UNL A   1      39.927  26.651  28.225  1.00  0.00     0.031 C 
ATOM     46  C   UNL A   1      46.580  24.868  28.404  1.00  0.00     0.029 A 
ATOM     47  C   UNL A   1      46.262  26.206  28.892  1.00  0.00     0.049 A 
ATOM     48  H   UNL A   1      44.383  27.090  29.040  1.00  0.00     0.167 HD
ATOM     49  C   UNL A   1      40.405  28.870  29.215  1.00  0.00     0.031 A 
ATOM     50  C   UNL A   1      47.159  27.104  29.338  1.00  0.00     0.031 A 
ATOM     51  C   UNL A   1      41.276  29.861  29.787  1.00  0.00     0.049 A 
ATOM     52  C   UNL A   1      46.681  28.433  29.848  1.00  0.00     0.074 A 
ATOM     53  C   UNL A   1      40.950  31.099  30.316  1.00  0.00     0.029 A 
ATOM     54  N   UNL A   1      42.651  29.726  29.906  1.00  0.00    -0.354 N 
ATOM     55  N   UNL A   1      45.459  28.904  29.906  1.00  0.00    -0.248 NA
ATOM     56  C   UNL A   1      47.707  29.343  30.376  1.00  0.00     0.031 C 
ATOM     57  C   UNL A   1      42.134  31.729  30.719  1.00  0.00     0.029 A 
ATOM     58  C   UNL A   1      43.190  30.864  30.482  1.00  0.00     0.049 A 
ATOM     59  H   UNL A   1      43.167  28.937  29.622  1.00  0.00     0.167 HD
ATOM     60  C   UNL A   1      45.566  30.157  30.494  1.00  0.00     0.074 A 
ATOM     61  C   UNL A   1      46.969  30.363  30.793  1.00  0.00     0.031 C 
ATOM     62  C   UNL A   1      44.589  31.057  30.764  1.00  0.00     0.031 A 
BRANCH  49  63
ATOM     63  C   UNL A   1      38.944  29.200  29.070  1.00  0.00    -0.014 A 
ATOM     64  C   UNL A   1      38.430  29.723  27.872  1.00  0.00     0.009 A 
ATOM     65  C   UNL A   1      38.067  28.971  30.141  1.00  0.00     0.009 A 
ATOM     66  C   UNL A   1      37.077  30.047  27.764  1.00  0.00     0.001 A 
ATOM     67  C   UNL A   1      36.708  29.272  30.022  1.00  0.00     0.001 A 
ATOM     68  C   UNL A   1      36.217  29.820  28.838  1.00  0.00     0.000 A 
ENDBRANCH  49  63
BRANCH  50  69
ATOM     69  C   UNL A   1      48.602  26.755  29.354  1.00  0.00    -0.014 A 
ATOM     70  C   UNL A   1      49.417  27.056  28.252  1.00  0.00     0.009 A 
ATOM     71  C   UNL A   1      49.174  26.136  30.476  1.00  0.00     0.009 A 
ATOM     72  C   UNL A   1      50.774  26.723  28.266  1.00  0.00     0.001 A 
ATOM     73  C   UNL A   1      50.535  25.828  30.497  1.00  0.00     0.001 A 
ATOM     74  C   UNL A   1      51.332  26.115  29.389  1.00  0.00     0.000 A 
ENDBRANCH  50  69
BRANCH  62  75
ATOM     75  C   UNL A   1      45.008  32.333  31.435  1.00  0.00    -0.014 A 
ATOM     76  C   UNL A   1      45.056  32.437  32.834  1.00  0.00     0.009 A 
ATOM     77  C   UNL A   1      45.375  33.441  30.655  1.00  0.00     0.009 A 
ATOM     78  C   UNL A   1      45.426  33.640  33.439  1.00  0.00     0.001 A 
ATOM     79  C   UNL A   1      45.770  34.633  31.264  1.00  0.00     0.001 A 
ATOM     80  C   UNL A   1      45.784  34.736  32.654  1.00  0.00     0.000 A 
ENDBRANCH  62  75
ENDBRANCH  36  37
ENDBRANCH  28  31
ENDBRANCH  26  27
ENDBRANCH  25  26
ENDBRANCH   1  25
TORSDOF 14
ENDMDL
MODEL 3
REMARK VINA RESULT:     -10.8      1.659      2.357
REMARK SMILES CCOc1ccc(-c2cnc(N)cc2C(=O)NCCCNC(=O)c2ccc(-c3c4nc(c(-c5ccccc5)c5ccc([nH]5)c(-c5ccccc5)c5nc(c(-c6ccccc6)c6ccc3[nH]6)C=C5)C=C4)cc2)c(Cl)c1
REMARK SMILES IDX 18 1 17 2 15 3 16 4 14 6 8 7 9 8 10 9 13 10 11 11 7 12 4 13
REMARK SMILES IDX 5 14 74 15 6 16 72 17 73 18 3 19 2 20 1 21 12 22 19 25 20 26
REMARK SMILES IDX 21 27 22 28 23 30 24 31 25 32 71 33 26 34 70 35 27 36 28 37
REMARK SMILES IDX 29 38 64 39 30 40 69 41 63 42 65 43 31 44 68 45 62 46 61 47
REMARK SMILES IDX 32 49 54 50 39 51 53 52 40 53 43 54 52 55 66 56 41 57 42 58
REMARK SMILES IDX 51 60 67 61 44 62 33 63 34 64 38 65 35 66 37 67 36 68 55 69
REMARK SMILES IDX 56 70 60 71 57 72 59 73 58 74 45 75 46 76 50 77 47 78 49 79
REMARK SMILES IDX 48 80
REMARK H PARENT 17 5 12 23 12 24 21 29 65 48 43 59
REMARK Flexibility Score: inf
ROOT
ATOM      1  C   UNL A   1      33.892  27.035  25.294  1.00  0.00     0.118 C 
ENDROOT
BRANCH   1   2
ATOM      2  N   UNL A   1      34.005  26.938  23.852  1.00  0.00    -0.352 N 
ATOM      3  C   UNL A   1      33.198  27.219  22.779  1.00  0.00     0.252 C 
ATOM      4  O   UNL A   1      33.753  27.060  21.691  1.00  0.00    -0.269 OA
ATOM      5  H   UNL A   1      34.878  26.580  23.573  1.00  0.00     0.163 HD
BRANCH   3   6
ATOM      6  C   UNL A   1      31.783  27.728  22.856  1.00  0.00     0.052 A 
ATOM      7  C   UNL A   1      30.746  26.902  23.350  1.00  0.00     0.014 A 
ATOM      8  C   UNL A   1      29.446  27.418  23.279  1.00  0.00     0.123 A 
ATOM      9  N   UNL A   1      29.108  28.625  22.778  1.00  0.00    -0.239 NA
ATOM     10  C   UNL A   1      31.436  29.017  22.434  1.00  0.00     0.061 A 
ATOM     11  C   UNL A   1      30.107  29.404  22.363  1.00  0.00     0.124 A 
BRANCH   7  12
ATOM     12  C   UNL A   1      30.904  25.555  23.930  1.00  0.00     0.003 A 
ATOM     13  C   UNL A   1      31.132  22.930  24.927  1.00  0.00     0.120 A 
ATOM     14  C   UNL A   1      31.119  23.154  23.555  1.00  0.00     0.047 A 
ATOM     15  C   UNL A   1      30.983  23.995  25.811  1.00  0.00     0.067 A 
ATOM     16  C   UNL A   1      31.027  24.455  23.061  1.00  0.00     0.014 A 
ATOM     17  C   UNL A   1      30.858  25.298  25.317  1.00  0.00     0.052 A 
ATOM     18  Cl  UNL A   1      30.593  26.567  26.470  1.00  0.00    -0.084 Cl
BRANCH  13  19
ATOM     19  O   UNL A   1      31.163  21.665  25.443  1.00  0.00    -0.494 OA
BRANCH  19  20
ATOM     20  C   UNL A   1      32.459  21.057  25.371  1.00  0.00     0.226 C 
ATOM     21  C   UNL A   1      32.416  19.765  24.570  1.00  0.00     0.049 C 
ENDBRANCH  19  20
ENDBRANCH  13  19
ENDBRANCH   7  12
BRANCH  11  22
ATOM     22  N   UNL A   1      29.756  30.651  21.887  1.00  0.00    -0.384 N 
ATOM     23  H   UNL A   1      30.072  30.947  21.003  1.00  0.00     0.158 HD
ATOM     24  H   UNL A   1      29.191  31.245  22.432  1.00  0.00     0.158 HD
ENDBRANCH  11  22
ENDBRANCH   3   6
ENDBRANCH   1   2
BRANCH   1  25
ATOM     25  C   UNL A   1      33.969  28.487  25.771  1.00  0.00     0.042 C 
BRANCH  25  26
ATOM     26  C   UNL A   1      33.500  28.685  27.214  1.00  0.00     0.118 C 
BRANCH  26  27
ATOM     27  N   UNL A   1      33.559  30.081  27.619  1.00  0.00    -0.352 N 
ATOM     28  C   UNL A   1      34.525  30.782  28.291  1.00  0.00     0.251 C 
ATOM     29  H   UNL A   1      32.769  30.613  27.368  1.00  0.00     0.163 HD
ATOM     30  O   UNL A   1      34.248  31.886  28.751  1.00  0.00    -0.269 OA
BRANCH  28  31
ATOM     31  C   UNL A   1      35.894  30.245  28.464  1.00  0.00     0.039 A 
ATOM     32  C   UNL A   1      36.255  29.743  29.720  1.00  0.00     0.014 A 
ATOM     33  C   UNL A   1      36.852  30.330  27.450  1.00  0.00     0.014 A 
ATOM     34  C   UNL A   1      37.562  29.306  29.950  1.00  0.00     0.010 A 
ATOM     35  C   UNL A   1      38.140  29.835  27.661  1.00  0.00     0.010 A 
ATOM     36  C   UNL A   1      38.513  29.339  28.918  1.00  0.00    -0.014 A 
BRANCH  36  37
ATOM     37  C   UNL A   1      39.902  28.877  29.157  1.00  0.00     0.031 A 
ATOM     38  C   UNL A   1      40.904  29.779  29.825  1.00  0.00     0.074 A 
ATOM     39  C   UNL A   1      40.275  27.652  28.741  1.00  0.00     0.049 A 
ATOM     40  N   UNL A   1      42.158  29.543  30.124  1.00  0.00    -0.248 NA
ATOM     41  C   UNL A   1      40.446  31.130  30.185  1.00  0.00     0.031 C 
ATOM     42  C   UNL A   1      39.416  26.700  28.035  1.00  0.00     0.029 A 
ATOM     43  N   UNL A   1      41.477  27.000  28.851  1.00  0.00    -0.354 N 
ATOM     44  C   UNL A   1      42.641  30.720  30.682  1.00  0.00     0.074 A 
ATOM     45  C   UNL A   1      41.560  31.680  30.646  1.00  0.00     0.031 C 
ATOM     46  C   UNL A   1      40.111  25.575  27.798  1.00  0.00     0.029 A 
ATOM     47  C   UNL A   1      41.467  25.737  28.314  1.00  0.00     0.049 A 
ATOM     48  H   UNL A   1      42.271  27.399  29.275  1.00  0.00     0.167 HD
ATOM     49  C   UNL A   1      43.870  30.975  31.193  1.00  0.00     0.031 A 
ATOM     50  C   UNL A   1      42.438  24.809  28.248  1.00  0.00     0.031 A 
ATOM     51  C   UNL A   1      44.943  30.019  31.246  1.00  0.00     0.049 A 
ATOM     52  C   UNL A   1      43.779  25.100  28.857  1.00  0.00     0.074 A 
ATOM     53  C   UNL A   1      46.201  30.161  31.805  1.00  0.00     0.029 A 
ATOM     54  N   UNL A   1      44.882  28.738  30.719  1.00  0.00    -0.354 N 
ATOM     55  N   UNL A   1      44.196  26.190  29.453  1.00  0.00    -0.248 NA
ATOM     56  C   UNL A   1      44.775  24.020  28.804  1.00  0.00     0.031 C 
ATOM     57  C   UNL A   1      46.916  28.978  31.581  1.00  0.00     0.029 A 
ATOM     58  C   UNL A   1      46.086  28.085  30.923  1.00  0.00     0.049 A 
ATOM     59  H   UNL A   1      44.098  28.351  30.266  1.00  0.00     0.167 HD
ATOM     60  C   UNL A   1      45.494  25.923  29.863  1.00  0.00     0.074 A 
ATOM     61  C   UNL A   1      45.789  24.561  29.466  1.00  0.00     0.031 C 
ATOM     62  C   UNL A   1      46.366  26.733  30.513  1.00  0.00     0.031 A 
BRANCH  49  63
ATOM     63  C   UNL A   1      44.118  32.360  31.727  1.00  0.00    -0.014 A 
ATOM     64  C   UNL A   1      44.612  33.382  30.901  1.00  0.00     0.009 A 
ATOM     65  C   UNL A   1      43.841  32.649  33.072  1.00  0.00     0.009 A 
ATOM     66  C   UNL A   1      44.861  34.654  31.421  1.00  0.00     0.001 A 
ATOM     67  C   UNL A   1      44.065  33.929  33.583  1.00  0.00     0.001 A 
ATOM     68  C   UNL A   1      44.586  34.927  32.760  1.00  0.00     0.000 A 
ENDBRANCH  49  63
BRANCH  50  69
ATOM     69  C   UNL A   1      42.160  23.498  27.608  1.00  0.00    -0.014 A 
ATOM     70  C   UNL A   1      42.546  23.259  26.280  1.00  0.00     0.009 A 
ATOM     71  C   UNL A   1      41.523  22.475  28.327  1.00  0.00     0.009 A 
ATOM     72  C   UNL A   1      42.280  22.028  25.678  1.00  0.00     0.001 A 
ATOM     73  C   UNL A   1      41.281  21.236  27.729  1.00  0.00     0.001 A 
ATOM     74  C   UNL A   1      41.654  21.016  26.404  1.00  0.00     0.000 A 
ENDBRANCH  50  69
BRANCH  62  75
ATOM     75  C   UNL A   1      47.710  26.154  30.850  1.00  0.00    -0.014 A 
ATOM     76  C   UNL A   1      47.983  25.650  32.132  1.00  0.00     0.009 A 
ATOM     77  C   UNL A   1      48.709  26.096  29.867  1.00  0.00     0.009 A 
ATOM     78  C   UNL A   1      49.247  25.137  32.433  1.00  0.00     0.001 A 
ATOM     79  C   UNL A   1      49.962  25.557  30.164  1.00  0.00     0.001 A 
ATOM     80  C   UNL A   1      50.233  25.089  31.448  1.00  0.00     0.000 A 
ENDBRANCH  62  75
ENDBRANCH  36  37
ENDBRANCH  28  31
ENDBRANCH  26  27
ENDBRANCH  25  26
ENDBRANCH   1  25
TORSDOF 14
ENDMDL
