MODEL 1
REMARK VINA RESULT:     -12.3      0.000      0.000
REMARK SMILES O=C(NCCCNC(=O)c1ccc([S@@](=O)[C@H]2CCOC3(CCCC3)C2)cc1)c1ccc(-c2c3nc(c(-c4ccccc4)c4ccc([nH]4)c(-c4ccccc4)c4nc(c(-c5ccccc5)c5ccc2[nH]5)C=C4)C=C3)cc1
REMARK SMILES IDX 5 1 4 2 3 3 1 4 2 5 28 7 29 8 75 9 30 10 74 11 31 12 32 13
REMARK SMILES IDX 33 14 68 15 34 16 73 17 67 18 69 19 35 20 72 21 66 22 65 23
REMARK SMILES IDX 36 25 58 26 43 27 57 28 44 29 47 30 56 31 70 32 45 33 46 34
REMARK SMILES IDX 55 36 71 37 48 38 37 39 38 40 42 41 39 42 41 43 40 44 59 45
REMARK SMILES IDX 60 46 64 47 61 48 63 49 62 50 49 51 50 52 54 53 51 54 53 55
REMARK SMILES IDX 52 56 6 57 7 58 8 59 9 61 10 62 11 63 27 64 12 65 26 66
REMARK SMILES IDX 13 67 14 68 15 69 16 70 17 71 25 72 18 73 20 74 19 75 21 76
REMARK SMILES IDX 24 77 22 78 23 79
REMARK H PARENT 3 6 69 24 47 35 7 60
REMARK Flexibility Score: inf
ROOT
ATOM      1  C   UNL A   1      37.677  19.544  25.000  1.00  0.00     0.042 C 
ENDROOT
BRANCH   1   2
ATOM      2  C   UNL A   1      38.843  20.152  25.764  1.00  0.00     0.118 C 
BRANCH   2   3
ATOM      3  N   UNL A   1      39.983  19.250  25.856  1.00  0.00    -0.352 N 
ATOM      4  O   UNL A   1      42.147  18.638  25.954  1.00  0.00    -0.269 OA
ATOM      5  C   UNL A   1      41.302  19.514  26.124  1.00  0.00     0.251 C 
ATOM      6  H   UNL A   1      39.773  18.300  25.702  1.00  0.00     0.163 HD
BRANCH   5   7
ATOM      7  C   UNL A   1      41.715  20.851  26.599  1.00  0.00     0.039 A 
ATOM      8  C   UNL A   1      41.720  21.158  27.962  1.00  0.00     0.014 A 
ATOM      9  C   UNL A   1      42.144  21.798  25.666  1.00  0.00     0.014 A 
ATOM     10  C   UNL A   1      42.009  22.452  28.380  1.00  0.00     0.010 A 
ATOM     11  C   UNL A   1      42.527  23.069  26.097  1.00  0.00     0.010 A 
ATOM     12  C   UNL A   1      42.436  23.414  27.454  1.00  0.00    -0.014 A 
BRANCH  12  13
ATOM     13  C   UNL A   1      42.858  24.753  27.928  1.00  0.00     0.031 A 
ATOM     14  C   UNL A   1      41.847  25.813  28.256  1.00  0.00     0.074 A 
ATOM     15  C   UNL A   1      44.174  25.016  28.040  1.00  0.00     0.049 A 
ATOM     16  N   UNL A   1      42.045  27.051  28.631  1.00  0.00    -0.248 NA
ATOM     17  C   UNL A   1      40.429  25.439  28.137  1.00  0.00     0.031 C 
ATOM     18  C   UNL A   1      45.251  24.068  27.742  1.00  0.00     0.029 A 
ATOM     19  N   UNL A   1      44.830  26.155  28.428  1.00  0.00    -0.354 N 
ATOM     20  C   UNL A   1      40.782  27.612  28.766  1.00  0.00     0.074 A 
ATOM     21  C   UNL A   1      39.825  26.586  28.413  1.00  0.00     0.031 C 
ATOM     22  C   UNL A   1      46.431  24.659  27.975  1.00  0.00     0.029 A 
ATOM     23  C   UNL A   1      46.197  26.041  28.372  1.00  0.00     0.049 A 
ATOM     24  H   UNL A   1      44.366  26.975  28.717  1.00  0.00     0.167 HD
ATOM     25  C   UNL A   1      40.453  28.870  29.149  1.00  0.00     0.031 A 
ATOM     26  C   UNL A   1      47.161  26.956  28.580  1.00  0.00     0.031 A 
ATOM     27  C   UNL A   1      41.412  29.888  29.491  1.00  0.00     0.049 A 
ATOM     28  C   UNL A   1      46.774  28.351  28.965  1.00  0.00     0.074 A 
ATOM     29  C   UNL A   1      41.179  31.177  29.938  1.00  0.00     0.029 A 
ATOM     30  N   UNL A   1      42.788  29.735  29.411  1.00  0.00    -0.354 N 
ATOM     31  N   UNL A   1      45.576  28.853  29.138  1.00  0.00    -0.248 NA
ATOM     32  C   UNL A   1      47.869  29.305  29.185  1.00  0.00     0.031 C 
ATOM     33  C   UNL A   1      42.412  31.824  30.069  1.00  0.00     0.029 A 
ATOM     34  C   UNL A   1      43.417  30.918  29.765  1.00  0.00     0.049 A 
ATOM     35  H   UNL A   1      43.251  28.908  29.143  1.00  0.00     0.167 HD
ATOM     36  C   UNL A   1      45.770  30.177  29.505  1.00  0.00     0.074 A 
ATOM     37  C   UNL A   1      47.203  30.395  29.542  1.00  0.00     0.031 C 
ATOM     38  C   UNL A   1      44.843  31.123  29.789  1.00  0.00     0.031 A 
BRANCH  25  39
ATOM     39  C   UNL A   1      38.991  29.225  29.173  1.00  0.00    -0.014 A 
ATOM     40  C   UNL A   1      38.225  29.111  30.344  1.00  0.00     0.009 A 
ATOM     41  C   UNL A   1      38.376  29.702  28.004  1.00  0.00     0.009 A 
ATOM     42  C   UNL A   1      36.863  29.425  30.330  1.00  0.00     0.001 A 
ATOM     43  C   UNL A   1      37.022  30.043  28.002  1.00  0.00     0.001 A 
ATOM     44  C   UNL A   1      36.264  29.892  29.161  1.00  0.00     0.000 A 
ENDBRANCH  25  39
BRANCH  26  45
ATOM     45  C   UNL A   1      48.581  26.564  28.392  1.00  0.00    -0.014 A 
ATOM     46  C   UNL A   1      49.216  26.740  27.155  1.00  0.00     0.009 A 
ATOM     47  C   UNL A   1      49.325  26.066  29.475  1.00  0.00     0.009 A 
ATOM     48  C   UNL A   1      50.567  26.419  27.005  1.00  0.00     0.001 A 
ATOM     49  C   UNL A   1      50.682  25.774  29.330  1.00  0.00     0.001 A 
ATOM     50  C   UNL A   1      51.300  25.946  28.094  1.00  0.00     0.000 A 
ENDBRANCH  26  45
BRANCH  38  51
ATOM     51  C   UNL A   1      45.346  32.479  30.194  1.00  0.00    -0.014 A 
ATOM     52  C   UNL A   1      45.642  32.775  31.534  1.00  0.00     0.009 A 
ATOM     53  C   UNL A   1      45.585  33.452  29.212  1.00  0.00     0.009 A 
ATOM     54  C   UNL A   1      46.149  34.028  31.882  1.00  0.00     0.001 A 
ATOM     55  C   UNL A   1      46.117  34.694  29.560  1.00  0.00     0.001 A 
ATOM     56  C   UNL A   1      46.393  34.983  30.894  1.00  0.00     0.000 A 
ENDBRANCH  38  51
ENDBRANCH  12  13
ENDBRANCH   5   7
ENDBRANCH   2   3
ENDBRANCH   1   2
BRANCH   1  57
ATOM     57  C   UNL A   1      36.594  20.547  24.638  1.00  0.00     0.118 C 
BRANCH  57  58
ATOM     58  N   UNL A   1      35.356  20.298  25.361  1.00  0.00    -0.352 N 
ATOM     59  C   UNL A   1      34.270  21.115  25.524  1.00  0.00     0.251 C 
ATOM     60  H   UNL A   1      35.290  19.417  25.796  1.00  0.00     0.163 HD
ATOM     61  O   UNL A   1      33.402  20.836  26.348  1.00  0.00    -0.269 OA
BRANCH  59  62
ATOM     62  C   UNL A   1      34.144  22.338  24.713  1.00  0.00     0.039 A 
ATOM     63  C   UNL A   1      34.776  23.502  25.155  1.00  0.00     0.015 A 
ATOM     64  C   UNL A   1      33.366  22.347  23.548  1.00  0.00     0.015 A 
ATOM     65  C   UNL A   1      34.657  24.672  24.408  1.00  0.00     0.018 A 
ATOM     66  C   UNL A   1      33.262  23.513  22.795  1.00  0.00     0.018 A 
ATOM     67  C   UNL A   1      33.887  24.683  23.237  1.00  0.00     0.039 A 
BRANCH  67  68
ATOM     68  S   UNL A   1      33.654  26.235  22.367  1.00  0.00     0.056 S 
ATOM     69  O   UNL A   1      33.136  25.859  21.008  1.00  0.00    -0.254 OA
BRANCH  68  70
ATOM     70  C   UNL A   1      32.226  26.940  23.300  1.00  0.00     0.089 C 
ATOM     71  C   UNL A   1      32.566  27.586  24.641  1.00  0.00     0.046 C 
ATOM     72  C   UNL A   1      31.569  27.981  22.391  1.00  0.00     0.053 C 
ATOM     73  C   UNL A   1      31.340  28.247  25.245  1.00  0.00     0.162 C 
ATOM     74  C   UNL A   1      30.379  28.665  23.066  1.00  0.00     0.069 C 
ATOM     75  O   UNL A   1      30.764  29.187  24.345  1.00  0.00    -0.375 OA
ATOM     76  C   UNL A   1      29.901  29.875  22.229  1.00  0.00     0.035 C 
ATOM     77  C   UNL A   1      29.140  27.757  23.179  1.00  0.00     0.035 C 
ATOM     78  C   UNL A   1      28.403  29.683  22.009  1.00  0.00     0.003 C 
ATOM     79  C   UNL A   1      27.973  28.731  23.108  1.00  0.00     0.003 C 
ENDBRANCH  68  70
ENDBRANCH  67  68
ENDBRANCH  59  62
ENDBRANCH  57  58
ENDBRANCH   1  57
TORSDOF 12
ENDMDL
MODEL 2
REMARK VINA RESULT:     -12.2      1.554      2.229
REMARK SMILES O=C(NCCCNC(=O)c1ccc([S@@](=O)[C@H]2CCOC3(CCCC3)C2)cc1)c1ccc(-c2c3nc(c(-c4ccccc4)c4ccc([nH]4)c(-c4ccccc4)c4nc(c(-c5ccccc5)c5ccc2[nH]5)C=C4)C=C3)cc1
REMARK SMILES IDX 5 1 4 2 3 3 1 4 2 5 28 7 29 8 75 9 30 10 74 11 31 12 32 13
REMARK SMILES IDX 33 14 68 15 34 16 73 17 67 18 69 19 35 20 72 21 66 22 65 23
REMARK SMILES IDX 36 25 58 26 43 27 57 28 44 29 47 30 56 31 70 32 45 33 46 34
REMARK SMILES IDX 55 36 71 37 48 38 37 39 38 40 42 41 39 42 41 43 40 44 59 45
REMARK SMILES IDX 60 46 64 47 61 48 63 49 62 50 49 51 50 52 54 53 51 54 53 55
REMARK SMILES IDX 52 56 6 57 7 58 8 59 9 61 10 62 11 63 27 64 12 65 26 66
REMARK SMILES IDX 13 67 14 68 15 69 16 70 17 71 25 72 18 73 20 74 19 75 21 76
REMARK SMILES IDX 24 77 22 78 23 79
REMARK H PARENT 3 6 69 24 47 35 7 60
REMARK Flexibility Score: inf
ROOT
ATOM      1  C   UNL A   1      37.776  19.740  24.690  1.00  0.00     0.042 C 
ENDROOT
BRANCH   1   2
ATOM      2  C   UNL A   1      38.772  20.149  25.764  1.00  0.00     0.118 C 
BRANCH   2   3
ATOM      3  N   UNL A   1      39.923  19.258  25.828  1.00  0.00    -0.352 N 
ATOM      4  O   UNL A   1      42.094  18.671  25.904  1.00  0.00    -0.269 OA
ATOM      5  C   UNL A   1      41.238  19.530  26.102  1.00  0.00     0.251 C 
ATOM      6  H   UNL A   1      39.725  18.311  25.644  1.00  0.00     0.163 HD
BRANCH   5   7
ATOM      7  C   UNL A   1      41.635  20.857  26.619  1.00  0.00     0.039 A 
ATOM      8  C   UNL A   1      41.645  21.119  27.990  1.00  0.00     0.014 A 
ATOM      9  C   UNL A   1      42.043  21.841  25.714  1.00  0.00     0.014 A 
ATOM     10  C   UNL A   1      41.919  22.403  28.449  1.00  0.00     0.010 A 
ATOM     11  C   UNL A   1      42.411  23.102  26.184  1.00  0.00     0.010 A 
ATOM     12  C   UNL A   1      42.325  23.401  27.552  1.00  0.00    -0.014 A 
BRANCH  12  13
ATOM     13  C   UNL A   1      42.730  24.730  28.067  1.00  0.00     0.031 A 
ATOM     14  C   UNL A   1      41.711  25.796  28.348  1.00  0.00     0.074 A 
ATOM     15  C   UNL A   1      44.040  24.978  28.260  1.00  0.00     0.049 A 
ATOM     16  N   UNL A   1      41.898  27.027  28.749  1.00  0.00    -0.248 NA
ATOM     17  C   UNL A   1      40.300  25.437  28.140  1.00  0.00     0.031 C 
ATOM     18  C   UNL A   1      45.123  24.023  28.015  1.00  0.00     0.029 A 
ATOM     19  N   UNL A   1      44.682  26.106  28.700  1.00  0.00    -0.354 N 
ATOM     20  C   UNL A   1      40.635  27.600  28.816  1.00  0.00     0.074 A 
ATOM     21  C   UNL A   1      39.691  26.587  28.395  1.00  0.00     0.031 C 
ATOM     22  C   UNL A   1      46.294  24.599  28.325  1.00  0.00     0.029 A 
ATOM     23  C   UNL A   1      46.049  25.979  28.725  1.00  0.00     0.049 A 
ATOM     24  H   UNL A   1      44.210  26.927  28.972  1.00  0.00     0.167 HD
ATOM     25  C   UNL A   1      40.296  28.856  29.195  1.00  0.00     0.031 A 
ATOM     26  C   UNL A   1      47.008  26.881  29.001  1.00  0.00     0.031 A 
ATOM     27  C   UNL A   1      41.242  29.860  29.606  1.00  0.00     0.049 A 
ATOM     28  C   UNL A   1      46.611  28.276  29.379  1.00  0.00     0.074 A 
ATOM     29  C   UNL A   1      40.995  31.146  30.055  1.00  0.00     0.029 A 
ATOM     30  N   UNL A   1      42.619  29.694  29.606  1.00  0.00    -0.354 N 
ATOM     31  N   UNL A   1      45.410  28.787  29.488  1.00  0.00    -0.248 NA
ATOM     32  C   UNL A   1      47.700  29.215  29.676  1.00  0.00     0.031 C 
ATOM     33  C   UNL A   1      42.224  31.779  30.267  1.00  0.00     0.029 A 
ATOM     34  C   UNL A   1      43.236  30.867  30.011  1.00  0.00     0.049 A 
ATOM     35  H   UNL A   1      43.089  28.866  29.355  1.00  0.00     0.167 HD
ATOM     36  C   UNL A   1      45.594  30.105  29.882  1.00  0.00     0.074 A 
ATOM     37  C   UNL A   1      47.024  30.308  30.007  1.00  0.00     0.031 C 
ATOM     38  C   UNL A   1      44.660  31.057  30.123  1.00  0.00     0.031 A 
BRANCH  25  39
ATOM     39  C   UNL A   1      38.838  29.226  29.137  1.00  0.00    -0.014 A 
ATOM     40  C   UNL A   1      38.257  29.746  27.969  1.00  0.00     0.009 A 
ATOM     41  C   UNL A   1      38.028  29.031  30.267  1.00  0.00     0.009 A 
ATOM     42  C   UNL A   1      36.907  30.105  27.951  1.00  0.00     0.001 A 
ATOM     43  C   UNL A   1      36.673  29.363  30.237  1.00  0.00     0.001 A 
ATOM     44  C   UNL A   1      36.116  29.911  29.083  1.00  0.00     0.000 A 
ENDBRANCH  25  39
BRANCH  26  45
ATOM     45  C   UNL A   1      48.432  26.477  28.892  1.00  0.00    -0.014 A 
ATOM     46  C   UNL A   1      49.140  26.658  27.696  1.00  0.00     0.009 A 
ATOM     47  C   UNL A   1      49.107  25.963  30.012  1.00  0.00     0.009 A 
ATOM     48  C   UNL A   1      50.495  26.325  27.622  1.00  0.00     0.001 A 
ATOM     49  C   UNL A   1      50.467  25.659  29.944  1.00  0.00     0.001 A 
ATOM     50  C   UNL A   1      51.158  25.836  28.748  1.00  0.00     0.000 A 
ENDBRANCH  26  45
BRANCH  38  51
ATOM     51  C   UNL A   1      45.151  32.402  30.574  1.00  0.00    -0.014 A 
ATOM     52  C   UNL A   1      45.410  33.429  29.653  1.00  0.00     0.009 A 
ATOM     53  C   UNL A   1      45.298  32.663  31.945  1.00  0.00     0.009 A 
ATOM     54  C   UNL A   1      45.826  34.686  30.099  1.00  0.00     0.001 A 
ATOM     55  C   UNL A   1      45.687  33.927  32.388  1.00  0.00     0.001 A 
ATOM     56  C   UNL A   1      45.956  34.935  31.465  1.00  0.00     0.000 A 
ENDBRANCH  38  51
ENDBRANCH  12  13
ENDBRANCH   5   7
ENDBRANCH   2   3
ENDBRANCH   1   2
BRANCH   1  57
ATOM     57  C   UNL A   1      36.335  20.087  25.028  1.00  0.00     0.118 C 
BRANCH  57  58
ATOM     58  N   UNL A   1      35.420  19.006  24.692  1.00  0.00    -0.352 N 
ATOM     59  C   UNL A   1      34.054  18.977  24.759  1.00  0.00     0.251 C 
ATOM     60  H   UNL A   1      35.844  18.177  24.372  1.00  0.00     0.163 HD
ATOM     61  O   UNL A   1      33.449  17.912  24.649  1.00  0.00    -0.269 OA
BRANCH  59  62
ATOM     62  C   UNL A   1      33.303  20.227  24.970  1.00  0.00     0.039 A 
ATOM     63  C   UNL A   1      33.326  20.816  26.235  1.00  0.00     0.015 A 
ATOM     64  C   UNL A   1      32.541  20.787  23.936  1.00  0.00     0.015 A 
ATOM     65  C   UNL A   1      32.611  21.990  26.457  1.00  0.00     0.018 A 
ATOM     66  C   UNL A   1      31.840  21.969  24.156  1.00  0.00     0.018 A 
ATOM     67  C   UNL A   1      31.855  22.559  25.423  1.00  0.00     0.039 A 
BRANCH  67  68
ATOM     68  S   UNL A   1      30.849  24.002  25.777  1.00  0.00     0.056 S 
ATOM     69  O   UNL A   1      30.488  23.892  27.231  1.00  0.00    -0.254 OA
BRANCH  68  70
ATOM     70  C   UNL A   1      32.113  25.341  25.648  1.00  0.00     0.089 C 
ATOM     71  C   UNL A   1      33.009  25.288  24.413  1.00  0.00     0.046 C 
ATOM     72  C   UNL A   1      31.357  26.671  25.666  1.00  0.00     0.053 C 
ATOM     73  C   UNL A   1      33.907  26.510  24.348  1.00  0.00     0.162 C 
ATOM     74  C   UNL A   1      32.299  27.869  25.535  1.00  0.00     0.069 C 
ATOM     75  O   UNL A   1      33.148  27.712  24.390  1.00  0.00    -0.375 OA
ATOM     76  C   UNL A   1      31.493  29.170  25.302  1.00  0.00     0.035 C 
ATOM     77  C   UNL A   1      33.118  28.142  26.810  1.00  0.00     0.035 C 
ATOM     78  C   UNL A   1      31.970  30.166  26.356  1.00  0.00     0.003 C 
ATOM     79  C   UNL A   1      33.329  29.649  26.787  1.00  0.00     0.003 C 
ENDBRANCH  68  70
ENDBRANCH  67  68
ENDBRANCH  59  62
ENDBRANCH  57  58
ENDBRANCH   1  57
TORSDOF 12
ENDMDL
MODEL 3
REMARK VINA RESULT:     -12.1      4.111      9.468
REMARK SMILES O=C(NCCCNC(=O)c1ccc([S@@](=O)[C@H]2CCOC3(CCCC3)C2)cc1)c1ccc(-c2c3nc(c(-c4ccccc4)c4ccc([nH]4)c(-c4ccccc4)c4nc(c(-c5ccccc5)c5ccc2[nH]5)C=C4)C=C3)cc1
REMARK SMILES IDX 5 1 4 2 3 3 1 4 2 5 28 7 29 8 75 9 30 10 74 11 31 12 32 13
REMARK SMILES IDX 33 14 68 15 34 16 73 17 67 18 69 19 35 20 72 21 66 22 65 23
REMARK SMILES IDX 36 25 58 26 43 27 57 28 44 29 47 30 56 31 70 32 45 33 46 34
REMARK SMILES IDX 55 36 71 37 48 38 37 39 38 40 42 41 39 42 41 43 40 44 59 45
REMARK SMILES IDX 60 46 64 47 61 48 63 49 62 50 49 51 50 52 54 53 51 54 53 55
REMARK SMILES IDX 52 56 6 57 7 58 8 59 9 61 10 62 11 63 27 64 12 65 26 66
REMARK SMILES IDX 13 67 14 68 15 69 16 70 17 71 25 72 18 73 20 74 19 75 21 76
REMARK SMILES IDX 24 77 22 78 23 79
REMARK H PARENT 3 6 69 24 47 35 7 60
REMARK Flexibility Score: inf
ROOT
ATOM      1  C   UNL A   1      31.361  31.899  26.504  1.00  0.00     0.042 C 
ENDROOT
BRANCH   1   2
ATOM      2  C   UNL A   1      32.667  32.546  26.940  1.00  0.00     0.118 C 
BRANCH   2   3
ATOM      3  N   UNL A   1      32.463  33.829  27.598  1.00  0.00    -0.352 N 
ATOM      4  O   UNL A   1      32.689  35.410  29.184  1.00  0.00    -0.269 OA
ATOM      5  C   UNL A   1      33.146  34.410  28.635  1.00  0.00     0.251 C 
ATOM      6  H   UNL A   1      31.716  34.363  27.243  1.00  0.00     0.163 HD
BRANCH   5   7
ATOM      7  C   UNL A   1      34.421  33.831  29.108  1.00  0.00     0.039 A 
ATOM      8  C   UNL A   1      35.635  34.196  28.523  1.00  0.00     0.014 A 
ATOM      9  C   UNL A   1      34.402  32.939  30.184  1.00  0.00     0.014 A 
ATOM     10  C   UNL A   1      36.810  33.561  28.910  1.00  0.00     0.010 A 
ATOM     11  C   UNL A   1      35.595  32.375  30.636  1.00  0.00     0.010 A 
ATOM     12  C   UNL A   1      36.805  32.660  29.985  1.00  0.00    -0.014 A 
BRANCH  12  13
ATOM     13  C   UNL A   1      38.082  32.083  30.466  1.00  0.00     0.031 A 
ATOM     14  C   UNL A   1      38.638  30.824  29.867  1.00  0.00     0.074 A 
ATOM     15  C   UNL A   1      38.732  32.698  31.473  1.00  0.00     0.049 A 
ATOM     16  N   UNL A   1      39.712  30.157  30.205  1.00  0.00    -0.248 NA
ATOM     17  C   UNL A   1      37.885  30.230  28.751  1.00  0.00     0.031 C 
ATOM     18  C   UNL A   1      38.285  33.923  32.140  1.00  0.00     0.029 A 
ATOM     19  N   UNL A   1      39.900  32.375  32.114  1.00  0.00    -0.354 N 
ATOM     20  C   UNL A   1      39.750  29.051  29.365  1.00  0.00     0.074 A 
ATOM     21  C   UNL A   1      38.581  29.127  28.515  1.00  0.00     0.031 C 
ATOM     22  C   UNL A   1      39.177  34.258  33.083  1.00  0.00     0.029 A 
ATOM     23  C   UNL A   1      40.218  33.239  33.132  1.00  0.00     0.049 A 
ATOM     24  H   UNL A   1      40.455  31.600  31.868  1.00  0.00     0.167 HD
ATOM     25  C   UNL A   1      40.677  28.065  29.310  1.00  0.00     0.031 A 
ATOM     26  C   UNL A   1      41.215  33.201  34.034  1.00  0.00     0.031 A 
ATOM     27  C   UNL A   1      41.834  27.993  30.164  1.00  0.00     0.049 A 
ATOM     28  C   UNL A   1      42.207  32.080  33.979  1.00  0.00     0.074 A 
ATOM     29  C   UNL A   1      42.857  27.060  30.154  1.00  0.00     0.029 A 
ATOM     30  N   UNL A   1      42.114  28.883  31.191  1.00  0.00    -0.354 N 
ATOM     31  N   UNL A   1      42.259  31.069  33.146  1.00  0.00    -0.248 NA
ATOM     32  C   UNL A   1      43.277  32.093  34.984  1.00  0.00     0.031 C 
ATOM     33  C   UNL A   1      43.723  27.350  31.214  1.00  0.00     0.029 A 
ATOM     34  C   UNL A   1      43.274  28.500  31.845  1.00  0.00     0.049 A 
ATOM     35  H   UNL A   1      41.569  29.670  31.421  1.00  0.00     0.167 HD
ATOM     36  C   UNL A   1      43.377  30.333  33.514  1.00  0.00     0.074 A 
ATOM     37  C   UNL A   1      43.981  31.023  34.637  1.00  0.00     0.031 C 
ATOM     38  C   UNL A   1      43.859  29.191  32.966  1.00  0.00     0.031 A 
BRANCH  25  39
ATOM     39  C   UNL A   1      40.449  26.956  28.318  1.00  0.00    -0.014 A 
ATOM     40  C   UNL A   1      41.028  26.982  27.039  1.00  0.00     0.009 A 
ATOM     41  C   UNL A   1      39.655  25.856  28.680  1.00  0.00     0.009 A 
ATOM     42  C   UNL A   1      40.778  25.951  26.130  1.00  0.00     0.001 A 
ATOM     43  C   UNL A   1      39.432  24.813  27.780  1.00  0.00     0.001 A 
ATOM     44  C   UNL A   1      39.984  24.867  26.501  1.00  0.00     0.000 A 
ENDBRANCH  25  39
BRANCH  26  45
ATOM     45  C   UNL A   1      41.287  34.256  35.076  1.00  0.00    -0.014 A 
ATOM     46  C   UNL A   1      41.991  35.446  34.846  1.00  0.00     0.009 A 
ATOM     47  C   UNL A   1      40.594  34.098  36.288  1.00  0.00     0.009 A 
ATOM     48  C   UNL A   1      42.006  36.454  35.813  1.00  0.00     0.001 A 
ATOM     49  C   UNL A   1      40.586  35.119  37.240  1.00  0.00     0.001 A 
ATOM     50  C   UNL A   1      41.296  36.293  37.003  1.00  0.00     0.000 A 
ENDBRANCH  26  45
BRANCH  38  51
ATOM     51  C   UNL A   1      45.120  28.627  33.553  1.00  0.00    -0.014 A 
ATOM     52  C   UNL A   1      45.081  27.668  34.577  1.00  0.00     0.009 A 
ATOM     53  C   UNL A   1      46.363  29.016  33.031  1.00  0.00     0.009 A 
ATOM     54  C   UNL A   1      46.265  27.125  35.079  1.00  0.00     0.001 A 
ATOM     55  C   UNL A   1      47.543  28.452  33.516  1.00  0.00     0.001 A 
ATOM     56  C   UNL A   1      47.493  27.512  34.543  1.00  0.00     0.000 A 
ENDBRANCH  38  51
ENDBRANCH  12  13
ENDBRANCH   5   7
ENDBRANCH   2   3
ENDBRANCH   1   2
BRANCH   1  57
ATOM     57  C   UNL A   1      31.499  30.430  26.139  1.00  0.00     0.118 C 
BRANCH  57  58
ATOM     58  N   UNL A   1      31.200  30.186  24.735  1.00  0.00    -0.352 N 
ATOM     59  C   UNL A   1      31.219  29.009  24.039  1.00  0.00     0.251 C 
ATOM     60  H   UNL A   1      30.948  30.982  24.212  1.00  0.00     0.163 HD
ATOM     61  O   UNL A   1      31.156  29.013  22.811  1.00  0.00    -0.269 OA
BRANCH  59  62
ATOM     62  C   UNL A   1      31.324  27.730  24.762  1.00  0.00     0.039 A 
ATOM     63  C   UNL A   1      32.510  27.437  25.438  1.00  0.00     0.015 A 
ATOM     64  C   UNL A   1      30.273  26.804  24.732  1.00  0.00     0.015 A 
ATOM     65  C   UNL A   1      32.631  26.227  26.116  1.00  0.00     0.018 A 
ATOM     66  C   UNL A   1      30.391  25.602  25.424  1.00  0.00     0.018 A 
ATOM     67  C   UNL A   1      31.579  25.301  26.096  1.00  0.00     0.039 A 
BRANCH  67  68
ATOM     68  S   UNL A   1      31.816  23.703  26.876  1.00  0.00     0.056 S 
ATOM     69  O   UNL A   1      30.482  23.017  26.797  1.00  0.00    -0.254 OA
BRANCH  68  70
ATOM     70  C   UNL A   1      32.908  22.876  25.639  1.00  0.00     0.089 C 
ATOM     71  C   UNL A   1      32.619  23.205  24.176  1.00  0.00     0.046 C 
ATOM     72  C   UNL A   1      34.345  23.279  25.972  1.00  0.00     0.053 C 
ATOM     73  C   UNL A   1      33.662  22.579  23.268  1.00  0.00     0.162 C 
ATOM     74  C   UNL A   1      35.353  22.676  24.992  1.00  0.00     0.069 C 
ATOM     75  O   UNL A   1      34.976  22.976  23.642  1.00  0.00    -0.375 OA
ATOM     76  C   UNL A   1      36.754  23.301  25.200  1.00  0.00     0.035 C 
ATOM     77  C   UNL A   1      35.569  21.164  25.194  1.00  0.00     0.035 C 
ATOM     78  C   UNL A   1      37.723  22.135  25.381  1.00  0.00     0.003 C 
ATOM     79  C   UNL A   1      37.012  20.946  24.766  1.00  0.00     0.003 C 
ENDBRANCH  68  70
ENDBRANCH  67  68
ENDBRANCH  59  62
ENDBRANCH  57  58
ENDBRANCH   1  57
TORSDOF 12
ENDMDL
