MODEL 1
REMARK VINA RESULT:     -12.7      0.000      0.000
REMARK SMILES Cc1ccc(C(=O)N2CCCC[C@@H]2C(=O)NCCCNC(=O)c2ccc(-c3c4nc(c(-c5ccccc5)c5ccc([nH]5)c(-c5ccccc5)c5nc(c(-c6ccccc6)c6ccc3[nH]6)C=C5)C=C4)cc2)cc1S(=O)(=O)N1CCCCC1
REMARK SMILES IDX 17 1 16 2 14 3 15 4 13 6 8 7 9 8 10 9 12 10 11 11 6 12 7 13
REMARK SMILES IDX 5 14 1 15 2 16 3 17 72 18 4 19 71 20 73 21 74 22 75 23 76 24
REMARK SMILES IDX 77 25 81 26 78 27 80 28 79 29 18 30 19 31 20 32 21 33 22 35
REMARK SMILES IDX 23 36 24 37 70 38 25 39 69 40 26 41 27 42 28 43 63 44 29 45
REMARK SMILES IDX 68 46 62 47 64 48 30 49 67 50 61 51 60 52 31 54 53 55 38 56
REMARK SMILES IDX 52 57 39 58 42 59 51 60 65 61 40 62 41 63 50 65 66 66 43 67
REMARK SMILES IDX 32 68 33 69 37 70 34 71 36 72 35 73 54 74 55 75 59 76 56 77
REMARK SMILES IDX 58 78 57 79 44 80 45 81 49 82 46 83 48 84 47 85
REMARK H PARENT 16 5 20 34 64 53 42 64
REMARK Flexibility Score: inf
ROOT
ATOM      1  C   UNL A   1      37.774  22.024  25.532  1.00  0.00     0.117 C 
ENDROOT
BRANCH   1   2
ATOM      2  N   UNL A   1      36.650  22.235  26.433  1.00  0.00    -0.354 N 
ATOM      3  C   UNL A   1      35.317  22.006  26.245  1.00  0.00     0.242 C 
ATOM      4  O   UNL A   1      34.543  22.481  27.082  1.00  0.00    -0.273 OA
ATOM      5  H   UNL A   1      36.888  22.601  27.316  1.00  0.00     0.163 HD
BRANCH   3   6
ATOM      6  C   UNL A   1      34.771  21.312  24.967  1.00  0.00     0.174 C 
ATOM      7  N   UNL A   1      34.119  22.234  24.000  1.00  0.00    -0.327 N 
ATOM      8  C   UNL A   1      33.224  21.648  23.011  1.00  0.00     0.120 C 
ATOM      9  C   UNL A   1      32.206  20.710  23.623  1.00  0.00     0.022 C 
ATOM     10  C   UNL A   1      33.815  20.199  25.460  1.00  0.00     0.035 C 
ATOM     11  C   UNL A   1      32.919  19.605  24.384  1.00  0.00     0.004 C 
BRANCH   7  12
ATOM     12  C   UNL A   1      34.532  23.539  23.715  1.00  0.00     0.254 C 
ATOM     13  O   UNL A   1      35.499  23.771  22.988  1.00  0.00    -0.269 OA
BRANCH  12  14
ATOM     14  C   UNL A   1      33.832  24.704  24.291  1.00  0.00     0.041 A 
ATOM     15  C   UNL A   1      31.867  27.786  26.558  1.00  0.00     0.046 C 
ATOM     16  C   UNL A   1      32.419  26.728  25.661  1.00  0.00    -0.031 A 
ATOM     17  C   UNL A   1      33.807  26.517  25.860  1.00  0.00     0.005 A 
ATOM     18  C   UNL A   1      31.748  25.921  24.724  1.00  0.00     0.086 A 
ATOM     19  C   UNL A   1      34.508  25.522  25.188  1.00  0.00     0.014 A 
ATOM     20  C   UNL A   1      32.470  24.895  24.075  1.00  0.00     0.035 A 
BRANCH  18  21
ATOM     21  S   UNL A   1      30.035  25.929  24.167  1.00  0.00     0.243 S 
ATOM     22  O   UNL A   1      29.927  24.803  23.252  1.00  0.00    -0.207 OA
ATOM     23  O   UNL A   1      29.246  25.962  25.376  1.00  0.00    -0.207 OA
BRANCH  21  24
ATOM     24  N   UNL A   1      29.653  27.321  23.291  1.00  0.00    -0.198 NA
ATOM     25  C   UNL A   1      28.266  27.808  23.416  1.00  0.00     0.102 C 
ATOM     26  C   UNL A   1      30.779  28.197  22.911  1.00  0.00     0.102 C 
ATOM     27  C   UNL A   1      27.977  29.086  22.650  1.00  0.00     0.017 C 
ATOM     28  C   UNL A   1      30.376  29.480  22.201  1.00  0.00     0.017 C 
ATOM     29  C   UNL A   1      29.101  30.102  22.740  1.00  0.00     0.003 C 
ENDBRANCH  21  24
ENDBRANCH  18  21
ENDBRANCH  12  14
ENDBRANCH   7  12
ENDBRANCH   3   6
ENDBRANCH   1   2
BRANCH   1  30
ATOM     30  C   UNL A   1      38.998  22.794  25.988  1.00  0.00     0.042 C 
BRANCH  30  31
ATOM     31  C   UNL A   1      39.908  21.974  26.871  1.00  0.00     0.118 C 
BRANCH  31  32
ATOM     32  N   UNL A   1      40.811  21.089  26.142  1.00  0.00    -0.352 N 
ATOM     33  C   UNL A   1      42.194  21.113  26.074  1.00  0.00     0.251 C 
ATOM     34  H   UNL A   1      40.375  20.372  25.627  1.00  0.00     0.163 HD
ATOM     35  O   UNL A   1      42.794  20.264  25.423  1.00  0.00    -0.269 OA
BRANCH  33  36
ATOM     36  C   UNL A   1      42.945  22.057  26.935  1.00  0.00     0.039 A 
ATOM     37  C   UNL A   1      42.701  21.983  28.310  1.00  0.00     0.014 A 
ATOM     38  C   UNL A   1      43.525  23.188  26.380  1.00  0.00     0.014 A 
ATOM     39  C   UNL A   1      42.710  23.155  29.050  1.00  0.00     0.010 A 
ATOM     40  C   UNL A   1      43.367  24.372  27.050  1.00  0.00     0.010 A 
ATOM     41  C   UNL A   1      42.899  24.348  28.363  1.00  0.00    -0.014 A 
BRANCH  41  42
ATOM     42  C   UNL A   1      42.725  25.656  28.950  1.00  0.00     0.031 A 
ATOM     43  C   UNL A   1      41.539  26.401  28.521  1.00  0.00     0.074 A 
ATOM     44  C   UNL A   1      43.578  26.062  29.913  1.00  0.00     0.049 A 
ATOM     45  N   UNL A   1      41.453  27.678  28.515  1.00  0.00    -0.248 NA
ATOM     46  C   UNL A   1      40.353  25.740  27.974  1.00  0.00     0.031 C 
ATOM     47  C   UNL A   1      43.484  27.217  30.797  1.00  0.00     0.029 A 
ATOM     48  N   UNL A   1      44.863  25.568  30.137  1.00  0.00    -0.354 N 
ATOM     49  C   UNL A   1      40.132  27.990  28.287  1.00  0.00     0.074 A 
ATOM     50  C   UNL A   1      39.520  26.771  27.826  1.00  0.00     0.031 C 
ATOM     51  C   UNL A   1      44.718  27.524  31.241  1.00  0.00     0.029 A 
ATOM     52  C   UNL A   1      45.657  26.656  30.544  1.00  0.00     0.049 A 
ATOM     53  H   UNL A   1      45.159  24.635  30.029  1.00  0.00     0.167 HD
ATOM     54  C   UNL A   1      39.682  29.206  28.691  1.00  0.00     0.031 A 
ATOM     55  C   UNL A   1      46.673  27.086  29.735  1.00  0.00     0.031 A 
ATOM     56  C   UNL A   1      40.787  29.991  29.236  1.00  0.00     0.049 A 
ATOM     57  C   UNL A   1      46.390  28.464  29.169  1.00  0.00     0.074 A 
ATOM     58  C   UNL A   1      41.239  30.175  30.531  1.00  0.00     0.029 A 
ATOM     59  N   UNL A   1      41.831  30.347  28.394  1.00  0.00    -0.354 N 
ATOM     60  N   UNL A   1      45.191  28.969  29.049  1.00  0.00    -0.248 NA
ATOM     61  C   UNL A   1      47.429  29.393  28.735  1.00  0.00     0.031 C 
ATOM     62  C   UNL A   1      42.607  30.560  30.460  1.00  0.00     0.029 A 
ATOM     63  C   UNL A   1      42.965  30.644  29.125  1.00  0.00     0.049 A 
ATOM     64  H   UNL A   1      41.773  30.383  27.412  1.00  0.00     0.167 HD
ATOM     65  C   UNL A   1      45.277  30.260  28.597  1.00  0.00     0.074 A 
ATOM     66  C   UNL A   1      46.700  30.473  28.399  1.00  0.00     0.031 C 
ATOM     67  C   UNL A   1      44.181  31.059  28.439  1.00  0.00     0.031 A 
BRANCH  54  68
ATOM     68  C   UNL A   1      38.234  29.571  28.873  1.00  0.00    -0.014 A 
ATOM     69  C   UNL A   1      37.438  29.763  27.728  1.00  0.00     0.009 A 
ATOM     70  C   UNL A   1      37.598  29.782  30.108  1.00  0.00     0.009 A 
ATOM     71  C   UNL A   1      36.108  30.193  27.808  1.00  0.00     0.001 A 
ATOM     72  C   UNL A   1      36.272  30.233  30.196  1.00  0.00     0.001 A 
ATOM     73  C   UNL A   1      35.528  30.441  29.044  1.00  0.00     0.000 A 
ENDBRANCH  54  68
BRANCH  55  74
ATOM     74  C   UNL A   1      47.328  25.947  29.013  1.00  0.00    -0.014 A 
ATOM     75  C   UNL A   1      46.865  25.664  27.706  1.00  0.00     0.009 A 
ATOM     76  C   UNL A   1      48.611  25.510  29.370  1.00  0.00     0.009 A 
ATOM     77  C   UNL A   1      47.730  25.156  26.731  1.00  0.00     0.001 A 
ATOM     78  C   UNL A   1      49.459  24.961  28.396  1.00  0.00     0.001 A 
ATOM     79  C   UNL A   1      49.043  24.845  27.069  1.00  0.00     0.000 A 
ENDBRANCH  55  74
BRANCH  67  80
ATOM     80  C   UNL A   1      44.130  32.359  27.668  1.00  0.00    -0.014 A 
ATOM     81  C   UNL A   1      44.248  32.455  26.279  1.00  0.00     0.009 A 
ATOM     82  C   UNL A   1      43.783  33.547  28.355  1.00  0.00     0.009 A 
ATOM     83  C   UNL A   1      44.072  33.678  25.617  1.00  0.00     0.001 A 
ATOM     84  C   UNL A   1      43.538  34.751  27.695  1.00  0.00     0.001 A 
ATOM     85  C   UNL A   1      43.701  34.819  26.321  1.00  0.00     0.000 A 
ENDBRANCH  67  80
ENDBRANCH  41  42
ENDBRANCH  33  36
ENDBRANCH  31  32
ENDBRANCH  30  31
ENDBRANCH   1  30
TORSDOF 14
ENDMDL
MODEL 2
REMARK VINA RESULT:     -12.5      2.902      8.359
REMARK SMILES Cc1ccc(C(=O)N2CCCC[C@@H]2C(=O)NCCCNC(=O)c2ccc(-c3c4nc(c(-c5ccccc5)c5ccc([nH]5)c(-c5ccccc5)c5nc(c(-c6ccccc6)c6ccc3[nH]6)C=C5)C=C4)cc2)cc1S(=O)(=O)N1CCCCC1
REMARK SMILES IDX 17 1 16 2 14 3 15 4 13 6 8 7 9 8 10 9 12 10 11 11 6 12 7 13
REMARK SMILES IDX 5 14 1 15 2 16 3 17 72 18 4 19 71 20 73 21 74 22 75 23 76 24
REMARK SMILES IDX 77 25 81 26 78 27 80 28 79 29 18 30 19 31 20 32 21 33 22 35
REMARK SMILES IDX 23 36 24 37 70 38 25 39 69 40 26 41 27 42 28 43 63 44 29 45
REMARK SMILES IDX 68 46 62 47 64 48 30 49 67 50 61 51 60 52 31 54 53 55 38 56
REMARK SMILES IDX 52 57 39 58 42 59 51 60 65 61 40 62 41 63 50 65 66 66 43 67
REMARK SMILES IDX 32 68 33 69 37 70 34 71 36 72 35 73 54 74 55 75 59 76 56 77
REMARK SMILES IDX 58 78 57 79 44 80 45 81 49 82 46 83 48 84 47 85
REMARK H PARENT 16 5 20 34 64 53 42 64
REMARK Flexibility Score: inf
ROOT
ATOM      1  C   UNL A   1      32.168  30.505  26.489  1.00  0.00     0.117 C 
ENDROOT
BRANCH   1   2
ATOM      2  N   UNL A   1      32.675  30.008  25.218  1.00  0.00    -0.354 N 
ATOM      3  C   UNL A   1      32.163  29.063  24.376  1.00  0.00     0.242 C 
ATOM      4  O   UNL A   1      32.900  28.660  23.472  1.00  0.00    -0.273 OA
ATOM      5  H   UNL A   1      33.519  30.417  24.919  1.00  0.00     0.163 HD
BRANCH   3   6
ATOM      6  C   UNL A   1      30.775  28.407  24.618  1.00  0.00     0.174 C 
ATOM      7  N   UNL A   1      30.838  27.033  25.182  1.00  0.00    -0.327 N 
ATOM      8  C   UNL A   1      29.653  26.195  25.046  1.00  0.00     0.120 C 
ATOM      9  C   UNL A   1      29.114  26.167  23.633  1.00  0.00     0.022 C 
ATOM     10  C   UNL A   1      30.037  28.455  23.259  1.00  0.00     0.035 C 
ATOM     11  C   UNL A   1      28.794  27.580  23.177  1.00  0.00     0.004 C 
BRANCH   7  12
ATOM     12  C   UNL A   1      31.769  26.581  26.123  1.00  0.00     0.254 C 
ATOM     13  O   UNL A   1      31.799  27.021  27.273  1.00  0.00    -0.269 OA
BRANCH  12  14
ATOM     14  C   UNL A   1      32.776  25.561  25.771  1.00  0.00     0.041 A 
ATOM     15  C   UNL A   1      35.574  22.749  24.108  1.00  0.00     0.046 C 
ATOM     16  C   UNL A   1      34.550  23.597  24.787  1.00  0.00    -0.031 A 
ATOM     17  C   UNL A   1      34.808  24.984  24.637  1.00  0.00     0.005 A 
ATOM     18  C   UNL A   1      33.391  23.205  25.480  1.00  0.00     0.086 A 
ATOM     19  C   UNL A   1      33.938  25.955  25.119  1.00  0.00     0.014 A 
ATOM     20  C   UNL A   1      32.503  24.205  25.935  1.00  0.00     0.035 A 
BRANCH  18  21
ATOM     21  S   UNL A   1      32.767  21.571  25.914  1.00  0.00     0.243 S 
ATOM     22  O   UNL A   1      33.625  21.112  26.995  1.00  0.00    -0.207 OA
ATOM     23  O   UNL A   1      31.352  21.755  26.136  1.00  0.00    -0.207 OA
BRANCH  21  24
ATOM     24  N   UNL A   1      32.927  20.468  24.646  1.00  0.00    -0.198 NA
ATOM     25  C   UNL A   1      33.308  19.094  25.024  1.00  0.00     0.102 C 
ATOM     26  C   UNL A   1      32.215  20.787  23.393  1.00  0.00     0.102 C 
ATOM     27  C   UNL A   1      33.396  18.123  23.859  1.00  0.00     0.017 C 
ATOM     28  C   UNL A   1      32.318  19.722  22.312  1.00  0.00     0.017 C 
ATOM     29  C   UNL A   1      32.280  18.303  22.848  1.00  0.00     0.003 C 
ENDBRANCH  21  24
ENDBRANCH  18  21
ENDBRANCH  12  14
ENDBRANCH   7  12
ENDBRANCH   3   6
ENDBRANCH   1   2
BRANCH   1  30
ATOM     30  C   UNL A   1      33.083  30.120  27.636  1.00  0.00     0.042 C 
BRANCH  30  31
ATOM     31  C   UNL A   1      34.546  30.232  27.278  1.00  0.00     0.118 C 
BRANCH  31  32
ATOM     32  N   UNL A   1      35.285  31.203  28.078  1.00  0.00    -0.352 N 
ATOM     33  C   UNL A   1      36.505  31.062  28.718  1.00  0.00     0.251 C 
ATOM     34  H   UNL A   1      34.856  32.084  28.176  1.00  0.00     0.163 HD
ATOM     35  O   UNL A   1      36.991  32.005  29.333  1.00  0.00    -0.269 OA
BRANCH  33  36
ATOM     36  C   UNL A   1      37.297  29.829  28.503  1.00  0.00     0.039 A 
ATOM     37  C   UNL A   1      37.431  28.968  29.597  1.00  0.00     0.014 A 
ATOM     38  C   UNL A   1      38.171  29.746  27.428  1.00  0.00     0.014 A 
ATOM     39  C   UNL A   1      38.627  28.288  29.766  1.00  0.00     0.010 A 
ATOM     40  C   UNL A   1      39.416  29.226  27.665  1.00  0.00     0.010 A 
ATOM     41  C   UNL A   1      39.650  28.554  28.864  1.00  0.00    -0.014 A 
BRANCH  41  42
ATOM     42  C   UNL A   1      41.009  28.094  29.025  1.00  0.00     0.031 A 
ATOM     43  C   UNL A   1      41.314  26.776  28.460  1.00  0.00     0.074 A 
ATOM     44  C   UNL A   1      41.923  28.922  29.572  1.00  0.00     0.049 A 
ATOM     45  N   UNL A   1      42.239  26.003  28.892  1.00  0.00    -0.248 NA
ATOM     46  C   UNL A   1      40.520  26.182  27.385  1.00  0.00     0.031 C 
ATOM     47  C   UNL A   1      43.372  28.779  29.638  1.00  0.00     0.029 A 
ATOM     48  N   UNL A   1      41.653  30.019  30.392  1.00  0.00    -0.354 N 
ATOM     49  C   UNL A   1      42.375  24.989  27.972  1.00  0.00     0.074 A 
ATOM     50  C   UNL A   1      41.208  25.066  27.134  1.00  0.00     0.031 C 
ATOM     51  C   UNL A   1      43.836  29.535  30.651  1.00  0.00     0.029 A 
ATOM     52  C   UNL A   1      42.680  30.077  31.352  1.00  0.00     0.049 A 
ATOM     53  H   UNL A   1      40.889  30.634  30.313  1.00  0.00     0.167 HD
ATOM     54  C   UNL A   1      43.556  24.320  27.927  1.00  0.00     0.031 A 
ATOM     55  C   UNL A   1      42.382  29.852  32.668  1.00  0.00     0.031 A 
ATOM     56  C   UNL A   1      44.442  24.801  28.984  1.00  0.00     0.049 A 
ATOM     57  C   UNL A   1      43.004  28.563  33.169  1.00  0.00     0.074 A 
ATOM     58  C   UNL A   1      45.444  25.756  28.988  1.00  0.00     0.029 A 
ATOM     59  N   UNL A   1      44.067  24.611  30.307  1.00  0.00    -0.354 N 
ATOM     60  N   UNL A   1      43.348  27.570  32.390  1.00  0.00    -0.248 NA
ATOM     61  C   UNL A   1      43.323  28.305  34.569  1.00  0.00     0.031 C 
ATOM     62  C   UNL A   1      45.603  26.210  30.326  1.00  0.00     0.029 A 
ATOM     63  C   UNL A   1      44.727  25.502  31.131  1.00  0.00     0.049 A 
ATOM     64  H   UNL A   1      43.420  23.936  30.616  1.00  0.00     0.167 HD
ATOM     65  C   UNL A   1      43.966  26.597  33.130  1.00  0.00     0.074 A 
ATOM     66  C   UNL A   1      43.911  27.097  34.493  1.00  0.00     0.031 C 
ATOM     67  C   UNL A   1      44.492  25.468  32.569  1.00  0.00     0.031 A 
BRANCH  54  68
ATOM     68  C   UNL A   1      44.020  23.469  26.776  1.00  0.00    -0.014 A 
ATOM     69  C   UNL A   1      44.881  24.041  25.820  1.00  0.00     0.009 A 
ATOM     70  C   UNL A   1      43.633  22.139  26.540  1.00  0.00     0.009 A 
ATOM     71  C   UNL A   1      45.286  23.349  24.672  1.00  0.00     0.001 A 
ATOM     72  C   UNL A   1      44.018  21.446  25.382  1.00  0.00     0.001 A 
ATOM     73  C   UNL A   1      44.842  22.054  24.446  1.00  0.00     0.000 A 
ENDBRANCH  54  68
BRANCH  55  74
ATOM     74  C   UNL A   1      41.027  30.383  33.029  1.00  0.00    -0.014 A 
ATOM     75  C   UNL A   1      40.736  31.714  32.643  1.00  0.00     0.009 A 
ATOM     76  C   UNL A   1      39.955  29.516  33.276  1.00  0.00     0.009 A 
ATOM     77  C   UNL A   1      39.432  32.097  32.310  1.00  0.00     0.001 A 
ATOM     78  C   UNL A   1      38.644  29.922  32.980  1.00  0.00     0.001 A 
ATOM     79  C   UNL A   1      38.392  31.183  32.438  1.00  0.00     0.000 A 
ENDBRANCH  55  74
BRANCH  67  80
ATOM     80  C   UNL A   1      44.904  24.215  33.307  1.00  0.00    -0.014 A 
ATOM     81  C   UNL A   1      46.181  23.993  33.829  1.00  0.00     0.009 A 
ATOM     82  C   UNL A   1      43.911  23.263  33.643  1.00  0.00     0.009 A 
ATOM     83  C   UNL A   1      46.462  22.861  34.606  1.00  0.00     0.001 A 
ATOM     84  C   UNL A   1      44.168  22.173  34.473  1.00  0.00     0.001 A 
ATOM     85  C   UNL A   1      45.454  21.962  34.942  1.00  0.00     0.000 A 
ENDBRANCH  67  80
ENDBRANCH  41  42
ENDBRANCH  33  36
ENDBRANCH  31  32
ENDBRANCH  30  31
ENDBRANCH   1  30
TORSDOF 14
ENDMDL
MODEL 3
REMARK VINA RESULT:     -12.5      2.049      3.230
REMARK SMILES Cc1ccc(C(=O)N2CCCC[C@@H]2C(=O)NCCCNC(=O)c2ccc(-c3c4nc(c(-c5ccccc5)c5ccc([nH]5)c(-c5ccccc5)c5nc(c(-c6ccccc6)c6ccc3[nH]6)C=C5)C=C4)cc2)cc1S(=O)(=O)N1CCCCC1
REMARK SMILES IDX 17 1 16 2 14 3 15 4 13 6 8 7 9 8 10 9 12 10 11 11 6 12 7 13
REMARK SMILES IDX 5 14 1 15 2 16 3 17 72 18 4 19 71 20 73 21 74 22 75 23 76 24
REMARK SMILES IDX 77 25 81 26 78 27 80 28 79 29 18 30 19 31 20 32 21 33 22 35
REMARK SMILES IDX 23 36 24 37 70 38 25 39 69 40 26 41 27 42 28 43 63 44 29 45
REMARK SMILES IDX 68 46 62 47 64 48 30 49 67 50 61 51 60 52 31 54 53 55 38 56
REMARK SMILES IDX 52 57 39 58 42 59 51 60 65 61 40 62 41 63 50 65 66 66 43 67
REMARK SMILES IDX 32 68 33 69 37 70 34 71 36 72 35 73 54 74 55 75 59 76 56 77
REMARK SMILES IDX 58 78 57 79 44 80 45 81 49 82 46 83 48 84 47 85
REMARK H PARENT 16 5 20 34 64 53 42 64
REMARK Flexibility Score: inf
ROOT
ATOM      1  C   UNL A   1      37.642  21.921  25.124  1.00  0.00     0.117 C 
ENDROOT
BRANCH   1   2
ATOM      2  N   UNL A   1      36.586  21.991  26.123  1.00  0.00    -0.354 N 
ATOM      3  C   UNL A   1      35.236  21.840  25.988  1.00  0.00     0.242 C 
ATOM      4  O   UNL A   1      34.535  22.171  26.949  1.00  0.00    -0.273 OA
ATOM      5  H   UNL A   1      36.893  22.177  27.040  1.00  0.00     0.163 HD
BRANCH   3   6
ATOM      6  C   UNL A   1      34.584  21.415  24.643  1.00  0.00     0.174 C 
ATOM      7  N   UNL A   1      34.054  22.544  23.835  1.00  0.00    -0.327 N 
ATOM      8  C   UNL A   1      33.075  22.232  22.802  1.00  0.00     0.120 C 
ATOM      9  C   UNL A   1      31.945  21.362  23.309  1.00  0.00     0.022 C 
ATOM     10  C   UNL A   1      33.489  20.383  25.006  1.00  0.00     0.035 C 
ATOM     11  C   UNL A   1      32.507  20.074  23.886  1.00  0.00     0.004 C 
BRANCH   7  12
ATOM     12  C   UNL A   1      34.640  23.809  23.722  1.00  0.00     0.254 C 
ATOM     13  O   UNL A   1      35.729  23.975  23.172  1.00  0.00    -0.269 OA
BRANCH  12  14
ATOM     14  C   UNL A   1      33.980  25.008  24.275  1.00  0.00     0.041 A 
ATOM     15  C   UNL A   1      31.654  28.070  26.203  1.00  0.00     0.046 C 
ATOM     16  C   UNL A   1      32.444  27.099  25.390  1.00  0.00    -0.031 A 
ATOM     17  C   UNL A   1      33.260  26.257  26.191  1.00  0.00     0.005 A 
ATOM     18  C   UNL A   1      32.441  26.896  23.998  1.00  0.00     0.086 A 
ATOM     19  C   UNL A   1      34.017  25.227  25.647  1.00  0.00     0.014 A 
ATOM     20  C   UNL A   1      33.192  25.824  23.468  1.00  0.00     0.035 A 
BRANCH  18  21
ATOM     21  S   UNL A   1      31.596  27.782  22.676  1.00  0.00     0.243 S 
ATOM     22  O   UNL A   1      32.385  28.984  22.460  1.00  0.00    -0.207 OA
ATOM     23  O   UNL A   1      31.439  26.814  21.615  1.00  0.00    -0.207 OA
BRANCH  21  24
ATOM     24  N   UNL A   1      30.046  28.276  23.125  1.00  0.00    -0.198 NA
ATOM     25  C   UNL A   1      29.650  29.635  22.710  1.00  0.00     0.102 C 
ATOM     26  C   UNL A   1      29.067  27.210  23.418  1.00  0.00     0.102 C 
ATOM     27  C   UNL A   1      28.233  30.022  23.094  1.00  0.00     0.017 C 
ATOM     28  C   UNL A   1      27.663  27.703  23.732  1.00  0.00     0.017 C 
ATOM     29  C   UNL A   1      27.234  28.897  22.900  1.00  0.00     0.003 C 
ENDBRANCH  21  24
ENDBRANCH  18  21
ENDBRANCH  12  14
ENDBRANCH   7  12
ENDBRANCH   3   6
ENDBRANCH   1   2
BRANCH   1  30
ATOM     30  C   UNL A   1      38.934  21.398  25.723  1.00  0.00     0.042 C 
BRANCH  30  31
ATOM     31  C   UNL A   1      39.569  22.375  26.683  1.00  0.00     0.118 C 
BRANCH  31  32
ATOM     32  N   UNL A   1      40.924  22.778  26.318  1.00  0.00    -0.352 N 
ATOM     33  C   UNL A   1      41.473  24.048  26.258  1.00  0.00     0.251 C 
ATOM     34  H   UNL A   1      41.534  22.042  26.083  1.00  0.00     0.163 HD
ATOM     35  O   UNL A   1      42.651  24.196  25.951  1.00  0.00    -0.269 OA
BRANCH  33  36
ATOM     36  C   UNL A   1      40.680  25.203  26.740  1.00  0.00     0.039 A 
ATOM     37  C   UNL A   1      40.850  26.411  26.057  1.00  0.00     0.014 A 
ATOM     38  C   UNL A   1      40.134  25.183  28.016  1.00  0.00     0.014 A 
ATOM     39  C   UNL A   1      40.806  27.594  26.777  1.00  0.00     0.010 A 
ATOM     40  C   UNL A   1      40.259  26.317  28.774  1.00  0.00     0.010 A 
ATOM     41  C   UNL A   1      40.656  27.502  28.156  1.00  0.00    -0.014 A 
BRANCH  41  42
ATOM     42  C   UNL A   1      40.802  28.617  29.062  1.00  0.00     0.031 A 
ATOM     43  C   UNL A   1      39.642  29.504  29.182  1.00  0.00     0.074 A 
ATOM     44  C   UNL A   1      41.923  28.717  29.806  1.00  0.00     0.049 A 
ATOM     45  N   UNL A   1      39.712  30.742  29.505  1.00  0.00    -0.248 NA
ATOM     46  C   UNL A   1      38.284  29.067  28.859  1.00  0.00     0.031 C 
ATOM     47  C   UNL A   1      42.207  29.604  30.927  1.00  0.00     0.029 A 
ATOM     48  N   UNL A   1      43.153  28.121  29.526  1.00  0.00    -0.354 N 
ATOM     49  C   UNL A   1      38.425  31.164  29.748  1.00  0.00     0.074 A 
ATOM     50  C   UNL A   1      37.570  30.140  29.208  1.00  0.00     0.031 C 
ATOM     51  C   UNL A   1      43.542  29.725  31.057  1.00  0.00     0.029 A 
ATOM     52  C   UNL A   1      44.150  29.025  29.934  1.00  0.00     0.049 A 
ATOM     53  H   UNL A   1      43.295  27.236  29.119  1.00  0.00     0.167 HD
ATOM     54  C   UNL A   1      38.247  32.253  30.541  1.00  0.00     0.031 A 
ATOM     55  C   UNL A   1      44.958  29.603  28.992  1.00  0.00     0.031 A 
ATOM     56  C   UNL A   1      39.543  32.814  30.915  1.00  0.00     0.049 A 
ATOM     57  C   UNL A   1      44.702  31.093  28.876  1.00  0.00     0.074 A 
ATOM     58  C   UNL A   1      40.343  32.632  32.030  1.00  0.00     0.029 A 
ATOM     59  N   UNL A   1      40.360  33.329  29.917  1.00  0.00    -0.354 N 
ATOM     60  N   UNL A   1      43.583  31.669  29.230  1.00  0.00    -0.248 NA
ATOM     61  C   UNL A   1      45.691  32.052  28.394  1.00  0.00     0.031 C 
ATOM     62  C   UNL A   1      41.678  32.956  31.661  1.00  0.00     0.029 A 
ATOM     63  C   UNL A   1      41.674  33.369  30.340  1.00  0.00     0.049 A 
ATOM     64  H   UNL A   1      40.047  33.623  29.031  1.00  0.00     0.167 HD
ATOM     65  C   UNL A   1      43.699  33.027  29.092  1.00  0.00     0.074 A 
ATOM     66  C   UNL A   1      45.033  33.217  28.549  1.00  0.00     0.031 C 
ATOM     67  C   UNL A   1      42.704  33.891  29.451  1.00  0.00     0.031 A 
BRANCH  54  68
ATOM     68  C   UNL A   1      36.954  32.626  31.214  1.00  0.00    -0.014 A 
ATOM     69  C   UNL A   1      36.031  33.419  30.507  1.00  0.00     0.009 A 
ATOM     70  C   UNL A   1      36.593  32.282  32.528  1.00  0.00     0.009 A 
ATOM     71  C   UNL A   1      34.847  33.887  31.091  1.00  0.00     0.001 A 
ATOM     72  C   UNL A   1      35.419  32.763  33.127  1.00  0.00     0.001 A 
ATOM     73  C   UNL A   1      34.548  33.569  32.409  1.00  0.00     0.000 A 
ENDBRANCH  54  68
BRANCH  55  74
ATOM     74  C   UNL A   1      45.256  28.662  27.863  1.00  0.00    -0.014 A 
ATOM     75  C   UNL A   1      45.978  27.486  28.182  1.00  0.00     0.009 A 
ATOM     76  C   UNL A   1      44.481  28.668  26.697  1.00  0.00     0.009 A 
ATOM     77  C   UNL A   1      45.760  26.297  27.477  1.00  0.00     0.001 A 
ATOM     78  C   UNL A   1      44.303  27.481  25.969  1.00  0.00     0.001 A 
ATOM     79  C   UNL A   1      44.887  26.287  26.395  1.00  0.00     0.000 A 
ENDBRANCH  55  74
BRANCH  67  80
ATOM     80  C   UNL A   1      42.606  35.348  29.059  1.00  0.00    -0.014 A 
ATOM     81  C   UNL A   1      43.238  36.391  29.741  1.00  0.00     0.009 A 
ATOM     82  C   UNL A   1      41.971  35.685  27.839  1.00  0.00     0.009 A 
ATOM     83  C   UNL A   1      43.202  37.705  29.254  1.00  0.00     0.001 A 
ATOM     84  C   UNL A   1      41.993  36.977  27.315  1.00  0.00     0.001 A 
ATOM     85  C   UNL A   1      42.596  37.994  28.035  1.00  0.00     0.000 A 
ENDBRANCH  67  80
ENDBRANCH  41  42
ENDBRANCH  33  36
ENDBRANCH  31  32
ENDBRANCH  30  31
ENDBRANCH   1  30
TORSDOF 14
ENDMDL
