MODEL 1
REMARK VINA RESULT:      -9.8      0.000      0.000
REMARK SMILES O=C(NCCCNC(=O)[C@H](CO)NC(=O)[C@H](CS)NC(=O)[C@H](Cc1ccccc1)NC(=O)c1ccc(F)cc1)c1ccc(-c2c3nc(c(-c4ccccc4)c4ccc([nH]4)c(-c4ccccc4)c4nc(c(-c5ccccc5)c5ccc2[nH]5)C=C4)C=C3)cc1
REMARK SMILES IDX 7 1 8 2 9 3 6 5 5 6 4 7 3 8 1 9 2 10 40 12 41 13 87 14 42 15
REMARK SMILES IDX 86 16 43 17 44 18 45 19 80 20 46 21 85 22 79 23 81 24 47 25
REMARK SMILES IDX 84 26 78 27 77 28 48 30 70 31 55 32 69 33 56 34 59 35 68 36
REMARK SMILES IDX 82 37 57 38 58 39 67 41 83 42 60 43 49 44 50 45 54 46 51 47
REMARK SMILES IDX 53 48 52 49 71 50 72 51 76 52 73 53 75 54 74 55 61 56 62 57
REMARK SMILES IDX 66 58 63 59 65 60 64 61 10 62 13 63 14 64 15 66 16 67 19 68
REMARK SMILES IDX 20 69 21 71 22 72 30 73 31 74 32 76 33 77 34 78 39 79 35 80
REMARK SMILES IDX 38 81 36 82 37 83 23 84 24 85 25 86 29 87 26 88 28 89 27 90
REMARK SMILES IDX 17 91 18 92 11 94 12 95
REMARK H PARENT 7 4 3 11 81 29 59 40 13 65 19 70 30 75 18 93 12 96
REMARK Flexibility Score: inf
ROOT
ATOM      1  N   UNL A   1      42.489  40.239  29.481  1.00  0.00    -0.354 N 
ATOM      2  C   UNL A   1      42.096  39.813  28.252  1.00  0.00     0.244 C 
ATOM      3  O   UNL A   1      41.645  38.663  28.194  1.00  0.00    -0.273 OA
ATOM      4  H   UNL A   1      42.523  39.523  30.156  1.00  0.00     0.163 HD
ENDROOT
BRANCH   1   5
ATOM      5  C   UNL A   1      42.871  41.541  29.993  1.00  0.00     0.117 C 
BRANCH   5   6
ATOM      6  C   UNL A   1      42.435  41.674  31.446  1.00  0.00     0.042 C 
BRANCH   6   7
ATOM      7  C   UNL A   1      42.752  40.424  32.256  1.00  0.00     0.118 C 
BRANCH   7   8
ATOM      8  N   UNL A   1      44.181  40.300  32.521  1.00  0.00    -0.352 N 
ATOM      9  O   UNL A   1      46.073  39.254  33.152  1.00  0.00    -0.269 OA
ATOM     10  C   UNL A   1      44.949  39.175  32.657  1.00  0.00     0.251 C 
ATOM     11  H   UNL A   1      44.664  41.153  32.618  1.00  0.00     0.163 HD
BRANCH  10  12
ATOM     12  C   UNL A   1      44.428  37.874  32.203  1.00  0.00     0.039 A 
ATOM     13  C   UNL A   1      44.428  37.558  30.843  1.00  0.00     0.014 A 
ATOM     14  C   UNL A   1      43.966  36.949  33.142  1.00  0.00     0.014 A 
ATOM     15  C   UNL A   1      43.827  36.389  30.408  1.00  0.00     0.010 A 
ATOM     16  C   UNL A   1      43.467  35.720  32.709  1.00  0.00     0.010 A 
ATOM     17  C   UNL A   1      43.372  35.442  31.336  1.00  0.00    -0.014 A 
BRANCH  17  18
ATOM     18  C   UNL A   1      42.881  34.135  30.842  1.00  0.00     0.031 A 
ATOM     19  C   UNL A   1      41.421  33.892  30.601  1.00  0.00     0.074 A 
ATOM     20  C   UNL A   1      43.786  33.171  30.583  1.00  0.00     0.049 A 
ATOM     21  N   UNL A   1      40.834  32.815  30.145  1.00  0.00    -0.248 NA
ATOM     22  C   UNL A   1      40.499  34.992  30.920  1.00  0.00     0.031 C 
ATOM     23  C   UNL A   1      45.234  33.300  30.777  1.00  0.00     0.029 A 
ATOM     24  N   UNL A   1      43.631  31.908  30.077  1.00  0.00    -0.354 N 
ATOM     25  C   UNL A   1      39.473  33.097  30.144  1.00  0.00     0.074 A 
ATOM     26  C   UNL A   1      39.321  34.436  30.671  1.00  0.00     0.031 C 
ATOM     27  C   UNL A   1      45.838  32.188  30.336  1.00  0.00     0.029 A 
ATOM     28  C   UNL A   1      44.819  31.239  29.908  1.00  0.00     0.049 A 
ATOM     29  H   UNL A   1      42.755  31.517  29.857  1.00  0.00     0.167 HD
ATOM     30  C   UNL A   1      38.448  32.309  29.739  1.00  0.00     0.031 A 
ATOM     31  C   UNL A   1      45.064  29.991  29.475  1.00  0.00     0.031 A 
ATOM     32  C   UNL A   1      38.611  30.971  29.231  1.00  0.00     0.049 A 
ATOM     33  C   UNL A   1      43.906  29.122  29.087  1.00  0.00     0.074 A 
ATOM     34  C   UNL A   1      37.641  30.098  28.768  1.00  0.00     0.029 A 
ATOM     35  N   UNL A   1      39.825  30.306  29.131  1.00  0.00    -0.354 N 
ATOM     36  N   UNL A   1      42.629  29.414  29.060  1.00  0.00    -0.248 NA
ATOM     37  C   UNL A   1      44.225  27.750  28.671  1.00  0.00     0.031 C 
ATOM     38  C   UNL A   1      38.260  28.885  28.452  1.00  0.00     0.029 A 
ATOM     39  C   UNL A   1      39.625  29.024  28.646  1.00  0.00     0.049 A 
ATOM     40  H   UNL A   1      40.701  30.689  29.369  1.00  0.00     0.167 HD
ATOM     41  C   UNL A   1      41.990  28.270  28.602  1.00  0.00     0.074 A 
ATOM     42  C   UNL A   1      43.026  27.288  28.347  1.00  0.00     0.031 C 
ATOM     43  C   UNL A   1      40.666  28.054  28.409  1.00  0.00     0.031 A 
BRANCH  30  44
ATOM     44  C   UNL A   1      37.054  32.862  29.878  1.00  0.00    -0.014 A 
ATOM     45  C   UNL A   1      36.293  32.663  31.041  1.00  0.00     0.009 A 
ATOM     46  C   UNL A   1      36.498  33.610  28.828  1.00  0.00     0.009 A 
ATOM     47  C   UNL A   1      34.989  33.159  31.130  1.00  0.00     0.001 A 
ATOM     48  C   UNL A   1      35.207  34.134  28.933  1.00  0.00     0.001 A 
ATOM     49  C   UNL A   1      34.450  33.897  30.078  1.00  0.00     0.000 A 
ENDBRANCH  30  44
BRANCH  31  50
ATOM     50  C   UNL A   1      46.463  29.499  29.401  1.00  0.00    -0.014 A 
ATOM     51  C   UNL A   1      47.265  29.791  28.288  1.00  0.00     0.009 A 
ATOM     52  C   UNL A   1      47.016  28.761  30.461  1.00  0.00     0.009 A 
ATOM     53  C   UNL A   1      48.585  29.340  28.231  1.00  0.00     0.001 A 
ATOM     54  C   UNL A   1      48.345  28.341  30.416  1.00  0.00     0.001 A 
ATOM     55  C   UNL A   1      49.126  28.623  29.298  1.00  0.00     0.000 A 
ENDBRANCH  31  50
BRANCH  43  56
ATOM     56  C   UNL A   1      40.270  26.712  27.861  1.00  0.00    -0.014 A 
ATOM     57  C   UNL A   1      40.532  26.357  26.529  1.00  0.00     0.009 A 
ATOM     58  C   UNL A   1      39.644  25.778  28.702  1.00  0.00     0.009 A 
ATOM     59  C   UNL A   1      40.141  25.109  26.040  1.00  0.00     0.001 A 
ATOM     60  C   UNL A   1      39.286  24.519  28.222  1.00  0.00     0.001 A 
ATOM     61  C   UNL A   1      39.524  24.190  26.888  1.00  0.00     0.000 A 
ENDBRANCH  43  56
ENDBRANCH  17  18
ENDBRANCH  10  12
ENDBRANCH   7   8
ENDBRANCH   6   7
ENDBRANCH   5   6
ENDBRANCH   1   5
BRANCH   2  62
ATOM     62  C   UNL A   1      42.345  40.608  26.955  1.00  0.00     0.197 C 
BRANCH  62  63
ATOM     63  N   UNL A   1      43.550  40.300  26.184  1.00  0.00    -0.340 N 
ATOM     64  C   UNL A   1      44.420  41.051  25.465  1.00  0.00     0.244 C 
ATOM     65  H   UNL A   1      43.779  39.342  26.189  1.00  0.00     0.164 HD
ATOM     66  O   UNL A   1      45.497  40.494  25.214  1.00  0.00    -0.273 OA
BRANCH  64  67
ATOM     67  C   UNL A   1      44.122  42.457  24.889  1.00  0.00     0.181 C 
BRANCH  67  68
ATOM     68  N   UNL A   1      42.772  42.691  24.365  1.00  0.00    -0.342 N 
ATOM     69  C   UNL A   1      42.303  42.911  23.099  1.00  0.00     0.243 C 
ATOM     70  H   UNL A   1      42.072  42.688  25.056  1.00  0.00     0.164 HD
ATOM     71  O   UNL A   1      41.076  43.034  23.008  1.00  0.00    -0.273 OA
BRANCH  69  72
ATOM     72  C   UNL A   1      43.205  43.139  21.852  1.00  0.00     0.176 C 
BRANCH  72  73
ATOM     73  N   UNL A   1      44.624  42.847  22.020  1.00  0.00    -0.340 N 
ATOM     74  C   UNL A   1      45.741  43.425  21.477  1.00  0.00     0.251 C 
ATOM     75  H   UNL A   1      44.814  42.101  22.635  1.00  0.00     0.164 HD
ATOM     76  O   UNL A   1      46.821  42.861  21.634  1.00  0.00    -0.269 OA
BRANCH  74  77
ATOM     77  C   UNL A   1      45.685  44.707  20.733  1.00  0.00     0.040 A 
ATOM     78  C   UNL A   1      45.994  44.670  19.366  1.00  0.00     0.017 A 
ATOM     79  C   UNL A   1      45.432  45.941  21.350  1.00  0.00     0.017 A 
ATOM     80  C   UNL A   1      45.993  45.847  18.616  1.00  0.00     0.040 A 
ATOM     81  C   UNL A   1      45.416  47.114  20.593  1.00  0.00     0.040 A 
ATOM     82  C   UNL A   1      45.692  47.054  19.234  1.00  0.00     0.123 A 
ATOM     83  F   UNL A   1      45.681  48.182  18.512  1.00  0.00    -0.207 F 
ENDBRANCH  74  77
ENDBRANCH  72  73
BRANCH  72  84
ATOM     84  C   UNL A   1      42.619  42.473  20.569  1.00  0.00     0.070 C 
BRANCH  84  85
ATOM     85  C   UNL A   1      42.328  43.370  19.380  1.00  0.00    -0.045 A 
ATOM     86  C   UNL A   1      41.188  44.192  19.367  1.00  0.00     0.004 A 
ATOM     87  C   UNL A   1      43.145  43.354  18.243  1.00  0.00     0.004 A 
ATOM     88  C   UNL A   1      40.923  45.044  18.295  1.00  0.00     0.000 A 
ATOM     89  C   UNL A   1      42.857  44.180  17.150  1.00  0.00     0.000 A 
ATOM     90  C   UNL A   1      41.762  45.042  17.187  1.00  0.00     0.000 A 
ENDBRANCH  84  85
ENDBRANCH  72  84
ENDBRANCH  69  72
ENDBRANCH  67  68
BRANCH  67  91
ATOM     91  C   UNL A   1      44.525  43.556  25.897  1.00  0.00     0.101 C 
BRANCH  91  92
ATOM     92  S   UNL A   1      45.446  44.943  25.140  1.00  0.00    -0.177 SA
ATOM     93  H   UNL A   1      46.058  45.668  26.115  1.00  0.00     0.102 HD
ENDBRANCH  91  92
ENDBRANCH  67  91
ENDBRANCH  64  67
ENDBRANCH  62  63
BRANCH  62  94
ATOM     94  C   UNL A   1      41.090  40.449  26.080  1.00  0.00     0.191 C 
BRANCH  94  95
ATOM     95  O   UNL A   1      40.362  41.667  25.943  1.00  0.00    -0.394 OA
ATOM     96  H   UNL A   1      40.230  42.065  26.818  1.00  0.00     0.210 HD
ENDBRANCH  94  95
ENDBRANCH  62  94
ENDBRANCH   2  62
TORSDOF 22
ENDMDL
MODEL 2
REMARK VINA RESULT:      -9.6      2.726      4.084
REMARK SMILES O=C(NCCCNC(=O)[C@H](CO)NC(=O)[C@H](CS)NC(=O)[C@H](Cc1ccccc1)NC(=O)c1ccc(F)cc1)c1ccc(-c2c3nc(c(-c4ccccc4)c4ccc([nH]4)c(-c4ccccc4)c4nc(c(-c5ccccc5)c5ccc2[nH]5)C=C4)C=C3)cc1
REMARK SMILES IDX 7 1 8 2 9 3 6 5 5 6 4 7 3 8 1 9 2 10 40 12 41 13 87 14 42 15
REMARK SMILES IDX 86 16 43 17 44 18 45 19 80 20 46 21 85 22 79 23 81 24 47 25
REMARK SMILES IDX 84 26 78 27 77 28 48 30 70 31 55 32 69 33 56 34 59 35 68 36
REMARK SMILES IDX 82 37 57 38 58 39 67 41 83 42 60 43 49 44 50 45 54 46 51 47
REMARK SMILES IDX 53 48 52 49 71 50 72 51 76 52 73 53 75 54 74 55 61 56 62 57
REMARK SMILES IDX 66 58 63 59 65 60 64 61 10 62 13 63 14 64 15 66 16 67 19 68
REMARK SMILES IDX 20 69 21 71 22 72 30 73 31 74 32 76 33 77 34 78 39 79 35 80
REMARK SMILES IDX 38 81 36 82 37 83 23 84 24 85 25 86 29 87 26 88 28 89 27 90
REMARK SMILES IDX 17 91 18 92 11 94 12 95
REMARK H PARENT 7 4 3 11 81 29 59 40 13 65 19 70 30 75 18 93 12 96
REMARK Flexibility Score: inf
ROOT
ATOM      1  N   UNL A   1      43.348  41.330  27.757  1.00  0.00    -0.354 N 
ATOM      2  C   UNL A   1      44.333  42.184  27.376  1.00  0.00     0.244 C 
ATOM      3  O   UNL A   1      44.812  42.895  28.267  1.00  0.00    -0.273 OA
ATOM      4  H   UNL A   1      43.015  41.492  28.669  1.00  0.00     0.163 HD
ENDROOT
BRANCH   1   5
ATOM      5  C   UNL A   1      42.689  40.227  27.084  1.00  0.00     0.117 C 
BRANCH   5   6
ATOM      6  C   UNL A   1      42.320  39.150  28.095  1.00  0.00     0.042 C 
BRANCH   6   7
ATOM      7  C   UNL A   1      43.071  37.849  27.846  1.00  0.00     0.118 C 
BRANCH   7   8
ATOM      8  N   UNL A   1      44.459  37.934  28.282  1.00  0.00    -0.352 N 
ATOM      9  O   UNL A   1      46.325  37.264  29.351  1.00  0.00    -0.269 OA
ATOM     10  C   UNL A   1      45.281  36.957  28.777  1.00  0.00     0.251 C 
ATOM     11  H   UNL A   1      44.866  38.828  28.211  1.00  0.00     0.163 HD
BRANCH  10  12
ATOM     12  C   UNL A   1      44.913  35.540  28.614  1.00  0.00     0.039 A 
ATOM     13  C   UNL A   1      45.037  34.659  29.689  1.00  0.00     0.014 A 
ATOM     14  C   UNL A   1      44.411  35.093  27.390  1.00  0.00     0.014 A 
ATOM     15  C   UNL A   1      44.808  33.306  29.501  1.00  0.00     0.010 A 
ATOM     16  C   UNL A   1      44.070  33.748  27.236  1.00  0.00     0.010 A 
ATOM     17  C   UNL A   1      44.290  32.841  28.284  1.00  0.00    -0.014 A 
BRANCH  17  18
ATOM     18  C   UNL A   1      43.906  31.415  28.168  1.00  0.00     0.031 A 
ATOM     19  C   UNL A   1      42.616  30.907  28.740  1.00  0.00     0.074 A 
ATOM     20  C   UNL A   1      44.735  30.584  27.508  1.00  0.00     0.049 A 
ATOM     21  N   UNL A   1      42.122  29.695  28.699  1.00  0.00    -0.248 NA
ATOM     22  C   UNL A   1      41.774  31.877  29.455  1.00  0.00     0.031 C 
ATOM     23  C   UNL A   1      46.016  30.972  26.907  1.00  0.00     0.029 A 
ATOM     24  N   UNL A   1      44.617  29.253  27.205  1.00  0.00    -0.354 N 
ATOM     25  C   UNL A   1      40.925  29.750  29.403  1.00  0.00     0.074 A 
ATOM     26  C   UNL A   1      40.782  31.108  29.883  1.00  0.00     0.031 C 
ATOM     27  C   UNL A   1      46.532  29.921  26.256  1.00  0.00     0.029 A 
ATOM     28  C   UNL A   1      45.665  28.769  26.461  1.00  0.00     0.049 A 
ATOM     29  H   UNL A   1      43.856  28.698  27.492  1.00  0.00     0.167 HD
ATOM     30  C   UNL A   1      40.031  28.757  29.626  1.00  0.00     0.031 A 
ATOM     31  C   UNL A   1      45.915  27.528  26.009  1.00  0.00     0.031 A 
ATOM     32  C   UNL A   1      40.194  27.405  29.156  1.00  0.00     0.049 A 
ATOM     33  C   UNL A   1      44.936  26.437  26.319  1.00  0.00     0.074 A 
ATOM     34  C   UNL A   1      39.334  26.330  29.304  1.00  0.00     0.029 A 
ATOM     35  N   UNL A   1      41.298  26.938  28.457  1.00  0.00    -0.354 N 
ATOM     36  N   UNL A   1      43.793  26.512  26.956  1.00  0.00    -0.248 NA
ATOM     37  C   UNL A   1      45.282  25.091  25.848  1.00  0.00     0.031 C 
ATOM     38  C   UNL A   1      39.948  25.200  28.754  1.00  0.00     0.029 A 
ATOM     39  C   UNL A   1      41.157  25.585  28.197  1.00  0.00     0.049 A 
ATOM     40  H   UNL A   1      42.069  27.488  28.186  1.00  0.00     0.167 HD
ATOM     41  C   UNL A   1      43.270  25.226  26.944  1.00  0.00     0.074 A 
ATOM     42  C   UNL A   1      44.215  24.399  26.218  1.00  0.00     0.031 C 
ATOM     43  C   UNL A   1      42.112  24.773  27.484  1.00  0.00     0.031 A 
BRANCH  30  44
ATOM     44  C   UNL A   1      38.820  29.091  30.456  1.00  0.00    -0.014 A 
ATOM     45  C   UNL A   1      37.629  29.553  29.873  1.00  0.00     0.009 A 
ATOM     46  C   UNL A   1      38.870  28.927  31.850  1.00  0.00     0.009 A 
ATOM     47  C   UNL A   1      36.531  29.887  30.671  1.00  0.00     0.001 A 
ATOM     48  C   UNL A   1      37.760  29.231  32.643  1.00  0.00     0.001 A 
ATOM     49  C   UNL A   1      36.597  29.722  32.054  1.00  0.00     0.000 A 
ENDBRANCH  30  44
BRANCH  31  50
ATOM     50  C   UNL A   1      47.151  27.264  25.229  1.00  0.00    -0.014 A 
ATOM     51  C   UNL A   1      48.301  26.770  25.861  1.00  0.00     0.009 A 
ATOM     52  C   UNL A   1      47.177  27.475  23.841  1.00  0.00     0.009 A 
ATOM     53  C   UNL A   1      49.456  26.507  25.121  1.00  0.00     0.001 A 
ATOM     54  C   UNL A   1      48.321  27.181  23.099  1.00  0.00     0.001 A 
ATOM     55  C   UNL A   1      49.463  26.705  23.741  1.00  0.00     0.000 A 
ENDBRANCH  31  50
BRANCH  43  56
ATOM     56  C   UNL A   1      41.788  23.321  27.274  1.00  0.00    -0.014 A 
ATOM     57  C   UNL A   1      40.925  22.902  26.249  1.00  0.00     0.009 A 
ATOM     58  C   UNL A   1      42.376  22.353  28.104  1.00  0.00     0.009 A 
ATOM     59  C   UNL A   1      40.629  21.547  26.084  1.00  0.00     0.001 A 
ATOM     60  C   UNL A   1      42.106  20.998  27.916  1.00  0.00     0.001 A 
ATOM     61  C   UNL A   1      41.225  20.597  26.914  1.00  0.00     0.000 A 
ENDBRANCH  43  56
ENDBRANCH  17  18
ENDBRANCH  10  12
ENDBRANCH   7   8
ENDBRANCH   6   7
ENDBRANCH   5   6
ENDBRANCH   1   5
BRANCH   2  62
ATOM     62  C   UNL A   1      44.735  42.419  25.906  1.00  0.00     0.197 C 
BRANCH  62  63
ATOM     63  N   UNL A   1      45.063  43.785  25.495  1.00  0.00    -0.340 N 
ATOM     64  C   UNL A   1      44.658  44.580  24.473  1.00  0.00     0.244 C 
ATOM     65  H   UNL A   1      45.716  44.222  26.088  1.00  0.00     0.164 HD
ATOM     66  O   UNL A   1      44.908  45.783  24.626  1.00  0.00    -0.273 OA
BRANCH  64  67
ATOM     67  C   UNL A   1      44.020  44.082  23.154  1.00  0.00     0.181 C 
BRANCH  67  68
ATOM     68  N   UNL A   1      44.612  42.892  22.534  1.00  0.00    -0.342 N 
ATOM     69  C   UNL A   1      45.036  42.635  21.259  1.00  0.00     0.243 C 
ATOM     70  H   UNL A   1      44.727  42.136  23.153  1.00  0.00     0.164 HD
ATOM     71  O   UNL A   1      45.530  41.515  21.086  1.00  0.00    -0.273 OA
BRANCH  69  72
ATOM     72  C   UNL A   1      44.812  43.585  20.047  1.00  0.00     0.176 C 
BRANCH  72  73
ATOM     73  N   UNL A   1      45.995  43.919  19.261  1.00  0.00    -0.340 N 
ATOM     74  C   UNL A   1      46.429  45.106  18.733  1.00  0.00     0.251 C 
ATOM     75  H   UNL A   1      46.588  43.155  19.079  1.00  0.00     0.164 HD
ATOM     76  O   UNL A   1      47.367  45.080  17.941  1.00  0.00    -0.269 OA
BRANCH  74  77
ATOM     77  C   UNL A   1      45.817  46.406  19.102  1.00  0.00     0.040 A 
ATOM     78  C   UNL A   1      45.871  46.782  20.451  1.00  0.00     0.017 A 
ATOM     79  C   UNL A   1      45.121  47.211  18.189  1.00  0.00     0.017 A 
ATOM     80  C   UNL A   1      45.285  47.978  20.869  1.00  0.00     0.040 A 
ATOM     81  C   UNL A   1      44.548  48.414  18.608  1.00  0.00     0.040 A 
ATOM     82  C   UNL A   1      44.641  48.787  19.942  1.00  0.00     0.123 A 
ATOM     83  F   UNL A   1      44.087  49.939  20.341  1.00  0.00    -0.207 F 
ENDBRANCH  74  77
ENDBRANCH  72  73
BRANCH  72  84
ATOM     84  C   UNL A   1      43.624  43.126  19.148  1.00  0.00     0.070 C 
BRANCH  84  85
ATOM     85  C   UNL A   1      42.993  44.159  18.232  1.00  0.00    -0.045 A 
ATOM     86  C   UNL A   1      43.264  44.151  16.853  1.00  0.00     0.004 A 
ATOM     87  C   UNL A   1      42.183  45.181  18.742  1.00  0.00     0.004 A 
ATOM     88  C   UNL A   1      42.669  45.075  15.994  1.00  0.00     0.000 A 
ATOM     89  C   UNL A   1      41.618  46.133  17.885  1.00  0.00     0.000 A 
ATOM     90  C   UNL A   1      41.839  46.065  16.510  1.00  0.00     0.000 A 
ENDBRANCH  84  85
ENDBRANCH  72  84
ENDBRANCH  69  72
ENDBRANCH  67  68
BRANCH  67  91
ATOM     91  C   UNL A   1      42.491  43.923  23.313  1.00  0.00     0.101 C 
BRANCH  91  92
ATOM     92  S   UNL A   1      41.942  42.181  23.415  1.00  0.00    -0.177 SA
ATOM     93  H   UNL A   1      42.795  41.394  22.704  1.00  0.00     0.102 HD
ENDBRANCH  91  92
ENDBRANCH  67  91
ENDBRANCH  64  67
ENDBRANCH  62  63
BRANCH  62  94
ATOM     94  C   UNL A   1      45.905  41.469  25.600  1.00  0.00     0.191 C 
BRANCH  94  95
ATOM     95  O   UNL A   1      45.979  41.120  24.220  1.00  0.00    -0.394 OA
ATOM     96  H   UNL A   1      45.872  41.918  23.678  1.00  0.00     0.210 HD
ENDBRANCH  94  95
ENDBRANCH  62  94
ENDBRANCH   2  62
TORSDOF 22
ENDMDL
MODEL 3
REMARK VINA RESULT:      -9.5      9.713     15.112
REMARK SMILES O=C(NCCCNC(=O)[C@H](CO)NC(=O)[C@H](CS)NC(=O)[C@H](Cc1ccccc1)NC(=O)c1ccc(F)cc1)c1ccc(-c2c3nc(c(-c4ccccc4)c4ccc([nH]4)c(-c4ccccc4)c4nc(c(-c5ccccc5)c5ccc2[nH]5)C=C4)C=C3)cc1
REMARK SMILES IDX 7 1 8 2 9 3 6 5 5 6 4 7 3 8 1 9 2 10 40 12 41 13 87 14 42 15
REMARK SMILES IDX 86 16 43 17 44 18 45 19 80 20 46 21 85 22 79 23 81 24 47 25
REMARK SMILES IDX 84 26 78 27 77 28 48 30 70 31 55 32 69 33 56 34 59 35 68 36
REMARK SMILES IDX 82 37 57 38 58 39 67 41 83 42 60 43 49 44 50 45 54 46 51 47
REMARK SMILES IDX 53 48 52 49 71 50 72 51 76 52 73 53 75 54 74 55 61 56 62 57
REMARK SMILES IDX 66 58 63 59 65 60 64 61 10 62 13 63 14 64 15 66 16 67 19 68
REMARK SMILES IDX 20 69 21 71 22 72 30 73 31 74 32 76 33 77 34 78 39 79 35 80
REMARK SMILES IDX 38 81 36 82 37 83 23 84 24 85 25 86 29 87 26 88 28 89 27 90
REMARK SMILES IDX 17 91 18 92 11 94 12 95
REMARK H PARENT 7 4 3 11 81 29 59 40 13 65 19 70 30 75 18 93 12 96
REMARK Flexibility Score: inf
ROOT
ATOM      1  N   UNL A   1      34.254  21.462  24.960  1.00  0.00    -0.354 N 
ATOM      2  C   UNL A   1      33.060  21.824  25.498  1.00  0.00     0.244 C 
ATOM      3  O   UNL A   1      32.063  21.249  25.048  1.00  0.00    -0.273 OA
ATOM      4  H   UNL A   1      34.170  20.900  24.156  1.00  0.00     0.163 HD
ENDROOT
BRANCH   1   5
ATOM      5  C   UNL A   1      35.627  21.742  25.335  1.00  0.00     0.117 C 
BRANCH   5   6
ATOM      6  C   UNL A   1      36.113  22.997  24.623  1.00  0.00     0.042 C 
BRANCH   6   7
ATOM      7  C   UNL A   1      37.243  23.683  25.378  1.00  0.00     0.118 C 
BRANCH   7   8
ATOM      8  N   UNL A   1      38.362  22.778  25.616  1.00  0.00    -0.352 N 
ATOM      9  O   UNL A   1      40.506  22.218  26.013  1.00  0.00    -0.269 OA
ATOM     10  C   UNL A   1      39.598  23.037  26.143  1.00  0.00     0.251 C 
ATOM     11  H   UNL A   1      38.203  21.841  25.358  1.00  0.00     0.163 HD
BRANCH  10  12
ATOM     12  C   UNL A   1      39.833  24.297  26.871  1.00  0.00     0.039 A 
ATOM     13  C   UNL A   1      39.396  24.433  28.189  1.00  0.00     0.014 A 
ATOM     14  C   UNL A   1      40.524  25.338  26.245  1.00  0.00     0.014 A 
ATOM     15  C   UNL A   1      39.508  25.656  28.829  1.00  0.00     0.010 A 
ATOM     16  C   UNL A   1      40.739  26.532  26.935  1.00  0.00     0.010 A 
ATOM     17  C   UNL A   1      40.211  26.707  28.223  1.00  0.00    -0.014 A 
BRANCH  17  18
ATOM     18  C   UNL A   1      40.451  27.947  28.997  1.00  0.00     0.031 A 
ATOM     19  C   UNL A   1      39.426  29.040  29.053  1.00  0.00     0.074 A 
ATOM     20  C   UNL A   1      41.607  28.058  29.679  1.00  0.00     0.049 A 
ATOM     21  N   UNL A   1      39.472  30.173  29.707  1.00  0.00    -0.248 NA
ATOM     22  C   UNL A   1      38.197  28.845  28.272  1.00  0.00     0.031 C 
ATOM     23  C   UNL A   1      42.675  27.053  29.699  1.00  0.00     0.029 A 
ATOM     24  N   UNL A   1      42.069  29.047  30.507  1.00  0.00    -0.354 N 
ATOM     25  C   UNL A   1      38.291  30.837  29.397  1.00  0.00     0.074 A 
ATOM     26  C   UNL A   1      37.563  29.991  28.476  1.00  0.00     0.031 C 
ATOM     27  C   UNL A   1      43.635  27.447  30.546  1.00  0.00     0.029 A 
ATOM     28  C   UNL A   1      43.293  28.765  31.063  1.00  0.00     0.049 A 
ATOM     29  H   UNL A   1      41.573  29.879  30.685  1.00  0.00     0.167 HD
ATOM     30  C   UNL A   1      37.857  32.041  29.843  1.00  0.00     0.031 A 
ATOM     31  C   UNL A   1      44.067  29.494  31.885  1.00  0.00     0.031 A 
ATOM     32  C   UNL A   1      38.600  32.881  30.748  1.00  0.00     0.049 A 
ATOM     33  C   UNL A   1      43.587  30.847  32.317  1.00  0.00     0.074 A 
ATOM     34  C   UNL A   1      38.238  34.106  31.283  1.00  0.00     0.029 A 
ATOM     35  N   UNL A   1      39.863  32.588  31.243  1.00  0.00    -0.354 N 
ATOM     36  N   UNL A   1      42.454  31.445  32.043  1.00  0.00    -0.248 NA
ATOM     37  C   UNL A   1      44.494  31.623  33.171  1.00  0.00     0.031 C 
ATOM     38  C   UNL A   1      39.308  34.582  32.046  1.00  0.00     0.029 A 
ATOM     39  C   UNL A   1      40.308  33.623  32.049  1.00  0.00     0.049 A 
ATOM     40  H   UNL A   1      40.368  31.765  31.050  1.00  0.00     0.167 HD
ATOM     41  C   UNL A   1      42.500  32.662  32.709  1.00  0.00     0.074 A 
ATOM     42  C   UNL A   1      43.766  32.703  33.415  1.00  0.00     0.031 C 
ATOM     43  C   UNL A   1      41.576  33.654  32.735  1.00  0.00     0.031 A 
BRANCH  30  44
ATOM     44  C   UNL A   1      36.538  32.539  29.315  1.00  0.00    -0.014 A 
ATOM     45  C   UNL A   1      36.461  33.377  28.191  1.00  0.00     0.009 A 
ATOM     46  C   UNL A   1      35.347  32.149  29.949  1.00  0.00     0.009 A 
ATOM     47  C   UNL A   1      35.225  33.851  27.743  1.00  0.00     0.001 A 
ATOM     48  C   UNL A   1      34.110  32.598  29.478  1.00  0.00     0.001 A 
ATOM     49  C   UNL A   1      34.051  33.458  28.384  1.00  0.00     0.000 A 
ENDBRANCH  30  44
BRANCH  31  50
ATOM     50  C   UNL A   1      45.376  28.955  32.333  1.00  0.00    -0.014 A 
ATOM     51  C   UNL A   1      45.475  28.222  33.525  1.00  0.00     0.009 A 
ATOM     52  C   UNL A   1      46.529  29.142  31.553  1.00  0.00     0.009 A 
ATOM     53  C   UNL A   1      46.705  27.703  33.935  1.00  0.00     0.001 A 
ATOM     54  C   UNL A   1      47.750  28.593  31.949  1.00  0.00     0.001 A 
ATOM     55  C   UNL A   1      47.839  27.882  33.143  1.00  0.00     0.000 A 
ENDBRANCH  31  50
BRANCH  43  56
ATOM     56  C   UNL A   1      41.890  34.852  33.585  1.00  0.00    -0.014 A 
ATOM     57  C   UNL A   1      42.727  35.881  33.124  1.00  0.00     0.009 A 
ATOM     58  C   UNL A   1      41.318  34.963  34.863  1.00  0.00     0.009 A 
ATOM     59  C   UNL A   1      43.014  36.978  33.939  1.00  0.00     0.001 A 
ATOM     60  C   UNL A   1      41.579  36.076  35.662  1.00  0.00     0.001 A 
ATOM     61  C   UNL A   1      42.435  37.076  35.204  1.00  0.00     0.000 A 
ENDBRANCH  43  56
ENDBRANCH  17  18
ENDBRANCH  10  12
ENDBRANCH   7   8
ENDBRANCH   6   7
ENDBRANCH   5   6
ENDBRANCH   1   5
BRANCH   2  62
ATOM     62  C   UNL A   1      32.891  23.002  26.480  1.00  0.00     0.197 C 
BRANCH  62  63
ATOM     63  N   UNL A   1      31.532  23.456  26.777  1.00  0.00    -0.340 N 
ATOM     64  C   UNL A   1      30.752  24.457  26.297  1.00  0.00     0.244 C 
ATOM     65  H   UNL A   1      31.088  22.919  27.473  1.00  0.00     0.164 HD
ATOM     66  O   UNL A   1      29.548  24.342  26.558  1.00  0.00    -0.273 OA
BRANCH  64  67
ATOM     67  C   UNL A   1      31.269  25.717  25.563  1.00  0.00     0.181 C 
BRANCH  67  68
ATOM     68  N   UNL A   1      30.473  26.203  24.431  1.00  0.00    -0.342 N 
ATOM     69  C   UNL A   1      30.539  27.347  23.684  1.00  0.00     0.243 C 
ATOM     70  H   UNL A   1      29.756  25.588  24.156  1.00  0.00     0.164 HD
ATOM     71  O   UNL A   1      29.720  27.420  22.761  1.00  0.00    -0.273 OA
BRANCH  69  72
ATOM     72  C   UNL A   1      31.456  28.561  24.011  1.00  0.00     0.176 C 
BRANCH  72  73
ATOM     73  N   UNL A   1      32.449  28.910  23.002  1.00  0.00    -0.340 N 
ATOM     74  C   UNL A   1      33.319  28.138  22.278  1.00  0.00     0.251 C 
ATOM     75  H   UNL A   1      32.503  29.873  22.803  1.00  0.00     0.164 HD
ATOM     76  O   UNL A   1      34.193  28.704  21.626  1.00  0.00    -0.269 OA
BRANCH  74  77
ATOM     77  C   UNL A   1      33.225  26.659  22.246  1.00  0.00     0.040 A 
ATOM     78  C   UNL A   1      33.914  25.948  23.239  1.00  0.00     0.017 A 
ATOM     79  C   UNL A   1      32.564  25.955  21.228  1.00  0.00     0.017 A 
ATOM     80  C   UNL A   1      33.893  24.553  23.245  1.00  0.00     0.040 A 
ATOM     81  C   UNL A   1      32.533  24.559  21.245  1.00  0.00     0.040 A 
ATOM     82  C   UNL A   1      33.193  23.873  22.256  1.00  0.00     0.123 A 
ATOM     83  F   UNL A   1      33.164  22.534  22.267  1.00  0.00    -0.207 F 
ENDBRANCH  74  77
ENDBRANCH  72  73
BRANCH  72  84
ATOM     84  C   UNL A   1      30.645  29.805  24.488  1.00  0.00     0.070 C 
BRANCH  84  85
ATOM     85  C   UNL A   1      29.749  30.493  23.473  1.00  0.00    -0.045 A 
ATOM     86  C   UNL A   1      28.850  31.495  23.877  1.00  0.00     0.004 A 
ATOM     87  C   UNL A   1      29.747  30.103  22.128  1.00  0.00     0.004 A 
ATOM     88  C   UNL A   1      28.043  32.157  22.953  1.00  0.00     0.000 A 
ATOM     89  C   UNL A   1      28.907  30.741  21.207  1.00  0.00     0.000 A 
ATOM     90  C   UNL A   1      28.075  31.783  21.614  1.00  0.00     0.000 A 
ENDBRANCH  84  85
ENDBRANCH  72  84
ENDBRANCH  69  72
ENDBRANCH  67  68
BRANCH  67  91
ATOM     91  C   UNL A   1      31.556  26.855  26.568  1.00  0.00     0.101 C 
BRANCH  91  92
ATOM     92  S   UNL A   1      33.293  27.428  26.550  1.00  0.00    -0.177 SA
ATOM     93  H   UNL A   1      34.034  26.606  25.759  1.00  0.00     0.102 HD
ENDBRANCH  91  92
ENDBRANCH  67  91
ENDBRANCH  64  67
ENDBRANCH  62  63
BRANCH  62  94
ATOM     94  C   UNL A   1      33.627  22.619  27.775  1.00  0.00     0.191 C 
BRANCH  94  95
ATOM     95  O   UNL A   1      32.755  22.048  28.749  1.00  0.00    -0.394 OA
ATOM     96  H   UNL A   1      33.087  22.250  29.638  1.00  0.00     0.210 HD
ENDBRANCH  94  95
ENDBRANCH  62  94
ENDBRANCH   2  62
TORSDOF 22
ENDMDL
