MODEL 1
REMARK VINA RESULT:     -12.2      0.000      0.000
REMARK SMILES CC(C)(C)NS(=O)(=O)c1csc(C(=O)Nc2ccccc2C(=O)NCCCNC(=O)c2ccc(-c3c4nc(c(-c5ccccc5)c5ccc([nH]5)c(-c5ccccc5)c5nc(c(-c6ccccc6)c6ccc3[nH]6)C=C5)C=C4)cc2)c1
REMARK SMILES IDX 22 1 23 2 24 3 21 5 16 6 17 7 18 8 20 9 19 10 15 11 13 12
REMARK SMILES IDX 14 13 12 15 9 16 10 17 79 18 11 19 6 20 7 21 8 22 5 23 2 25
REMARK SMILES IDX 1 26 3 27 4 28 25 29 26 30 27 31 28 32 29 33 30 35 31 36
REMARK SMILES IDX 32 37 78 38 33 39 77 40 34 41 35 42 36 43 71 44 37 45 76 46
REMARK SMILES IDX 70 47 72 48 38 49 75 50 69 51 68 52 39 54 61 55 46 56 60 57
REMARK SMILES IDX 47 58 50 59 59 60 73 61 48 62 49 63 58 65 74 66 51 67 40 68
REMARK SMILES IDX 41 69 45 70 42 71 44 72 43 73 62 74 63 75 67 76 64 77 66 78
REMARK SMILES IDX 65 79 52 80 53 81 57 82 54 83 56 84 55 85
REMARK H PARENT 24 4 15 14 5 24 28 34 72 53 50 64
REMARK Flexibility Score: inf
ROOT
ATOM      1  C   UNL A   1      31.296  28.121  22.976  1.00  0.00     0.253 C 
ATOM      2  O   UNL A   1      30.612  28.423  21.994  1.00  0.00    -0.269 OA
ATOM      3  N   UNL A   1      32.331  28.953  23.317  1.00  0.00    -0.352 N 
ATOM      4  H   UNL A   1      32.467  29.710  22.702  1.00  0.00     0.163 HD
ENDROOT
BRANCH   1   5
ATOM      5  C   UNL A   1      31.008  26.846  23.695  1.00  0.00     0.063 A 
ATOM      6  C   UNL A   1      31.147  25.532  23.206  1.00  0.00     0.054 A 
ATOM      7  C   UNL A   1      30.660  24.465  23.983  1.00  0.00     0.027 A 
ATOM      8  C   UNL A   1      30.201  24.666  25.284  1.00  0.00     0.002 A 
ATOM      9  C   UNL A   1      30.561  27.029  25.020  1.00  0.00     0.016 A 
ATOM     10  C   UNL A   1      30.183  25.947  25.816  1.00  0.00     0.001 A 
BRANCH   6  11
ATOM     11  N   UNL A   1      31.770  25.115  22.014  1.00  0.00    -0.321 N 
ATOM     12  C   UNL A   1      32.857  24.307  21.751  1.00  0.00     0.265 C 
ATOM     13  O   UNL A   1      33.267  24.340  20.587  1.00  0.00    -0.268 OA
ATOM     14  H   UNL A   1      31.342  25.473  21.203  1.00  0.00     0.170 HD
BRANCH  12  15
ATOM     15  C   UNL A   1      33.417  23.434  22.768  1.00  0.00     0.094 A 
ATOM     16  C   UNL A   1      33.752  21.754  24.356  1.00  0.00     0.093 A 
ATOM     17  C   UNL A   1      34.858  22.541  24.573  1.00  0.00     0.087 A 
ATOM     18  C   UNL A   1      33.024  22.184  23.207  1.00  0.00     0.047 A 
ATOM     19  S   UNL A   1      34.858  23.925  23.572  1.00  0.00    -0.137 S 
BRANCH  16  20
ATOM     20  S   UNL A   1      33.292  20.388  25.319  1.00  0.00     0.241 S 
ATOM     21  O   UNL A   1      31.884  20.209  25.034  1.00  0.00    -0.207 OA
ATOM     22  O   UNL A   1      33.756  20.732  26.643  1.00  0.00    -0.207 OA
BRANCH  20  23
ATOM     23  N   UNL A   1      34.181  19.044  24.851  1.00  0.00    -0.206 NA
ATOM     24  H   UNL A   1      34.624  19.314  23.973  1.00  0.00     0.141 HD
BRANCH  23  25
ATOM     25  C   UNL A   1      33.665  17.673  24.613  1.00  0.00     0.025 C 
ATOM     26  C   UNL A   1      33.093  17.561  23.197  1.00  0.00     0.028 C 
ATOM     27  C   UNL A   1      32.645  17.213  25.654  1.00  0.00     0.028 C 
ATOM     28  C   UNL A   1      34.885  16.736  24.701  1.00  0.00     0.028 C 
ENDBRANCH  23  25
ENDBRANCH  20  23
ENDBRANCH  16  20
ENDBRANCH  12  15
ENDBRANCH   6  11
ENDBRANCH   1   5
BRANCH   3  29
ATOM     29  C   UNL A   1      33.265  28.904  24.428  1.00  0.00     0.118 C 
BRANCH  29  30
ATOM     30  C   UNL A   1      32.899  29.813  25.589  1.00  0.00     0.042 C 
BRANCH  30  31
ATOM     31  C   UNL A   1      33.637  29.522  26.890  1.00  0.00     0.118 C 
BRANCH  31  32
ATOM     32  N   UNL A   1      33.707  30.649  27.811  1.00  0.00    -0.352 N 
ATOM     33  C   UNL A   1      34.703  31.087  28.654  1.00  0.00     0.251 C 
ATOM     34  H   UNL A   1      32.891  31.200  27.834  1.00  0.00     0.163 HD
ATOM     35  O   UNL A   1      34.495  32.049  29.390  1.00  0.00    -0.269 OA
BRANCH  33  36
ATOM     36  C   UNL A   1      36.006  30.391  28.730  1.00  0.00     0.039 A 
ATOM     37  C   UNL A   1      36.882  30.473  27.642  1.00  0.00     0.014 A 
ATOM     38  C   UNL A   1      36.379  29.659  29.855  1.00  0.00     0.014 A 
ATOM     39  C   UNL A   1      38.160  29.914  27.731  1.00  0.00     0.010 A 
ATOM     40  C   UNL A   1      37.691  29.221  29.994  1.00  0.00     0.010 A 
ATOM     41  C   UNL A   1      38.598  29.335  28.932  1.00  0.00    -0.014 A 
BRANCH  41  42
ATOM     42  C   UNL A   1      39.986  28.829  29.102  1.00  0.00     0.031 A 
ATOM     43  C   UNL A   1      41.059  29.736  29.646  1.00  0.00     0.074 A 
ATOM     44  C   UNL A   1      40.306  27.588  28.683  1.00  0.00     0.049 A 
ATOM     45  N   UNL A   1      42.346  29.521  29.759  1.00  0.00    -0.248 NA
ATOM     46  C   UNL A   1      40.638  31.080  30.079  1.00  0.00     0.031 C 
ATOM     47  C   UNL A   1      39.380  26.627  28.077  1.00  0.00     0.029 A 
ATOM     48  N   UNL A   1      41.507  26.923  28.699  1.00  0.00    -0.354 N 
ATOM     49  C   UNL A   1      42.887  30.713  30.228  1.00  0.00     0.074 A 
ATOM     50  C   UNL A   1      41.801  31.662  30.326  1.00  0.00     0.031 C 
ATOM     51  C   UNL A   1      40.038  25.484  27.820  1.00  0.00     0.029 A 
ATOM     52  C   UNL A   1      41.436  25.645  28.202  1.00  0.00     0.049 A 
ATOM     53  H   UNL A   1      42.341  27.326  29.034  1.00  0.00     0.167 HD
ATOM     54  C   UNL A   1      44.166  30.989  30.574  1.00  0.00     0.031 A 
ATOM     55  C   UNL A   1      42.390  24.704  28.069  1.00  0.00     0.031 A 
ATOM     56  C   UNL A   1      45.237  30.031  30.533  1.00  0.00     0.049 A 
ATOM     57  C   UNL A   1      43.792  25.014  28.513  1.00  0.00     0.074 A 
ATOM     58  C   UNL A   1      46.551  30.187  30.937  1.00  0.00     0.029 A 
ATOM     59  N   UNL A   1      45.109  28.731  30.069  1.00  0.00    -0.354 N 
ATOM     60  N   UNL A   1      44.273  26.127  29.012  1.00  0.00    -0.248 NA
ATOM     61  C   UNL A   1      44.779  23.933  28.387  1.00  0.00     0.031 C 
ATOM     62  C   UNL A   1      47.227  28.987  30.690  1.00  0.00     0.029 A 
ATOM     63  C   UNL A   1      46.323  28.074  30.171  1.00  0.00     0.049 A 
ATOM     64  H   UNL A   1      44.280  28.334  29.719  1.00  0.00     0.167 HD
ATOM     65  C   UNL A   1      45.610  25.872  29.284  1.00  0.00     0.074 A 
ATOM     66  C   UNL A   1      45.860  24.495  28.908  1.00  0.00     0.031 C 
ATOM     67  C   UNL A   1      46.549  26.703  29.796  1.00  0.00     0.031 A 
BRANCH  54  68
ATOM     68  C   UNL A   1      44.467  32.386  31.041  1.00  0.00    -0.014 A 
ATOM     69  C   UNL A   1      44.846  33.391  30.136  1.00  0.00     0.009 A 
ATOM     70  C   UNL A   1      44.358  32.706  32.404  1.00  0.00     0.009 A 
ATOM     71  C   UNL A   1      45.157  34.674  30.592  1.00  0.00     0.001 A 
ATOM     72  C   UNL A   1      44.639  33.999  32.852  1.00  0.00     0.001 A 
ATOM     73  C   UNL A   1      45.049  34.977  31.948  1.00  0.00     0.000 A 
ENDBRANCH  54  68
BRANCH  55  74
ATOM     74  C   UNL A   1      42.046  23.363  27.532  1.00  0.00    -0.014 A 
ATOM     75  C   UNL A   1      42.287  23.059  26.182  1.00  0.00     0.009 A 
ATOM     76  C   UNL A   1      41.475  22.382  28.357  1.00  0.00     0.009 A 
ATOM     77  C   UNL A   1      41.940  21.810  25.664  1.00  0.00     0.001 A 
ATOM     78  C   UNL A   1      41.151  21.124  27.841  1.00  0.00     0.001 A 
ATOM     79  C   UNL A   1      41.375  20.842  26.494  1.00  0.00     0.000 A 
ENDBRANCH  55  74
BRANCH  67  80
ATOM     80  C   UNL A   1      47.921  26.134  30.014  1.00  0.00    -0.014 A 
ATOM     81  C   UNL A   1      48.810  25.952  28.944  1.00  0.00     0.009 A 
ATOM     82  C   UNL A   1      48.339  25.812  31.314  1.00  0.00     0.009 A 
ATOM     83  C   UNL A   1      50.084  25.427  29.169  1.00  0.00     0.001 A 
ATOM     84  C   UNL A   1      49.622  25.312  31.539  1.00  0.00     0.001 A 
ATOM     85  C   UNL A   1      50.489  25.111  30.466  1.00  0.00     0.000 A 
ENDBRANCH  67  80
ENDBRANCH  41  42
ENDBRANCH  33  36
ENDBRANCH  31  32
ENDBRANCH  30  31
ENDBRANCH  29  30
ENDBRANCH   3  29
TORSDOF 15
ENDMDL
MODEL 2
REMARK VINA RESULT:     -11.9      3.498      5.002
REMARK SMILES CC(C)(C)NS(=O)(=O)c1csc(C(=O)Nc2ccccc2C(=O)NCCCNC(=O)c2ccc(-c3c4nc(c(-c5ccccc5)c5ccc([nH]5)c(-c5ccccc5)c5nc(c(-c6ccccc6)c6ccc3[nH]6)C=C5)C=C4)cc2)c1
REMARK SMILES IDX 22 1 23 2 24 3 21 5 16 6 17 7 18 8 20 9 19 10 15 11 13 12
REMARK SMILES IDX 14 13 12 15 9 16 10 17 79 18 11 19 6 20 7 21 8 22 5 23 2 25
REMARK SMILES IDX 1 26 3 27 4 28 25 29 26 30 27 31 28 32 29 33 30 35 31 36
REMARK SMILES IDX 32 37 78 38 33 39 77 40 34 41 35 42 36 43 71 44 37 45 76 46
REMARK SMILES IDX 70 47 72 48 38 49 75 50 69 51 68 52 39 54 61 55 46 56 60 57
REMARK SMILES IDX 47 58 50 59 59 60 73 61 48 62 49 63 58 65 74 66 51 67 40 68
REMARK SMILES IDX 41 69 45 70 42 71 44 72 43 73 62 74 63 75 67 76 64 77 66 78
REMARK SMILES IDX 65 79 52 80 53 81 57 82 54 83 56 84 55 85
REMARK H PARENT 24 4 15 14 5 24 28 34 72 53 50 64
REMARK Flexibility Score: inf
ROOT
ATOM      1  C   UNL A   1      33.166  28.631  26.032  1.00  0.00     0.253 C 
ATOM      2  O   UNL A   1      33.937  28.061  26.809  1.00  0.00    -0.269 OA
ATOM      3  N   UNL A   1      32.432  29.683  26.516  1.00  0.00    -0.352 N 
ATOM      4  H   UNL A   1      32.556  29.862  27.476  1.00  0.00     0.163 HD
ENDROOT
BRANCH   1   5
ATOM      5  C   UNL A   1      33.022  28.111  24.642  1.00  0.00     0.063 A 
ATOM      6  C   UNL A   1      31.976  27.323  24.121  1.00  0.00     0.054 A 
ATOM      7  C   UNL A   1      32.110  26.790  22.826  1.00  0.00     0.027 A 
ATOM      8  C   UNL A   1      33.167  27.159  21.996  1.00  0.00     0.002 A 
ATOM      9  C   UNL A   1      34.073  28.490  23.781  1.00  0.00     0.016 A 
ATOM     10  C   UNL A   1      34.134  28.037  22.463  1.00  0.00     0.001 A 
BRANCH   6  11
ATOM     11  N   UNL A   1      30.743  27.016  24.727  1.00  0.00    -0.321 N 
ATOM     12  C   UNL A   1      30.153  25.831  25.117  1.00  0.00     0.265 C 
ATOM     13  O   UNL A   1      28.957  25.912  25.412  1.00  0.00    -0.268 OA
ATOM     14  H   UNL A   1      30.189  27.809  24.910  1.00  0.00     0.170 HD
BRANCH  12  15
ATOM     15  C   UNL A   1      30.922  24.604  25.234  1.00  0.00     0.094 A 
ATOM     16  C   UNL A   1      32.356  22.907  25.956  1.00  0.00     0.093 A 
ATOM     17  C   UNL A   1      32.064  22.477  24.684  1.00  0.00     0.087 A 
ATOM     18  C   UNL A   1      31.564  24.036  26.319  1.00  0.00     0.047 A 
ATOM     19  S   UNL A   1      31.053  23.580  23.858  1.00  0.00    -0.137 S 
BRANCH  16  20
ATOM     20  S   UNL A   1      33.513  22.174  27.018  1.00  0.00     0.241 S 
ATOM     21  O   UNL A   1      33.626  20.814  26.536  1.00  0.00    -0.207 OA
ATOM     22  O   UNL A   1      32.999  22.466  28.336  1.00  0.00    -0.207 OA
BRANCH  20  23
ATOM     23  N   UNL A   1      34.978  22.982  26.901  1.00  0.00    -0.206 NA
ATOM     24  H   UNL A   1      34.852  23.836  27.445  1.00  0.00     0.141 HD
BRANCH  23  25
ATOM     25  C   UNL A   1      35.659  23.418  25.657  1.00  0.00     0.025 C 
ATOM     26  C   UNL A   1      35.032  24.715  25.137  1.00  0.00     0.028 C 
ATOM     27  C   UNL A   1      35.687  22.347  24.567  1.00  0.00     0.028 C 
ATOM     28  C   UNL A   1      37.116  23.727  26.053  1.00  0.00     0.028 C 
ENDBRANCH  23  25
ENDBRANCH  20  23
ENDBRANCH  16  20
ENDBRANCH  12  15
ENDBRANCH   6  11
ENDBRANCH   1   5
BRANCH   3  29
ATOM     29  C   UNL A   1      31.498  30.578  25.852  1.00  0.00     0.118 C 
BRANCH  29  30
ATOM     30  C   UNL A   1      31.362  31.937  26.514  1.00  0.00     0.042 C 
BRANCH  30  31
ATOM     31  C   UNL A   1      32.625  32.451  27.193  1.00  0.00     0.118 C 
BRANCH  31  32
ATOM     32  N   UNL A   1      32.559  33.842  27.623  1.00  0.00    -0.352 N 
ATOM     33  C   UNL A   1      33.330  34.571  28.500  1.00  0.00     0.251 C 
ATOM     34  H   UNL A   1      31.827  34.355  27.210  1.00  0.00     0.163 HD
ATOM     35  O   UNL A   1      33.030  35.737  28.745  1.00  0.00    -0.269 OA
BRANCH  33  36
ATOM     36  C   UNL A   1      34.487  33.964  29.193  1.00  0.00     0.039 A 
ATOM     37  C   UNL A   1      34.254  33.014  30.194  1.00  0.00     0.014 A 
ATOM     38  C   UNL A   1      35.796  34.315  28.875  1.00  0.00     0.014 A 
ATOM     39  C   UNL A   1      35.330  32.348  30.789  1.00  0.00     0.010 A 
ATOM     40  C   UNL A   1      36.856  33.564  29.369  1.00  0.00     0.010 A 
ATOM     41  C   UNL A   1      36.639  32.575  30.338  1.00  0.00    -0.014 A 
BRANCH  41  42
ATOM     42  C   UNL A   1      37.799  31.809  30.868  1.00  0.00     0.031 A 
ATOM     43  C   UNL A   1      38.348  32.121  32.237  1.00  0.00     0.074 A 
ATOM     44  C   UNL A   1      38.417  30.899  30.089  1.00  0.00     0.049 A 
ATOM     45  N   UNL A   1      39.419  31.650  32.826  1.00  0.00    -0.248 NA
ATOM     46  C   UNL A   1      37.625  33.132  33.029  1.00  0.00     0.031 C 
ATOM     47  C   UNL A   1      38.031  30.543  28.721  1.00  0.00     0.029 A 
ATOM     48  N   UNL A   1      39.511  30.107  30.338  1.00  0.00    -0.354 N 
ATOM     49  C   UNL A   1      39.519  32.339  34.029  1.00  0.00     0.074 A 
ATOM     50  C   UNL A   1      38.436  33.297  34.062  1.00  0.00     0.031 C 
ATOM     51  C   UNL A   1      38.847  29.576  28.270  1.00  0.00     0.029 A 
ATOM     52  C   UNL A   1      39.837  29.274  29.297  1.00  0.00     0.049 A 
ATOM     53  H   UNL A   1      40.014  30.135  31.185  1.00  0.00     0.167 HD
ATOM     54  C   UNL A   1      40.413  32.174  35.033  1.00  0.00     0.031 A 
ATOM     55  C   UNL A   1      40.823  28.364  29.181  1.00  0.00     0.031 A 
ATOM     56  C   UNL A   1      41.455  31.184  35.028  1.00  0.00     0.049 A 
ATOM     57  C   UNL A   1      41.769  28.158  30.330  1.00  0.00     0.074 A 
ATOM     58  C   UNL A   1      42.362  30.881  36.028  1.00  0.00     0.029 A 
ATOM     59  N   UNL A   1      41.718  30.326  33.972  1.00  0.00    -0.354 N 
ATOM     60  N   UNL A   1      41.812  28.775  31.485  1.00  0.00    -0.248 NA
ATOM     61  C   UNL A   1      42.796  27.120  30.162  1.00  0.00     0.031 C 
ATOM     62  C   UNL A   1      43.195  29.857  35.564  1.00  0.00     0.029 A 
ATOM     63  C   UNL A   1      42.779  29.497  34.293  1.00  0.00     0.049 A 
ATOM     64  H   UNL A   1      41.225  30.309  33.121  1.00  0.00     0.167 HD
ATOM     65  C   UNL A   1      42.850  28.183  32.192  1.00  0.00     0.074 A 
ATOM     66  C   UNL A   1      43.400  27.148  31.341  1.00  0.00     0.031 C 
ATOM     67  C   UNL A   1      43.308  28.471  33.434  1.00  0.00     0.031 A 
BRANCH  54  68
ATOM     68  C   UNL A   1      40.286  33.081  36.225  1.00  0.00    -0.014 A 
ATOM     69  C   UNL A   1      39.477  32.738  37.319  1.00  0.00     0.009 A 
ATOM     70  C   UNL A   1      40.997  34.292  36.260  1.00  0.00     0.009 A 
ATOM     71  C   UNL A   1      39.342  33.609  38.403  1.00  0.00     0.001 A 
ATOM     72  C   UNL A   1      40.885  35.147  37.359  1.00  0.00     0.001 A 
ATOM     73  C   UNL A   1      40.049  34.810  38.423  1.00  0.00     0.000 A 
ENDBRANCH  54  68
BRANCH  55  74
ATOM     74  C   UNL A   1      40.942  27.546  27.946  1.00  0.00    -0.014 A 
ATOM     75  C   UNL A   1      41.722  27.999  26.870  1.00  0.00     0.009 A 
ATOM     76  C   UNL A   1      40.279  26.315  27.833  1.00  0.00     0.009 A 
ATOM     77  C   UNL A   1      41.816  27.249  25.696  1.00  0.00     0.001 A 
ATOM     78  C   UNL A   1      40.394  25.555  26.666  1.00  0.00     0.001 A 
ATOM     79  C   UNL A   1      41.154  26.026  25.596  1.00  0.00     0.000 A 
ENDBRANCH  55  74
BRANCH  67  80
ATOM     80  C   UNL A   1      44.436  27.631  33.957  1.00  0.00    -0.014 A 
ATOM     81  C   UNL A   1      45.774  28.012  33.769  1.00  0.00     0.009 A 
ATOM     82  C   UNL A   1      44.153  26.463  34.682  1.00  0.00     0.009 A 
ATOM     83  C   UNL A   1      46.808  27.219  34.271  1.00  0.00     0.001 A 
ATOM     84  C   UNL A   1      45.189  25.687  35.203  1.00  0.00     0.001 A 
ATOM     85  C   UNL A   1      46.514  26.061  34.990  1.00  0.00     0.000 A 
ENDBRANCH  67  80
ENDBRANCH  41  42
ENDBRANCH  33  36
ENDBRANCH  31  32
ENDBRANCH  30  31
ENDBRANCH  29  30
ENDBRANCH   3  29
TORSDOF 15
ENDMDL
MODEL 3
REMARK VINA RESULT:     -11.9      4.925      8.243
REMARK SMILES CC(C)(C)NS(=O)(=O)c1csc(C(=O)Nc2ccccc2C(=O)NCCCNC(=O)c2ccc(-c3c4nc(c(-c5ccccc5)c5ccc([nH]5)c(-c5ccccc5)c5nc(c(-c6ccccc6)c6ccc3[nH]6)C=C5)C=C4)cc2)c1
REMARK SMILES IDX 22 1 23 2 24 3 21 5 16 6 17 7 18 8 20 9 19 10 15 11 13 12
REMARK SMILES IDX 14 13 12 15 9 16 10 17 79 18 11 19 6 20 7 21 8 22 5 23 2 25
REMARK SMILES IDX 1 26 3 27 4 28 25 29 26 30 27 31 28 32 29 33 30 35 31 36
REMARK SMILES IDX 32 37 78 38 33 39 77 40 34 41 35 42 36 43 71 44 37 45 76 46
REMARK SMILES IDX 70 47 72 48 38 49 75 50 69 51 68 52 39 54 61 55 46 56 60 57
REMARK SMILES IDX 47 58 50 59 59 60 73 61 48 62 49 63 58 65 74 66 51 67 40 68
REMARK SMILES IDX 41 69 45 70 42 71 44 72 43 73 62 74 63 75 67 76 64 77 66 78
REMARK SMILES IDX 65 79 52 80 53 81 57 82 54 83 56 84 55 85
REMARK H PARENT 24 4 15 14 5 24 28 34 72 53 50 64
REMARK Flexibility Score: inf
ROOT
ATOM      1  C   UNL A   1      35.574  32.417  31.487  1.00  0.00     0.253 C 
ATOM      2  O   UNL A   1      35.518  31.337  32.081  1.00  0.00    -0.269 OA
ATOM      3  N   UNL A   1      34.432  32.878  30.885  1.00  0.00    -0.352 N 
ATOM      4  H   UNL A   1      33.663  32.266  30.944  1.00  0.00     0.163 HD
ENDROOT
BRANCH   1   5
ATOM      5  C   UNL A   1      36.883  33.127  31.397  1.00  0.00     0.063 A 
ATOM      6  C   UNL A   1      37.663  33.634  32.455  1.00  0.00     0.054 A 
ATOM      7  C   UNL A   1      38.787  34.424  32.150  1.00  0.00     0.027 A 
ATOM      8  C   UNL A   1      39.233  34.574  30.839  1.00  0.00     0.002 A 
ATOM      9  C   UNL A   1      37.361  33.272  30.077  1.00  0.00     0.016 A 
ATOM     10  C   UNL A   1      38.538  33.969  29.802  1.00  0.00     0.001 A 
BRANCH   6  11
ATOM     11  N   UNL A   1      37.492  33.415  33.835  1.00  0.00    -0.321 N 
ATOM     12  C   UNL A   1      38.010  32.486  34.714  1.00  0.00     0.265 C 
ATOM     13  O   UNL A   1      37.464  32.448  35.821  1.00  0.00    -0.268 OA
ATOM     14  H   UNL A   1      36.877  34.056  34.259  1.00  0.00     0.170 HD
BRANCH  12  15
ATOM     15  C   UNL A   1      39.164  31.674  34.367  1.00  0.00     0.094 A 
ATOM     16  C   UNL A   1      40.578  29.918  33.754  1.00  0.00     0.093 A 
ATOM     17  C   UNL A   1      41.494  30.876  34.116  1.00  0.00     0.087 A 
ATOM     18  C   UNL A   1      39.252  30.444  33.742  1.00  0.00     0.047 A 
ATOM     19  S   UNL A   1      40.735  32.297  34.686  1.00  0.00    -0.137 S 
BRANCH  16  20
ATOM     20  S   UNL A   1      40.957  28.280  33.332  1.00  0.00     0.241 S 
ATOM     21  O   UNL A   1      42.287  28.358  32.767  1.00  0.00    -0.207 OA
ATOM     22  O   UNL A   1      39.824  27.861  32.540  1.00  0.00    -0.207 OA
BRANCH  20  23
ATOM     23  N   UNL A   1      40.938  27.325  34.710  1.00  0.00    -0.206 NA
ATOM     24  H   UNL A   1      40.355  27.832  35.375  1.00  0.00     0.141 HD
BRANCH  23  25
ATOM     25  C   UNL A   1      42.112  26.874  35.498  1.00  0.00     0.025 C 
ATOM     26  C   UNL A   1      43.000  28.069  35.857  1.00  0.00     0.028 C 
ATOM     27  C   UNL A   1      42.923  25.773  34.814  1.00  0.00     0.028 C 
ATOM     28  C   UNL A   1      41.549  26.297  36.812  1.00  0.00     0.028 C 
ENDBRANCH  23  25
ENDBRANCH  20  23
ENDBRANCH  16  20
ENDBRANCH  12  15
ENDBRANCH   6  11
ENDBRANCH   1   5
BRANCH   3  29
ATOM     29  C   UNL A   1      34.165  34.115  30.172  1.00  0.00     0.118 C 
BRANCH  29  30
ATOM     30  C   UNL A   1      33.814  33.926  28.707  1.00  0.00     0.042 C 
BRANCH  30  31
ATOM     31  C   UNL A   1      34.678  32.914  27.965  1.00  0.00     0.118 C 
BRANCH  31  32
ATOM     32  N   UNL A   1      34.043  31.620  27.746  1.00  0.00    -0.352 N 
ATOM     33  C   UNL A   1      34.532  30.335  27.799  1.00  0.00     0.251 C 
ATOM     34  H   UNL A   1      33.086  31.676  27.517  1.00  0.00     0.163 HD
ATOM     35  O   UNL A   1      33.796  29.394  27.510  1.00  0.00    -0.269 OA
BRANCH  33  36
ATOM     36  C   UNL A   1      35.943  30.064  28.150  1.00  0.00     0.039 A 
ATOM     37  C   UNL A   1      36.240  29.561  29.422  1.00  0.00     0.014 A 
ATOM     38  C   UNL A   1      36.978  30.296  27.248  1.00  0.00     0.014 A 
ATOM     39  C   UNL A   1      37.551  29.197  29.740  1.00  0.00     0.010 A 
ATOM     40  C   UNL A   1      38.253  29.813  27.515  1.00  0.00     0.010 A 
ATOM     41  C   UNL A   1      38.560  29.263  28.767  1.00  0.00    -0.014 A 
BRANCH  41  42
ATOM     42  C   UNL A   1      39.942  28.782  29.032  1.00  0.00     0.031 A 
ATOM     43  C   UNL A   1      40.957  29.706  29.656  1.00  0.00     0.074 A 
ATOM     44  C   UNL A   1      40.316  27.551  28.629  1.00  0.00     0.049 A 
ATOM     45  N   UNL A   1      42.236  29.515  29.858  1.00  0.00    -0.248 NA
ATOM     46  C   UNL A   1      40.479  31.039  30.066  1.00  0.00     0.031 C 
ATOM     47  C   UNL A   1      39.455  26.577  27.954  1.00  0.00     0.029 A 
ATOM     48  N   UNL A   1      41.526  26.910  28.725  1.00  0.00    -0.354 N 
ATOM     49  C   UNL A   1      42.719  30.714  30.371  1.00  0.00     0.074 A 
ATOM     50  C   UNL A   1      41.610  31.641  30.398  1.00  0.00     0.031 C 
ATOM     51  C   UNL A   1      40.152  25.449  27.736  1.00  0.00     0.029 A 
ATOM     52  C   UNL A   1      41.516  25.634  28.216  1.00  0.00     0.049 A 
ATOM     53  H   UNL A   1      42.326  27.326  29.121  1.00  0.00     0.167 HD
ATOM     54  C   UNL A   1      43.965  31.013  30.808  1.00  0.00     0.031 A 
ATOM     55  C   UNL A   1      42.496  24.713  28.146  1.00  0.00     0.031 A 
ATOM     56  C   UNL A   1      45.055  30.076  30.836  1.00  0.00     0.049 A 
ATOM     57  C   UNL A   1      43.856  25.047  28.689  1.00  0.00     0.074 A 
ATOM     58  C   UNL A   1      46.334  30.254  31.334  1.00  0.00     0.029 A 
ATOM     59  N   UNL A   1      44.986  28.777  30.357  1.00  0.00    -0.354 N 
ATOM     60  N   UNL A   1      44.279  26.165  29.227  1.00  0.00    -0.248 NA
ATOM     61  C   UNL A   1      44.871  23.987  28.626  1.00  0.00     0.031 C 
ATOM     62  C   UNL A   1      47.050  29.070  31.127  1.00  0.00     0.029 A 
ATOM     63  C   UNL A   1      46.203  28.144  30.540  1.00  0.00     0.049 A 
ATOM     64  H   UNL A   1      44.191  28.367  29.947  1.00  0.00     0.167 HD
ATOM     65  C   UNL A   1      45.598  25.934  29.591  1.00  0.00     0.074 A 
ATOM     66  C   UNL A   1      45.901  24.566  29.226  1.00  0.00     0.031 C 
ATOM     67  C   UNL A   1      46.482  26.780  30.174  1.00  0.00     0.031 A 
BRANCH  54  68
ATOM     68  C   UNL A   1      44.204  32.411  31.304  1.00  0.00    -0.014 A 
ATOM     69  C   UNL A   1      44.064  32.737  32.663  1.00  0.00     0.009 A 
ATOM     70  C   UNL A   1      44.588  33.417  30.402  1.00  0.00     0.009 A 
ATOM     71  C   UNL A   1      44.256  34.050  33.101  1.00  0.00     0.001 A 
ATOM     72  C   UNL A   1      44.809  34.722  30.848  1.00  0.00     0.001 A 
ATOM     73  C   UNL A   1      44.632  35.039  32.194  1.00  0.00     0.000 A 
ENDBRANCH  54  68
BRANCH  55  74
ATOM     74  C   UNL A   1      42.217  23.370  27.577  1.00  0.00    -0.014 A 
ATOM     75  C   UNL A   1      42.601  23.065  26.261  1.00  0.00     0.009 A 
ATOM     76  C   UNL A   1      41.566  22.387  28.339  1.00  0.00     0.009 A 
ATOM     77  C   UNL A   1      42.317  21.814  25.711  1.00  0.00     0.001 A 
ATOM     78  C   UNL A   1      41.305  21.127  27.794  1.00  0.00     0.001 A 
ATOM     79  C   UNL A   1      41.672  20.844  26.479  1.00  0.00     0.000 A 
ENDBRANCH  55  74
BRANCH  67  80
ATOM     80  C   UNL A   1      47.846  26.236  30.484  1.00  0.00    -0.014 A 
ATOM     81  C   UNL A   1      48.856  26.208  29.510  1.00  0.00     0.009 A 
ATOM     82  C   UNL A   1      48.132  25.781  31.780  1.00  0.00     0.009 A 
ATOM     83  C   UNL A   1      50.120  25.704  29.822  1.00  0.00     0.001 A 
ATOM     84  C   UNL A   1      49.404  25.302  32.095  1.00  0.00     0.001 A 
ATOM     85  C   UNL A   1      50.393  25.255  31.114  1.00  0.00     0.000 A 
ENDBRANCH  67  80
ENDBRANCH  41  42
ENDBRANCH  33  36
ENDBRANCH  31  32
ENDBRANCH  30  31
ENDBRANCH  29  30
ENDBRANCH   3  29
TORSDOF 15
ENDMDL
