MODEL 1
REMARK VINA RESULT:     -12.5      0.000      0.000
REMARK SMILES CC1=C(C)C[C@@H](C(=O)NCCCNC(=O)c2ccc(-c3c4nc(c(-c5ccccc5)c5ccc([nH]5)c(-c5ccccc5)c5nc(c(-c6ccccc6)c6ccc3[nH]6)C=C5)C=C4)cc2)[C@@H](C(=O)N2CCN(c3cccc(C(F)(F)F)c3)CC2)C1
REMARK SMILES IDX 10 1 9 2 7 3 8 4 6 6 1 7 2 8 3 9 83 10 4 11 5 12 64 13 65 14
REMARK SMILES IDX 66 15 67 16 68 17 82 18 69 19 81 20 70 21 71 22 72 23 80 24
REMARK SMILES IDX 73 25 75 26 74 27 76 28 77 29 78 30 79 31 11 32 12 33 13 34
REMARK SMILES IDX 14 35 15 37 16 38 17 39 63 40 18 41 62 42 19 43 20 44 21 45
REMARK SMILES IDX 56 46 22 47 61 48 55 49 57 50 23 51 60 52 54 53 53 54 24 56
REMARK SMILES IDX 46 57 31 58 45 59 32 60 35 61 44 62 58 63 33 64 34 65 43 67
REMARK SMILES IDX 59 68 36 69 25 70 26 71 30 72 27 73 29 74 28 75 47 76 48 77
REMARK SMILES IDX 52 78 49 79 51 80 50 81 37 82 38 83 42 84 39 85 41 86 40 87
REMARK H PARENT 9 5 13 36 57 55 35 66
REMARK Flexibility Score: inf
ROOT
ATOM      1  C   UNL A   1      33.103  27.747  24.696  1.00  0.00     0.117 C 
ENDROOT
BRANCH   1   2
ATOM      2  N   UNL A   1      33.704  27.261  23.468  1.00  0.00    -0.356 N 
ATOM      3  C   UNL A   1      33.297  26.416  22.495  1.00  0.00     0.224 C 
ATOM      4  O   UNL A   1      34.106  26.204  21.580  1.00  0.00    -0.275 OA
ATOM      5  H   UNL A   1      34.604  27.627  23.308  1.00  0.00     0.163 HD
BRANCH   3   6
ATOM      6  C   UNL A   1      31.947  25.706  22.452  1.00  0.00     0.095 C 
ATOM      7  C   UNL A   1      29.356  25.990  26.023  1.00  0.00     0.039 C 
ATOM      8  C   UNL A   1      30.032  25.875  24.678  1.00  0.00    -0.074 C 
ATOM      9  C   UNL A   1      29.932  26.774  23.677  1.00  0.00    -0.074 C 
ATOM     10  C   UNL A   1      30.877  24.627  24.564  1.00  0.00     0.045 C 
ATOM     11  C   UNL A   1      29.091  28.028  23.706  1.00  0.00     0.039 C 
ATOM     12  C   UNL A   1      30.724  26.625  22.398  1.00  0.00     0.045 C 
ATOM     13  C   UNL A   1      31.800  24.467  23.337  1.00  0.00     0.095 C 
BRANCH  13  14
ATOM     14  C   UNL A   1      33.126  23.895  23.854  1.00  0.00     0.226 C 
ATOM     15  O   UNL A   1      34.024  24.620  24.284  1.00  0.00    -0.275 OA
ATOM     16  N   UNL A   1      33.175  22.531  24.042  1.00  0.00    -0.339 N 
ATOM     17  C   UNL A   1      33.975  22.009  25.151  1.00  0.00     0.141 C 
ATOM     18  C   UNL A   1      32.854  21.548  23.000  1.00  0.00     0.141 C 
ATOM     19  C   UNL A   1      33.255  20.821  25.806  1.00  0.00     0.138 C 
ATOM     20  C   UNL A   1      32.255  20.248  23.573  1.00  0.00     0.138 C 
ATOM     21  N   UNL A   1      32.958  19.809  24.786  1.00  0.00    -0.368 N 
BRANCH  21  22
ATOM     22  C   UNL A   1      33.486  18.548  24.934  1.00  0.00     0.037 A 
ATOM     23  C   UNL A   1      34.816  18.293  24.574  1.00  0.00     0.026 A 
ATOM     24  C   UNL A   1      32.706  17.475  25.376  1.00  0.00     0.039 A 
ATOM     25  C   UNL A   1      35.358  17.010  24.654  1.00  0.00     0.003 A 
ATOM     26  C   UNL A   1      33.225  16.168  25.431  1.00  0.00     0.058 A 
ATOM     27  C   UNL A   1      34.564  15.950  25.076  1.00  0.00     0.013 A 
BRANCH  26  28
ATOM     28  C   UNL A   1      32.358  15.006  25.839  1.00  0.00     0.416 C 
ATOM     29  F   UNL A   1      32.179  14.940  27.188  1.00  0.00    -0.166 F 
ATOM     30  F   UNL A   1      31.109  15.072  25.301  1.00  0.00    -0.166 F 
ATOM     31  F   UNL A   1      32.857  13.792  25.472  1.00  0.00    -0.166 F 
ENDBRANCH  26  28
ENDBRANCH  21  22
ENDBRANCH  13  14
ENDBRANCH   3   6
ENDBRANCH   1   2
BRANCH   1  32
ATOM     32  C   UNL A   1      34.107  28.168  25.762  1.00  0.00     0.042 C 
BRANCH  32  33
ATOM     33  C   UNL A   1      33.466  28.497  27.106  1.00  0.00     0.118 C 
BRANCH  33  34
ATOM     34  N   UNL A   1      33.475  29.935  27.343  1.00  0.00    -0.352 N 
ATOM     35  C   UNL A   1      34.388  30.685  28.039  1.00  0.00     0.251 C 
ATOM     36  H   UNL A   1      32.724  30.435  26.950  1.00  0.00     0.163 HD
ATOM     37  O   UNL A   1      34.093  31.812  28.423  1.00  0.00    -0.269 OA
BRANCH  35  38
ATOM     38  C   UNL A   1      35.735  30.142  28.314  1.00  0.00     0.039 A 
ATOM     39  C   UNL A   1      36.020  29.639  29.587  1.00  0.00     0.014 A 
ATOM     40  C   UNL A   1      36.737  30.202  27.340  1.00  0.00     0.014 A 
ATOM     41  C   UNL A   1      37.304  29.175  29.878  1.00  0.00     0.010 A 
ATOM     42  C   UNL A   1      38.002  29.689  27.615  1.00  0.00     0.010 A 
ATOM     43  C   UNL A   1      38.303  29.191  28.892  1.00  0.00    -0.014 A 
BRANCH  43  44
ATOM     44  C   UNL A   1      39.683  28.733  29.180  1.00  0.00     0.031 A 
ATOM     45  C   UNL A   1      40.659  29.668  29.840  1.00  0.00     0.074 A 
ATOM     46  C   UNL A   1      40.080  27.507  28.790  1.00  0.00     0.049 A 
ATOM     47  N   UNL A   1      41.932  29.494  30.088  1.00  0.00    -0.248 NA
ATOM     48  C   UNL A   1      40.140  30.982  30.250  1.00  0.00     0.031 C 
ATOM     49  C   UNL A   1      39.237  26.517  28.119  1.00  0.00     0.029 A 
ATOM     50  N   UNL A   1      41.302  26.893  28.890  1.00  0.00    -0.354 N 
ATOM     51  C   UNL A   1      42.371  30.684  30.655  1.00  0.00     0.074 A 
ATOM     52  C   UNL A   1      41.238  31.583  30.682  1.00  0.00     0.031 C 
ATOM     53  C   UNL A   1      39.965  25.414  27.878  1.00  0.00     0.029 A 
ATOM     54  C   UNL A   1      41.331  25.634  28.344  1.00  0.00     0.049 A 
ATOM     55  H   UNL A   1      42.084  27.316  29.314  1.00  0.00     0.167 HD
ATOM     56  C   UNL A   1      43.602  30.997  31.122  1.00  0.00     0.031 A 
ATOM     57  C   UNL A   1      42.346  24.760  28.221  1.00  0.00     0.031 A 
ATOM     58  C   UNL A   1      44.724  30.097  31.113  1.00  0.00     0.049 A 
ATOM     59  C   UNL A   1      43.705  25.128  28.748  1.00  0.00     0.074 A 
ATOM     60  C   UNL A   1      45.996  30.299  31.618  1.00  0.00     0.029 A 
ATOM     61  N   UNL A   1      44.704  28.823  30.569  1.00  0.00    -0.354 N 
ATOM     62  N   UNL A   1      44.091  26.238  29.330  1.00  0.00    -0.248 NA
ATOM     63  C   UNL A   1      44.765  24.120  28.605  1.00  0.00     0.031 C 
ATOM     64  C   UNL A   1      46.760  29.159  31.343  1.00  0.00     0.029 A 
ATOM     65  C   UNL A   1      45.949  28.232  30.708  1.00  0.00     0.049 A 
ATOM     66  H   UNL A   1      43.922  28.400  30.145  1.00  0.00     0.167 HD
ATOM     67  C   UNL A   1      45.430  26.051  29.649  1.00  0.00     0.074 A 
ATOM     68  C   UNL A   1      45.787  24.721  29.201  1.00  0.00     0.031 C 
ATOM     69  C   UNL A   1      46.285  26.907  30.259  1.00  0.00     0.031 A 
BRANCH  56  70
ATOM     70  C   UNL A   1      43.800  32.382  31.672  1.00  0.00    -0.014 A 
ATOM     71  C   UNL A   1      43.603  32.661  33.034  1.00  0.00     0.009 A 
ATOM     72  C   UNL A   1      44.209  33.418  30.819  1.00  0.00     0.009 A 
ATOM     73  C   UNL A   1      43.772  33.958  33.522  1.00  0.00     0.001 A 
ATOM     74  C   UNL A   1      44.405  34.709  31.315  1.00  0.00     0.001 A 
ATOM     75  C   UNL A   1      44.176  34.980  32.663  1.00  0.00     0.000 A 
ENDBRANCH  56  70
BRANCH  57  76
ATOM     76  C   UNL A   1      42.109  23.439  27.585  1.00  0.00    -0.014 A 
ATOM     77  C   UNL A   1      41.576  22.378  28.331  1.00  0.00     0.009 A 
ATOM     78  C   UNL A   1      42.400  23.238  26.227  1.00  0.00     0.009 A 
ATOM     79  C   UNL A   1      41.356  21.135  27.734  1.00  0.00     0.001 A 
ATOM     80  C   UNL A   1      42.157  22.001  25.627  1.00  0.00     0.001 A 
ATOM     81  C   UNL A   1      41.642  20.949  26.382  1.00  0.00     0.000 A 
ENDBRANCH  57  76
BRANCH  69  82
ATOM     82  C   UNL A   1      47.682  26.417  30.512  1.00  0.00    -0.014 A 
ATOM     83  C   UNL A   1      48.695  26.580  29.557  1.00  0.00     0.009 A 
ATOM     84  C   UNL A   1      47.997  25.832  31.750  1.00  0.00     0.009 A 
ATOM     85  C   UNL A   1      49.994  26.145  29.825  1.00  0.00     0.001 A 
ATOM     86  C   UNL A   1      49.301  25.420  32.024  1.00  0.00     0.001 A 
ATOM     87  C   UNL A   1      50.297  25.571  31.059  1.00  0.00     0.000 A 
ENDBRANCH  69  82
ENDBRANCH  43  44
ENDBRANCH  35  38
ENDBRANCH  33  34
ENDBRANCH  32  33
ENDBRANCH   1  32
TORSDOF 13
ENDMDL
MODEL 2
REMARK VINA RESULT:     -11.9      3.586      6.836
REMARK SMILES CC1=C(C)C[C@@H](C(=O)NCCCNC(=O)c2ccc(-c3c4nc(c(-c5ccccc5)c5ccc([nH]5)c(-c5ccccc5)c5nc(c(-c6ccccc6)c6ccc3[nH]6)C=C5)C=C4)cc2)[C@@H](C(=O)N2CCN(c3cccc(C(F)(F)F)c3)CC2)C1
REMARK SMILES IDX 10 1 9 2 7 3 8 4 6 6 1 7 2 8 3 9 83 10 4 11 5 12 64 13 65 14
REMARK SMILES IDX 66 15 67 16 68 17 82 18 69 19 81 20 70 21 71 22 72 23 80 24
REMARK SMILES IDX 73 25 75 26 74 27 76 28 77 29 78 30 79 31 11 32 12 33 13 34
REMARK SMILES IDX 14 35 15 37 16 38 17 39 63 40 18 41 62 42 19 43 20 44 21 45
REMARK SMILES IDX 56 46 22 47 61 48 55 49 57 50 23 51 60 52 54 53 53 54 24 56
REMARK SMILES IDX 46 57 31 58 45 59 32 60 35 61 44 62 58 63 33 64 34 65 43 67
REMARK SMILES IDX 59 68 36 69 25 70 26 71 30 72 27 73 29 74 28 75 47 76 48 77
REMARK SMILES IDX 52 78 49 79 51 80 50 81 37 82 38 83 42 84 39 85 41 86 40 87
REMARK H PARENT 9 5 13 36 57 55 35 66
REMARK Flexibility Score: inf
ROOT
ATOM      1  C   UNL A   1      33.659  26.312  24.318  1.00  0.00     0.117 C 
ENDROOT
BRANCH   1   2
ATOM      2  N   UNL A   1      33.113  26.407  22.978  1.00  0.00    -0.356 N 
ATOM      3  C   UNL A   1      32.132  25.752  22.316  1.00  0.00     0.224 C 
ATOM      4  O   UNL A   1      31.949  26.087  21.137  1.00  0.00    -0.275 OA
ATOM      5  H   UNL A   1      33.550  27.098  22.431  1.00  0.00     0.163 HD
BRANCH   3   6
ATOM      6  C   UNL A   1      31.263  24.643  22.901  1.00  0.00     0.095 C 
ATOM      7  C   UNL A   1      31.996  23.445  27.093  1.00  0.00     0.039 C 
ATOM      8  C   UNL A   1      31.514  23.787  25.704  1.00  0.00    -0.074 C 
ATOM      9  C   UNL A   1      30.616  24.748  25.405  1.00  0.00    -0.074 C 
ATOM     10  C   UNL A   1      32.173  22.937  24.642  1.00  0.00     0.045 C 
ATOM     11  C   UNL A   1      29.898  25.619  26.409  1.00  0.00     0.039 C 
ATOM     12  C   UNL A   1      30.266  25.087  23.975  1.00  0.00     0.045 C 
ATOM     13  C   UNL A   1      31.952  23.302  23.159  1.00  0.00     0.095 C 
BRANCH  13  14
ATOM     14  C   UNL A   1      33.307  23.138  22.458  1.00  0.00     0.226 C 
ATOM     15  O   UNL A   1      33.520  23.607  21.339  1.00  0.00    -0.275 OA
ATOM     16  N   UNL A   1      34.343  22.658  23.227  1.00  0.00    -0.339 N 
ATOM     17  C   UNL A   1      35.694  23.156  22.965  1.00  0.00     0.141 C 
ATOM     18  C   UNL A   1      34.288  21.402  23.986  1.00  0.00     0.141 C 
ATOM     19  C   UNL A   1      36.450  23.351  24.288  1.00  0.00     0.138 C 
ATOM     20  C   UNL A   1      35.140  21.445  25.270  1.00  0.00     0.138 C 
ATOM     21  N   UNL A   1      36.439  22.094  25.046  1.00  0.00    -0.368 N 
BRANCH  21  22
ATOM     22  C   UNL A   1      37.639  21.505  25.365  1.00  0.00     0.037 A 
ATOM     23  C   UNL A   1      37.882  20.167  25.025  1.00  0.00     0.026 A 
ATOM     24  C   UNL A   1      38.619  22.187  26.092  1.00  0.00     0.039 A 
ATOM     25  C   UNL A   1      39.064  19.526  25.392  1.00  0.00     0.003 A 
ATOM     26  C   UNL A   1      39.804  21.548  26.501  1.00  0.00     0.058 A 
ATOM     27  C   UNL A   1      40.021  20.212  26.133  1.00  0.00     0.013 A 
BRANCH  26  28
ATOM     28  C   UNL A   1      40.823  22.268  27.345  1.00  0.00     0.416 C 
ATOM     29  F   UNL A   1      41.015  21.667  28.553  1.00  0.00    -0.166 F 
ATOM     30  F   UNL A   1      42.049  22.317  26.754  1.00  0.00    -0.166 F 
ATOM     31  F   UNL A   1      40.491  23.560  27.624  1.00  0.00    -0.166 F 
ENDBRANCH  26  28
ENDBRANCH  21  22
ENDBRANCH  13  14
ENDBRANCH   3   6
ENDBRANCH   1   2
BRANCH   1  32
ATOM     32  C   UNL A   1      33.211  27.424  25.258  1.00  0.00     0.042 C 
BRANCH  32  33
ATOM     33  C   UNL A   1      33.946  28.742  25.036  1.00  0.00     0.118 C 
BRANCH  33  34
ATOM     34  N   UNL A   1      33.127  29.868  25.468  1.00  0.00    -0.352 N 
ATOM     35  C   UNL A   1      33.206  30.591  26.630  1.00  0.00     0.251 C 
ATOM     36  H   UNL A   1      32.423  30.148  24.839  1.00  0.00     0.163 HD
ATOM     37  O   UNL A   1      32.259  31.283  26.990  1.00  0.00    -0.269 OA
BRANCH  35  38
ATOM     38  C   UNL A   1      34.439  30.551  27.445  1.00  0.00     0.039 A 
ATOM     39  C   UNL A   1      35.203  31.713  27.583  1.00  0.00     0.014 A 
ATOM     40  C   UNL A   1      34.879  29.348  28.006  1.00  0.00     0.014 A 
ATOM     41  C   UNL A   1      36.398  31.676  28.303  1.00  0.00     0.010 A 
ATOM     42  C   UNL A   1      36.044  29.324  28.769  1.00  0.00     0.010 A 
ATOM     43  C   UNL A   1      36.824  30.483  28.907  1.00  0.00    -0.014 A 
BRANCH  43  44
ATOM     44  C   UNL A   1      38.104  30.406  29.652  1.00  0.00     0.031 A 
ATOM     45  C   UNL A   1      39.278  29.689  29.047  1.00  0.00     0.074 A 
ATOM     46  C   UNL A   1      38.190  30.917  30.894  1.00  0.00     0.049 A 
ATOM     47  N   UNL A   1      40.448  29.427  29.574  1.00  0.00    -0.248 NA
ATOM     48  C   UNL A   1      39.106  29.175  27.679  1.00  0.00     0.031 C 
ATOM     49  C   UNL A   1      37.114  31.613  31.601  1.00  0.00     0.029 A 
ATOM     50  N   UNL A   1      39.230  30.915  31.787  1.00  0.00    -0.354 N 
ATOM     51  C   UNL A   1      41.137  28.695  28.615  1.00  0.00     0.074 A 
ATOM     52  C   UNL A   1      40.244  28.524  27.490  1.00  0.00     0.031 C 
ATOM     53  C   UNL A   1      37.555  31.981  32.815  1.00  0.00     0.029 A 
ATOM     54  C   UNL A   1      38.929  31.516  32.984  1.00  0.00     0.049 A 
ATOM     55  H   UNL A   1      40.110  30.519  31.589  1.00  0.00     0.167 HD
ATOM     56  C   UNL A   1      42.403  28.218  28.662  1.00  0.00     0.031 A 
ATOM     57  C   UNL A   1      39.670  31.665  34.097  1.00  0.00     0.031 A 
ATOM     58  C   UNL A   1      43.298  28.405  29.772  1.00  0.00     0.049 A 
ATOM     59  C   UNL A   1      41.073  31.128  34.126  1.00  0.00     0.074 A 
ATOM     60  C   UNL A   1      44.620  28.013  29.890  1.00  0.00     0.029 A 
ATOM     61  N   UNL A   1      42.958  29.038  30.957  1.00  0.00    -0.354 N 
ATOM     62  N   UNL A   1      41.730  30.485  33.190  1.00  0.00    -0.248 NA
ATOM     63  C   UNL A   1      41.839  31.344  35.361  1.00  0.00     0.031 C 
ATOM     64  C   UNL A   1      45.069  28.374  31.165  1.00  0.00     0.029 A 
ATOM     65  C   UNL A   1      44.041  29.031  31.821  1.00  0.00     0.049 A 
ATOM     66  H   UNL A   1      42.079  29.433  31.155  1.00  0.00     0.167 HD
ATOM     67  C   UNL A   1      42.994  30.244  33.713  1.00  0.00     0.074 A 
ATOM     68  C   UNL A   1      43.014  30.816  35.043  1.00  0.00     0.031 C 
ATOM     69  C   UNL A   1      44.043  29.607  33.140  1.00  0.00     0.031 A 
BRANCH  56  70
ATOM     70  C   UNL A   1      42.889  27.435  27.474  1.00  0.00    -0.014 A 
ATOM     71  C   UNL A   1      43.523  28.067  26.392  1.00  0.00     0.009 A 
ATOM     72  C   UNL A   1      42.729  26.041  27.447  1.00  0.00     0.009 A 
ATOM     73  C   UNL A   1      43.948  27.325  25.290  1.00  0.00     0.001 A 
ATOM     74  C   UNL A   1      43.181  25.297  26.355  1.00  0.00     0.001 A 
ATOM     75  C   UNL A   1      43.780  25.940  25.273  1.00  0.00     0.000 A 
ENDBRANCH  56  70
BRANCH  57  76
ATOM     76  C   UNL A   1      39.101  32.370  35.273  1.00  0.00    -0.014 A 
ATOM     77  C   UNL A   1      39.222  33.762  35.391  1.00  0.00     0.009 A 
ATOM     78  C   UNL A   1      38.423  31.657  36.274  1.00  0.00     0.009 A 
ATOM     79  C   UNL A   1      38.690  34.426  36.499  1.00  0.00     0.001 A 
ATOM     80  C   UNL A   1      37.872  32.327  37.369  1.00  0.00     0.001 A 
ATOM     81  C   UNL A   1      38.011  33.709  37.484  1.00  0.00     0.000 A 
ENDBRANCH  57  76
BRANCH  69  82
ATOM     82  C   UNL A   1      45.315  29.527  33.934  1.00  0.00    -0.014 A 
ATOM     83  C   UNL A   1      46.267  30.556  33.890  1.00  0.00     0.009 A 
ATOM     84  C   UNL A   1      45.535  28.428  34.781  1.00  0.00     0.009 A 
ATOM     85  C   UNL A   1      47.428  30.475  34.661  1.00  0.00     0.001 A 
ATOM     86  C   UNL A   1      46.685  28.361  35.568  1.00  0.00     0.001 A 
ATOM     87  C   UNL A   1      47.633  29.381  35.502  1.00  0.00     0.000 A 
ENDBRANCH  69  82
ENDBRANCH  43  44
ENDBRANCH  35  38
ENDBRANCH  33  34
ENDBRANCH  32  33
ENDBRANCH   1  32
TORSDOF 13
ENDMDL
MODEL 3
REMARK VINA RESULT:     -11.8      1.477      1.964
REMARK SMILES CC1=C(C)C[C@@H](C(=O)NCCCNC(=O)c2ccc(-c3c4nc(c(-c5ccccc5)c5ccc([nH]5)c(-c5ccccc5)c5nc(c(-c6ccccc6)c6ccc3[nH]6)C=C5)C=C4)cc2)[C@@H](C(=O)N2CCN(c3cccc(C(F)(F)F)c3)CC2)C1
REMARK SMILES IDX 10 1 9 2 7 3 8 4 6 6 1 7 2 8 3 9 83 10 4 11 5 12 64 13 65 14
REMARK SMILES IDX 66 15 67 16 68 17 82 18 69 19 81 20 70 21 71 22 72 23 80 24
REMARK SMILES IDX 73 25 75 26 74 27 76 28 77 29 78 30 79 31 11 32 12 33 13 34
REMARK SMILES IDX 14 35 15 37 16 38 17 39 63 40 18 41 62 42 19 43 20 44 21 45
REMARK SMILES IDX 56 46 22 47 61 48 55 49 57 50 23 51 60 52 54 53 53 54 24 56
REMARK SMILES IDX 46 57 31 58 45 59 32 60 35 61 44 62 58 63 33 64 34 65 43 67
REMARK SMILES IDX 59 68 36 69 25 70 26 71 30 72 27 73 29 74 28 75 47 76 48 77
REMARK SMILES IDX 52 78 49 79 51 80 50 81 37 82 38 83 42 84 39 85 41 86 40 87
REMARK H PARENT 9 5 13 36 57 55 35 66
REMARK Flexibility Score: inf
ROOT
ATOM      1  C   UNL A   1      33.053  27.625  24.850  1.00  0.00     0.117 C 
ENDROOT
BRANCH   1   2
ATOM      2  N   UNL A   1      33.695  27.259  23.602  1.00  0.00    -0.356 N 
ATOM      3  C   UNL A   1      33.332  26.490  22.551  1.00  0.00     0.224 C 
ATOM      4  O   UNL A   1      34.168  26.375  21.643  1.00  0.00    -0.275 OA
ATOM      5  H   UNL A   1      34.590  27.656  23.497  1.00  0.00     0.163 HD
BRANCH   3   6
ATOM      6  C   UNL A   1      32.001  25.758  22.412  1.00  0.00     0.095 C 
ATOM      7  C   UNL A   1      29.260  25.793  25.882  1.00  0.00     0.039 C 
ATOM      8  C   UNL A   1      29.993  25.766  24.562  1.00  0.00    -0.074 C 
ATOM      9  C   UNL A   1      29.915  26.717  23.608  1.00  0.00    -0.074 C 
ATOM     10  C   UNL A   1      30.869  24.543  24.416  1.00  0.00     0.045 C 
ATOM     11  C   UNL A   1      29.046  27.950  23.670  1.00  0.00     0.039 C 
ATOM     12  C   UNL A   1      30.761  26.654  22.358  1.00  0.00     0.045 C 
ATOM     13  C   UNL A   1      31.844  24.469  23.222  1.00  0.00     0.095 C 
BRANCH  13  14
ATOM     14  C   UNL A   1      33.160  23.895  23.763  1.00  0.00     0.226 C 
ATOM     15  O   UNL A   1      34.057  24.620  24.195  1.00  0.00    -0.275 OA
ATOM     16  N   UNL A   1      33.199  22.534  23.967  1.00  0.00    -0.339 N 
ATOM     17  C   UNL A   1      33.982  22.020  25.092  1.00  0.00     0.141 C 
ATOM     18  C   UNL A   1      32.885  21.541  22.932  1.00  0.00     0.141 C 
ATOM     19  C   UNL A   1      33.247  20.844  25.752  1.00  0.00     0.138 C 
ATOM     20  C   UNL A   1      32.271  20.250  23.513  1.00  0.00     0.138 C 
ATOM     21  N   UNL A   1      32.956  19.821  24.740  1.00  0.00    -0.368 N 
BRANCH  21  22
ATOM     22  C   UNL A   1      33.475  18.559  24.910  1.00  0.00     0.037 A 
ATOM     23  C   UNL A   1      34.807  18.292  24.568  1.00  0.00     0.026 A 
ATOM     24  C   UNL A   1      32.683  17.497  25.356  1.00  0.00     0.039 A 
ATOM     25  C   UNL A   1      35.340  17.007  24.669  1.00  0.00     0.003 A 
ATOM     26  C   UNL A   1      33.193  16.187  25.432  1.00  0.00     0.058 A 
ATOM     27  C   UNL A   1      34.534  15.957  25.095  1.00  0.00     0.013 A 
BRANCH  26  28
ATOM     28  C   UNL A   1      32.314  15.035  25.845  1.00  0.00     0.416 C 
ATOM     29  F   UNL A   1      32.203  14.927  27.199  1.00  0.00    -0.166 F 
ATOM     30  F   UNL A   1      31.042  15.155  25.375  1.00  0.00    -0.166 F 
ATOM     31  F   UNL A   1      32.759  13.822  25.412  1.00  0.00    -0.166 F 
ENDBRANCH  26  28
ENDBRANCH  21  22
ENDBRANCH  13  14
ENDBRANCH   3   6
ENDBRANCH   1   2
BRANCH   1  32
ATOM     32  C   UNL A   1      33.167  29.103  25.204  1.00  0.00     0.042 C 
BRANCH  32  33
ATOM     33  C   UNL A   1      33.661  29.353  26.625  1.00  0.00     0.118 C 
BRANCH  33  34
ATOM     34  N   UNL A   1      33.766  30.782  26.891  1.00  0.00    -0.352 N 
ATOM     35  C   UNL A   1      34.610  31.435  27.752  1.00  0.00     0.251 C 
ATOM     36  H   UNL A   1      33.148  31.355  26.384  1.00  0.00     0.163 HD
ATOM     37  O   UNL A   1      34.362  32.584  28.103  1.00  0.00    -0.269 OA
BRANCH  35  38
ATOM     38  C   UNL A   1      35.829  30.762  28.247  1.00  0.00     0.039 A 
ATOM     39  C   UNL A   1      35.706  29.733  29.185  1.00  0.00     0.014 A 
ATOM     40  C   UNL A   1      37.095  31.198  27.842  1.00  0.00     0.014 A 
ATOM     41  C   UNL A   1      36.851  29.125  29.703  1.00  0.00     0.010 A 
ATOM     42  C   UNL A   1      38.235  30.555  28.318  1.00  0.00     0.010 A 
ATOM     43  C   UNL A   1      38.124  29.528  29.268  1.00  0.00    -0.014 A 
BRANCH  43  44
ATOM     44  C   UNL A   1      39.358  28.922  29.823  1.00  0.00     0.031 A 
ATOM     45  C   UNL A   1      40.022  29.541  31.021  1.00  0.00     0.074 A 
ATOM     46  C   UNL A   1      39.920  27.863  29.211  1.00  0.00     0.049 A 
ATOM     47  N   UNL A   1      41.154  29.223  31.596  1.00  0.00    -0.248 NA
ATOM     48  C   UNL A   1      39.333  30.685  31.640  1.00  0.00     0.031 C 
ATOM     49  C   UNL A   1      39.389  27.188  28.026  1.00  0.00     0.029 A 
ATOM     50  N   UNL A   1      41.074  27.178  29.497  1.00  0.00    -0.354 N 
ATOM     51  C   UNL A   1      41.327  30.144  32.622  1.00  0.00     0.074 A 
ATOM     52  C   UNL A   1      40.203  31.053  32.569  1.00  0.00     0.031 C 
ATOM     53  C   UNL A   1      40.210  26.177  27.694  1.00  0.00     0.029 A 
ATOM     54  C   UNL A   1      41.340  26.158  28.618  1.00  0.00     0.049 A 
ATOM     55  H   UNL A   1      41.656  27.398  30.260  1.00  0.00     0.167 HD
ATOM     56  C   UNL A   1      42.325  30.220  33.533  1.00  0.00     0.031 A 
ATOM     57  C   UNL A   1      42.382  25.310  28.555  1.00  0.00     0.031 A 
ATOM     58  C   UNL A   1      43.433  29.306  33.598  1.00  0.00     0.049 A 
ATOM     59  C   UNL A   1      43.479  25.412  29.577  1.00  0.00     0.074 A 
ATOM     60  C   UNL A   1      44.463  29.262  34.521  1.00  0.00     0.029 A 
ATOM     61  N   UNL A   1      43.653  28.273  32.700  1.00  0.00    -0.354 N 
ATOM     62  N   UNL A   1      43.601  26.255  30.575  1.00  0.00    -0.248 NA
ATOM     63  C   UNL A   1      44.577  24.442  29.469  1.00  0.00     0.031 C 
ATOM     64  C   UNL A   1      45.330  28.225  34.157  1.00  0.00     0.029 A 
ATOM     65  C   UNL A   1      44.814  27.597  33.036  1.00  0.00     0.049 A 
ATOM     66  H   UNL A   1      43.071  28.053  31.937  1.00  0.00     0.167 HD
ATOM     67  C   UNL A   1      44.773  25.899  31.229  1.00  0.00     0.074 A 
ATOM     68  C   UNL A   1      45.321  24.761  30.520  1.00  0.00     0.031 C 
ATOM     69  C   UNL A   1      45.342  26.465  32.320  1.00  0.00     0.031 A 
BRANCH  56  70
ATOM     70  C   UNL A   1      42.265  31.345  34.529  1.00  0.00    -0.014 A 
ATOM     71  C   UNL A   1      42.866  32.587  34.264  1.00  0.00     0.009 A 
ATOM     72  C   UNL A   1      41.580  31.167  35.740  1.00  0.00     0.009 A 
ATOM     73  C   UNL A   1      42.816  33.612  35.209  1.00  0.00     0.001 A 
ATOM     74  C   UNL A   1      41.508  32.204  36.673  1.00  0.00     0.001 A 
ATOM     75  C   UNL A   1      42.135  33.421  36.411  1.00  0.00     0.000 A 
ENDBRANCH  56  70
BRANCH  57  76
ATOM     76  C   UNL A   1      42.429  24.276  27.491  1.00  0.00    -0.014 A 
ATOM     77  C   UNL A   1      43.132  24.514  26.301  1.00  0.00     0.009 A 
ATOM     78  C   UNL A   1      41.785  23.041  27.666  1.00  0.00     0.009 A 
ATOM     79  C   UNL A   1      43.175  23.543  25.298  1.00  0.00     0.001 A 
ATOM     80  C   UNL A   1      41.849  22.063  26.672  1.00  0.00     0.001 A 
ATOM     81  C   UNL A   1      42.538  22.317  25.486  1.00  0.00     0.000 A 
ENDBRANCH  57  76
BRANCH  69  82
ATOM     82  C   UNL A   1      46.606  25.840  32.838  1.00  0.00    -0.014 A 
ATOM     83  C   UNL A   1      46.572  24.818  33.798  1.00  0.00     0.009 A 
ATOM     84  C   UNL A   1      47.844  26.245  32.315  1.00  0.00     0.009 A 
ATOM     85  C   UNL A   1      47.757  24.230  34.243  1.00  0.00     0.001 A 
ATOM     86  C   UNL A   1      49.025  25.638  32.743  1.00  0.00     0.001 A 
ATOM     87  C   UNL A   1      48.981  24.636  33.712  1.00  0.00     0.000 A 
ENDBRANCH  69  82
ENDBRANCH  43  44
ENDBRANCH  35  38
ENDBRANCH  33  34
ENDBRANCH  32  33
ENDBRANCH   1  32
TORSDOF 13
ENDMDL
