MODEL 1
REMARK VINA RESULT:     -12.7      0.000      0.000
REMARK SMILES Cc1cccc(N2CCN(C(=O)[C@@H]3CC=CC[C@@H]3C(=O)NCCCNC(=O)c3ccc(-c4c5nc(c(-c6ccccc6)c6ccc([nH]6)c(-c6ccccc6)c6nc(c(-c7ccccc7)c7ccc4[nH]7)C=C6)C=C5)cc3)CC2)c1C
REMARK SMILES IDX 23 1 22 2 21 3 19 4 20 5 18 7 13 8 14 9 15 10 17 11 16 12
REMARK SMILES IDX 11 13 7 14 8 15 77 16 9 17 76 18 10 19 12 20 6 21 1 22 2 23
REMARK SMILES IDX 3 24 78 25 4 26 79 27 5 28 24 29 25 30 26 31 27 33 28 34
REMARK SMILES IDX 29 35 75 36 30 37 74 38 31 39 32 40 33 41 68 42 34 43 73 44
REMARK SMILES IDX 67 45 69 46 35 47 72 48 66 49 65 50 36 52 58 53 43 54 57 55
REMARK SMILES IDX 44 56 47 57 56 58 70 59 45 60 46 61 55 63 71 64 48 65 37 66
REMARK SMILES IDX 38 67 42 68 39 69 41 70 40 71 59 72 60 73 64 74 61 75 63 76
REMARK SMILES IDX 62 77 49 78 50 79 54 80 51 81 53 82 52 83
REMARK H PARENT 21 6 25 32 69 51 47 62
REMARK Flexibility Score: inf
ROOT
ATOM      1  C   UNL A   1      38.181  22.741  25.626  1.00  0.00     0.042 C 
ENDROOT
BRANCH   1   2
ATOM      2  C   UNL A   1      37.003  23.667  25.873  1.00  0.00     0.117 C 
BRANCH   2   3
ATOM      3  N   UNL A   1      35.921  23.066  26.620  1.00  0.00    -0.356 N 
ATOM      4  C   UNL A   1      34.805  22.390  26.264  1.00  0.00     0.224 C 
ATOM      5  O   UNL A   1      34.173  21.912  27.217  1.00  0.00    -0.275 OA
ATOM      6  H   UNL A   1      36.017  23.170  27.594  1.00  0.00     0.163 HD
BRANCH   4   7
ATOM      7  C   UNL A   1      34.316  22.091  24.832  1.00  0.00     0.095 C 
ATOM      8  C   UNL A   1      32.834  22.027  24.473  1.00  0.00     0.095 C 
ATOM      9  C   UNL A   1      32.154  20.713  25.001  1.00  0.00     0.041 C 
ATOM     10  C   UNL A   1      33.084  19.562  25.284  1.00  0.00    -0.030 C 
ATOM     11  C   UNL A   1      35.011  20.791  24.357  1.00  0.00     0.041 C 
ATOM     12  C   UNL A   1      34.385  19.582  24.969  1.00  0.00    -0.030 C 
BRANCH   8  13
ATOM     13  C   UNL A   1      31.920  23.274  24.611  1.00  0.00     0.226 C 
ATOM     14  N   UNL A   1      32.491  27.324  24.899  1.00  0.00    -0.368 N 
ATOM     15  C   UNL A   1      31.183  26.638  24.858  1.00  0.00     0.138 C 
ATOM     16  C   UNL A   1      33.685  26.481  24.615  1.00  0.00     0.138 C 
ATOM     17  C   UNL A   1      31.097  25.458  23.880  1.00  0.00     0.141 C 
ATOM     18  C   UNL A   1      33.461  25.194  23.777  1.00  0.00     0.141 C 
ATOM     19  N   UNL A   1      32.198  24.515  24.055  1.00  0.00    -0.339 N 
ATOM     20  O   UNL A   1      30.820  23.104  25.158  1.00  0.00    -0.275 OA
BRANCH  14  21
ATOM     21  C   UNL A   1      32.689  28.511  25.661  1.00  0.00     0.040 A 
ATOM     22  C   UNL A   1      31.403  32.102  26.501  1.00  0.00     0.044 C 
ATOM     23  C   UNL A   1      32.223  30.831  26.470  1.00  0.00    -0.046 A 
ATOM     24  C   UNL A   1      33.319  30.780  27.336  1.00  0.00     0.004 A 
ATOM     25  C   UNL A   1      31.896  29.709  25.626  1.00  0.00    -0.025 A 
ATOM     26  C   UNL A   1      34.109  29.653  27.370  1.00  0.00     0.002 A 
ATOM     27  C   UNL A   1      30.714  29.912  24.702  1.00  0.00     0.047 C 
ATOM     28  C   UNL A   1      33.800  28.562  26.552  1.00  0.00     0.026 A 
ENDBRANCH  14  21
ENDBRANCH   8  13
ENDBRANCH   4   7
ENDBRANCH   2   3
ENDBRANCH   1   2
BRANCH   1  29
ATOM     29  C   UNL A   1      39.155  22.768  26.787  1.00  0.00     0.118 C 
BRANCH  29  30
ATOM     30  N   UNL A   1      40.523  23.080  26.381  1.00  0.00    -0.352 N 
ATOM     31  C   UNL A   1      41.167  24.296  26.374  1.00  0.00     0.251 C 
ATOM     32  H   UNL A   1      41.058  22.314  26.071  1.00  0.00     0.163 HD
ATOM     33  O   UNL A   1      42.241  24.420  25.791  1.00  0.00    -0.269 OA
BRANCH  31  34
ATOM     34  C   UNL A   1      40.484  25.485  26.921  1.00  0.00     0.039 A 
ATOM     35  C   UNL A   1      39.704  25.299  28.063  1.00  0.00     0.014 A 
ATOM     36  C   UNL A   1      40.777  26.769  26.462  1.00  0.00     0.014 A 
ATOM     37  C   UNL A   1      39.403  26.395  28.860  1.00  0.00     0.010 A 
ATOM     38  C   UNL A   1      40.596  27.841  27.321  1.00  0.00     0.010 A 
ATOM     39  C   UNL A   1      39.956  27.646  28.550  1.00  0.00    -0.014 A 
BRANCH  39  40
ATOM     40  C   UNL A   1      39.970  28.709  29.575  1.00  0.00     0.031 A 
ATOM     41  C   UNL A   1      38.945  29.794  29.554  1.00  0.00     0.074 A 
ATOM     42  C   UNL A   1      40.953  28.689  30.499  1.00  0.00     0.049 A 
ATOM     43  N   UNL A   1      38.748  30.751  30.424  1.00  0.00    -0.248 NA
ATOM     44  C   UNL A   1      38.038  29.833  28.396  1.00  0.00     0.031 C 
ATOM     45  C   UNL A   1      42.060  27.724  30.538  1.00  0.00     0.029 A 
ATOM     46  N   UNL A   1      41.171  29.477  31.598  1.00  0.00    -0.354 N 
ATOM     47  C   UNL A   1      37.701  31.505  29.915  1.00  0.00     0.074 A 
ATOM     48  C   UNL A   1      37.346  30.937  28.634  1.00  0.00     0.031 C 
ATOM     49  C   UNL A   1      42.787  27.928  31.646  1.00  0.00     0.029 A 
ATOM     50  C   UNL A   1      42.221  29.052  32.378  1.00  0.00     0.049 A 
ATOM     51  H   UNL A   1      40.628  30.270  31.810  1.00  0.00     0.167 HD
ATOM     52  C   UNL A   1      37.077  32.561  30.482  1.00  0.00     0.031 A 
ATOM     53  C   UNL A   1      42.654  29.503  33.569  1.00  0.00     0.031 A 
ATOM     54  C   UNL A   1      37.449  33.110  31.756  1.00  0.00     0.049 A 
ATOM     55  C   UNL A   1      41.907  30.639  34.206  1.00  0.00     0.074 A 
ATOM     56  C   UNL A   1      36.876  34.159  32.451  1.00  0.00     0.029 A 
ATOM     57  N   UNL A   1      38.502  32.639  32.530  1.00  0.00    -0.354 N 
ATOM     58  N   UNL A   1      40.862  31.291  33.755  1.00  0.00    -0.248 NA
ATOM     59  C   UNL A   1      42.384  31.090  35.519  1.00  0.00     0.031 C 
ATOM     60  C   UNL A   1      37.604  34.343  33.632  1.00  0.00     0.029 A 
ATOM     61  C   UNL A   1      38.603  33.382  33.692  1.00  0.00     0.049 A 
ATOM     62  H   UNL A   1      39.090  31.888  32.287  1.00  0.00     0.167 HD
ATOM     63  C   UNL A   1      40.547  32.223  34.732  1.00  0.00     0.074 A 
ATOM     64  C   UNL A   1      41.496  32.030  35.813  1.00  0.00     0.031 C 
ATOM     65  C   UNL A   1      39.569  33.161  34.737  1.00  0.00     0.031 A 
BRANCH  52  66
ATOM     66  C   UNL A   1      35.943  33.172  29.709  1.00  0.00    -0.014 A 
ATOM     67  C   UNL A   1      36.185  33.946  28.561  1.00  0.00     0.009 A 
ATOM     68  C   UNL A   1      34.621  33.003  30.146  1.00  0.00     0.009 A 
ATOM     69  C   UNL A   1      35.131  34.578  27.898  1.00  0.00     0.001 A 
ATOM     70  C   UNL A   1      33.567  33.612  29.465  1.00  0.00     0.001 A 
ATOM     71  C   UNL A   1      33.823  34.410  28.349  1.00  0.00     0.000 A 
ENDBRANCH  52  66
BRANCH  53  72
ATOM     72  C   UNL A   1      43.799  28.844  34.251  1.00  0.00    -0.014 A 
ATOM     73  C   UNL A   1      43.586  27.750  35.105  1.00  0.00     0.009 A 
ATOM     74  C   UNL A   1      45.114  29.288  34.039  1.00  0.00     0.009 A 
ATOM     75  C   UNL A   1      44.661  27.132  35.749  1.00  0.00     0.001 A 
ATOM     76  C   UNL A   1      46.190  28.651  34.663  1.00  0.00     0.001 A 
ATOM     77  C   UNL A   1      45.962  27.579  35.525  1.00  0.00     0.000 A 
ENDBRANCH  53  72
BRANCH  65  78
ATOM     78  C   UNL A   1      39.485  34.033  35.954  1.00  0.00    -0.014 A 
ATOM     79  C   UNL A   1      40.129  35.277  35.994  1.00  0.00     0.009 A 
ATOM     80  C   UNL A   1      38.723  33.616  37.057  1.00  0.00     0.009 A 
ATOM     81  C   UNL A   1      40.038  36.078  37.133  1.00  0.00     0.001 A 
ATOM     82  C   UNL A   1      38.614  34.430  38.183  1.00  0.00     0.001 A 
ATOM     83  C   UNL A   1      39.278  35.656  38.223  1.00  0.00     0.000 A 
ENDBRANCH  65  78
ENDBRANCH  39  40
ENDBRANCH  31  34
ENDBRANCH  29  30
ENDBRANCH   1  29
TORSDOF 12
ENDMDL
MODEL 2
REMARK VINA RESULT:     -12.7      4.221      9.709
REMARK SMILES Cc1cccc(N2CCN(C(=O)[C@@H]3CC=CC[C@@H]3C(=O)NCCCNC(=O)c3ccc(-c4c5nc(c(-c6ccccc6)c6ccc([nH]6)c(-c6ccccc6)c6nc(c(-c7ccccc7)c7ccc4[nH]7)C=C6)C=C5)cc3)CC2)c1C
REMARK SMILES IDX 23 1 22 2 21 3 19 4 20 5 18 7 13 8 14 9 15 10 17 11 16 12
REMARK SMILES IDX 11 13 7 14 8 15 77 16 9 17 76 18 10 19 12 20 6 21 1 22 2 23
REMARK SMILES IDX 3 24 78 25 4 26 79 27 5 28 24 29 25 30 26 31 27 33 28 34
REMARK SMILES IDX 29 35 75 36 30 37 74 38 31 39 32 40 33 41 68 42 34 43 73 44
REMARK SMILES IDX 67 45 69 46 35 47 72 48 66 49 65 50 36 52 58 53 43 54 57 55
REMARK SMILES IDX 44 56 47 57 56 58 70 59 45 60 46 61 55 63 71 64 48 65 37 66
REMARK SMILES IDX 38 67 42 68 39 69 41 70 40 71 59 72 60 73 64 74 61 75 63 76
REMARK SMILES IDX 62 77 49 78 50 79 54 80 51 81 53 82 52 83
REMARK H PARENT 21 6 25 32 69 51 47 62
REMARK Flexibility Score: inf
ROOT
ATOM      1  C   UNL A   1      33.728  30.585  27.297  1.00  0.00     0.042 C 
ENDROOT
BRANCH   1   2
ATOM      2  C   UNL A   1      34.060  29.242  26.670  1.00  0.00     0.117 C 
BRANCH   2   3
ATOM      3  N   UNL A   1      34.023  29.235  25.225  1.00  0.00    -0.356 N 
ATOM      4  C   UNL A   1      33.102  28.836  24.318  1.00  0.00     0.224 C 
ATOM      5  O   UNL A   1      33.389  29.114  23.144  1.00  0.00    -0.275 OA
ATOM      6  H   UNL A   1      34.840  29.599  24.813  1.00  0.00     0.163 HD
BRANCH   4   7
ATOM      7  C   UNL A   1      31.738  28.176  24.606  1.00  0.00     0.095 C 
ATOM      8  C   UNL A   1      31.043  27.265  23.597  1.00  0.00     0.095 C 
ATOM      9  C   UNL A   1      30.422  28.072  22.401  1.00  0.00     0.041 C 
ATOM     10  C   UNL A   1      30.151  29.530  22.666  1.00  0.00    -0.030 C 
ATOM     11  C   UNL A   1      30.756  29.291  25.045  1.00  0.00     0.041 C 
ATOM     12  C   UNL A   1      30.278  30.087  23.876  1.00  0.00    -0.030 C 
BRANCH   8  13
ATOM     13  C   UNL A   1      31.687  25.925  23.149  1.00  0.00     0.226 C 
ATOM     14  N   UNL A   1      34.239  23.183  24.816  1.00  0.00    -0.368 N 
ATOM     15  C   UNL A   1      33.610  23.077  23.483  1.00  0.00     0.138 C 
ATOM     16  C   UNL A   1      33.744  24.281  25.692  1.00  0.00     0.138 C 
ATOM     17  C   UNL A   1      32.147  23.538  23.414  1.00  0.00     0.141 C 
ATOM     18  C   UNL A   1      32.314  24.818  25.416  1.00  0.00     0.141 C 
ATOM     19  N   UNL A   1      31.959  24.863  23.999  1.00  0.00    -0.339 N 
ATOM     20  O   UNL A   1      31.858  25.767  21.931  1.00  0.00    -0.275 OA
BRANCH  14  21
ATOM     21  C   UNL A   1      35.548  22.680  25.068  1.00  0.00     0.040 A 
ATOM     22  C   UNL A   1      37.880  19.548  25.138  1.00  0.00     0.044 C 
ATOM     23  C   UNL A   1      37.355  20.962  25.256  1.00  0.00    -0.046 A 
ATOM     24  C   UNL A   1      38.283  21.938  25.629  1.00  0.00     0.004 A 
ATOM     25  C   UNL A   1      35.985  21.314  24.974  1.00  0.00    -0.025 A 
ATOM     26  C   UNL A   1      37.882  23.249  25.751  1.00  0.00     0.002 A 
ATOM     27  C   UNL A   1      35.074  20.156  24.626  1.00  0.00     0.047 C 
ATOM     28  C   UNL A   1      36.555  23.598  25.482  1.00  0.00     0.026 A 
ENDBRANCH  14  21
ENDBRANCH   8  13
ENDBRANCH   4   7
ENDBRANCH   2   3
ENDBRANCH   1   2
BRANCH   1  29
ATOM     29  C   UNL A   1      34.986  31.368  27.617  1.00  0.00     0.118 C 
BRANCH  29  30
ATOM     30  N   UNL A   1      35.142  31.646  29.042  1.00  0.00    -0.352 N 
ATOM     31  C   UNL A   1      35.928  30.998  29.967  1.00  0.00     0.251 C 
ATOM     32  H   UNL A   1      34.613  32.401  29.387  1.00  0.00     0.163 HD
ATOM     33  O   UNL A   1      35.772  31.214  31.166  1.00  0.00    -0.269 OA
BRANCH  31  34
ATOM     34  C   UNL A   1      36.839  29.923  29.526  1.00  0.00     0.039 A 
ATOM     35  C   UNL A   1      37.391  30.043  28.250  1.00  0.00     0.014 A 
ATOM     36  C   UNL A   1      37.305  28.953  30.413  1.00  0.00     0.014 A 
ATOM     37  C   UNL A   1      38.546  29.338  27.945  1.00  0.00     0.010 A 
ATOM     38  C   UNL A   1      38.529  28.354  30.163  1.00  0.00     0.010 A 
ATOM     39  C   UNL A   1      39.182  28.590  28.948  1.00  0.00    -0.014 A 
BRANCH  39  40
ATOM     40  C   UNL A   1      40.584  28.166  28.759  1.00  0.00     0.031 A 
ATOM     41  C   UNL A   1      40.903  26.763  28.361  1.00  0.00     0.074 A 
ATOM     42  C   UNL A   1      41.558  29.069  28.994  1.00  0.00     0.049 A 
ATOM     43  N   UNL A   1      42.064  26.241  28.062  1.00  0.00    -0.248 NA
ATOM     44  C   UNL A   1      39.783  25.809  28.319  1.00  0.00     0.031 C 
ATOM     45  C   UNL A   1      41.346  30.437  29.486  1.00  0.00     0.029 A 
ATOM     46  N   UNL A   1      42.916  28.991  28.827  1.00  0.00    -0.354 N 
ATOM     47  C   UNL A   1      41.814  24.902  27.802  1.00  0.00     0.074 A 
ATOM     48  C   UNL A   1      40.406  24.675  28.040  1.00  0.00     0.031 C 
ATOM     49  C   UNL A   1      42.518  31.089  29.501  1.00  0.00     0.029 A 
ATOM     50  C   UNL A   1      43.565  30.182  29.052  1.00  0.00     0.049 A 
ATOM     51  H   UNL A   1      43.381  28.163  28.568  1.00  0.00     0.167 HD
ATOM     52  C   UNL A   1      42.679  23.955  27.376  1.00  0.00     0.031 A 
ATOM     53  C   UNL A   1      44.859  30.510  28.884  1.00  0.00     0.031 A 
ATOM     54  C   UNL A   1      44.076  24.205  27.149  1.00  0.00     0.049 A 
ATOM     55  C   UNL A   1      45.789  29.457  28.354  1.00  0.00     0.074 A 
ATOM     56  C   UNL A   1      45.049  23.336  26.690  1.00  0.00     0.029 A 
ATOM     57  N   UNL A   1      44.695  25.428  27.365  1.00  0.00    -0.354 N 
ATOM     58  N   UNL A   1      45.523  28.214  28.028  1.00  0.00    -0.248 NA
ATOM     59  C   UNL A   1      47.188  29.853  28.151  1.00  0.00     0.031 C 
ATOM     60  C   UNL A   1      46.265  24.028  26.659  1.00  0.00     0.029 A 
ATOM     61  C   UNL A   1      46.040  25.338  27.059  1.00  0.00     0.049 A 
ATOM     62  H   UNL A   1      44.243  26.241  27.689  1.00  0.00     0.167 HD
ATOM     63  C   UNL A   1      46.718  27.679  27.571  1.00  0.00     0.074 A 
ATOM     64  C   UNL A   1      47.702  28.744  27.635  1.00  0.00     0.031 C 
ATOM     65  C   UNL A   1      46.985  26.422  27.144  1.00  0.00     0.031 A 
BRANCH  52  66
ATOM     66  C   UNL A   1      42.119  22.581  27.147  1.00  0.00    -0.014 A 
ATOM     67  C   UNL A   1      41.594  21.826  28.210  1.00  0.00     0.009 A 
ATOM     68  C   UNL A   1      42.144  22.017  25.863  1.00  0.00     0.009 A 
ATOM     69  C   UNL A   1      41.152  20.519  28.001  1.00  0.00     0.001 A 
ATOM     70  C   UNL A   1      41.675  20.719  25.651  1.00  0.00     0.001 A 
ATOM     71  C   UNL A   1      41.192  19.966  26.722  1.00  0.00     0.000 A 
ENDBRANCH  52  66
BRANCH  53  72
ATOM     72  C   UNL A   1      45.325  31.896  29.156  1.00  0.00    -0.014 A 
ATOM     73  C   UNL A   1      45.265  32.877  28.153  1.00  0.00     0.009 A 
ATOM     74  C   UNL A   1      45.814  32.254  30.422  1.00  0.00     0.009 A 
ATOM     75  C   UNL A   1      45.705  34.179  28.407  1.00  0.00     0.001 A 
ATOM     76  C   UNL A   1      46.229  33.562  30.681  1.00  0.00     0.001 A 
ATOM     77  C   UNL A   1      46.183  34.522  29.670  1.00  0.00     0.000 A 
ENDBRANCH  53  72
BRANCH  65  78
ATOM     78  C   UNL A   1      48.394  26.147  26.710  1.00  0.00    -0.014 A 
ATOM     79  C   UNL A   1      48.836  26.508  25.429  1.00  0.00     0.009 A 
ATOM     80  C   UNL A   1      49.295  25.554  27.608  1.00  0.00     0.009 A 
ATOM     81  C   UNL A   1      50.151  26.248  25.042  1.00  0.00     0.001 A 
ATOM     82  C   UNL A   1      50.615  25.320  27.226  1.00  0.00     0.001 A 
ATOM     83  C   UNL A   1      51.039  25.659  25.941  1.00  0.00     0.000 A 
ENDBRANCH  65  78
ENDBRANCH  39  40
ENDBRANCH  31  34
ENDBRANCH  29  30
ENDBRANCH   1  29
TORSDOF 12
ENDMDL
MODEL 3
REMARK VINA RESULT:     -12.7      2.229      7.834
REMARK SMILES Cc1cccc(N2CCN(C(=O)[C@@H]3CC=CC[C@@H]3C(=O)NCCCNC(=O)c3ccc(-c4c5nc(c(-c6ccccc6)c6ccc([nH]6)c(-c6ccccc6)c6nc(c(-c7ccccc7)c7ccc4[nH]7)C=C6)C=C5)cc3)CC2)c1C
REMARK SMILES IDX 23 1 22 2 21 3 19 4 20 5 18 7 13 8 14 9 15 10 17 11 16 12
REMARK SMILES IDX 11 13 7 14 8 15 77 16 9 17 76 18 10 19 12 20 6 21 1 22 2 23
REMARK SMILES IDX 3 24 78 25 4 26 79 27 5 28 24 29 25 30 26 31 27 33 28 34
REMARK SMILES IDX 29 35 75 36 30 37 74 38 31 39 32 40 33 41 68 42 34 43 73 44
REMARK SMILES IDX 67 45 69 46 35 47 72 48 66 49 65 50 36 52 58 53 43 54 57 55
REMARK SMILES IDX 44 56 47 57 56 58 70 59 45 60 46 61 55 63 71 64 48 65 37 66
REMARK SMILES IDX 38 67 42 68 39 69 41 70 40 71 59 72 60 73 64 74 61 75 63 76
REMARK SMILES IDX 62 77 49 78 50 79 54 80 51 81 53 82 52 83
REMARK H PARENT 21 6 25 32 69 51 47 62
REMARK Flexibility Score: inf
ROOT
ATOM      1  C   UNL A   1      33.446  30.104  27.433  1.00  0.00     0.042 C 
ENDROOT
BRANCH   1   2
ATOM      2  C   UNL A   1      34.315  29.083  26.718  1.00  0.00     0.117 C 
BRANCH   2   3
ATOM      3  N   UNL A   1      34.277  29.176  25.276  1.00  0.00    -0.356 N 
ATOM      4  C   UNL A   1      33.566  28.536  24.320  1.00  0.00     0.224 C 
ATOM      5  O   UNL A   1      33.725  28.991  23.177  1.00  0.00    -0.275 OA
ATOM      6  H   UNL A   1      34.899  29.846  24.913  1.00  0.00     0.163 HD
BRANCH   4   7
ATOM      7  C   UNL A   1      32.545  27.398  24.523  1.00  0.00     0.095 C 
ATOM      8  C   UNL A   1      32.271  26.346  23.452  1.00  0.00     0.095 C 
ATOM      9  C   UNL A   1      31.422  26.921  22.262  1.00  0.00     0.041 C 
ATOM     10  C   UNL A   1      30.614  28.155  22.571  1.00  0.00    -0.030 C 
ATOM     11  C   UNL A   1      31.205  28.039  24.962  1.00  0.00     0.041 C 
ATOM     12  C   UNL A   1      30.491  28.656  23.806  1.00  0.00    -0.030 C 
BRANCH   8  13
ATOM     13  C   UNL A   1      33.384  25.371  22.981  1.00  0.00     0.226 C 
ATOM     14  N   UNL A   1      36.048  22.844  24.804  1.00  0.00    -0.368 N 
ATOM     15  C   UNL A   1      35.887  23.022  23.346  1.00  0.00     0.138 C 
ATOM     16  C   UNL A   1      35.020  23.494  25.663  1.00  0.00     0.138 C 
ATOM     17  C   UNL A   1      34.436  23.167  22.863  1.00  0.00     0.141 C 
ATOM     18  C   UNL A   1      33.637  23.780  25.021  1.00  0.00     0.141 C 
ATOM     19  N   UNL A   1      33.704  24.181  23.617  1.00  0.00    -0.339 N 
ATOM     20  O   UNL A   1      33.934  25.632  21.901  1.00  0.00    -0.275 OA
BRANCH  14  21
ATOM     21  C   UNL A   1      37.318  22.570  25.389  1.00  0.00     0.040 A 
ATOM     22  C   UNL A   1      40.108  19.915  26.032  1.00  0.00     0.044 C 
ATOM     23  C   UNL A   1      39.310  21.200  26.026  1.00  0.00    -0.046 A 
ATOM     24  C   UNL A   1      39.903  22.301  26.648  1.00  0.00     0.004 A 
ATOM     25  C   UNL A   1      38.019  21.315  25.394  1.00  0.00    -0.025 A 
ATOM     26  C   UNL A   1      39.241  23.507  26.678  1.00  0.00     0.002 A 
ATOM     27  C   UNL A   1      37.468  20.037  24.799  1.00  0.00     0.047 C 
ATOM     28  C   UNL A   1      37.987  23.626  26.070  1.00  0.00     0.026 A 
ENDBRANCH  14  21
ENDBRANCH   8  13
ENDBRANCH   4   7
ENDBRANCH   2   3
ENDBRANCH   1   2
BRANCH   1  29
ATOM     29  C   UNL A   1      34.217  31.376  27.722  1.00  0.00     0.118 C 
BRANCH  29  30
ATOM     30  N   UNL A   1      33.401  32.581  27.601  1.00  0.00    -0.352 N 
ATOM     31  C   UNL A   1      33.459  33.742  28.339  1.00  0.00     0.251 C 
ATOM     32  H   UNL A   1      32.716  32.560  26.894  1.00  0.00     0.163 HD
ATOM     33  O   UNL A   1      32.555  34.568  28.257  1.00  0.00    -0.269 OA
BRANCH  31  34
ATOM     34  C   UNL A   1      34.522  33.911  29.349  1.00  0.00     0.039 A 
ATOM     35  C   UNL A   1      34.332  33.283  30.581  1.00  0.00     0.014 A 
ATOM     36  C   UNL A   1      35.755  34.477  29.023  1.00  0.00     0.014 A 
ATOM     37  C   UNL A   1      35.433  33.036  31.389  1.00  0.00     0.010 A 
ATOM     38  C   UNL A   1      36.871  34.113  29.758  1.00  0.00     0.010 A 
ATOM     39  C   UNL A   1      36.718  33.343  30.917  1.00  0.00    -0.014 A 
BRANCH  39  40
ATOM     40  C   UNL A   1      37.897  32.743  31.574  1.00  0.00     0.031 A 
ATOM     41  C   UNL A   1      38.319  33.198  32.932  1.00  0.00     0.074 A 
ATOM     42  C   UNL A   1      38.595  31.808  30.898  1.00  0.00     0.049 A 
ATOM     43  N   UNL A   1      39.266  32.722  33.697  1.00  0.00    -0.248 NA
ATOM     44  C   UNL A   1      37.607  34.355  33.500  1.00  0.00     0.031 C 
ATOM     45  C   UNL A   1      38.318  31.372  29.522  1.00  0.00     0.029 A 
ATOM     46  N   UNL A   1      39.659  31.033  31.275  1.00  0.00    -0.354 N 
ATOM     47  C   UNL A   1      39.267  33.523  34.829  1.00  0.00     0.074 A 
ATOM     48  C   UNL A   1      38.273  34.552  34.627  1.00  0.00     0.031 C 
ATOM     49  C   UNL A   1      39.134  30.356  29.206  1.00  0.00     0.029 A 
ATOM     50  C   UNL A   1      40.011  30.090  30.338  1.00  0.00     0.049 A 
ATOM     51  H   UNL A   1      40.127  31.139  32.135  1.00  0.00     0.167 HD
ATOM     52  C   UNL A   1      40.014  33.390  35.948  1.00  0.00     0.031 A 
ATOM     53  C   UNL A   1      40.920  29.100  30.402  1.00  0.00     0.031 A 
ATOM     54  C   UNL A   1      40.998  32.359  36.125  1.00  0.00     0.049 A 
ATOM     55  C   UNL A   1      41.695  28.937  31.678  1.00  0.00     0.074 A 
ATOM     56  C   UNL A   1      41.799  32.102  37.223  1.00  0.00     0.029 A 
ATOM     57  N   UNL A   1      41.311  31.406  35.165  1.00  0.00    -0.354 N 
ATOM     58  N   UNL A   1      41.626  29.649  32.778  1.00  0.00    -0.248 NA
ATOM     59  C   UNL A   1      42.656  27.829  31.729  1.00  0.00     0.031 C 
ATOM     60  C   UNL A   1      42.619  31.012  36.913  1.00  0.00     0.029 A 
ATOM     61  C   UNL A   1      42.300  30.565  35.639  1.00  0.00     0.049 A 
ATOM     62  H   UNL A   1      40.891  31.341  34.276  1.00  0.00     0.167 HD
ATOM     63  C   UNL A   1      42.527  29.070  33.659  1.00  0.00     0.074 A 
ATOM     64  C   UNL A   1      43.108  27.931  32.972  1.00  0.00     0.031 C 
ATOM     65  C   UNL A   1      42.854  29.447  34.918  1.00  0.00     0.031 A 
BRANCH  52  66
ATOM     66  C   UNL A   1      39.782  34.395  37.040  1.00  0.00    -0.014 A 
ATOM     67  C   UNL A   1      40.412  35.652  37.012  1.00  0.00     0.009 A 
ATOM     68  C   UNL A   1      38.951  34.077  38.124  1.00  0.00     0.009 A 
ATOM     69  C   UNL A   1      40.254  36.546  38.073  1.00  0.00     0.001 A 
ATOM     70  C   UNL A   1      38.773  34.985  39.169  1.00  0.00     0.001 A 
ATOM     71  C   UNL A   1      39.434  36.213  39.150  1.00  0.00     0.000 A 
ENDBRANCH  52  66
BRANCH  53  72
ATOM     72  C   UNL A   1      41.092  28.163  29.261  1.00  0.00    -0.014 A 
ATOM     73  C   UNL A   1      40.261  27.038  29.130  1.00  0.00     0.009 A 
ATOM     74  C   UNL A   1      42.073  28.394  28.283  1.00  0.00     0.009 A 
ATOM     75  C   UNL A   1      40.425  26.155  28.059  1.00  0.00     0.001 A 
ATOM     76  C   UNL A   1      42.217  27.524  27.199  1.00  0.00     0.001 A 
ATOM     77  C   UNL A   1      41.398  26.400  27.092  1.00  0.00     0.000 A 
ENDBRANCH  53  72
BRANCH  65  78
ATOM     78  C   UNL A   1      43.879  28.609  35.623  1.00  0.00    -0.014 A 
ATOM     79  C   UNL A   1      45.246  28.905  35.518  1.00  0.00     0.009 A 
ATOM     80  C   UNL A   1      43.466  27.534  36.425  1.00  0.00     0.009 A 
ATOM     81  C   UNL A   1      46.186  28.116  36.183  1.00  0.00     0.001 A 
ATOM     82  C   UNL A   1      44.408  26.765  37.107  1.00  0.00     0.001 A 
ATOM     83  C   UNL A   1      45.766  27.051  36.978  1.00  0.00     0.000 A 
ENDBRANCH  65  78
ENDBRANCH  39  40
ENDBRANCH  31  34
ENDBRANCH  29  30
ENDBRANCH   1  29
TORSDOF 12
ENDMDL
