MODEL 1
REMARK VINA RESULT:     -11.9      0.000      0.000
REMARK SMILES O=C(NCCCNC(=O)[C@@H]1C=C[C@H](NC(=O)c2ccc(Br)cc2)C1)c1ccc(-c2c3nc(c(-c4ccccc4)c4ccc([nH]4)c(-c4ccccc4)c4nc(c(-c5ccccc5)c5ccc2[nH]5)C=C4)C=C3)cc1
REMARK SMILES IDX 5 1 4 2 3 3 1 4 2 5 25 7 26 8 72 9 27 10 71 11 28 12 29 13
REMARK SMILES IDX 30 14 65 15 31 16 70 17 64 18 66 19 32 20 69 21 63 22 62 23
REMARK SMILES IDX 33 25 55 26 40 27 54 28 41 29 44 30 53 31 67 32 42 33 43 34
REMARK SMILES IDX 52 36 68 37 45 38 34 39 35 40 39 41 36 42 38 43 37 44 56 45
REMARK SMILES IDX 57 46 61 47 58 48 60 49 59 50 46 51 47 52 51 53 48 54 50 55
REMARK SMILES IDX 49 56 6 57 7 58 8 59 9 61 10 62 11 63 24 64 12 65 13 66
REMARK SMILES IDX 14 67 15 68 16 70 17 71 18 72 23 73 19 74 22 75 20 76 21 77
REMARK H PARENT 3 6 66 24 44 35 7 60 14 69
REMARK Flexibility Score: inf
ROOT
ATOM      1  C   UNL A   1      31.481  31.800  26.502  1.00  0.00     0.042 C 
ENDROOT
BRANCH   1   2
ATOM      2  C   UNL A   1      32.673  32.385  27.251  1.00  0.00     0.118 C 
BRANCH   2   3
ATOM      3  N   UNL A   1      32.495  33.804  27.540  1.00  0.00    -0.352 N 
ATOM      4  O   UNL A   1      32.610  35.697  28.755  1.00  0.00    -0.269 OA
ATOM      5  C   UNL A   1      33.072  34.581  28.507  1.00  0.00     0.251 C 
ATOM      6  H   UNL A   1      31.864  34.274  26.949  1.00  0.00     0.163 HD
BRANCH   5   7
ATOM      7  C   UNL A   1      34.251  34.093  29.247  1.00  0.00     0.039 A 
ATOM      8  C   UNL A   1      34.089  33.309  30.391  1.00  0.00     0.014 A 
ATOM      9  C   UNL A   1      35.532  34.363  28.755  1.00  0.00     0.014 A 
ATOM     10  C   UNL A   1      35.200  32.889  31.107  1.00  0.00     0.010 A 
ATOM     11  C   UNL A   1      36.650  33.861  29.425  1.00  0.00     0.010 A 
ATOM     12  C   UNL A   1      36.489  33.122  30.607  1.00  0.00    -0.014 A 
BRANCH  12  13
ATOM     13  C   UNL A   1      37.642  32.456  31.257  1.00  0.00     0.031 A 
ATOM     14  C   UNL A   1      38.308  31.264  30.639  1.00  0.00     0.074 A 
ATOM     15  C   UNL A   1      38.072  32.952  32.435  1.00  0.00     0.049 A 
ATOM     16  N   UNL A   1      39.312  30.561  31.097  1.00  0.00    -0.248 NA
ATOM     17  C   UNL A   1      37.785  30.792  29.347  1.00  0.00     0.031 C 
ATOM     18  C   UNL A   1      37.486  34.103  33.131  1.00  0.00     0.029 A 
ATOM     19  N   UNL A   1      39.099  32.560  33.253  1.00  0.00    -0.354 N 
ATOM     20  C   UNL A   1      39.528  29.553  30.168  1.00  0.00     0.074 A 
ATOM     21  C   UNL A   1      38.543  29.726  29.121  1.00  0.00     0.031 C 
ATOM     22  C   UNL A   1      38.179  34.340  34.252  1.00  0.00     0.029 A 
ATOM     23  C   UNL A   1      39.206  33.318  34.394  1.00  0.00     0.049 A 
ATOM     24  H   UNL A   1      39.702  31.810  33.044  1.00  0.00     0.167 HD
ATOM     25  C   UNL A   1      40.461  28.573  30.196  1.00  0.00     0.031 A 
ATOM     26  C   UNL A   1      40.014  33.183  35.462  1.00  0.00     0.031 A 
ATOM     27  C   UNL A   1      41.437  28.416  31.243  1.00  0.00     0.049 A 
ATOM     28  C   UNL A   1      41.000  32.053  35.479  1.00  0.00     0.074 A 
ATOM     29  C   UNL A   1      42.467  27.495  31.324  1.00  0.00     0.029 A 
ATOM     30  N   UNL A   1      41.494  29.182  32.396  1.00  0.00    -0.354 N 
ATOM     31  N   UNL A   1      41.244  31.158  34.554  1.00  0.00    -0.248 NA
ATOM     32  C   UNL A   1      41.818  31.910  36.690  1.00  0.00     0.031 C 
ATOM     33  C   UNL A   1      43.100  27.655  32.560  1.00  0.00     0.029 A 
ATOM     34  C   UNL A   1      42.507  28.719  33.220  1.00  0.00     0.049 A 
ATOM     35  H   UNL A   1      40.902  29.943  32.599  1.00  0.00     0.167 HD
ATOM     36  C   UNL A   1      42.248  30.351  35.067  1.00  0.00     0.074 A 
ATOM     37  C   UNL A   1      42.592  30.884  36.369  1.00  0.00     0.031 C 
ATOM     38  C   UNL A   1      42.828  29.258  34.515  1.00  0.00     0.031 A 
BRANCH  25  39
ATOM     39  C   UNL A   1      40.467  27.562  29.083  1.00  0.00    -0.014 A 
ATOM     40  C   UNL A   1      39.662  26.415  29.129  1.00  0.00     0.009 A 
ATOM     41  C   UNL A   1      41.213  27.823  27.922  1.00  0.00     0.009 A 
ATOM     42  C   UNL A   1      39.613  25.543  28.038  1.00  0.00     0.001 A 
ATOM     43  C   UNL A   1      41.145  26.963  26.825  1.00  0.00     0.001 A 
ATOM     44  C   UNL A   1      40.347  25.823  26.884  1.00  0.00     0.000 A 
ENDBRANCH  25  39
BRANCH  26  45
ATOM     45  C   UNL A   1      39.874  34.097  36.626  1.00  0.00    -0.014 A 
ATOM     46  C   UNL A   1      39.073  33.750  37.722  1.00  0.00     0.009 A 
ATOM     47  C   UNL A   1      40.530  35.340  36.630  1.00  0.00     0.009 A 
ATOM     48  C   UNL A   1      38.903  34.645  38.782  1.00  0.00     0.001 A 
ATOM     49  C   UNL A   1      40.388  36.215  37.706  1.00  0.00     0.001 A 
ATOM     50  C   UNL A   1      39.563  35.873  38.775  1.00  0.00     0.000 A 
ENDBRANCH  26  45
BRANCH  38  51
ATOM     51  C   UNL A   1      43.898  28.575  35.316  1.00  0.00    -0.014 A 
ATOM     52  C   UNL A   1      45.240  28.976  35.219  1.00  0.00     0.009 A 
ATOM     53  C   UNL A   1      43.555  27.547  36.206  1.00  0.00     0.009 A 
ATOM     54  C   UNL A   1      46.222  28.339  35.978  1.00  0.00     0.001 A 
ATOM     55  C   UNL A   1      44.535  26.933  36.987  1.00  0.00     0.001 A 
ATOM     56  C   UNL A   1      45.868  27.324  36.866  1.00  0.00     0.000 A 
ENDBRANCH  38  51
ENDBRANCH  12  13
ENDBRANCH   5   7
ENDBRANCH   2   3
ENDBRANCH   1   2
BRANCH   1  57
ATOM     57  C   UNL A   1      31.775  30.437  25.893  1.00  0.00     0.117 C 
BRANCH  57  58
ATOM     58  N   UNL A   1      31.451  29.357  26.806  1.00  0.00    -0.356 N 
ATOM     59  C   UNL A   1      31.425  28.010  26.593  1.00  0.00     0.227 C 
ATOM     60  H   UNL A   1      31.214  29.640  27.718  1.00  0.00     0.163 HD
ATOM     61  O   UNL A   1      31.131  27.286  27.544  1.00  0.00    -0.274 OA
BRANCH  59  62
ATOM     62  C   UNL A   1      31.729  27.466  25.199  1.00  0.00     0.103 C 
ATOM     63  C   UNL A   1      30.501  27.532  24.358  1.00  0.00    -0.016 C 
ATOM     64  C   UNL A   1      32.072  25.968  25.221  1.00  0.00     0.047 C 
ATOM     65  C   UNL A   1      30.026  26.314  24.090  1.00  0.00    -0.006 C 
ATOM     66  C   UNL A   1      30.838  25.213  24.689  1.00  0.00     0.106 C 
BRANCH  66  67
ATOM     67  N   UNL A   1      30.172  24.492  25.762  1.00  0.00    -0.346 N 
ATOM     68  C   UNL A   1      30.601  23.540  26.646  1.00  0.00     0.251 C 
ATOM     69  H   UNL A   1      29.225  24.735  25.873  1.00  0.00     0.164 HD
ATOM     70  O   UNL A   1      29.920  23.244  27.624  1.00  0.00    -0.269 OA
BRANCH  68  71
ATOM     71  C   UNL A   1      31.827  22.779  26.373  1.00  0.00     0.039 A 
ATOM     72  C   UNL A   1      33.005  22.992  27.094  1.00  0.00     0.015 A 
ATOM     73  C   UNL A   1      31.788  21.867  25.313  1.00  0.00     0.015 A 
ATOM     74  C   UNL A   1      34.176  22.347  26.688  1.00  0.00     0.016 A 
ATOM     75  C   UNL A   1      32.955  21.215  24.919  1.00  0.00     0.016 A 
ATOM     76  C   UNL A   1      34.147  21.475  25.595  1.00  0.00     0.018 A 
ATOM     77  Br  UNL A   1      35.748  20.664  25.002  1.00  0.00    -0.051 Br
ENDBRANCH  68  71
ENDBRANCH  66  67
ENDBRANCH  59  62
ENDBRANCH  57  58
ENDBRANCH   1  57
TORSDOF 12
ENDMDL
MODEL 2
REMARK VINA RESULT:     -11.9      5.627     10.393
REMARK SMILES O=C(NCCCNC(=O)[C@@H]1C=C[C@H](NC(=O)c2ccc(Br)cc2)C1)c1ccc(-c2c3nc(c(-c4ccccc4)c4ccc([nH]4)c(-c4ccccc4)c4nc(c(-c5ccccc5)c5ccc2[nH]5)C=C4)C=C3)cc1
REMARK SMILES IDX 5 1 4 2 3 3 1 4 2 5 25 7 26 8 72 9 27 10 71 11 28 12 29 13
REMARK SMILES IDX 30 14 65 15 31 16 70 17 64 18 66 19 32 20 69 21 63 22 62 23
REMARK SMILES IDX 33 25 55 26 40 27 54 28 41 29 44 30 53 31 67 32 42 33 43 34
REMARK SMILES IDX 52 36 68 37 45 38 34 39 35 40 39 41 36 42 38 43 37 44 56 45
REMARK SMILES IDX 57 46 61 47 58 48 60 49 59 50 46 51 47 52 51 53 48 54 50 55
REMARK SMILES IDX 49 56 6 57 7 58 8 59 9 61 10 62 11 63 24 64 12 65 13 66
REMARK SMILES IDX 14 67 15 68 16 70 17 71 18 72 23 73 19 74 22 75 20 76 21 77
REMARK H PARENT 3 6 66 24 44 35 7 60 14 69
REMARK Flexibility Score: inf
ROOT
ATOM      1  C   UNL A   1      37.771  19.829  24.991  1.00  0.00     0.042 C 
ENDROOT
BRANCH   1   2
ATOM      2  C   UNL A   1      38.984  20.309  25.778  1.00  0.00     0.118 C 
BRANCH   2   3
ATOM      3  N   UNL A   1      40.007  19.275  25.894  1.00  0.00    -0.352 N 
ATOM      4  O   UNL A   1      42.088  18.414  25.886  1.00  0.00    -0.269 OA
ATOM      5  C   UNL A   1      41.359  19.393  26.063  1.00  0.00     0.251 C 
ATOM      6  H   UNL A   1      39.672  18.350  25.843  1.00  0.00     0.163 HD
BRANCH   5   7
ATOM      7  C   UNL A   1      41.947  20.684  26.465  1.00  0.00     0.039 A 
ATOM      8  C   UNL A   1      42.345  21.608  25.497  1.00  0.00     0.014 A 
ATOM      9  C   UNL A   1      42.040  21.004  27.823  1.00  0.00     0.014 A 
ATOM     10  C   UNL A   1      42.938  22.803  25.880  1.00  0.00     0.010 A 
ATOM     11  C   UNL A   1      42.549  22.246  28.208  1.00  0.00     0.010 A 
ATOM     12  C   UNL A   1      43.004  23.152  27.237  1.00  0.00    -0.014 A 
BRANCH  12  13
ATOM     13  C   UNL A   1      43.413  24.527  27.605  1.00  0.00     0.031 A 
ATOM     14  C   UNL A   1      42.404  25.573  27.973  1.00  0.00     0.074 A 
ATOM     15  C   UNL A   1      44.730  24.817  27.588  1.00  0.00     0.049 A 
ATOM     16  N   UNL A   1      42.606  26.824  28.297  1.00  0.00    -0.248 NA
ATOM     17  C   UNL A   1      40.988  25.172  27.976  1.00  0.00     0.031 C 
ATOM     18  C   UNL A   1      45.797  23.875  27.231  1.00  0.00     0.029 A 
ATOM     19  N   UNL A   1      45.399  25.977  27.881  1.00  0.00    -0.354 N 
ATOM     20  C   UNL A   1      41.349  27.368  28.519  1.00  0.00     0.074 A 
ATOM     21  C   UNL A   1      40.384  26.315  28.285  1.00  0.00     0.031 C 
ATOM     22  C   UNL A   1      46.983  24.486  27.354  1.00  0.00     0.029 A 
ATOM     23  C   UNL A   1      46.760  25.876  27.722  1.00  0.00     0.049 A 
ATOM     24  H   UNL A   1      44.948  26.801  28.175  1.00  0.00     0.167 HD
ATOM     25  C   UNL A   1      41.036  28.634  28.881  1.00  0.00     0.031 A 
ATOM     26  C   UNL A   1      47.723  26.810  27.820  1.00  0.00     0.031 A 
ATOM     27  C   UNL A   1      42.007  29.672  29.115  1.00  0.00     0.049 A 
ATOM     28  C   UNL A   1      47.332  28.214  28.173  1.00  0.00     0.074 A 
ATOM     29  C   UNL A   1      41.790  30.968  29.553  1.00  0.00     0.029 A 
ATOM     30  N   UNL A   1      43.371  29.541  28.915  1.00  0.00    -0.354 N 
ATOM     31  N   UNL A   1      46.145  28.691  28.460  1.00  0.00    -0.248 NA
ATOM     32  C   UNL A   1      48.409  29.211  28.210  1.00  0.00     0.031 C 
ATOM     33  C   UNL A   1      43.014  31.642  29.545  1.00  0.00     0.029 A 
ATOM     34  C   UNL A   1      44.002  30.749  29.166  1.00  0.00     0.049 A 
ATOM     35  H   UNL A   1      43.825  28.713  28.635  1.00  0.00     0.167 HD
ATOM     36  C   UNL A   1      46.335  30.040  28.718  1.00  0.00     0.074 A 
ATOM     37  C   UNL A   1      47.755  30.298  28.589  1.00  0.00     0.031 C 
ATOM     38  C   UNL A   1      45.415  30.986  29.025  1.00  0.00     0.031 A 
BRANCH  25  39
ATOM     39  C   UNL A   1      39.584  28.998  29.021  1.00  0.00    -0.014 A 
ATOM     40  C   UNL A   1      38.828  29.437  27.925  1.00  0.00     0.009 A 
ATOM     41  C   UNL A   1      38.939  28.791  30.252  1.00  0.00     0.009 A 
ATOM     42  C   UNL A   1      37.458  29.674  28.061  1.00  0.00     0.001 A 
ATOM     43  C   UNL A   1      37.565  29.006  30.380  1.00  0.00     0.001 A 
ATOM     44  C   UNL A   1      36.827  29.449  29.285  1.00  0.00     0.000 A 
ENDBRANCH  25  39
BRANCH  26  45
ATOM     45  C   UNL A   1      49.136  26.462  27.514  1.00  0.00    -0.014 A 
ATOM     46  C   UNL A   1      49.611  26.475  26.195  1.00  0.00     0.009 A 
ATOM     47  C   UNL A   1      50.012  26.090  28.548  1.00  0.00     0.009 A 
ATOM     48  C   UNL A   1      50.924  26.088  25.915  1.00  0.00     0.001 A 
ATOM     49  C   UNL A   1      51.333  25.739  28.269  1.00  0.00     0.001 A 
ATOM     50  C   UNL A   1      51.784  25.725  26.951  1.00  0.00     0.000 A 
ENDBRANCH  26  45
BRANCH  38  51
ATOM     51  C   UNL A   1      45.920  32.382  29.249  1.00  0.00    -0.014 A 
ATOM     52  C   UNL A   1      46.360  32.796  30.516  1.00  0.00     0.009 A 
ATOM     53  C   UNL A   1      45.992  33.280  28.174  1.00  0.00     0.009 A 
ATOM     54  C   UNL A   1      46.837  34.093  30.707  1.00  0.00     0.001 A 
ATOM     55  C   UNL A   1      46.499  34.566  28.362  1.00  0.00     0.001 A 
ATOM     56  C   UNL A   1      46.913  34.974  29.629  1.00  0.00     0.000 A 
ENDBRANCH  38  51
ENDBRANCH  12  13
ENDBRANCH   5   7
ENDBRANCH   2   3
ENDBRANCH   1   2
BRANCH   1  57
ATOM     57  C   UNL A   1      36.568  20.749  25.136  1.00  0.00     0.117 C 
BRANCH  57  58
ATOM     58  N   UNL A   1      36.515  21.739  24.078  1.00  0.00    -0.356 N 
ATOM     59  C   UNL A   1      35.487  22.545  23.685  1.00  0.00     0.227 C 
ATOM     60  H   UNL A   1      37.347  21.845  23.564  1.00  0.00     0.163 HD
ATOM     61  O   UNL A   1      35.695  23.327  22.756  1.00  0.00    -0.274 OA
BRANCH  59  62
ATOM     62  C   UNL A   1      34.134  22.429  24.383  1.00  0.00     0.103 C 
ATOM     63  C   UNL A   1      33.287  21.434  23.667  1.00  0.00    -0.016 C 
ATOM     64  C   UNL A   1      33.319  23.728  24.294  1.00  0.00     0.047 C 
ATOM     65  C   UNL A   1      32.259  22.021  23.050  1.00  0.00    -0.006 C 
ATOM     66  C   UNL A   1      32.219  23.501  23.238  1.00  0.00     0.106 C 
BRANCH  66  67
ATOM     67  N   UNL A   1      32.496  24.266  22.032  1.00  0.00    -0.346 N 
ATOM     68  C   UNL A   1      32.805  25.581  21.817  1.00  0.00     0.251 C 
ATOM     69  H   UNL A   1      32.451  23.732  21.206  1.00  0.00     0.164 HD
ATOM     70  O   UNL A   1      33.232  25.954  20.728  1.00  0.00    -0.269 OA
BRANCH  68  71
ATOM     71  C   UNL A   1      32.520  26.584  22.853  1.00  0.00     0.039 A 
ATOM     72  C   UNL A   1      31.214  26.925  23.211  1.00  0.00     0.015 A 
ATOM     73  C   UNL A   1      33.617  27.235  23.428  1.00  0.00     0.015 A 
ATOM     74  C   UNL A   1      31.007  27.991  24.091  1.00  0.00     0.016 A 
ATOM     75  C   UNL A   1      33.408  28.288  24.316  1.00  0.00     0.016 A 
ATOM     76  C   UNL A   1      32.104  28.674  24.626  1.00  0.00     0.018 A 
ATOM     77  Br  UNL A   1      31.819  30.164  25.754  1.00  0.00    -0.051 Br
ENDBRANCH  68  71
ENDBRANCH  66  67
ENDBRANCH  59  62
ENDBRANCH  57  58
ENDBRANCH   1  57
TORSDOF 12
ENDMDL
MODEL 3
REMARK VINA RESULT:     -11.8      1.500      1.880
REMARK SMILES O=C(NCCCNC(=O)[C@@H]1C=C[C@H](NC(=O)c2ccc(Br)cc2)C1)c1ccc(-c2c3nc(c(-c4ccccc4)c4ccc([nH]4)c(-c4ccccc4)c4nc(c(-c5ccccc5)c5ccc2[nH]5)C=C4)C=C3)cc1
REMARK SMILES IDX 5 1 4 2 3 3 1 4 2 5 25 7 26 8 72 9 27 10 71 11 28 12 29 13
REMARK SMILES IDX 30 14 65 15 31 16 70 17 64 18 66 19 32 20 69 21 63 22 62 23
REMARK SMILES IDX 33 25 55 26 40 27 54 28 41 29 44 30 53 31 67 32 42 33 43 34
REMARK SMILES IDX 52 36 68 37 45 38 34 39 35 40 39 41 36 42 38 43 37 44 56 45
REMARK SMILES IDX 57 46 61 47 58 48 60 49 59 50 46 51 47 52 51 53 48 54 50 55
REMARK SMILES IDX 49 56 6 57 7 58 8 59 9 61 10 62 11 63 24 64 12 65 13 66
REMARK SMILES IDX 14 67 15 68 16 70 17 71 18 72 23 73 19 74 22 75 20 76 21 77
REMARK H PARENT 3 6 66 24 44 35 7 60 14 69
REMARK Flexibility Score: inf
ROOT
ATOM      1  C   UNL A   1      31.422  32.229  26.511  1.00  0.00     0.042 C 
ENDROOT
BRANCH   1   2
ATOM      2  C   UNL A   1      32.624  32.801  27.252  1.00  0.00     0.118 C 
BRANCH   2   3
ATOM      3  N   UNL A   1      32.433  34.203  27.608  1.00  0.00    -0.352 N 
ATOM      4  O   UNL A   1      32.528  36.038  28.909  1.00  0.00    -0.269 OA
ATOM      5  C   UNL A   1      33.002  34.940  28.610  1.00  0.00     0.251 C 
ATOM      6  H   UNL A   1      31.796  34.693  27.039  1.00  0.00     0.163 HD
BRANCH   5   7
ATOM      7  C   UNL A   1      34.186  34.429  29.326  1.00  0.00     0.039 A 
ATOM      8  C   UNL A   1      34.037  33.748  30.536  1.00  0.00     0.014 A 
ATOM      9  C   UNL A   1      35.452  34.572  28.750  1.00  0.00     0.014 A 
ATOM     10  C   UNL A   1      35.157  33.309  31.227  1.00  0.00     0.010 A 
ATOM     11  C   UNL A   1      36.571  34.046  29.400  1.00  0.00     0.010 A 
ATOM     12  C   UNL A   1      36.429  33.414  30.645  1.00  0.00    -0.014 A 
BRANCH  12  13
ATOM     13  C   UNL A   1      37.571  32.721  31.287  1.00  0.00     0.031 A 
ATOM     14  C   UNL A   1      38.211  31.520  30.660  1.00  0.00     0.074 A 
ATOM     15  C   UNL A   1      38.015  33.202  32.466  1.00  0.00     0.049 A 
ATOM     16  N   UNL A   1      39.202  30.795  31.111  1.00  0.00    -0.248 NA
ATOM     17  C   UNL A   1      37.673  31.065  29.368  1.00  0.00     0.031 C 
ATOM     18  C   UNL A   1      37.454  34.361  33.171  1.00  0.00     0.029 A 
ATOM     19  N   UNL A   1      39.037  32.786  33.278  1.00  0.00    -0.354 N 
ATOM     20  C   UNL A   1      39.394  29.787  30.176  1.00  0.00     0.074 A 
ATOM     21  C   UNL A   1      38.410  29.985  29.133  1.00  0.00     0.031 C 
ATOM     22  C   UNL A   1      38.156  34.578  34.290  1.00  0.00     0.029 A 
ATOM     23  C   UNL A   1      39.163  33.535  34.423  1.00  0.00     0.049 A 
ATOM     24  H   UNL A   1      39.623  32.025  33.063  1.00  0.00     0.167 HD
ATOM     25  C   UNL A   1      40.308  28.789  30.195  1.00  0.00     0.031 A 
ATOM     26  C   UNL A   1      39.971  33.379  35.487  1.00  0.00     0.031 A 
ATOM     27  C   UNL A   1      41.285  28.606  31.238  1.00  0.00     0.049 A 
ATOM     28  C   UNL A   1      40.935  32.229  35.495  1.00  0.00     0.074 A 
ATOM     29  C   UNL A   1      42.297  27.665  31.311  1.00  0.00     0.029 A 
ATOM     30  N   UNL A   1      41.361  29.365  32.395  1.00  0.00    -0.354 N 
ATOM     31  N   UNL A   1      41.158  31.334  34.564  1.00  0.00    -0.248 NA
ATOM     32  C   UNL A   1      41.754  32.063  36.702  1.00  0.00     0.031 C 
ATOM     33  C   UNL A   1      42.937  27.806  32.545  1.00  0.00     0.029 A 
ATOM     34  C   UNL A   1      42.367  28.877  33.213  1.00  0.00     0.049 A 
ATOM     35  H   UNL A   1      40.785  30.136  32.604  1.00  0.00     0.167 HD
ATOM     36  C   UNL A   1      42.147  30.504  35.069  1.00  0.00     0.074 A 
ATOM     37  C   UNL A   1      42.507  31.024  36.373  1.00  0.00     0.031 C 
ATOM     38  C   UNL A   1      42.703  29.403  34.509  1.00  0.00     0.031 A 
BRANCH  25  39
ATOM     39  C   UNL A   1      40.290  27.784  29.077  1.00  0.00    -0.014 A 
ATOM     40  C   UNL A   1      39.512  26.620  29.149  1.00  0.00     0.009 A 
ATOM     41  C   UNL A   1      40.983  28.066  27.888  1.00  0.00     0.009 A 
ATOM     42  C   UNL A   1      39.437  25.752  28.056  1.00  0.00     0.001 A 
ATOM     43  C   UNL A   1      40.888  27.211  26.789  1.00  0.00     0.001 A 
ATOM     44  C   UNL A   1      40.117  26.054  26.875  1.00  0.00     0.000 A 
ENDBRANCH  25  39
BRANCH  26  45
ATOM     45  C   UNL A   1      39.854  34.289  36.656  1.00  0.00    -0.014 A 
ATOM     46  C   UNL A   1      39.051  33.952  37.754  1.00  0.00     0.009 A 
ATOM     47  C   UNL A   1      40.534  35.519  36.664  1.00  0.00     0.009 A 
ATOM     48  C   UNL A   1      38.902  34.844  38.819  1.00  0.00     0.001 A 
ATOM     49  C   UNL A   1      40.413  36.391  37.746  1.00  0.00     0.001 A 
ATOM     50  C   UNL A   1      39.586  36.060  38.816  1.00  0.00     0.000 A 
ENDBRANCH  26  45
BRANCH  38  51
ATOM     51  C   UNL A   1      43.763  28.695  35.303  1.00  0.00    -0.014 A 
ATOM     52  C   UNL A   1      43.430  27.659  36.189  1.00  0.00     0.009 A 
ATOM     53  C   UNL A   1      45.111  29.043  35.135  1.00  0.00     0.009 A 
ATOM     54  C   UNL A   1      44.426  27.004  36.913  1.00  0.00     0.001 A 
ATOM     55  C   UNL A   1      46.108  28.364  35.837  1.00  0.00     0.001 A 
ATOM     56  C   UNL A   1      45.764  27.351  36.730  1.00  0.00     0.000 A 
ENDBRANCH  38  51
ENDBRANCH  12  13
ENDBRANCH   5   7
ENDBRANCH   2   3
ENDBRANCH   1   2
BRANCH   1  57
ATOM     57  C   UNL A   1      31.437  30.709  26.440  1.00  0.00     0.117 C 
BRANCH  57  58
ATOM     58  N   UNL A   1      31.756  30.234  25.107  1.00  0.00    -0.356 N 
ATOM     59  C   UNL A   1      31.942  28.961  24.653  1.00  0.00     0.227 C 
ATOM     60  H   UNL A   1      31.852  30.937  24.426  1.00  0.00     0.163 HD
ATOM     61  O   UNL A   1      32.191  28.810  23.457  1.00  0.00    -0.274 OA
BRANCH  59  62
ATOM     62  C   UNL A   1      31.863  27.796  25.637  1.00  0.00     0.103 C 
ATOM     63  C   UNL A   1      33.228  27.474  26.142  1.00  0.00    -0.016 C 
ATOM     64  C   UNL A   1      31.412  26.492  24.960  1.00  0.00     0.047 C 
ATOM     65  C   UNL A   1      33.653  26.295  25.685  1.00  0.00    -0.006 C 
ATOM     66  C   UNL A   1      32.664  25.607  24.803  1.00  0.00     0.106 C 
BRANCH  66  67
ATOM     67  N   UNL A   1      33.063  25.522  23.407  1.00  0.00    -0.346 N 
ATOM     68  C   UNL A   1      33.140  24.479  22.525  1.00  0.00     0.251 C 
ATOM     69  H   UNL A   1      33.334  26.386  23.020  1.00  0.00     0.164 HD
ATOM     70  O   UNL A   1      33.279  24.687  21.322  1.00  0.00    -0.269 OA
BRANCH  68  71
ATOM     71  C   UNL A   1      33.171  23.096  23.019  1.00  0.00     0.039 A 
ATOM     72  C   UNL A   1      32.140  22.193  22.750  1.00  0.00     0.015 A 
ATOM     73  C   UNL A   1      34.253  22.733  23.828  1.00  0.00     0.015 A 
ATOM     74  C   UNL A   1      32.154  20.942  23.372  1.00  0.00     0.016 A 
ATOM     75  C   UNL A   1      34.270  21.480  24.436  1.00  0.00     0.016 A 
ATOM     76  C   UNL A   1      33.210  20.599  24.222  1.00  0.00     0.018 A 
ATOM     77  Br  UNL A   1      33.186  18.937  25.122  1.00  0.00    -0.051 Br
ENDBRANCH  68  71
ENDBRANCH  66  67
ENDBRANCH  59  62
ENDBRANCH  57  58
ENDBRANCH   1  57
TORSDOF 12
ENDMDL
