MODEL 1
REMARK VINA RESULT:     -12.8      0.000      0.000
REMARK SMILES Cn1ccc(-c2n[nH]c(=O)n2-c2ccc(C(=O)NCCCNC(=O)c3ccc(-c4c5nc(c(-c6ccccc6)c6ccc([nH]6)c(-c6ccccc6)c6nc(c(-c7ccccc7)c7ccc4[nH]7)C=C6)C=C5)cc3)cc2)n1
REMARK SMILES IDX 20 1 19 2 18 3 16 4 17 5 15 7 12 8 13 9 74 10 14 11 73 12
REMARK SMILES IDX 11 13 6 14 7 15 8 16 9 17 10 19 5 20 1 21 2 22 3 23 75 24
REMARK SMILES IDX 4 25 21 26 22 27 23 28 24 30 25 31 26 32 72 33 27 34 71 35
REMARK SMILES IDX 28 36 29 37 30 38 65 39 31 40 70 41 64 42 66 43 32 44 69 45
REMARK SMILES IDX 63 46 62 47 33 49 55 50 40 51 54 52 41 53 44 54 53 55 67 56
REMARK SMILES IDX 42 57 43 58 52 60 68 61 45 62 34 63 35 64 39 65 36 66 38 67
REMARK SMILES IDX 37 68 56 69 57 70 61 71 58 72 60 73 59 74 46 75 47 76 51 77
REMARK SMILES IDX 48 78 50 79 49 80
REMARK H PARENT 18 6 8 18 22 29 66 48 44 59
REMARK Flexibility Score: inf
ROOT
ATOM      1  C   UNL A   1      37.587  19.706  25.065  1.00  0.00     0.042 C 
ENDROOT
BRANCH   1   2
ATOM      2  C   UNL A   1      36.524  20.809  24.940  1.00  0.00     0.118 C 
BRANCH   2   3
ATOM      3  N   UNL A   1      36.916  21.826  23.974  1.00  0.00    -0.352 N 
ATOM      4  C   UNL A   1      36.286  22.959  23.514  1.00  0.00     0.251 C 
ATOM      5  O   UNL A   1      36.905  23.669  22.721  1.00  0.00    -0.269 OA
ATOM      6  H   UNL A   1      37.802  21.673  23.574  1.00  0.00     0.163 HD
BRANCH   4   7
ATOM      7  C   UNL A   1      34.928  23.379  23.966  1.00  0.00     0.039 A 
ATOM      8  C   UNL A   1      32.398  24.050  25.004  1.00  0.00     0.052 A 
ATOM      9  C   UNL A   1      33.548  24.340  25.737  1.00  0.00     0.028 A 
ATOM     10  C   UNL A   1      32.521  23.513  23.722  1.00  0.00     0.028 A 
ATOM     11  C   UNL A   1      34.805  23.976  25.232  1.00  0.00     0.016 A 
ATOM     12  C   UNL A   1      33.777  23.231  23.194  1.00  0.00     0.016 A 
BRANCH   8  13
ATOM     13  N   UNL A   1      31.120  24.351  25.487  1.00  0.00    -0.242 N 
ATOM     14  C   UNL A   1      30.564  25.581  25.686  1.00  0.00     0.189 A 
ATOM     15  N   UNL A   1      29.545  25.600  26.501  1.00  0.00    -0.150 NA
ATOM     16  N   UNL A   1      29.389  24.283  26.848  1.00  0.00    -0.226 N 
ATOM     17  C   UNL A   1      30.357  23.487  26.234  1.00  0.00     0.348 A 
ATOM     18  H   UNL A   1      28.687  23.943  27.449  1.00  0.00     0.195 HD
ATOM     19  O   UNL A   1      30.510  22.289  26.435  1.00  0.00    -0.246 OA
BRANCH  14  20
ATOM     20  C   UNL A   1      31.024  26.783  25.005  1.00  0.00     0.130 A 
ATOM     21  C   UNL A   1      30.700  29.104  22.402  1.00  0.00     0.173 C 
ATOM     22  N   UNL A   1      31.112  28.337  23.554  1.00  0.00    -0.275 N 
ATOM     23  C   UNL A   1      32.025  28.704  24.497  1.00  0.00     0.109 A 
ATOM     24  N   UNL A   1      30.540  27.146  23.802  1.00  0.00    -0.170 NA
ATOM     25  C   UNL A   1      31.966  27.736  25.473  1.00  0.00     0.054 A 
ENDBRANCH  14  20
ENDBRANCH   8  13
ENDBRANCH   4   7
ENDBRANCH   2   3
ENDBRANCH   1   2
BRANCH   1  26
ATOM     26  C   UNL A   1      38.929  20.257  25.510  1.00  0.00     0.118 C 
BRANCH  26  27
ATOM     27  N   UNL A   1      39.929  19.199  25.677  1.00  0.00    -0.352 N 
ATOM     28  C   UNL A   1      41.272  19.317  25.976  1.00  0.00     0.251 C 
ATOM     29  H   UNL A   1      39.598  18.279  25.560  1.00  0.00     0.163 HD
ATOM     30  O   UNL A   1      42.048  18.403  25.746  1.00  0.00    -0.269 OA
BRANCH  28  31
ATOM     31  C   UNL A   1      41.750  20.569  26.584  1.00  0.00     0.039 A 
ATOM     32  C   UNL A   1      42.451  21.523  25.840  1.00  0.00     0.014 A 
ATOM     33  C   UNL A   1      41.452  20.787  27.924  1.00  0.00     0.014 A 
ATOM     34  C   UNL A   1      42.778  22.735  26.442  1.00  0.00     0.010 A 
ATOM     35  C   UNL A   1      41.603  22.038  28.451  1.00  0.00     0.010 A 
ATOM     36  C   UNL A   1      42.330  22.991  27.746  1.00  0.00    -0.014 A 
BRANCH  36  37
ATOM     37  C   UNL A   1      42.484  24.300  28.368  1.00  0.00     0.031 A 
ATOM     38  C   UNL A   1      41.382  25.251  28.052  1.00  0.00     0.074 A 
ATOM     39  C   UNL A   1      43.383  24.509  29.357  1.00  0.00     0.049 A 
ATOM     40  N   UNL A   1      41.470  26.390  27.450  1.00  0.00    -0.248 NA
ATOM     41  C   UNL A   1      39.993  24.821  28.310  1.00  0.00     0.031 C 
ATOM     42  C   UNL A   1      44.292  23.525  29.965  1.00  0.00     0.029 A 
ATOM     43  N   UNL A   1      43.568  25.598  30.148  1.00  0.00    -0.354 N 
ATOM     44  C   UNL A   1      40.182  26.920  27.450  1.00  0.00     0.074 A 
ATOM     45  C   UNL A   1      39.298  25.838  27.798  1.00  0.00     0.031 C 
ATOM     46  C   UNL A   1      44.701  23.971  31.173  1.00  0.00     0.029 A 
ATOM     47  C   UNL A   1      44.228  25.331  31.347  1.00  0.00     0.049 A 
ATOM     48  H   UNL A   1      43.261  26.500  29.897  1.00  0.00     0.167 HD
ATOM     49  C   UNL A   1      39.974  28.266  27.453  1.00  0.00     0.031 A 
ATOM     50  C   UNL A   1      44.328  26.149  32.426  1.00  0.00     0.031 A 
ATOM     51  C   UNL A   1      41.170  28.983  27.087  1.00  0.00     0.049 A 
ATOM     52  C   UNL A   1      44.007  27.519  31.965  1.00  0.00     0.074 A 
ATOM     53  C   UNL A   1      42.000  28.996  25.984  1.00  0.00     0.029 A 
ATOM     54  N   UNL A   1      41.895  29.542  28.114  1.00  0.00    -0.354 N 
ATOM     55  N   UNL A   1      44.751  28.188  31.132  1.00  0.00    -0.248 NA
ATOM     56  C   UNL A   1      42.625  27.958  32.064  1.00  0.00     0.031 C 
ATOM     57  C   UNL A   1      43.317  29.104  26.520  1.00  0.00     0.029 A 
ATOM     58  C   UNL A   1      43.215  29.244  27.905  1.00  0.00     0.049 A 
ATOM     59  H   UNL A   1      41.530  30.063  28.864  1.00  0.00     0.167 HD
ATOM     60  C   UNL A   1      43.846  28.796  30.274  1.00  0.00     0.074 A 
ATOM     61  C   UNL A   1      42.555  28.702  30.957  1.00  0.00     0.031 C 
ATOM     62  C   UNL A   1      44.173  29.043  28.970  1.00  0.00     0.031 A 
BRANCH  49  63
ATOM     63  C   UNL A   1      38.858  28.930  28.226  1.00  0.00    -0.014 A 
ATOM     64  C   UNL A   1      38.735  28.652  29.600  1.00  0.00     0.009 A 
ATOM     65  C   UNL A   1      37.763  29.569  27.614  1.00  0.00     0.009 A 
ATOM     66  C   UNL A   1      37.549  28.920  30.295  1.00  0.00     0.001 A 
ATOM     67  C   UNL A   1      36.594  29.877  28.314  1.00  0.00     0.001 A 
ATOM     68  C   UNL A   1      36.475  29.523  29.649  1.00  0.00     0.000 A 
ENDBRANCH  49  63
BRANCH  50  69
ATOM     69  C   UNL A   1      44.361  25.798  33.867  1.00  0.00    -0.014 A 
ATOM     70  C   UNL A   1      43.235  25.230  34.489  1.00  0.00     0.009 A 
ATOM     71  C   UNL A   1      45.581  25.744  34.564  1.00  0.00     0.009 A 
ATOM     72  C   UNL A   1      43.341  24.587  35.731  1.00  0.00     0.001 A 
ATOM     73  C   UNL A   1      45.686  25.108  35.807  1.00  0.00     0.001 A 
ATOM     74  C   UNL A   1      44.569  24.512  36.381  1.00  0.00     0.000 A 
ENDBRANCH  50  69
BRANCH  62  75
ATOM     75  C   UNL A   1      45.614  28.862  28.553  1.00  0.00    -0.014 A 
ATOM     76  C   UNL A   1      46.161  27.632  28.146  1.00  0.00     0.009 A 
ATOM     77  C   UNL A   1      46.406  30.012  28.427  1.00  0.00     0.009 A 
ATOM     78  C   UNL A   1      47.470  27.554  27.656  1.00  0.00     0.001 A 
ATOM     79  C   UNL A   1      47.704  29.940  27.919  1.00  0.00     0.001 A 
ATOM     80  C   UNL A   1      48.239  28.710  27.540  1.00  0.00     0.000 A 
ENDBRANCH  62  75
ENDBRANCH  36  37
ENDBRANCH  28  31
ENDBRANCH  26  27
ENDBRANCH   1  26
TORSDOF 12
ENDMDL
MODEL 2
REMARK VINA RESULT:     -12.3      3.884      8.872
REMARK SMILES Cn1ccc(-c2n[nH]c(=O)n2-c2ccc(C(=O)NCCCNC(=O)c3ccc(-c4c5nc(c(-c6ccccc6)c6ccc([nH]6)c(-c6ccccc6)c6nc(c(-c7ccccc7)c7ccc4[nH]7)C=C6)C=C5)cc3)cc2)n1
REMARK SMILES IDX 20 1 19 2 18 3 16 4 17 5 15 7 12 8 13 9 74 10 14 11 73 12
REMARK SMILES IDX 11 13 6 14 7 15 8 16 9 17 10 19 5 20 1 21 2 22 3 23 75 24
REMARK SMILES IDX 4 25 21 26 22 27 23 28 24 30 25 31 26 32 72 33 27 34 71 35
REMARK SMILES IDX 28 36 29 37 30 38 65 39 31 40 70 41 64 42 66 43 32 44 69 45
REMARK SMILES IDX 63 46 62 47 33 49 55 50 40 51 54 52 41 53 44 54 53 55 67 56
REMARK SMILES IDX 42 57 43 58 52 60 68 61 45 62 34 63 35 64 39 65 36 66 38 67
REMARK SMILES IDX 37 68 56 69 57 70 61 71 58 72 60 73 59 74 46 75 47 76 51 77
REMARK SMILES IDX 48 78 50 79 49 80
REMARK H PARENT 18 6 8 18 22 29 66 48 44 59
REMARK Flexibility Score: inf
ROOT
ATOM      1  C   UNL A   1      31.583  31.175  26.178  1.00  0.00     0.042 C 
ENDROOT
BRANCH   1   2
ATOM      2  C   UNL A   1      32.009  29.745  25.808  1.00  0.00     0.118 C 
BRANCH   2   3
ATOM      3  N   UNL A   1      32.858  29.726  24.626  1.00  0.00    -0.352 N 
ATOM      4  C   UNL A   1      33.473  28.704  23.942  1.00  0.00     0.251 C 
ATOM      5  O   UNL A   1      34.095  28.997  22.920  1.00  0.00    -0.269 OA
ATOM      6  H   UNL A   1      33.023  30.617  24.241  1.00  0.00     0.163 HD
BRANCH   4   7
ATOM      7  C   UNL A   1      33.378  27.273  24.353  1.00  0.00     0.039 A 
ATOM      8  C   UNL A   1      32.982  24.579  25.070  1.00  0.00     0.052 A 
ATOM      9  C   UNL A   1      32.718  24.996  23.766  1.00  0.00     0.028 A 
ATOM     10  C   UNL A   1      33.528  25.485  25.981  1.00  0.00     0.028 A 
ATOM     11  C   UNL A   1      32.886  26.345  23.421  1.00  0.00     0.016 A 
ATOM     12  C   UNL A   1      33.769  26.802  25.605  1.00  0.00     0.016 A 
BRANCH   8  13
ATOM     13  N   UNL A   1      32.786  23.254  25.475  1.00  0.00    -0.242 N 
ATOM     14  C   UNL A   1      33.566  22.168  25.205  1.00  0.00     0.189 A 
ATOM     15  N   UNL A   1      32.972  21.014  25.346  1.00  0.00    -0.150 NA
ATOM     16  N   UNL A   1      31.713  21.353  25.771  1.00  0.00    -0.226 N 
ATOM     17  C   UNL A   1      31.571  22.738  25.856  1.00  0.00     0.348 A 
ATOM     18  H   UNL A   1      31.004  20.706  25.989  1.00  0.00     0.195 HD
ATOM     19  O   UNL A   1      30.528  23.321  26.121  1.00  0.00    -0.246 OA
BRANCH  14  20
ATOM     20  C   UNL A   1      34.972  22.267  24.842  1.00  0.00     0.130 A 
ATOM     21  C   UNL A   1      38.346  21.725  25.609  1.00  0.00     0.173 C 
ATOM     22  N   UNL A   1      37.087  22.096  25.008  1.00  0.00    -0.275 N 
ATOM     23  C   UNL A   1      36.881  22.508  23.726  1.00  0.00     0.109 A 
ATOM     24  N   UNL A   1      35.953  22.007  25.727  1.00  0.00    -0.170 NA
ATOM     25  C   UNL A   1      35.517  22.592  23.573  1.00  0.00     0.054 A 
ENDBRANCH  14  20
ENDBRANCH   8  13
ENDBRANCH   4   7
ENDBRANCH   2   3
ENDBRANCH   1   2
BRANCH   1  26
ATOM     26  C   UNL A   1      32.469  31.771  27.256  1.00  0.00     0.118 C 
BRANCH  26  27
ATOM     27  N   UNL A   1      32.236  33.207  27.427  1.00  0.00    -0.352 N 
ATOM     28  C   UNL A   1      32.895  34.100  28.250  1.00  0.00     0.251 C 
ATOM     29  H   UNL A   1      31.511  33.588  26.881  1.00  0.00     0.163 HD
ATOM     30  O   UNL A   1      32.386  35.167  28.551  1.00  0.00    -0.269 OA
BRANCH  28  31
ATOM     31  C   UNL A   1      34.229  33.737  28.756  1.00  0.00     0.039 A 
ATOM     32  C   UNL A   1      34.404  33.176  30.025  1.00  0.00     0.014 A 
ATOM     33  C   UNL A   1      35.313  33.943  27.911  1.00  0.00     0.014 A 
ATOM     34  C   UNL A   1      35.675  32.752  30.400  1.00  0.00     0.010 A 
ATOM     35  C   UNL A   1      36.513  33.358  28.201  1.00  0.00     0.010 A 
ATOM     36  C   UNL A   1      36.722  32.830  29.470  1.00  0.00    -0.014 A 
BRANCH  36  37
ATOM     37  C   UNL A   1      38.030  32.243  29.736  1.00  0.00     0.031 A 
ATOM     38  C   UNL A   1      38.119  30.794  29.402  1.00  0.00     0.074 A 
ATOM     39  C   UNL A   1      39.112  33.017  29.979  1.00  0.00     0.049 A 
ATOM     40  N   UNL A   1      38.383  29.815  30.201  1.00  0.00    -0.248 NA
ATOM     41  C   UNL A   1      37.732  30.365  28.044  1.00  0.00     0.031 C 
ATOM     42  C   UNL A   1      39.179  34.486  29.998  1.00  0.00     0.029 A 
ATOM     43  N   UNL A   1      40.421  32.668  30.099  1.00  0.00    -0.354 N 
ATOM     44  C   UNL A   1      38.411  28.672  29.406  1.00  0.00     0.074 A 
ATOM     45  C   UNL A   1      37.808  29.037  28.150  1.00  0.00     0.031 C 
ATOM     46  C   UNL A   1      40.460  34.885  29.836  1.00  0.00     0.029 A 
ATOM     47  C   UNL A   1      41.315  33.714  29.876  1.00  0.00     0.049 A 
ATOM     48  H   UNL A   1      40.712  31.755  30.324  1.00  0.00     0.167 HD
ATOM     49  C   UNL A   1      39.190  27.605  29.734  1.00  0.00     0.031 A 
ATOM     50  C   UNL A   1      42.655  33.617  29.680  1.00  0.00     0.031 A 
ATOM     51  C   UNL A   1      39.629  27.675  31.106  1.00  0.00     0.049 A 
ATOM     52  C   UNL A   1      43.073  32.286  30.174  1.00  0.00     0.074 A 
ATOM     53  C   UNL A   1      38.993  27.736  32.330  1.00  0.00     0.029 A 
ATOM     54  N   UNL A   1      40.914  28.113  31.322  1.00  0.00    -0.354 N 
ATOM     55  N   UNL A   1      43.023  31.939  31.428  1.00  0.00    -0.248 NA
ATOM     56  C   UNL A   1      43.098  31.189  29.221  1.00  0.00     0.031 C 
ATOM     57  C   UNL A   1      39.768  28.656  33.097  1.00  0.00     0.029 A 
ATOM     58  C   UNL A   1      40.877  29.032  32.338  1.00  0.00     0.049 A 
ATOM     59  H   UNL A   1      41.716  27.819  30.835  1.00  0.00     0.167 HD
ATOM     60  C   UNL A   1      42.539  30.640  31.408  1.00  0.00     0.074 A 
ATOM     61  C   UNL A   1      42.701  30.196  30.022  1.00  0.00     0.031 C 
ATOM     62  C   UNL A   1      41.780  30.158  32.437  1.00  0.00     0.031 A 
BRANCH  49  63
ATOM     63  C   UNL A   1      39.924  26.769  28.710  1.00  0.00    -0.014 A 
ATOM     64  C   UNL A   1      40.864  27.402  27.876  1.00  0.00     0.009 A 
ATOM     65  C   UNL A   1      39.524  25.473  28.334  1.00  0.00     0.009 A 
ATOM     66  C   UNL A   1      41.307  26.804  26.690  1.00  0.00     0.001 A 
ATOM     67  C   UNL A   1      39.996  24.855  27.173  1.00  0.00     0.001 A 
ATOM     68  C   UNL A   1      40.864  25.535  26.334  1.00  0.00     0.000 A 
ENDBRANCH  49  63
BRANCH  50  69
ATOM     69  C   UNL A   1      43.537  34.440  28.816  1.00  0.00    -0.014 A 
ATOM     70  C   UNL A   1      43.699  34.126  27.455  1.00  0.00     0.009 A 
ATOM     71  C   UNL A   1      43.988  35.701  29.247  1.00  0.00     0.009 A 
ATOM     72  C   UNL A   1      44.239  35.057  26.555  1.00  0.00     0.001 A 
ATOM     73  C   UNL A   1      44.533  36.628  28.351  1.00  0.00     0.001 A 
ATOM     74  C   UNL A   1      44.640  36.314  27.001  1.00  0.00     0.000 A 
ENDBRANCH  50  69
BRANCH  62  75
ATOM     75  C   UNL A   1      41.686  30.985  33.698  1.00  0.00    -0.014 A 
ATOM     76  C   UNL A   1      42.562  30.848  34.789  1.00  0.00     0.009 A 
ATOM     77  C   UNL A   1      40.766  32.043  33.717  1.00  0.00     0.009 A 
ATOM     78  C   UNL A   1      42.497  31.726  35.878  1.00  0.00     0.001 A 
ATOM     79  C   UNL A   1      40.714  32.933  34.791  1.00  0.00     0.001 A 
ATOM     80  C   UNL A   1      41.575  32.771  35.875  1.00  0.00     0.000 A 
ENDBRANCH  62  75
ENDBRANCH  36  37
ENDBRANCH  28  31
ENDBRANCH  26  27
ENDBRANCH   1  26
TORSDOF 12
ENDMDL
MODEL 3
REMARK VINA RESULT:     -12.0      5.127     10.181
REMARK SMILES Cn1ccc(-c2n[nH]c(=O)n2-c2ccc(C(=O)NCCCNC(=O)c3ccc(-c4c5nc(c(-c6ccccc6)c6ccc([nH]6)c(-c6ccccc6)c6nc(c(-c7ccccc7)c7ccc4[nH]7)C=C6)C=C5)cc3)cc2)n1
REMARK SMILES IDX 20 1 19 2 18 3 16 4 17 5 15 7 12 8 13 9 74 10 14 11 73 12
REMARK SMILES IDX 11 13 6 14 7 15 8 16 9 17 10 19 5 20 1 21 2 22 3 23 75 24
REMARK SMILES IDX 4 25 21 26 22 27 23 28 24 30 25 31 26 32 72 33 27 34 71 35
REMARK SMILES IDX 28 36 29 37 30 38 65 39 31 40 70 41 64 42 66 43 32 44 69 45
REMARK SMILES IDX 63 46 62 47 33 49 55 50 40 51 54 52 41 53 44 54 53 55 67 56
REMARK SMILES IDX 42 57 43 58 52 60 68 61 45 62 34 63 35 64 39 65 36 66 38 67
REMARK SMILES IDX 37 68 56 69 57 70 61 71 58 72 60 73 59 74 46 75 47 76 51 77
REMARK SMILES IDX 48 78 50 79 49 80
REMARK H PARENT 18 6 8 18 22 29 66 48 44 59
REMARK Flexibility Score: inf
ROOT
ATOM      1  C   UNL A   1      39.780  34.295  33.993  1.00  0.00     0.042 C 
ENDROOT
BRANCH   1   2
ATOM      2  C   UNL A   1      38.932  33.019  34.115  1.00  0.00     0.118 C 
BRANCH   2   3
ATOM      3  N   UNL A   1      38.048  33.070  35.271  1.00  0.00    -0.352 N 
ATOM      4  C   UNL A   1      36.735  33.455  35.418  1.00  0.00     0.251 C 
ATOM      5  O   UNL A   1      36.229  33.330  36.533  1.00  0.00    -0.269 OA
ATOM      6  H   UNL A   1      38.470  32.771  36.108  1.00  0.00     0.163 HD
BRANCH   4   7
ATOM      7  C   UNL A   1      35.901  33.961  34.290  1.00  0.00     0.039 A 
ATOM      8  C   UNL A   1      34.353  34.717  32.061  1.00  0.00     0.052 A 
ATOM      9  C   UNL A   1      33.982  33.607  32.821  1.00  0.00     0.028 A 
ATOM     10  C   UNL A   1      35.438  35.494  32.472  1.00  0.00     0.028 A 
ATOM     11  C   UNL A   1      34.773  33.215  33.911  1.00  0.00     0.016 A 
ATOM     12  C   UNL A   1      36.167  35.144  33.603  1.00  0.00     0.016 A 
BRANCH   8  13
ATOM     13  N   UNL A   1      33.623  35.120  30.938  1.00  0.00    -0.242 N 
ATOM     14  C   UNL A   1      33.895  34.871  29.625  1.00  0.00     0.189 A 
ATOM     15  N   UNL A   1      33.308  35.674  28.779  1.00  0.00    -0.150 NA
ATOM     16  N   UNL A   1      32.566  36.498  29.585  1.00  0.00    -0.226 N 
ATOM     17  C   UNL A   1      32.747  36.177  30.930  1.00  0.00     0.348 A 
ATOM     18  H   UNL A   1      31.982  37.221  29.257  1.00  0.00     0.195 HD
ATOM     19  O   UNL A   1      32.278  36.806  31.870  1.00  0.00    -0.246 OA
BRANCH  14  20
ATOM     20  C   UNL A   1      34.728  33.764  29.179  1.00  0.00     0.130 A 
ATOM     21  C   UNL A   1      35.051  30.666  27.578  1.00  0.00     0.173 C 
ATOM     22  N   UNL A   1      35.256  31.901  28.296  1.00  0.00    -0.275 N 
ATOM     23  C   UNL A   1      36.451  32.481  28.601  1.00  0.00     0.109 A 
ATOM     24  N   UNL A   1      34.196  32.625  28.695  1.00  0.00    -0.170 NA
ATOM     25  C   UNL A   1      36.146  33.709  29.141  1.00  0.00     0.054 A 
ENDBRANCH  14  20
ENDBRANCH   8  13
ENDBRANCH   4   7
ENDBRANCH   2   3
ENDBRANCH   1   2
BRANCH   1  26
ATOM     26  C   UNL A   1      40.679  34.265  32.771  1.00  0.00     0.118 C 
BRANCH  26  27
ATOM     27  N   UNL A   1      39.928  34.474  31.531  1.00  0.00    -0.352 N 
ATOM     28  C   UNL A   1      39.964  33.739  30.362  1.00  0.00     0.251 C 
ATOM     29  H   UNL A   1      39.313  35.243  31.531  1.00  0.00     0.163 HD
ATOM     30  O   UNL A   1      39.562  34.212  29.311  1.00  0.00    -0.269 OA
BRANCH  28  31
ATOM     31  C   UNL A   1      40.495  32.367  30.410  1.00  0.00     0.039 A 
ATOM     32  C   UNL A   1      39.663  31.267  30.640  1.00  0.00     0.014 A 
ATOM     33  C   UNL A   1      41.856  32.198  30.186  1.00  0.00     0.014 A 
ATOM     34  C   UNL A   1      40.206  29.988  30.562  1.00  0.00     0.010 A 
ATOM     35  C   UNL A   1      42.344  30.949  29.924  1.00  0.00     0.010 A 
ATOM     36  C   UNL A   1      41.548  29.839  30.183  1.00  0.00    -0.014 A 
BRANCH  36  37
ATOM     37  C   UNL A   1      42.128  28.530  29.911  1.00  0.00     0.031 A 
ATOM     38  C   UNL A   1      42.878  27.953  31.061  1.00  0.00     0.074 A 
ATOM     39  C   UNL A   1      41.762  27.809  28.826  1.00  0.00     0.049 A 
ATOM     40  N   UNL A   1      44.128  27.632  31.108  1.00  0.00    -0.248 NA
ATOM     41  C   UNL A   1      42.188  27.848  32.362  1.00  0.00     0.031 C 
ATOM     42  C   UNL A   1      40.767  28.168  27.804  1.00  0.00     0.029 A 
ATOM     43  N   UNL A   1      42.072  26.529  28.489  1.00  0.00    -0.354 N 
ATOM     44  C   UNL A   1      44.332  27.083  32.371  1.00  0.00     0.074 A 
ATOM     45  C   UNL A   1      43.175  27.428  33.156  1.00  0.00     0.031 C 
ATOM     46  C   UNL A   1      40.360  27.055  27.155  1.00  0.00     0.029 A 
ATOM     47  C   UNL A   1      41.182  25.941  27.591  1.00  0.00     0.049 A 
ATOM     48  H   UNL A   1      42.859  26.057  28.847  1.00  0.00     0.167 HD
ATOM     49  C   UNL A   1      45.293  26.142  32.583  1.00  0.00     0.031 A 
ATOM     50  C   UNL A   1      41.089  24.625  27.274  1.00  0.00     0.031 A 
ATOM     51  C   UNL A   1      46.238  26.101  31.494  1.00  0.00     0.049 A 
ATOM     52  C   UNL A   1      42.357  23.986  27.692  1.00  0.00     0.074 A 
ATOM     53  C   UNL A   1      47.095  27.014  30.913  1.00  0.00     0.029 A 
ATOM     54  N   UNL A   1      46.080  25.091  30.575  1.00  0.00    -0.354 N 
ATOM     55  N   UNL A   1      43.508  24.249  27.144  1.00  0.00    -0.248 NA
ATOM     56  C   UNL A   1      42.415  23.412  29.026  1.00  0.00     0.031 C 
ATOM     57  C   UNL A   1      47.013  26.751  29.514  1.00  0.00     0.029 A 
ATOM     58  C   UNL A   1      46.190  25.640  29.325  1.00  0.00     0.049 A 
ATOM     59  H   UNL A   1      45.917  24.142  30.779  1.00  0.00     0.167 HD
ATOM     60  C   UNL A   1      44.390  24.324  28.211  1.00  0.00     0.074 A 
ATOM     61  C   UNL A   1      43.684  23.700  29.331  1.00  0.00     0.031 C 
ATOM     62  C   UNL A   1      45.479  25.149  28.165  1.00  0.00     0.031 A 
BRANCH  49  63
ATOM     63  C   UNL A   1      45.113  24.968  33.518  1.00  0.00    -0.014 A 
ATOM     64  C   UNL A   1      46.112  24.711  34.474  1.00  0.00     0.009 A 
ATOM     65  C   UNL A   1      44.168  23.945  33.307  1.00  0.00     0.009 A 
ATOM     66  C   UNL A   1      46.208  23.469  35.114  1.00  0.00     0.001 A 
ATOM     67  C   UNL A   1      44.235  22.720  33.975  1.00  0.00     0.001 A 
ATOM     68  C   UNL A   1      45.275  22.470  34.856  1.00  0.00     0.000 A 
ENDBRANCH  49  63
BRANCH  50  69
ATOM     69  C   UNL A   1      39.885  23.825  26.939  1.00  0.00    -0.014 A 
ATOM     70  C   UNL A   1      38.660  24.458  26.669  1.00  0.00     0.009 A 
ATOM     71  C   UNL A   1      40.000  22.465  26.596  1.00  0.00     0.009 A 
ATOM     72  C   UNL A   1      37.614  23.773  26.032  1.00  0.00     0.001 A 
ATOM     73  C   UNL A   1      38.955  21.779  25.966  1.00  0.00     0.001 A 
ATOM     74  C   UNL A   1      37.769  22.439  25.666  1.00  0.00     0.000 A 
ENDBRANCH  50  69
BRANCH  62  75
ATOM     75  C   UNL A   1      45.830  25.788  26.842  1.00  0.00    -0.014 A 
ATOM     76  C   UNL A   1      45.301  27.015  26.402  1.00  0.00     0.009 A 
ATOM     77  C   UNL A   1      46.847  25.196  26.081  1.00  0.00     0.009 A 
ATOM     78  C   UNL A   1      45.757  27.612  25.221  1.00  0.00     0.001 A 
ATOM     79  C   UNL A   1      47.319  25.801  24.914  1.00  0.00     0.001 A 
ATOM     80  C   UNL A   1      46.770  27.005  24.481  1.00  0.00     0.000 A 
ENDBRANCH  62  75
ENDBRANCH  36  37
ENDBRANCH  28  31
ENDBRANCH  26  27
ENDBRANCH   1  26
TORSDOF 12
ENDMDL
