MODEL 1
REMARK VINA RESULT:     -11.8      0.000      0.000
REMARK SMILES Cc1cc(NC(=O)c2ccc3ncsc3c2)sc1C(=O)NCCCNC(=O)c1ccc(-c2c3nc(c(-c4ccccc4)c4ccc([nH]4)c(-c4ccccc4)c4nc(c(-c5ccccc5)c5ccc2[nH]5)C=C4)C=C3)cc1
REMARK SMILES IDX 23 1 22 2 21 3 19 4 20 5 18 7 1 8 2 9 3 10 4 11 17 12 5 13
REMARK SMILES IDX 6 14 7 16 8 17 9 18 16 19 10 20 15 21 11 22 14 23 12 24
REMARK SMILES IDX 13 25 24 26 25 27 26 28 27 30 28 31 29 32 75 33 30 34 74 35
REMARK SMILES IDX 31 36 32 37 33 38 68 39 34 40 73 41 67 42 69 43 35 44 72 45
REMARK SMILES IDX 66 46 65 47 36 49 58 50 43 51 57 52 44 53 47 54 56 55 70 56
REMARK SMILES IDX 45 57 46 58 55 60 71 61 48 62 37 63 38 64 42 65 39 66 41 67
REMARK SMILES IDX 40 68 59 69 60 70 64 71 61 72 63 73 62 74 49 75 50 76 54 77
REMARK SMILES IDX 51 78 53 79 52 80
REMARK H PARENT 21 6 5 15 25 29 69 48 47 59
REMARK Flexibility Score: inf
ROOT
ATOM      1  C   UNL A   1      37.563  19.285  24.702  1.00  0.00     0.042 C 
ENDROOT
BRANCH   1   2
ATOM      2  C   UNL A   1      36.145  19.773  24.983  1.00  0.00     0.118 C 
BRANCH   2   3
ATOM      3  N   UNL A   1      36.143  21.063  25.627  1.00  0.00    -0.351 N 
ATOM      4  C   UNL A   1      35.319  22.157  25.557  1.00  0.00     0.261 C 
ATOM      5  O   UNL A   1      35.586  23.002  26.421  1.00  0.00    -0.268 OA
ATOM      6  H   UNL A   1      36.894  21.185  26.253  1.00  0.00     0.163 HD
BRANCH   4   7
ATOM      7  C   UNL A   1      34.244  22.356  24.576  1.00  0.00     0.097 A 
ATOM      8  C   UNL A   1      32.215  20.678  24.856  1.00  0.00     0.046 C 
ATOM      9  C   UNL A   1      33.045  21.735  24.215  1.00  0.00    -0.025 A 
ATOM     10  C   UNL A   1      32.588  22.220  22.947  1.00  0.00     0.042 A 
ATOM     11  C   UNL A   1      33.094  23.448  22.649  1.00  0.00     0.096 A 
ATOM     12  S   UNL A   1      34.509  23.741  23.510  1.00  0.00    -0.112 S 
BRANCH  11  13
ATOM     13  N   UNL A   1      32.662  24.433  21.793  1.00  0.00    -0.314 N 
ATOM     14  C   UNL A   1      31.911  25.542  22.148  1.00  0.00     0.256 C 
ATOM     15  H   UNL A   1      32.908  24.342  20.843  1.00  0.00     0.171 HD
ATOM     16  O   UNL A   1      31.407  26.274  21.304  1.00  0.00    -0.269 OA
BRANCH  14  17
ATOM     17  C   UNL A   1      31.753  25.900  23.582  1.00  0.00     0.041 A 
ATOM     18  C   UNL A   1      30.632  25.455  24.293  1.00  0.00     0.016 A 
ATOM     19  C   UNL A   1      32.672  26.791  24.156  1.00  0.00     0.035 A 
ATOM     20  C   UNL A   1      30.353  25.974  25.563  1.00  0.00     0.030 A 
ATOM     21  C   UNL A   1      32.361  27.319  25.422  1.00  0.00     0.055 A 
ATOM     22  C   UNL A   1      31.211  26.942  26.126  1.00  0.00     0.081 A 
ATOM     23  S   UNL A   1      33.211  28.504  26.343  1.00  0.00    -0.122 S 
ATOM     24  N   UNL A   1      31.008  27.596  27.330  1.00  0.00    -0.245 NA
ATOM     25  C   UNL A   1      31.993  28.437  27.544  1.00  0.00     0.176 A 
ENDBRANCH  14  17
ENDBRANCH  11  13
ENDBRANCH   4   7
ENDBRANCH   2   3
ENDBRANCH   1   2
BRANCH   1  26
ATOM     26  C   UNL A   1      38.648  20.040  25.455  1.00  0.00     0.118 C 
BRANCH  26  27
ATOM     27  N   UNL A   1      39.817  19.207  25.693  1.00  0.00    -0.352 N 
ATOM     28  C   UNL A   1      41.095  19.543  26.066  1.00  0.00     0.251 C 
ATOM     29  H   UNL A   1      39.667  18.242  25.564  1.00  0.00     0.163 HD
ATOM     30  O   UNL A   1      41.984  18.704  25.955  1.00  0.00    -0.269 OA
BRANCH  28  31
ATOM     31  C   UNL A   1      41.422  20.889  26.593  1.00  0.00     0.039 A 
ATOM     32  C   UNL A   1      41.939  21.847  25.712  1.00  0.00     0.014 A 
ATOM     33  C   UNL A   1      41.298  21.200  27.948  1.00  0.00     0.014 A 
ATOM     34  C   UNL A   1      42.286  23.116  26.181  1.00  0.00     0.010 A 
ATOM     35  C   UNL A   1      41.556  22.492  28.399  1.00  0.00     0.010 A 
ATOM     36  C   UNL A   1      42.072  23.459  27.524  1.00  0.00    -0.014 A 
BRANCH  36  37
ATOM     37  C   UNL A   1      42.408  24.809  28.044  1.00  0.00     0.031 A 
ATOM     38  C   UNL A   1      43.820  25.133  28.454  1.00  0.00     0.074 A 
ATOM     39  C   UNL A   1      41.432  25.724  28.203  1.00  0.00     0.049 A 
ATOM     40  N   UNL A   1      44.293  26.228  28.993  1.00  0.00    -0.248 NA
ATOM     41  C   UNL A   1      44.827  24.077  28.258  1.00  0.00     0.031 C 
ATOM     42  C   UNL A   1      40.018  25.523  27.880  1.00  0.00     0.029 A 
ATOM     43  N   UNL A   1      41.483  27.008  28.686  1.00  0.00    -0.354 N 
ATOM     44  C   UNL A   1      45.642  25.984  29.221  1.00  0.00     0.074 A 
ATOM     45  C   UNL A   1      45.902  24.622  28.809  1.00  0.00     0.031 C 
ATOM     46  C   UNL A   1      39.341  26.650  28.147  1.00  0.00     0.029 A 
ATOM     47  C   UNL A   1      40.263  27.638  28.698  1.00  0.00     0.049 A 
ATOM     48  H   UNL A   1      42.314  27.436  28.994  1.00  0.00     0.167 HD
ATOM     49  C   UNL A   1      46.588  26.823  29.709  1.00  0.00     0.031 A 
ATOM     50  C   UNL A   1      39.922  28.873  29.110  1.00  0.00     0.031 A 
ATOM     51  C   UNL A   1      46.333  28.182  30.103  1.00  0.00     0.049 A 
ATOM     52  C   UNL A   1      40.987  29.785  29.651  1.00  0.00     0.074 A 
ATOM     53  C   UNL A   1      47.232  29.131  30.559  1.00  0.00     0.029 A 
ATOM     54  N   UNL A   1      45.085  28.786  30.086  1.00  0.00    -0.354 N 
ATOM     55  N   UNL A   1      42.269  29.558  29.804  1.00  0.00    -0.248 NA
ATOM     56  C   UNL A   1      40.559  31.130  30.063  1.00  0.00     0.031 C 
ATOM     57  C   UNL A   1      46.519  30.296  30.862  1.00  0.00     0.029 A 
ATOM     58  C   UNL A   1      45.187  30.090  30.541  1.00  0.00     0.049 A 
ATOM     59  H   UNL A   1      44.251  28.353  29.792  1.00  0.00     0.167 HD
ATOM     60  C   UNL A   1      42.805  30.737  30.306  1.00  0.00     0.074 A 
ATOM     61  C   UNL A   1      41.711  31.682  30.413  1.00  0.00     0.031 C 
ATOM     62  C   UNL A   1      44.087  31.013  30.644  1.00  0.00     0.031 A 
BRANCH  49  63
ATOM     63  C   UNL A   1      47.985  26.285  29.848  1.00  0.00    -0.014 A 
ATOM     64  C   UNL A   1      48.883  26.304  28.767  1.00  0.00     0.009 A 
ATOM     65  C   UNL A   1      48.421  25.777  31.081  1.00  0.00     0.009 A 
ATOM     66  C   UNL A   1      50.173  25.787  28.909  1.00  0.00     0.001 A 
ATOM     67  C   UNL A   1      49.721  25.289  31.228  1.00  0.00     0.001 A 
ATOM     68  C   UNL A   1      50.592  25.284  30.140  1.00  0.00     0.000 A 
ENDBRANCH  49  63
BRANCH  50  69
ATOM     69  C   UNL A   1      38.510  29.326  29.010  1.00  0.00    -0.014 A 
ATOM     70  C   UNL A   1      37.656  29.242  30.121  1.00  0.00     0.009 A 
ATOM     71  C   UNL A   1      38.010  29.847  27.807  1.00  0.00     0.009 A 
ATOM     72  C   UNL A   1      36.324  29.649  30.023  1.00  0.00     0.001 A 
ATOM     73  C   UNL A   1      36.685  30.280  27.720  1.00  0.00     0.001 A 
ATOM     74  C   UNL A   1      35.840  30.172  28.824  1.00  0.00     0.000 A 
ENDBRANCH  50  69
BRANCH  62  75
ATOM     75  C   UNL A   1      44.382  32.403  31.135  1.00  0.00    -0.014 A 
ATOM     76  C   UNL A   1      44.700  33.439  30.243  1.00  0.00     0.009 A 
ATOM     77  C   UNL A   1      44.302  32.685  32.508  1.00  0.00     0.009 A 
ATOM     78  C   UNL A   1      44.966  34.723  30.722  1.00  0.00     0.001 A 
ATOM     79  C   UNL A   1      44.540  33.976  32.980  1.00  0.00     0.001 A 
ATOM     80  C   UNL A   1      44.881  34.992  32.088  1.00  0.00     0.000 A 
ENDBRANCH  62  75
ENDBRANCH  36  37
ENDBRANCH  28  31
ENDBRANCH  26  27
ENDBRANCH   1  26
TORSDOF 12
ENDMDL
MODEL 2
REMARK VINA RESULT:     -11.7      3.127      8.719
REMARK SMILES Cc1cc(NC(=O)c2ccc3ncsc3c2)sc1C(=O)NCCCNC(=O)c1ccc(-c2c3nc(c(-c4ccccc4)c4ccc([nH]4)c(-c4ccccc4)c4nc(c(-c5ccccc5)c5ccc2[nH]5)C=C4)C=C3)cc1
REMARK SMILES IDX 23 1 22 2 21 3 19 4 20 5 18 7 1 8 2 9 3 10 4 11 17 12 5 13
REMARK SMILES IDX 6 14 7 16 8 17 9 18 16 19 10 20 15 21 11 22 14 23 12 24
REMARK SMILES IDX 13 25 24 26 25 27 26 28 27 30 28 31 29 32 75 33 30 34 74 35
REMARK SMILES IDX 31 36 32 37 33 38 68 39 34 40 73 41 67 42 69 43 35 44 72 45
REMARK SMILES IDX 66 46 65 47 36 49 58 50 43 51 57 52 44 53 47 54 56 55 70 56
REMARK SMILES IDX 45 57 46 58 55 60 71 61 48 62 37 63 38 64 42 65 39 66 41 67
REMARK SMILES IDX 40 68 59 69 60 70 64 71 61 72 63 73 62 74 49 75 50 76 54 77
REMARK SMILES IDX 51 78 53 79 52 80
REMARK H PARENT 21 6 5 15 25 29 69 48 47 59
REMARK Flexibility Score: inf
ROOT
ATOM      1  C   UNL A   1      30.961  32.162  26.184  1.00  0.00     0.042 C 
ENDROOT
BRANCH   1   2
ATOM      2  C   UNL A   1      31.012  30.889  25.345  1.00  0.00     0.118 C 
BRANCH   2   3
ATOM      3  N   UNL A   1      32.233  30.155  25.564  1.00  0.00    -0.351 N 
ATOM      4  C   UNL A   1      32.594  28.842  25.391  1.00  0.00     0.261 C 
ATOM      5  O   UNL A   1      33.811  28.669  25.539  1.00  0.00    -0.268 OA
ATOM      6  H   UNL A   1      32.964  30.714  25.911  1.00  0.00     0.163 HD
BRANCH   4   7
ATOM      7  C   UNL A   1      31.678  27.737  25.084  1.00  0.00     0.097 A 
ATOM      8  C   UNL A   1      30.505  27.942  22.719  1.00  0.00     0.046 C 
ATOM      9  C   UNL A   1      30.771  27.393  24.077  1.00  0.00    -0.025 A 
ATOM     10  C   UNL A   1      29.927  26.319  24.506  1.00  0.00     0.042 A 
ATOM     11  C   UNL A   1      30.489  25.583  25.504  1.00  0.00     0.096 A 
ATOM     12  S   UNL A   1      31.660  26.472  26.320  1.00  0.00    -0.112 S 
BRANCH  11  13
ATOM     13  N   UNL A   1      30.256  24.300  25.937  1.00  0.00    -0.314 N 
ATOM     14  C   UNL A   1      30.951  23.171  25.532  1.00  0.00     0.256 C 
ATOM     15  H   UNL A   1      29.533  24.171  26.593  1.00  0.00     0.171 HD
ATOM     16  O   UNL A   1      30.566  22.042  25.817  1.00  0.00    -0.269 OA
BRANCH  14  17
ATOM     17  C   UNL A   1      32.227  23.316  24.783  1.00  0.00     0.041 A 
ATOM     18  C   UNL A   1      32.218  23.317  23.383  1.00  0.00     0.016 A 
ATOM     19  C   UNL A   1      33.431  23.317  25.503  1.00  0.00     0.035 A 
ATOM     20  C   UNL A   1      33.420  23.216  22.673  1.00  0.00     0.030 A 
ATOM     21  C   UNL A   1      34.625  23.191  24.771  1.00  0.00     0.055 A 
ATOM     22  C   UNL A   1      34.640  23.121  23.373  1.00  0.00     0.081 A 
ATOM     23  S   UNL A   1      36.243  23.051  25.351  1.00  0.00    -0.122 S 
ATOM     24  N   UNL A   1      35.887  22.934  22.799  1.00  0.00    -0.245 NA
ATOM     25  C   UNL A   1      36.800  22.881  23.741  1.00  0.00     0.176 A 
ENDBRANCH  14  17
ENDBRANCH  11  13
ENDBRANCH   4   7
ENDBRANCH   2   3
ENDBRANCH   1   2
BRANCH   1  26
ATOM     26  C   UNL A   1      32.230  32.447  26.972  1.00  0.00     0.118 C 
BRANCH  26  27
ATOM     27  N   UNL A   1      32.240  33.800  27.507  1.00  0.00    -0.352 N 
ATOM     28  C   UNL A   1      33.054  34.386  28.443  1.00  0.00     0.251 C 
ATOM     29  H   UNL A   1      31.546  34.392  27.136  1.00  0.00     0.163 HD
ATOM     30  O   UNL A   1      32.717  35.461  28.932  1.00  0.00    -0.269 OA
BRANCH  28  31
ATOM     31  C   UNL A   1      34.322  33.752  28.876  1.00  0.00     0.039 A 
ATOM     32  C   UNL A   1      35.485  34.006  28.139  1.00  0.00     0.014 A 
ATOM     33  C   UNL A   1      34.371  32.857  29.947  1.00  0.00     0.014 A 
ATOM     34  C   UNL A   1      36.691  33.401  28.500  1.00  0.00     0.010 A 
ATOM     35  C   UNL A   1      35.590  32.327  30.364  1.00  0.00     0.010 A 
ATOM     36  C   UNL A   1      36.760  32.577  29.633  1.00  0.00    -0.014 A 
BRANCH  36  37
ATOM     37  C   UNL A   1      38.034  31.942  30.055  1.00  0.00     0.031 A 
ATOM     38  C   UNL A   1      38.959  32.658  31.004  1.00  0.00     0.074 A 
ATOM     39  C   UNL A   1      38.388  30.749  29.539  1.00  0.00     0.049 A 
ATOM     40  N   UNL A   1      40.142  32.300  31.432  1.00  0.00    -0.248 NA
ATOM     41  C   UNL A   1      38.505  33.962  31.516  1.00  0.00     0.031 C 
ATOM     42  C   UNL A   1      37.600  29.970  28.583  1.00  0.00     0.029 A 
ATOM     43  N   UNL A   1      39.511  29.986  29.744  1.00  0.00    -0.354 N 
ATOM     44  C   UNL A   1      40.582  33.340  32.242  1.00  0.00     0.074 A 
ATOM     45  C   UNL A   1      39.562  34.365  32.205  1.00  0.00     0.031 C 
ATOM     46  C   UNL A   1      38.249  28.829  28.304  1.00  0.00     0.029 A 
ATOM     47  C   UNL A   1      39.515  28.814  29.029  1.00  0.00     0.049 A 
ATOM     48  H   UNL A   1      40.242  30.254  30.346  1.00  0.00     0.167 HD
ATOM     49  C   UNL A   1      41.722  33.429  32.969  1.00  0.00     0.031 A 
ATOM     50  C   UNL A   1      40.438  27.837  28.961  1.00  0.00     0.031 A 
ATOM     51  C   UNL A   1      42.728  32.403  33.019  1.00  0.00     0.049 A 
ATOM     52  C   UNL A   1      41.696  27.957  29.774  1.00  0.00     0.074 A 
ATOM     53  C   UNL A   1      43.893  32.372  33.766  1.00  0.00     0.029 A 
ATOM     54  N   UNL A   1      42.687  31.224  32.290  1.00  0.00    -0.354 N 
ATOM     55  N   UNL A   1      42.069  28.922  30.580  1.00  0.00    -0.248 NA
ATOM     56  C   UNL A   1      42.655  26.848  29.677  1.00  0.00     0.031 C 
ATOM     57  C   UNL A   1      44.580  31.194  33.453  1.00  0.00     0.029 A 
ATOM     58  C   UNL A   1      43.815  30.467  32.556  1.00  0.00     0.049 A 
ATOM     59  H   UNL A   1      41.962  30.963  31.677  1.00  0.00     0.167 HD
ATOM     60  C   UNL A   1      43.291  28.525  31.106  1.00  0.00     0.074 A 
ATOM     61  C   UNL A   1      43.587  27.224  30.540  1.00  0.00     0.031 C 
ATOM     62  C   UNL A   1      44.095  29.177  31.981  1.00  0.00     0.031 A 
BRANCH  49  63
ATOM     63  C   UNL A   1      41.938  34.686  33.766  1.00  0.00    -0.014 A 
ATOM     64  C   UNL A   1      42.621  35.786  33.219  1.00  0.00     0.009 A 
ATOM     65  C   UNL A   1      41.431  34.785  35.070  1.00  0.00     0.009 A 
ATOM     66  C   UNL A   1      42.826  36.941  33.977  1.00  0.00     0.001 A 
ATOM     67  C   UNL A   1      41.611  35.953  35.815  1.00  0.00     0.001 A 
ATOM     68  C   UNL A   1      42.317  37.025  35.272  1.00  0.00     0.000 A 
ENDBRANCH  49  63
BRANCH  50  69
ATOM     69  C   UNL A   1      40.197  26.647  28.103  1.00  0.00    -0.014 A 
ATOM     70  C   UNL A   1      39.474  25.549  28.596  1.00  0.00     0.009 A 
ATOM     71  C   UNL A   1      40.685  26.603  26.788  1.00  0.00     0.009 A 
ATOM     72  C   UNL A   1      39.265  24.423  27.798  1.00  0.00     0.001 A 
ATOM     73  C   UNL A   1      40.449  25.487  25.982  1.00  0.00     0.001 A 
ATOM     74  C   UNL A   1      39.748  24.395  26.490  1.00  0.00     0.000 A 
ENDBRANCH  50  69
BRANCH  62  75
ATOM     75  C   UNL A   1      45.357  28.479  32.402  1.00  0.00    -0.014 A 
ATOM     76  C   UNL A   1      45.377  27.606  33.499  1.00  0.00     0.009 A 
ATOM     77  C   UNL A   1      46.535  28.672  31.662  1.00  0.00     0.009 A 
ATOM     78  C   UNL A   1      46.561  26.966  33.870  1.00  0.00     0.001 A 
ATOM     79  C   UNL A   1      47.710  28.009  32.018  1.00  0.00     0.001 A 
ATOM     80  C   UNL A   1      47.724  27.164  33.126  1.00  0.00     0.000 A 
ENDBRANCH  62  75
ENDBRANCH  36  37
ENDBRANCH  28  31
ENDBRANCH  26  27
ENDBRANCH   1  26
TORSDOF 12
ENDMDL
MODEL 3
REMARK VINA RESULT:     -11.7      0.327      5.934
REMARK SMILES Cc1cc(NC(=O)c2ccc3ncsc3c2)sc1C(=O)NCCCNC(=O)c1ccc(-c2c3nc(c(-c4ccccc4)c4ccc([nH]4)c(-c4ccccc4)c4nc(c(-c5ccccc5)c5ccc2[nH]5)C=C4)C=C3)cc1
REMARK SMILES IDX 23 1 22 2 21 3 19 4 20 5 18 7 1 8 2 9 3 10 4 11 17 12 5 13
REMARK SMILES IDX 6 14 7 16 8 17 9 18 16 19 10 20 15 21 11 22 14 23 12 24
REMARK SMILES IDX 13 25 24 26 25 27 26 28 27 30 28 31 29 32 75 33 30 34 74 35
REMARK SMILES IDX 31 36 32 37 33 38 68 39 34 40 73 41 67 42 69 43 35 44 72 45
REMARK SMILES IDX 66 46 65 47 36 49 58 50 43 51 57 52 44 53 47 54 56 55 70 56
REMARK SMILES IDX 45 57 46 58 55 60 71 61 48 62 37 63 38 64 42 65 39 66 41 67
REMARK SMILES IDX 40 68 59 69 60 70 64 71 61 72 63 73 62 74 49 75 50 76 54 77
REMARK SMILES IDX 51 78 53 79 52 80
REMARK H PARENT 21 6 5 15 25 29 69 48 47 59
REMARK Flexibility Score: inf
ROOT
ATOM      1  C   UNL A   1      37.623  19.534  24.632  1.00  0.00     0.042 C 
ENDROOT
BRANCH   1   2
ATOM      2  C   UNL A   1      36.181  19.872  25.000  1.00  0.00     0.118 C 
BRANCH   2   3
ATOM      3  N   UNL A   1      36.089  21.136  25.685  1.00  0.00    -0.351 N 
ATOM      4  C   UNL A   1      35.214  22.191  25.615  1.00  0.00     0.261 C 
ATOM      5  O   UNL A   1      35.404  23.017  26.517  1.00  0.00    -0.268 OA
ATOM      6  H   UNL A   1      36.806  21.273  26.346  1.00  0.00     0.163 HD
BRANCH   4   7
ATOM      7  C   UNL A   1      34.172  22.372  24.596  1.00  0.00     0.097 A 
ATOM      8  C   UNL A   1      32.204  20.607  24.753  1.00  0.00     0.046 C 
ATOM      9  C   UNL A   1      33.015  21.712  24.172  1.00  0.00    -0.025 A 
ATOM     10  C   UNL A   1      32.590  22.211  22.899  1.00  0.00     0.042 A 
ATOM     11  C   UNL A   1      33.056  23.466  22.651  1.00  0.00     0.096 A 
ATOM     12  S   UNL A   1      34.423  23.793  23.575  1.00  0.00    -0.112 S 
BRANCH  11  13
ATOM     13  N   UNL A   1      32.618  24.454  21.802  1.00  0.00    -0.314 N 
ATOM     14  C   UNL A   1      31.878  25.567  22.168  1.00  0.00     0.256 C 
ATOM     15  H   UNL A   1      32.851  24.363  20.849  1.00  0.00     0.171 HD
ATOM     16  O   UNL A   1      31.367  26.303  21.332  1.00  0.00    -0.269 OA
BRANCH  14  17
ATOM     17  C   UNL A   1      31.741  25.925  23.605  1.00  0.00     0.041 A 
ATOM     18  C   UNL A   1      30.652  25.445  24.342  1.00  0.00     0.016 A 
ATOM     19  C   UNL A   1      32.642  26.847  24.155  1.00  0.00     0.035 A 
ATOM     20  C   UNL A   1      30.386  25.959  25.616  1.00  0.00     0.030 A 
ATOM     21  C   UNL A   1      32.343  27.368  25.426  1.00  0.00     0.055 A 
ATOM     22  C   UNL A   1      31.223  26.956  26.157  1.00  0.00     0.081 A 
ATOM     23  S   UNL A   1      33.175  28.584  26.325  1.00  0.00    -0.122 S 
ATOM     24  N   UNL A   1      31.026  27.606  27.364  1.00  0.00    -0.245 NA
ATOM     25  C   UNL A   1      31.987  28.480  27.553  1.00  0.00     0.176 A 
ENDBRANCH  14  17
ENDBRANCH  11  13
ENDBRANCH   4   7
ENDBRANCH   2   3
ENDBRANCH   1   2
BRANCH   1  26
ATOM     26  C   UNL A   1      38.667  20.156  25.545  1.00  0.00     0.118 C 
BRANCH  26  27
ATOM     27  N   UNL A   1      39.816  19.282  25.724  1.00  0.00    -0.352 N 
ATOM     28  C   UNL A   1      41.114  19.568  26.066  1.00  0.00     0.251 C 
ATOM     29  H   UNL A   1      39.632  18.326  25.573  1.00  0.00     0.163 HD
ATOM     30  O   UNL A   1      41.974  18.706  25.905  1.00  0.00    -0.269 OA
BRANCH  28  31
ATOM     31  C   UNL A   1      41.498  20.888  26.620  1.00  0.00     0.039 A 
ATOM     32  C   UNL A   1      41.951  21.879  25.741  1.00  0.00     0.014 A 
ATOM     33  C   UNL A   1      41.491  21.141  27.994  1.00  0.00     0.014 A 
ATOM     34  C   UNL A   1      42.350  23.124  26.233  1.00  0.00     0.010 A 
ATOM     35  C   UNL A   1      41.800  22.411  28.475  1.00  0.00     0.010 A 
ATOM     36  C   UNL A   1      42.252  23.411  27.602  1.00  0.00    -0.014 A 
BRANCH  36  37
ATOM     37  C   UNL A   1      42.644  24.735  28.148  1.00  0.00     0.031 A 
ATOM     38  C   UNL A   1      41.606  25.804  28.361  1.00  0.00     0.074 A 
ATOM     39  C   UNL A   1      43.943  24.996  28.395  1.00  0.00     0.049 A 
ATOM     40  N   UNL A   1      41.762  27.040  28.760  1.00  0.00    -0.248 NA
ATOM     41  C   UNL A   1      40.211  25.444  28.058  1.00  0.00     0.031 C 
ATOM     42  C   UNL A   1      45.051  24.061  28.195  1.00  0.00     0.029 A 
ATOM     43  N   UNL A   1      44.550  26.135  28.864  1.00  0.00    -0.354 N 
ATOM     44  C   UNL A   1      40.495  27.609  28.734  1.00  0.00     0.074 A 
ATOM     45  C   UNL A   1      39.588  26.600  28.232  1.00  0.00     0.031 C 
ATOM     46  C   UNL A   1      46.198  24.651  28.563  1.00  0.00     0.029 A 
ATOM     47  C   UNL A   1      45.913  26.019  28.986  1.00  0.00     0.049 A 
ATOM     48  H   UNL A   1      44.056  26.955  29.090  1.00  0.00     0.167 HD
ATOM     49  C   UNL A   1      40.112  28.852  29.113  1.00  0.00     0.031 A 
ATOM     50  C   UNL A   1      46.832  26.915  29.389  1.00  0.00     0.031 A 
ATOM     51  C   UNL A   1      41.011  29.850  29.628  1.00  0.00     0.049 A 
ATOM     52  C   UNL A   1      46.385  28.289  29.802  1.00  0.00     0.074 A 
ATOM     53  C   UNL A   1      40.716  31.121  30.091  1.00  0.00     0.029 A 
ATOM     54  N   UNL A   1      42.382  29.688  29.749  1.00  0.00    -0.354 N 
ATOM     55  N   UNL A   1      45.175  28.791  29.827  1.00  0.00    -0.248 NA
ATOM     56  C   UNL A   1      47.432  29.216  30.256  1.00  0.00     0.031 C 
ATOM     57  C   UNL A   1      41.916  31.744  30.449  1.00  0.00     0.029 A 
ATOM     58  C   UNL A   1      42.950  30.841  30.262  1.00  0.00     0.049 A 
ATOM     59  H   UNL A   1      42.878  28.872  29.509  1.00  0.00     0.167 HD
ATOM     60  C   UNL A   1      45.310  30.082  30.322  1.00  0.00     0.074 A 
ATOM     61  C   UNL A   1      46.718  30.278  30.601  1.00  0.00     0.031 C 
ATOM     62  C   UNL A   1      44.354  31.019  30.529  1.00  0.00     0.031 A 
BRANCH  49  63
ATOM     63  C   UNL A   1      38.655  29.200  28.977  1.00  0.00    -0.014 A 
ATOM     64  C   UNL A   1      37.772  29.075  30.063  1.00  0.00     0.009 A 
ATOM     65  C   UNL A   1      38.162  29.685  27.757  1.00  0.00     0.009 A 
ATOM     66  C   UNL A   1      36.420  29.388  29.916  1.00  0.00     0.001 A 
ATOM     67  C   UNL A   1      36.815  30.027  27.621  1.00  0.00     0.001 A 
ATOM     68  C   UNL A   1      35.943  29.868  28.697  1.00  0.00     0.000 A 
ENDBRANCH  49  63
BRANCH  50  69
ATOM     69  C   UNL A   1      48.268  26.534  29.439  1.00  0.00    -0.014 A 
ATOM     70  C   UNL A   1      49.106  26.774  28.339  1.00  0.00     0.009 A 
ATOM     71  C   UNL A   1      48.809  25.933  30.586  1.00  0.00     0.009 A 
ATOM     72  C   UNL A   1      50.451  26.398  28.378  1.00  0.00     0.001 A 
ATOM     73  C   UNL A   1      50.160  25.584  30.633  1.00  0.00     0.001 A 
ATOM     74  C   UNL A   1      50.978  25.808  29.527  1.00  0.00     0.000 A 
ENDBRANCH  50  69
BRANCH  62  75
ATOM     75  C   UNL A   1      44.797  32.331  31.113  1.00  0.00    -0.014 A 
ATOM     76  C   UNL A   1      45.161  33.409  30.292  1.00  0.00     0.009 A 
ATOM     77  C   UNL A   1      44.812  32.499  32.507  1.00  0.00     0.009 A 
ATOM     78  C   UNL A   1      45.566  34.619  30.858  1.00  0.00     0.001 A 
ATOM     79  C   UNL A   1      45.189  33.719  33.069  1.00  0.00     0.001 A 
ATOM     80  C   UNL A   1      45.575  34.775  32.244  1.00  0.00     0.000 A 
ENDBRANCH  62  75
ENDBRANCH  36  37
ENDBRANCH  28  31
ENDBRANCH  26  27
ENDBRANCH   1  26
TORSDOF 12
ENDMDL
