MODEL 1
REMARK VINA RESULT:     -11.9      0.000      0.000
REMARK SMILES O=C(NCCCNC(=O)[C@@H]1CCn2c(C(=O)c3ccccc3)ccc21)c1ccc(-c2c3nc(c(-c4ccccc4)c4ccc([nH]4)c(-c4ccccc4)c4nc(c(-c5ccccc5)c5ccc2[nH]5)C=C4)C=C3)cc1
REMARK SMILES IDX 5 1 4 2 3 3 1 4 2 5 26 7 27 8 73 9 28 10 72 11 29 12 30 13
REMARK SMILES IDX 31 14 66 15 32 16 71 17 65 18 67 19 33 20 70 21 64 22 63 23
REMARK SMILES IDX 34 25 56 26 41 27 55 28 42 29 45 30 54 31 68 32 43 33 44 34
REMARK SMILES IDX 53 36 69 37 46 38 35 39 36 40 40 41 37 42 39 43 38 44 57 45
REMARK SMILES IDX 58 46 62 47 59 48 61 49 60 50 47 51 48 52 52 53 49 54 51 55
REMARK SMILES IDX 50 56 6 57 7 58 8 59 9 61 10 62 11 63 25 64 12 65 13 66
REMARK SMILES IDX 24 67 14 68 23 69 15 70 16 71 17 72 18 73 22 74 19 75 21 76
REMARK SMILES IDX 20 77
REMARK H PARENT 3 6 67 24 45 35 7 60
REMARK Flexibility Score: inf
ROOT
ATOM      1  C   UNL A   1      32.281  27.985  27.580  1.00  0.00     0.042 C 
ENDROOT
BRANCH   1   2
ATOM      2  C   UNL A   1      33.615  28.669  27.316  1.00  0.00     0.118 C 
BRANCH   2   3
ATOM      3  N   UNL A   1      33.596  30.084  27.663  1.00  0.00    -0.352 N 
ATOM      4  O   UNL A   1      34.297  31.981  28.658  1.00  0.00    -0.269 OA
ATOM      5  C   UNL A   1      34.558  30.842  28.280  1.00  0.00     0.251 C 
ATOM      6  H   UNL A   1      32.774  30.566  27.418  1.00  0.00     0.163 HD
BRANCH   5   7
ATOM      7  C   UNL A   1      35.909  30.284  28.497  1.00  0.00     0.039 A 
ATOM      8  C   UNL A   1      36.877  30.366  27.494  1.00  0.00     0.014 A 
ATOM      9  C   UNL A   1      36.221  29.705  29.731  1.00  0.00     0.014 A 
ATOM     10  C   UNL A   1      38.113  29.763  27.675  1.00  0.00     0.010 A 
ATOM     11  C   UNL A   1      37.499  29.185  29.947  1.00  0.00     0.010 A 
ATOM     12  C   UNL A   1      38.452  29.204  28.917  1.00  0.00    -0.014 A 
BRANCH  12  13
ATOM     13  C   UNL A   1      39.854  28.783  29.154  1.00  0.00     0.031 A 
ATOM     14  C   UNL A   1      40.863  29.711  29.765  1.00  0.00     0.074 A 
ATOM     15  C   UNL A   1      40.201  27.529  28.804  1.00  0.00     0.049 A 
ATOM     16  N   UNL A   1      42.124  29.485  30.030  1.00  0.00    -0.248 NA
ATOM     17  C   UNL A   1      40.408  31.065  30.121  1.00  0.00     0.031 C 
ATOM     18  C   UNL A   1      39.303  26.545  28.190  1.00  0.00     0.029 A 
ATOM     19  N   UNL A   1      41.392  26.860  28.919  1.00  0.00    -0.354 N 
ATOM     20  C   UNL A   1      42.621  30.667  30.563  1.00  0.00     0.074 A 
ATOM     21  C   UNL A   1      41.528  31.616  30.574  1.00  0.00     0.031 C 
ATOM     22  C   UNL A   1      39.962  25.392  28.016  1.00  0.00     0.029 A 
ATOM     23  C   UNL A   1      41.346  25.576  28.433  1.00  0.00     0.049 A 
ATOM     24  H   UNL A   1      42.202  27.261  29.310  1.00  0.00     0.167 HD
ATOM     25  C   UNL A   1      43.876  30.929  30.999  1.00  0.00     0.031 A 
ATOM     26  C   UNL A   1      42.317  24.655  28.299  1.00  0.00     0.031 A 
ATOM     27  C   UNL A   1      44.956  29.976  30.984  1.00  0.00     0.049 A 
ATOM     28  C   UNL A   1      43.706  25.002  28.745  1.00  0.00     0.074 A 
ATOM     29  C   UNL A   1      46.247  30.132  31.461  1.00  0.00     0.029 A 
ATOM     30  N   UNL A   1      44.879  28.698  30.452  1.00  0.00    -0.354 N 
ATOM     31  N   UNL A   1      44.139  26.098  29.319  1.00  0.00    -0.248 NA
ATOM     32  C   UNL A   1      44.743  23.986  28.523  1.00  0.00     0.031 C 
ATOM     33  C   UNL A   1      46.971  28.978  31.150  1.00  0.00     0.029 A 
ATOM     34  C   UNL A   1      46.114  28.076  30.543  1.00  0.00     0.049 A 
ATOM     35  H   UNL A   1      44.068  28.294  30.067  1.00  0.00     0.167 HD
ATOM     36  C   UNL A   1      45.493  25.899  29.535  1.00  0.00     0.074 A 
ATOM     37  C   UNL A   1      45.803  24.564  29.067  1.00  0.00     0.031 C 
ATOM     38  C   UNL A   1      46.405  26.750  30.066  1.00  0.00     0.031 A 
BRANCH  25  39
ATOM     39  C   UNL A   1      44.180  32.312  31.506  1.00  0.00    -0.014 A 
ATOM     40  C   UNL A   1      44.570  33.343  30.637  1.00  0.00     0.009 A 
ATOM     41  C   UNL A   1      43.963  32.612  32.861  1.00  0.00     0.009 A 
ATOM     42  C   UNL A   1      44.747  34.642  31.119  1.00  0.00     0.001 A 
ATOM     43  C   UNL A   1      44.116  33.917  33.334  1.00  0.00     0.001 A 
ATOM     44  C   UNL A   1      44.511  34.930  32.463  1.00  0.00     0.000 A 
ENDBRANCH  25  39
BRANCH  26  45
ATOM     45  C   UNL A   1      42.025  23.345  27.659  1.00  0.00    -0.014 A 
ATOM     46  C   UNL A   1      41.697  22.222  28.431  1.00  0.00     0.009 A 
ATOM     47  C   UNL A   1      42.105  23.207  26.262  1.00  0.00     0.009 A 
ATOM     48  C   UNL A   1      41.497  20.980  27.823  1.00  0.00     0.001 A 
ATOM     49  C   UNL A   1      41.866  21.975  25.655  1.00  0.00     0.001 A 
ATOM     50  C   UNL A   1      41.578  20.858  26.437  1.00  0.00     0.000 A 
ENDBRANCH  26  45
BRANCH  38  51
ATOM     51  C   UNL A   1      47.817  26.251  30.178  1.00  0.00    -0.014 A 
ATOM     52  C   UNL A   1      48.693  26.301  29.082  1.00  0.00     0.009 A 
ATOM     53  C   UNL A   1      48.285  25.750  31.402  1.00  0.00     0.009 A 
ATOM     54  C   UNL A   1      50.000  25.826  29.201  1.00  0.00     0.001 A 
ATOM     55  C   UNL A   1      49.602  25.307  31.527  1.00  0.00     0.001 A 
ATOM     56  C   UNL A   1      50.456  25.336  30.425  1.00  0.00     0.000 A 
ENDBRANCH  38  51
ENDBRANCH  12  13
ENDBRANCH   5   7
ENDBRANCH   2   3
ENDBRANCH   1   2
BRANCH   1  57
ATOM     57  C   UNL A   1      31.607  27.471  26.318  1.00  0.00     0.117 C 
BRANCH  57  58
ATOM     58  N   UNL A   1      30.919  26.215  26.555  1.00  0.00    -0.355 N 
ATOM     59  C   UNL A   1      31.378  24.940  26.390  1.00  0.00     0.229 C 
ATOM     60  H   UNL A   1      29.993  26.294  26.879  1.00  0.00     0.163 HD
ATOM     61  O   UNL A   1      30.582  24.016  26.565  1.00  0.00    -0.274 OA
BRANCH  59  62
ATOM     62  C   UNL A   1      32.833  24.727  25.988  1.00  0.00     0.127 C 
ATOM     63  C   UNL A   1      33.024  24.606  24.454  1.00  0.00     0.042 C 
ATOM     64  C   UNL A   1      33.328  23.402  26.463  1.00  0.00     0.031 A 
ATOM     65  C   UNL A   1      34.052  23.487  24.238  1.00  0.00     0.124 C 
ATOM     66  N   UNL A   1      34.009  22.737  25.481  1.00  0.00    -0.341 N 
ATOM     67  C   UNL A   1      33.300  22.609  27.578  1.00  0.00     0.025 A 
ATOM     68  C   UNL A   1      34.440  21.517  25.906  1.00  0.00     0.090 A 
ATOM     69  C   UNL A   1      33.999  21.425  27.229  1.00  0.00     0.032 A 
BRANCH  68  70
ATOM     70  C   UNL A   1      35.149  20.469  25.190  1.00  0.00     0.209 C 
ATOM     71  O   UNL A   1      36.374  20.448  25.077  1.00  0.00    -0.287 OA
BRANCH  70  72
ATOM     72  C   UNL A   1      34.417  19.342  24.579  1.00  0.00     0.024 A 
ATOM     73  C   UNL A   1      33.123  19.572  24.101  1.00  0.00     0.012 A 
ATOM     74  C   UNL A   1      34.985  18.068  24.505  1.00  0.00     0.012 A 
ATOM     75  C   UNL A   1      32.418  18.533  23.496  1.00  0.00     0.001 A 
ATOM     76  C   UNL A   1      34.280  17.035  23.886  1.00  0.00     0.001 A 
ATOM     77  C   UNL A   1      33.001  17.271  23.377  1.00  0.00     0.000 A 
ENDBRANCH  70  72
ENDBRANCH  68  70
ENDBRANCH  59  62
ENDBRANCH  57  58
ENDBRANCH   1  57
TORSDOF 12
ENDMDL
MODEL 2
REMARK VINA RESULT:     -11.8      2.163      7.727
REMARK SMILES O=C(NCCCNC(=O)[C@@H]1CCn2c(C(=O)c3ccccc3)ccc21)c1ccc(-c2c3nc(c(-c4ccccc4)c4ccc([nH]4)c(-c4ccccc4)c4nc(c(-c5ccccc5)c5ccc2[nH]5)C=C4)C=C3)cc1
REMARK SMILES IDX 5 1 4 2 3 3 1 4 2 5 26 7 27 8 73 9 28 10 72 11 29 12 30 13
REMARK SMILES IDX 31 14 66 15 32 16 71 17 65 18 67 19 33 20 70 21 64 22 63 23
REMARK SMILES IDX 34 25 56 26 41 27 55 28 42 29 45 30 54 31 68 32 43 33 44 34
REMARK SMILES IDX 53 36 69 37 46 38 35 39 36 40 40 41 37 42 39 43 38 44 57 45
REMARK SMILES IDX 58 46 62 47 59 48 61 49 60 50 47 51 48 52 52 53 49 54 51 55
REMARK SMILES IDX 50 56 6 57 7 58 8 59 9 61 10 62 11 63 25 64 12 65 13 66
REMARK SMILES IDX 24 67 14 68 23 69 15 70 16 71 17 72 18 73 22 74 19 75 21 76
REMARK SMILES IDX 20 77
REMARK H PARENT 3 6 67 24 45 35 7 60
REMARK Flexibility Score: inf
ROOT
ATOM      1  C   UNL A   1      37.450  19.807  24.966  1.00  0.00     0.042 C 
ENDROOT
BRANCH   1   2
ATOM      2  C   UNL A   1      38.693  20.357  25.651  1.00  0.00     0.118 C 
BRANCH   2   3
ATOM      3  N   UNL A   1      39.760  19.370  25.752  1.00  0.00    -0.352 N 
ATOM      4  O   UNL A   1      41.880  18.621  25.913  1.00  0.00    -0.269 OA
ATOM      5  C   UNL A   1      41.086  19.548  26.053  1.00  0.00     0.251 C 
ATOM      6  H   UNL A   1      39.490  18.440  25.578  1.00  0.00     0.163 HD
BRANCH   5   7
ATOM      7  C   UNL A   1      41.561  20.859  26.541  1.00  0.00     0.039 A 
ATOM      8  C   UNL A   1      41.980  21.839  25.640  1.00  0.00     0.014 A 
ATOM      9  C   UNL A   1      41.551  21.124  27.914  1.00  0.00     0.014 A 
ATOM     10  C   UNL A   1      42.505  23.034  26.111  1.00  0.00     0.010 A 
ATOM     11  C   UNL A   1      41.988  22.364  28.383  1.00  0.00     0.010 A 
ATOM     12  C   UNL A   1      42.475  23.327  27.484  1.00  0.00    -0.014 A 
BRANCH  12  13
ATOM     13  C   UNL A   1      42.820  24.697  27.932  1.00  0.00     0.031 A 
ATOM     14  C   UNL A   1      41.762  25.721  28.225  1.00  0.00     0.074 A 
ATOM     15  C   UNL A   1      44.125  25.002  28.072  1.00  0.00     0.049 A 
ATOM     16  N   UNL A   1      41.912  26.958  28.621  1.00  0.00    -0.248 NA
ATOM     17  C   UNL A   1      40.359  25.312  28.048  1.00  0.00     0.031 C 
ATOM     18  C   UNL A   1      45.239  24.086  27.801  1.00  0.00     0.029 A 
ATOM     19  N   UNL A   1      44.740  26.156  28.483  1.00  0.00    -0.354 N 
ATOM     20  C   UNL A   1      40.631  27.485  28.723  1.00  0.00     0.074 A 
ATOM     21  C   UNL A   1      39.712  26.436  28.334  1.00  0.00     0.031 C 
ATOM     22  C   UNL A   1      46.395  24.701  28.088  1.00  0.00     0.029 A 
ATOM     23  C   UNL A   1      46.111  26.073  28.486  1.00  0.00     0.049 A 
ATOM     24  H   UNL A   1      44.248  26.966  28.749  1.00  0.00     0.167 HD
ATOM     25  C   UNL A   1      40.264  28.731  29.104  1.00  0.00     0.031 A 
ATOM     26  C   UNL A   1      47.045  27.006  28.743  1.00  0.00     0.031 A 
ATOM     27  C   UNL A   1      41.188  29.767  29.490  1.00  0.00     0.049 A 
ATOM     28  C   UNL A   1      46.598  28.390  29.110  1.00  0.00     0.074 A 
ATOM     29  C   UNL A   1      40.905  31.043  29.949  1.00  0.00     0.029 A 
ATOM     30  N   UNL A   1      42.569  29.656  29.446  1.00  0.00    -0.354 N 
ATOM     31  N   UNL A   1      45.381  28.847  29.277  1.00  0.00    -0.248 NA
ATOM     32  C   UNL A   1      47.653  29.389  29.323  1.00  0.00     0.031 C 
ATOM     33  C   UNL A   1      42.113  31.727  30.110  1.00  0.00     0.029 A 
ATOM     34  C   UNL A   1      43.150  30.856  29.819  1.00  0.00     0.049 A 
ATOM     35  H   UNL A   1      43.062  28.844  29.187  1.00  0.00     0.167 HD
ATOM     36  C   UNL A   1      45.526  30.181  29.624  1.00  0.00     0.074 A 
ATOM     37  C   UNL A   1      46.948  30.451  29.681  1.00  0.00     0.031 C 
ATOM     38  C   UNL A   1      44.566  31.108  29.865  1.00  0.00     0.031 A 
BRANCH  25  39
ATOM     39  C   UNL A   1      38.800  29.076  29.100  1.00  0.00    -0.014 A 
ATOM     40  C   UNL A   1      38.015  28.958  30.257  1.00  0.00     0.009 A 
ATOM     41  C   UNL A   1      38.227  29.634  27.945  1.00  0.00     0.009 A 
ATOM     42  C   UNL A   1      36.684  29.382  30.253  1.00  0.00     0.001 A 
ATOM     43  C   UNL A   1      36.903  30.079  27.951  1.00  0.00     0.001 A 
ATOM     44  C   UNL A   1      36.133  29.950  29.105  1.00  0.00     0.000 A 
ENDBRANCH  25  39
BRANCH  26  45
ATOM     45  C   UNL A   1      48.489  26.683  28.598  1.00  0.00    -0.014 A 
ATOM     46  C   UNL A   1      49.227  26.180  29.678  1.00  0.00     0.009 A 
ATOM     47  C   UNL A   1      49.145  26.909  27.376  1.00  0.00     0.009 A 
ATOM     48  C   UNL A   1      50.599  25.949  29.550  1.00  0.00     0.001 A 
ATOM     49  C   UNL A   1      50.506  26.640  27.239  1.00  0.00     0.001 A 
ATOM     50  C   UNL A   1      51.236  26.176  28.331  1.00  0.00     0.000 A 
ENDBRANCH  26  45
BRANCH  38  51
ATOM     51  C   UNL A   1      45.029  32.490  30.224  1.00  0.00    -0.014 A 
ATOM     52  C   UNL A   1      45.215  33.473  29.238  1.00  0.00     0.009 A 
ATOM     53  C   UNL A   1      45.256  32.823  31.568  1.00  0.00     0.009 A 
ATOM     54  C   UNL A   1      45.653  34.750  29.589  1.00  0.00     0.001 A 
ATOM     55  C   UNL A   1      45.662  34.110  31.919  1.00  0.00     0.001 A 
ATOM     56  C   UNL A   1      45.870  35.070  30.929  1.00  0.00     0.000 A 
ENDBRANCH  38  51
ENDBRANCH  12  13
ENDBRANCH   5   7
ENDBRANCH   2   3
ENDBRANCH   1   2
BRANCH   1  57
ATOM     57  C   UNL A   1      36.246  20.728  25.074  1.00  0.00     0.117 C 
BRANCH  57  58
ATOM     58  N   UNL A   1      36.346  21.847  24.156  1.00  0.00    -0.355 N 
ATOM     59  C   UNL A   1      35.347  22.582  23.585  1.00  0.00     0.229 C 
ATOM     60  H   UNL A   1      37.261  22.113  23.910  1.00  0.00     0.163 HD
ATOM     61  O   UNL A   1      35.664  23.436  22.755  1.00  0.00    -0.274 OA
BRANCH  59  62
ATOM     62  C   UNL A   1      33.903  22.301  23.989  1.00  0.00     0.127 C 
ATOM     63  C   UNL A   1      32.894  22.566  22.843  1.00  0.00     0.042 C 
ATOM     64  C   UNL A   1      33.445  23.268  25.030  1.00  0.00     0.031 A 
ATOM     65  C   UNL A   1      31.681  23.248  23.491  1.00  0.00     0.124 C 
ATOM     66  N   UNL A   1      32.208  23.772  24.739  1.00  0.00    -0.341 N 
ATOM     67  C   UNL A   1      33.881  23.844  26.192  1.00  0.00     0.025 A 
ATOM     68  C   UNL A   1      31.799  24.673  25.676  1.00  0.00     0.090 A 
ATOM     69  C   UNL A   1      32.847  24.727  26.598  1.00  0.00     0.032 A 
BRANCH  68  70
ATOM     70  C   UNL A   1      30.592  25.480  25.739  1.00  0.00     0.209 C 
ATOM     71  O   UNL A   1      29.658  25.226  26.499  1.00  0.00    -0.287 OA
BRANCH  70  72
ATOM     72  C   UNL A   1      30.441  26.683  24.897  1.00  0.00     0.024 A 
ATOM     73  C   UNL A   1      29.440  26.689  23.921  1.00  0.00     0.012 A 
ATOM     74  C   UNL A   1      31.294  27.779  25.047  1.00  0.00     0.012 A 
ATOM     75  C   UNL A   1      29.257  27.821  23.129  1.00  0.00     0.001 A 
ATOM     76  C   UNL A   1      31.098  28.915  24.260  1.00  0.00     0.001 A 
ATOM     77  C   UNL A   1      30.077  28.936  23.307  1.00  0.00     0.000 A 
ENDBRANCH  70  72
ENDBRANCH  68  70
ENDBRANCH  59  62
ENDBRANCH  57  58
ENDBRANCH   1  57
TORSDOF 12
ENDMDL
MODEL 3
REMARK VINA RESULT:     -11.8      3.576      7.696
REMARK SMILES O=C(NCCCNC(=O)[C@@H]1CCn2c(C(=O)c3ccccc3)ccc21)c1ccc(-c2c3nc(c(-c4ccccc4)c4ccc([nH]4)c(-c4ccccc4)c4nc(c(-c5ccccc5)c5ccc2[nH]5)C=C4)C=C3)cc1
REMARK SMILES IDX 5 1 4 2 3 3 1 4 2 5 26 7 27 8 73 9 28 10 72 11 29 12 30 13
REMARK SMILES IDX 31 14 66 15 32 16 71 17 65 18 67 19 33 20 70 21 64 22 63 23
REMARK SMILES IDX 34 25 56 26 41 27 55 28 42 29 45 30 54 31 68 32 43 33 44 34
REMARK SMILES IDX 53 36 69 37 46 38 35 39 36 40 40 41 37 42 39 43 38 44 57 45
REMARK SMILES IDX 58 46 62 47 59 48 61 49 60 50 47 51 48 52 52 53 49 54 51 55
REMARK SMILES IDX 50 56 6 57 7 58 8 59 9 61 10 62 11 63 25 64 12 65 13 66
REMARK SMILES IDX 24 67 14 68 23 69 15 70 16 71 17 72 18 73 22 74 19 75 21 76
REMARK SMILES IDX 20 77
REMARK H PARENT 3 6 67 24 45 35 7 60
REMARK Flexibility Score: inf
ROOT
ATOM      1  C   UNL A   1      31.404  31.957  26.516  1.00  0.00     0.042 C 
ENDROOT
BRANCH   1   2
ATOM      2  C   UNL A   1      32.626  32.585  27.172  1.00  0.00     0.118 C 
BRANCH   2   3
ATOM      3  N   UNL A   1      32.399  33.968  27.569  1.00  0.00    -0.352 N 
ATOM      4  O   UNL A   1      32.582  35.810  28.856  1.00  0.00    -0.269 OA
ATOM      5  C   UNL A   1      33.030  34.712  28.533  1.00  0.00     0.251 C 
ATOM      6  H   UNL A   1      31.690  34.437  27.074  1.00  0.00     0.163 HD
BRANCH   5   7
ATOM      7  C   UNL A   1      34.247  34.189  29.188  1.00  0.00     0.039 A 
ATOM      8  C   UNL A   1      34.148  33.407  30.340  1.00  0.00     0.014 A 
ATOM      9  C   UNL A   1      35.497  34.454  28.622  1.00  0.00     0.014 A 
ATOM     10  C   UNL A   1      35.299  32.993  30.996  1.00  0.00     0.010 A 
ATOM     11  C   UNL A   1      36.651  33.955  29.229  1.00  0.00     0.010 A 
ATOM     12  C   UNL A   1      36.560  33.226  30.426  1.00  0.00    -0.014 A 
BRANCH  12  13
ATOM     13  C   UNL A   1      37.748  32.570  31.022  1.00  0.00     0.031 A 
ATOM     14  C   UNL A   1      38.384  31.365  30.392  1.00  0.00     0.074 A 
ATOM     15  C   UNL A   1      38.248  33.092  32.160  1.00  0.00     0.049 A 
ATOM     16  N   UNL A   1      39.424  30.684  30.800  1.00  0.00    -0.248 NA
ATOM     17  C   UNL A   1      37.779  30.854  29.151  1.00  0.00     0.031 C 
ATOM     18  C   UNL A   1      37.701  34.254  32.867  1.00  0.00     0.029 A 
ATOM     19  N   UNL A   1      39.330  32.725  32.918  1.00  0.00    -0.354 N 
ATOM     20  C   UNL A   1      39.589  29.654  29.883  1.00  0.00     0.074 A 
ATOM     21  C   UNL A   1      38.534  29.790  28.901  1.00  0.00     0.031 C 
ATOM     22  C   UNL A   1      38.469  34.526  33.931  1.00  0.00     0.029 A 
ATOM     23  C   UNL A   1      39.513  33.515  34.027  1.00  0.00     0.049 A 
ATOM     24  H   UNL A   1      39.918  31.969  32.691  1.00  0.00     0.167 HD
ATOM     25  C   UNL A   1      40.535  28.685  29.871  1.00  0.00     0.031 A 
ATOM     26  C   UNL A   1      40.399  33.419  35.034  1.00  0.00     0.031 A 
ATOM     27  C   UNL A   1      41.581  28.560  30.853  1.00  0.00     0.049 A 
ATOM     28  C   UNL A   1      41.398  32.301  35.011  1.00  0.00     0.074 A 
ATOM     29  C   UNL A   1      42.621  27.646  30.889  1.00  0.00     0.029 A 
ATOM     30  N   UNL A   1      41.712  29.358  31.980  1.00  0.00    -0.354 N 
ATOM     31  N   UNL A   1      41.588  31.383  34.095  1.00  0.00    -0.248 NA
ATOM     32  C   UNL A   1      42.304  32.203  36.162  1.00  0.00     0.031 C 
ATOM     33  C   UNL A   1      43.336  27.843  32.074  1.00  0.00     0.029 A 
ATOM     34  C   UNL A   1      42.784  28.923  32.742  1.00  0.00     0.049 A 
ATOM     35  H   UNL A   1      41.129  30.119  32.204  1.00  0.00     0.167 HD
ATOM     36  C   UNL A   1      42.641  30.607  34.554  1.00  0.00     0.074 A 
ATOM     37  C   UNL A   1      43.073  31.183  35.811  1.00  0.00     0.031 C 
ATOM     38  C   UNL A   1      43.195  29.506  33.992  1.00  0.00     0.031 A 
BRANCH  25  39
ATOM     39  C   UNL A   1      40.482  27.651  28.781  1.00  0.00    -0.014 A 
ATOM     40  C   UNL A   1      39.727  26.476  28.920  1.00  0.00     0.009 A 
ATOM     41  C   UNL A   1      41.110  27.912  27.551  1.00  0.00     0.009 A 
ATOM     42  C   UNL A   1      39.611  25.581  27.854  1.00  0.00     0.001 A 
ATOM     43  C   UNL A   1      40.972  27.028  26.480  1.00  0.00     0.001 A 
ATOM     44  C   UNL A   1      40.225  25.862  26.633  1.00  0.00     0.000 A 
ENDBRANCH  25  39
BRANCH  26  45
ATOM     45  C   UNL A   1      40.339  34.367  36.178  1.00  0.00    -0.014 A 
ATOM     46  C   UNL A   1      39.569  34.080  37.314  1.00  0.00     0.009 A 
ATOM     47  C   UNL A   1      41.034  35.588  36.122  1.00  0.00     0.009 A 
ATOM     48  C   UNL A   1      39.463  35.012  38.349  1.00  0.00     0.001 A 
ATOM     49  C   UNL A   1      40.958  36.499  37.174  1.00  0.00     0.001 A 
ATOM     50  C   UNL A   1      40.159  36.217  38.281  1.00  0.00     0.000 A 
ENDBRANCH  26  45
BRANCH  38  51
ATOM     51  C   UNL A   1      44.338  28.867  34.729  1.00  0.00    -0.014 A 
ATOM     52  C   UNL A   1      44.117  27.838  35.659  1.00  0.00     0.009 A 
ATOM     53  C   UNL A   1      45.653  29.281  34.470  1.00  0.00     0.009 A 
ATOM     54  C   UNL A   1      45.190  27.261  36.340  1.00  0.00     0.001 A 
ATOM     55  C   UNL A   1      46.726  28.679  35.128  1.00  0.00     0.001 A 
ATOM     56  C   UNL A   1      46.494  27.677  36.069  1.00  0.00     0.000 A 
ENDBRANCH  38  51
ENDBRANCH  12  13
ENDBRANCH   5   7
ENDBRANCH   2   3
ENDBRANCH   1   2
BRANCH   1  57
ATOM     57  C   UNL A   1      31.605  30.498  26.140  1.00  0.00     0.117 C 
BRANCH  57  58
ATOM     58  N   UNL A   1      31.105  30.217  24.807  1.00  0.00    -0.355 N 
ATOM     59  C   UNL A   1      31.287  29.104  24.038  1.00  0.00     0.229 C 
ATOM     60  H   UNL A   1      30.559  30.929  24.401  1.00  0.00     0.163 HD
ATOM     61  O   UNL A   1      30.843  29.121  22.889  1.00  0.00    -0.274 OA
BRANCH  59  62
ATOM     62  C   UNL A   1      32.035  27.914  24.631  1.00  0.00     0.127 C 
ATOM     63  C   UNL A   1      33.540  27.903  24.260  1.00  0.00     0.042 C 
ATOM     64  C   UNL A   1      31.561  26.634  24.027  1.00  0.00     0.031 A 
ATOM     65  C   UNL A   1      33.893  26.441  23.953  1.00  0.00     0.124 C 
ATOM     66  N   UNL A   1      32.607  25.830  23.668  1.00  0.00    -0.341 N 
ATOM     67  C   UNL A   1      30.397  26.002  23.686  1.00  0.00     0.025 A 
ATOM     68  C   UNL A   1      32.176  24.671  23.094  1.00  0.00     0.090 A 
ATOM     69  C   UNL A   1      30.783  24.769  23.100  1.00  0.00     0.032 A 
BRANCH  68  70
ATOM     70  C   UNL A   1      32.932  23.567  22.527  1.00  0.00     0.209 C 
ATOM     71  O   UNL A   1      33.361  23.573  21.373  1.00  0.00    -0.287 OA
BRANCH  70  72
ATOM     72  C   UNL A   1      33.251  22.374  23.336  1.00  0.00     0.024 A 
ATOM     73  C   UNL A   1      34.474  22.341  24.015  1.00  0.00     0.012 A 
ATOM     74  C   UNL A   1      32.373  21.290  23.401  1.00  0.00     0.012 A 
ATOM     75  C   UNL A   1      34.791  21.239  24.808  1.00  0.00     0.001 A 
ATOM     76  C   UNL A   1      32.690  20.195  24.207  1.00  0.00     0.001 A 
ATOM     77  C   UNL A   1      33.895  20.175  24.913  1.00  0.00     0.000 A 
ENDBRANCH  70  72
ENDBRANCH  68  70
ENDBRANCH  59  62
ENDBRANCH  57  58
ENDBRANCH   1  57
TORSDOF 12
ENDMDL
