MODEL 1
REMARK VINA RESULT:     -11.7      0.000      0.000
REMARK SMILES CCc1cc(C)c2c(c1)C=C(C(=O)NCCCNC(=O)c1ccc(-c3c4nc(c(-c5ccccc5)c5ccc([nH]5)c(-c5ccccc5)c5nc(c(-c6ccccc6)c6ccc3[nH]6)C=C5)C=C4)cc1)[C@@H](C(F)(F)F)O2
REMARK SMILES IDX 16 1 15 2 14 3 12 4 13 5 11 7 3 8 4 9 9 10 5 11 8 12 6 13
REMARK SMILES IDX 7 14 10 15 74 16 69 17 2 18 1 19 70 20 71 21 72 22 73 23
REMARK SMILES IDX 17 24 18 25 19 26 20 28 21 29 22 30 68 31 23 32 67 33 24 34
REMARK SMILES IDX 25 35 26 36 61 37 27 38 66 39 60 40 62 41 28 42 65 43 59 44
REMARK SMILES IDX 58 45 29 47 51 48 36 49 50 50 37 51 40 52 49 53 63 54 38 55
REMARK SMILES IDX 39 56 48 58 64 59 41 60 30 61 31 62 35 63 32 64 34 65 33 66
REMARK SMILES IDX 52 67 53 68 57 69 54 70 56 71 55 72 42 73 43 74 47 75 44 76
REMARK SMILES IDX 46 77 45 78
REMARK H PARENT 14 6 18 27 62 46 40 57
REMARK Flexibility Score: inf
ROOT
ATOM      1  C   UNL A   1      37.748  19.471  24.937  1.00  0.00     0.042 C 
ENDROOT
BRANCH   1   2
ATOM      2  C   UNL A   1      36.647  20.461  24.586  1.00  0.00     0.118 C 
BRANCH   2   3
ATOM      3  N   UNL A   1      35.747  20.674  25.710  1.00  0.00    -0.352 N 
ATOM      4  C   UNL A   1      34.839  21.599  26.095  1.00  0.00     0.251 C 
ATOM      5  O   UNL A   1      34.328  21.397  27.202  1.00  0.00    -0.270 OA
ATOM      6  H   UNL A   1      35.820  19.947  26.369  1.00  0.00     0.163 HD
BRANCH   4   7
ATOM      7  C   UNL A   1      34.432  22.788  25.296  1.00  0.00     0.067 C 
ATOM      8  C   UNL A   1      33.573  27.547  25.197  1.00  0.00    -0.047 A 
ATOM      9  C   UNL A   1      33.296  27.458  23.823  1.00  0.00     0.011 A 
ATOM     10  C   UNL A   1      34.006  26.401  25.878  1.00  0.00     0.015 A 
ATOM     11  C   UNL A   1      33.430  26.245  23.134  1.00  0.00    -0.008 A 
ATOM     12  C   UNL A   1      34.125  25.178  25.209  1.00  0.00     0.018 A 
ATOM     13  C   UNL A   1      33.125  26.161  21.667  1.00  0.00     0.048 C 
ATOM     14  C   UNL A   1      33.835  25.110  23.845  1.00  0.00     0.130 A 
ATOM     15  C   UNL A   1      34.565  23.978  25.910  1.00  0.00     0.025 C 
ATOM     16  O   UNL A   1      33.978  23.945  23.140  1.00  0.00    -0.475 OA
ATOM     17  C   UNL A   1      33.855  22.721  23.912  1.00  0.00     0.314 C 
BRANCH   8  18
ATOM     18  C   UNL A   1      33.449  28.875  25.904  1.00  0.00     0.032 C 
ATOM     19  C   UNL A   1      32.700  28.798  27.228  1.00  0.00     0.009 C 
ENDBRANCH   8  18
BRANCH  17  20
ATOM     20  C   UNL A   1      32.388  22.249  23.891  1.00  0.00     0.429 C 
ATOM     21  F   UNL A   1      31.752  22.740  22.797  1.00  0.00    -0.167 F 
ATOM     22  F   UNL A   1      32.278  20.900  23.820  1.00  0.00    -0.167 F 
ATOM     23  F   UNL A   1      31.690  22.643  24.977  1.00  0.00    -0.167 F 
ENDBRANCH  17  20
ENDBRANCH   4   7
ENDBRANCH   2   3
ENDBRANCH   1   2
BRANCH   1  24
ATOM     24  C   UNL A   1      38.884  20.144  25.697  1.00  0.00     0.118 C 
BRANCH  24  25
ATOM     25  N   UNL A   1      40.045  19.264  25.805  1.00  0.00    -0.352 N 
ATOM     26  C   UNL A   1      41.358  19.589  26.035  1.00  0.00     0.251 C 
ATOM     27  H   UNL A   1      39.859  18.303  25.699  1.00  0.00     0.163 HD
ATOM     28  O   UNL A   1      42.252  18.783  25.797  1.00  0.00    -0.269 OA
BRANCH  26  29
ATOM     29  C   UNL A   1      41.687  20.923  26.568  1.00  0.00     0.039 A 
ATOM     30  C   UNL A   1      42.131  21.924  25.703  1.00  0.00     0.014 A 
ATOM     31  C   UNL A   1      41.561  21.169  27.938  1.00  0.00     0.014 A 
ATOM     32  C   UNL A   1      42.397  23.196  26.211  1.00  0.00     0.010 A 
ATOM     33  C   UNL A   1      41.744  22.452  28.427  1.00  0.00     0.010 A 
ATOM     34  C   UNL A   1      42.183  23.471  27.571  1.00  0.00    -0.014 A 
BRANCH  34  35
ATOM     35  C   UNL A   1      42.471  24.808  28.136  1.00  0.00     0.031 A 
ATOM     36  C   UNL A   1      43.875  25.148  28.545  1.00  0.00     0.074 A 
ATOM     37  C   UNL A   1      41.471  25.689  28.315  1.00  0.00     0.049 A 
ATOM     38  N   UNL A   1      44.331  26.254  29.073  1.00  0.00    -0.248 NA
ATOM     39  C   UNL A   1      44.900  24.106  28.356  1.00  0.00     0.031 C 
ATOM     40  C   UNL A   1      40.063  25.453  27.989  1.00  0.00     0.029 A 
ATOM     41  N   UNL A   1      41.489  26.968  28.811  1.00  0.00    -0.354 N 
ATOM     42  C   UNL A   1      45.685  26.036  29.282  1.00  0.00     0.074 A 
ATOM     43  C   UNL A   1      45.972  24.678  28.883  1.00  0.00     0.031 C 
ATOM     44  C   UNL A   1      39.360  26.565  28.255  1.00  0.00     0.029 A 
ATOM     45  C   UNL A   1      40.260  27.581  28.794  1.00  0.00     0.049 A 
ATOM     46  H   UNL A   1      42.305  27.404  29.147  1.00  0.00     0.167 HD
ATOM     47  C   UNL A   1      46.617  26.904  29.734  1.00  0.00     0.031 A 
ATOM     48  C   UNL A   1      39.903  28.827  29.159  1.00  0.00     0.031 A 
ATOM     49  C   UNL A   1      46.337  28.262  30.098  1.00  0.00     0.049 A 
ATOM     50  C   UNL A   1      40.952  29.771  29.674  1.00  0.00     0.074 A 
ATOM     51  C   UNL A   1      47.224  29.239  30.513  1.00  0.00     0.029 A 
ATOM     52  N   UNL A   1      45.077  28.835  30.083  1.00  0.00    -0.354 N 
ATOM     53  N   UNL A   1      42.239  29.566  29.815  1.00  0.00    -0.248 NA
ATOM     54  C   UNL A   1      40.506  31.113  30.074  1.00  0.00     0.031 C 
ATOM     55  C   UNL A   1      46.494  30.398  30.782  1.00  0.00     0.029 A 
ATOM     56  C   UNL A   1      45.159  30.150  30.498  1.00  0.00     0.049 A 
ATOM     57  H   UNL A   1      44.248  28.375  29.817  1.00  0.00     0.167 HD
ATOM     58  C   UNL A   1      42.761  30.756  30.302  1.00  0.00     0.074 A 
ATOM     59  C   UNL A   1      41.653  31.681  30.430  1.00  0.00     0.031 C 
ATOM     60  C   UNL A   1      44.044  31.053  30.612  1.00  0.00     0.031 A 
BRANCH  47  61
ATOM     61  C   UNL A   1      48.033  26.421  29.828  1.00  0.00    -0.014 A 
ATOM     62  C   UNL A   1      48.503  25.811  31.001  1.00  0.00     0.009 A 
ATOM     63  C   UNL A   1      48.883  26.512  28.716  1.00  0.00     0.009 A 
ATOM     64  C   UNL A   1      49.805  25.317  31.066  1.00  0.00     0.001 A 
ATOM     65  C   UNL A   1      50.178  25.997  28.776  1.00  0.00     0.001 A 
ATOM     66  C   UNL A   1      50.639  25.404  29.952  1.00  0.00     0.000 A 
ENDBRANCH  47  61
BRANCH  48  67
ATOM     67  C   UNL A   1      38.493  29.258  28.995  1.00  0.00    -0.014 A 
ATOM     68  C   UNL A   1      37.613  29.215  30.087  1.00  0.00     0.009 A 
ATOM     69  C   UNL A   1      38.034  29.767  27.770  1.00  0.00     0.009 A 
ATOM     70  C   UNL A   1      36.299  29.672  29.955  1.00  0.00     0.001 A 
ATOM     71  C   UNL A   1      36.724  30.238  27.647  1.00  0.00     0.001 A 
ATOM     72  C   UNL A   1      35.858  30.187  28.738  1.00  0.00     0.000 A 
ENDBRANCH  48  67
BRANCH  60  73
ATOM     73  C   UNL A   1      44.353  32.431  31.113  1.00  0.00    -0.014 A 
ATOM     74  C   UNL A   1      44.666  33.461  30.214  1.00  0.00     0.009 A 
ATOM     75  C   UNL A   1      44.158  32.737  32.469  1.00  0.00     0.009 A 
ATOM     76  C   UNL A   1      44.766  34.777  30.664  1.00  0.00     0.001 A 
ATOM     77  C   UNL A   1      44.242  34.056  32.912  1.00  0.00     0.001 A 
ATOM     78  C   UNL A   1      44.542  35.076  32.009  1.00  0.00     0.000 A 
ENDBRANCH  60  73
ENDBRANCH  34  35
ENDBRANCH  26  29
ENDBRANCH  24  25
ENDBRANCH   1  24
TORSDOF 12
ENDMDL
MODEL 2
REMARK VINA RESULT:     -11.7      2.376      7.495
REMARK SMILES CCc1cc(C)c2c(c1)C=C(C(=O)NCCCNC(=O)c1ccc(-c3c4nc(c(-c5ccccc5)c5ccc([nH]5)c(-c5ccccc5)c5nc(c(-c6ccccc6)c6ccc3[nH]6)C=C5)C=C4)cc1)[C@@H](C(F)(F)F)O2
REMARK SMILES IDX 16 1 15 2 14 3 12 4 13 5 11 7 3 8 4 9 9 10 5 11 8 12 6 13
REMARK SMILES IDX 7 14 10 15 74 16 69 17 2 18 1 19 70 20 71 21 72 22 73 23
REMARK SMILES IDX 17 24 18 25 19 26 20 28 21 29 22 30 68 31 23 32 67 33 24 34
REMARK SMILES IDX 25 35 26 36 61 37 27 38 66 39 60 40 62 41 28 42 65 43 59 44
REMARK SMILES IDX 58 45 29 47 51 48 36 49 50 50 37 51 40 52 49 53 63 54 38 55
REMARK SMILES IDX 39 56 48 58 64 59 41 60 30 61 31 62 35 63 32 64 34 65 33 66
REMARK SMILES IDX 52 67 53 68 57 69 54 70 56 71 55 72 42 73 43 74 47 75 44 76
REMARK SMILES IDX 46 77 45 78
REMARK H PARENT 14 6 18 27 62 46 40 57
REMARK Flexibility Score: inf
ROOT
ATOM      1  C   UNL A   1      34.001  28.122  25.607  1.00  0.00     0.042 C 
ENDROOT
BRANCH   1   2
ATOM      2  C   UNL A   1      32.935  27.415  24.782  1.00  0.00     0.118 C 
BRANCH   2   3
ATOM      3  N   UNL A   1      31.885  26.869  25.629  1.00  0.00    -0.352 N 
ATOM      4  C   UNL A   1      31.469  25.648  26.036  1.00  0.00     0.251 C 
ATOM      5  O   UNL A   1      30.453  25.653  26.739  1.00  0.00    -0.270 OA
ATOM      6  H   UNL A   1      31.325  27.584  26.008  1.00  0.00     0.163 HD
BRANCH   4   7
ATOM      7  C   UNL A   1      32.137  24.359  25.706  1.00  0.00     0.067 C 
ATOM      8  C   UNL A   1      36.256  21.833  25.477  1.00  0.00    -0.047 A 
ATOM      9  C   UNL A   1      35.530  20.710  25.045  1.00  0.00     0.011 A 
ATOM     10  C   UNL A   1      35.558  22.998  25.825  1.00  0.00     0.015 A 
ATOM     11  C   UNL A   1      34.133  20.745  24.944  1.00  0.00    -0.008 A 
ATOM     12  C   UNL A   1      34.166  23.055  25.710  1.00  0.00     0.018 A 
ATOM     13  C   UNL A   1      33.369  19.540  24.475  1.00  0.00     0.048 C 
ATOM     14  C   UNL A   1      33.465  21.931  25.269  1.00  0.00     0.130 A 
ATOM     15  C   UNL A   1      33.432  24.265  26.060  1.00  0.00     0.025 C 
ATOM     16  O   UNL A   1      32.100  21.927  25.181  1.00  0.00    -0.475 OA
ATOM     17  C   UNL A   1      31.476  23.223  24.981  1.00  0.00     0.314 C 
BRANCH   8  18
ATOM     18  C   UNL A   1      37.758  21.753  25.605  1.00  0.00     0.032 C 
ATOM     19  C   UNL A   1      38.408  23.064  26.027  1.00  0.00     0.009 C 
ENDBRANCH   8  18
BRANCH  17  20
ATOM     20  C   UNL A   1      31.313  23.484  23.470  1.00  0.00     0.429 C 
ATOM     21  F   UNL A   1      32.253  24.364  23.042  1.00  0.00    -0.167 F 
ATOM     22  F   UNL A   1      31.478  22.362  22.729  1.00  0.00    -0.167 F 
ATOM     23  F   UNL A   1      30.104  23.992  23.149  1.00  0.00    -0.167 F 
ENDBRANCH  17  20
ENDBRANCH   4   7
ENDBRANCH   2   3
ENDBRANCH   1   2
BRANCH   1  24
ATOM     24  C   UNL A   1      33.489  28.480  26.996  1.00  0.00     0.118 C 
BRANCH  24  25
ATOM     25  N   UNL A   1      33.463  29.927  27.196  1.00  0.00    -0.352 N 
ATOM     26  C   UNL A   1      34.340  30.718  27.894  1.00  0.00     0.251 C 
ATOM     27  H   UNL A   1      32.712  30.399  26.771  1.00  0.00     0.163 HD
ATOM     28  O   UNL A   1      34.025  31.857  28.226  1.00  0.00    -0.269 OA
BRANCH  26  29
ATOM     29  C   UNL A   1      35.669  30.186  28.244  1.00  0.00     0.039 A 
ATOM     30  C   UNL A   1      36.705  30.243  27.310  1.00  0.00     0.014 A 
ATOM     31  C   UNL A   1      35.875  29.618  29.504  1.00  0.00     0.014 A 
ATOM     32  C   UNL A   1      37.971  29.778  27.666  1.00  0.00     0.010 A 
ATOM     33  C   UNL A   1      37.151  29.233  29.885  1.00  0.00     0.010 A 
ATOM     34  C   UNL A   1      38.204  29.291  28.962  1.00  0.00    -0.014 A 
BRANCH  34  35
ATOM     35  C   UNL A   1      39.534  28.778  29.359  1.00  0.00     0.031 A 
ATOM     36  C   UNL A   1      40.399  29.599  30.271  1.00  0.00     0.074 A 
ATOM     37  C   UNL A   1      39.972  27.604  28.871  1.00  0.00     0.049 A 
ATOM     38  N   UNL A   1      41.598  29.337  30.721  1.00  0.00    -0.248 NA
ATOM     39  C   UNL A   1      39.859  30.895  30.721  1.00  0.00     0.031 C 
ATOM     40  C   UNL A   1      39.233  26.740  27.948  1.00  0.00     0.029 A 
ATOM     41  N   UNL A   1      41.147  26.931  29.089  1.00  0.00    -0.354 N 
ATOM     42  C   UNL A   1      41.952  30.432  31.498  1.00  0.00     0.074 A 
ATOM     43  C   UNL A   1      40.874  31.389  31.414  1.00  0.00     0.031 C 
ATOM     44  C   UNL A   1      39.954  25.632  27.713  1.00  0.00     0.029 A 
ATOM     45  C   UNL A   1      41.215  25.721  28.445  1.00  0.00     0.049 A 
ATOM     46  H   UNL A   1      41.873  27.283  29.654  1.00  0.00     0.167 HD
ATOM     47  C   UNL A   1      43.063  30.608  32.246  1.00  0.00     0.031 A 
ATOM     48  C   UNL A   1      42.180  24.781  28.455  1.00  0.00     0.031 A 
ATOM     49  C   UNL A   1      44.118  29.643  32.355  1.00  0.00     0.049 A 
ATOM     50  C   UNL A   1      43.415  25.005  29.280  1.00  0.00     0.074 A 
ATOM     51  C   UNL A   1      45.259  29.704  33.133  1.00  0.00     0.029 A 
ATOM     52  N   UNL A   1      44.153  28.439  31.671  1.00  0.00    -0.354 N 
ATOM     53  N   UNL A   1      43.710  26.022  30.052  1.00  0.00    -0.248 NA
ATOM     54  C   UNL A   1      44.444  23.956  29.243  1.00  0.00     0.031 C 
ATOM     55  C   UNL A   1      46.005  28.549  32.895  1.00  0.00     0.029 A 
ATOM     56  C   UNL A   1      45.308  27.755  31.997  1.00  0.00     0.049 A 
ATOM     57  H   UNL A   1      43.462  28.120  31.048  1.00  0.00     0.167 HD
ATOM     58  C   UNL A   1      44.949  25.730  30.606  1.00  0.00     0.074 A 
ATOM     59  C   UNL A   1      45.350  24.439  30.086  1.00  0.00     0.031 C 
ATOM     60  C   UNL A   1      45.683  26.468  31.471  1.00  0.00     0.031 A 
BRANCH  47  61
ATOM     61  C   UNL A   1      43.181  31.879  33.031  1.00  0.00    -0.014 A 
ATOM     62  C   UNL A   1      43.778  33.016  32.465  1.00  0.00     0.009 A 
ATOM     63  C   UNL A   1      42.631  31.965  34.318  1.00  0.00     0.009 A 
ATOM     64  C   UNL A   1      43.838  34.211  33.181  1.00  0.00     0.001 A 
ATOM     65  C   UNL A   1      42.673  33.168  35.023  1.00  0.00     0.001 A 
ATOM     66  C   UNL A   1      43.280  34.289  34.456  1.00  0.00     0.000 A 
ENDBRANCH  47  61
BRANCH  48  67
ATOM     67  C   UNL A   1      41.980  23.523  27.694  1.00  0.00    -0.014 A 
ATOM     68  C   UNL A   1      42.416  23.430  26.363  1.00  0.00     0.009 A 
ATOM     69  C   UNL A   1      41.409  22.395  28.304  1.00  0.00     0.009 A 
ATOM     70  C   UNL A   1      42.282  22.231  25.658  1.00  0.00     0.001 A 
ATOM     71  C   UNL A   1      41.292  21.194  27.601  1.00  0.00     0.001 A 
ATOM     72  C   UNL A   1      41.726  21.114  26.279  1.00  0.00     0.000 A 
ENDBRANCH  48  67
BRANCH  60  73
ATOM     73  C   UNL A   1      46.998  25.917  31.935  1.00  0.00    -0.014 A 
ATOM     74  C   UNL A   1      48.178  26.214  31.239  1.00  0.00     0.009 A 
ATOM     75  C   UNL A   1      47.074  25.249  33.167  1.00  0.00     0.009 A 
ATOM     76  C   UNL A   1      49.416  25.861  31.777  1.00  0.00     0.001 A 
ATOM     77  C   UNL A   1      48.314  24.912  33.709  1.00  0.00     0.001 A 
ATOM     78  C   UNL A   1      49.484  25.222  33.015  1.00  0.00     0.000 A 
ENDBRANCH  60  73
ENDBRANCH  34  35
ENDBRANCH  26  29
ENDBRANCH  24  25
ENDBRANCH   1  24
TORSDOF 12
ENDMDL
MODEL 3
REMARK VINA RESULT:     -11.6      0.352      5.942
REMARK SMILES CCc1cc(C)c2c(c1)C=C(C(=O)NCCCNC(=O)c1ccc(-c3c4nc(c(-c5ccccc5)c5ccc([nH]5)c(-c5ccccc5)c5nc(c(-c6ccccc6)c6ccc3[nH]6)C=C5)C=C4)cc1)[C@@H](C(F)(F)F)O2
REMARK SMILES IDX 16 1 15 2 14 3 12 4 13 5 11 7 3 8 4 9 9 10 5 11 8 12 6 13
REMARK SMILES IDX 7 14 10 15 74 16 69 17 2 18 1 19 70 20 71 21 72 22 73 23
REMARK SMILES IDX 17 24 18 25 19 26 20 28 21 29 22 30 68 31 23 32 67 33 24 34
REMARK SMILES IDX 25 35 26 36 61 37 27 38 66 39 60 40 62 41 28 42 65 43 59 44
REMARK SMILES IDX 58 45 29 47 51 48 36 49 50 50 37 51 40 52 49 53 63 54 38 55
REMARK SMILES IDX 39 56 48 58 64 59 41 60 30 61 31 62 35 63 32 64 34 65 33 66
REMARK SMILES IDX 52 67 53 68 57 69 54 70 56 71 55 72 42 73 43 74 47 75 44 76
REMARK SMILES IDX 46 77 45 78
REMARK H PARENT 14 6 18 27 62 46 40 57
REMARK Flexibility Score: inf
ROOT
ATOM      1  C   UNL A   1      37.836  19.640  24.975  1.00  0.00     0.042 C 
ENDROOT
BRANCH   1   2
ATOM      2  C   UNL A   1      36.773  20.675  24.639  1.00  0.00     0.118 C 
BRANCH   2   3
ATOM      3  N   UNL A   1      35.815  20.824  25.725  1.00  0.00    -0.352 N 
ATOM      4  C   UNL A   1      34.849  21.698  26.086  1.00  0.00     0.251 C 
ATOM      5  O   UNL A   1      34.299  21.449  27.164  1.00  0.00    -0.270 OA
ATOM      6  H   UNL A   1      35.892  20.087  26.372  1.00  0.00     0.163 HD
BRANCH   4   7
ATOM      7  C   UNL A   1      34.424  22.884  25.293  1.00  0.00     0.067 C 
ATOM      8  C   UNL A   1      33.612  27.652  25.184  1.00  0.00    -0.047 A 
ATOM      9  C   UNL A   1      33.281  27.553  23.822  1.00  0.00     0.011 A 
ATOM     10  C   UNL A   1      34.059  26.507  25.857  1.00  0.00     0.015 A 
ATOM     11  C   UNL A   1      33.375  26.333  23.140  1.00  0.00    -0.008 A 
ATOM     12  C   UNL A   1      34.139  25.277  25.195  1.00  0.00     0.018 A 
ATOM     13  C   UNL A   1      33.011  26.239  21.686  1.00  0.00     0.048 C 
ATOM     14  C   UNL A   1      33.795  25.200  23.845  1.00  0.00     0.130 A 
ATOM     15  C   UNL A   1      34.594  24.078  25.890  1.00  0.00     0.025 C 
ATOM     16  O   UNL A   1      33.898  24.028  23.145  1.00  0.00    -0.475 OA
ATOM     17  C   UNL A   1      33.792  22.811  23.933  1.00  0.00     0.314 C 
BRANCH   8  18
ATOM     18  C   UNL A   1      33.530  28.987  25.883  1.00  0.00     0.032 C 
ATOM     19  C   UNL A   1      32.230  29.737  25.624  1.00  0.00     0.009 C 
ENDBRANCH   8  18
BRANCH  17  20
ATOM     20  C   UNL A   1      32.320  22.356  23.973  1.00  0.00     0.429 C 
ATOM     21  F   UNL A   1      32.246  21.002  23.912  1.00  0.00    -0.167 F 
ATOM     22  F   UNL A   1      31.696  22.718  25.120  1.00  0.00    -0.167 F 
ATOM     23  F   UNL A   1      31.585  22.850  22.954  1.00  0.00    -0.167 F 
ENDBRANCH  17  20
ENDBRANCH   4   7
ENDBRANCH   2   3
ENDBRANCH   1   2
BRANCH   1  24
ATOM     24  C   UNL A   1      38.982  20.251  25.770  1.00  0.00     0.118 C 
BRANCH  24  25
ATOM     25  N   UNL A   1      40.092  19.312  25.912  1.00  0.00    -0.352 N 
ATOM     26  C   UNL A   1      41.421  19.570  26.133  1.00  0.00     0.251 C 
ATOM     27  H   UNL A   1      39.852  18.360  25.838  1.00  0.00     0.163 HD
ATOM     28  O   UNL A   1      42.269  18.707  25.926  1.00  0.00    -0.269 OA
BRANCH  26  29
ATOM     29  C   UNL A   1      41.823  20.900  26.623  1.00  0.00     0.039 A 
ATOM     30  C   UNL A   1      42.268  21.865  25.717  1.00  0.00     0.014 A 
ATOM     31  C   UNL A   1      41.767  21.179  27.991  1.00  0.00     0.014 A 
ATOM     32  C   UNL A   1      42.605  23.136  26.184  1.00  0.00     0.010 A 
ATOM     33  C   UNL A   1      42.021  22.465  28.443  1.00  0.00     0.010 A 
ATOM     34  C   UNL A   1      42.461  23.448  27.546  1.00  0.00    -0.014 A 
BRANCH  34  35
ATOM     35  C   UNL A   1      42.825  24.783  28.068  1.00  0.00     0.031 A 
ATOM     36  C   UNL A   1      41.755  25.820  28.252  1.00  0.00     0.074 A 
ATOM     37  C   UNL A   1      44.112  25.070  28.335  1.00  0.00     0.049 A 
ATOM     38  N   UNL A   1      41.869  27.050  28.678  1.00  0.00    -0.248 NA
ATOM     39  C   UNL A   1      40.379  25.435  27.889  1.00  0.00     0.031 C 
ATOM     40  C   UNL A   1      45.240  24.153  28.159  1.00  0.00     0.029 A 
ATOM     41  N   UNL A   1      44.687  26.217  28.819  1.00  0.00    -0.354 N 
ATOM     42  C   UNL A   1      40.587  27.581  28.630  1.00  0.00     0.074 A 
ATOM     43  C   UNL A   1      39.719  26.567  28.079  1.00  0.00     0.031 C 
ATOM     44  C   UNL A   1      46.365  24.759  28.570  1.00  0.00     0.029 A 
ATOM     45  C   UNL A   1      46.042  26.113  29.012  1.00  0.00     0.049 A 
ATOM     46  H   UNL A   1      44.176  27.036  29.012  1.00  0.00     0.167 HD
ATOM     47  C   UNL A   1      40.164  28.795  29.044  1.00  0.00     0.031 A 
ATOM     48  C   UNL A   1      46.924  27.007  29.501  1.00  0.00     0.031 A 
ATOM     49  C   UNL A   1      41.021  29.789  29.622  1.00  0.00     0.049 A 
ATOM     50  C   UNL A   1      46.435  28.357  29.940  1.00  0.00     0.074 A 
ATOM     51  C   UNL A   1      40.677  31.030  30.126  1.00  0.00     0.029 A 
ATOM     52  N   UNL A   1      42.390  29.649  29.780  1.00  0.00    -0.354 N 
ATOM     53  N   UNL A   1      45.210  28.824  29.938  1.00  0.00    -0.248 NA
ATOM     54  C   UNL A   1      47.440  29.299  30.452  1.00  0.00     0.031 C 
ATOM     55  C   UNL A   1      41.846  31.657  30.560  1.00  0.00     0.029 A 
ATOM     56  C   UNL A   1      42.909  30.790  30.359  1.00  0.00     0.049 A 
ATOM     57  H   UNL A   1      42.913  28.857  29.519  1.00  0.00     0.167 HD
ATOM     58  C   UNL A   1      45.293  30.107  30.463  1.00  0.00     0.074 A 
ATOM     59  C   UNL A   1      46.687  30.344  30.777  1.00  0.00     0.031 C 
ATOM     60  C   UNL A   1      44.300  31.002  30.668  1.00  0.00     0.031 A 
BRANCH  47  61
ATOM     61  C   UNL A   1      38.704  29.106  28.916  1.00  0.00    -0.014 A 
ATOM     62  C   UNL A   1      37.844  28.963  30.016  1.00  0.00     0.009 A 
ATOM     63  C   UNL A   1      38.194  29.611  27.711  1.00  0.00     0.009 A 
ATOM     64  C   UNL A   1      36.496  29.303  29.906  1.00  0.00     0.001 A 
ATOM     65  C   UNL A   1      36.850  29.971  27.610  1.00  0.00     0.001 A 
ATOM     66  C   UNL A   1      36.002  29.813  28.706  1.00  0.00     0.000 A 
ENDBRANCH  47  61
BRANCH  48  67
ATOM     67  C   UNL A   1      48.349  26.619  29.647  1.00  0.00    -0.014 A 
ATOM     68  C   UNL A   1      48.779  25.944  30.800  1.00  0.00     0.009 A 
ATOM     69  C   UNL A   1      49.270  26.864  28.617  1.00  0.00     0.009 A 
ATOM     70  C   UNL A   1      50.107  25.526  30.919  1.00  0.00     0.001 A 
ATOM     71  C   UNL A   1      50.593  26.430  28.733  1.00  0.00     0.001 A 
ATOM     72  C   UNL A   1      51.010  25.764  29.885  1.00  0.00     0.000 A 
ENDBRANCH  48  67
BRANCH  60  73
ATOM     73  C   UNL A   1      44.653  32.330  31.267  1.00  0.00    -0.014 A 
ATOM     74  C   UNL A   1      44.900  33.437  30.444  1.00  0.00     0.009 A 
ATOM     75  C   UNL A   1      44.565  32.510  32.656  1.00  0.00     0.009 A 
ATOM     76  C   UNL A   1      45.041  34.708  31.003  1.00  0.00     0.001 A 
ATOM     77  C   UNL A   1      44.689  33.783  33.210  1.00  0.00     0.001 A 
ATOM     78  C   UNL A   1      44.924  34.882  32.383  1.00  0.00     0.000 A 
ENDBRANCH  60  73
ENDBRANCH  34  35
ENDBRANCH  26  29
ENDBRANCH  24  25
ENDBRANCH   1  24
TORSDOF 12
ENDMDL
