MODEL 1
REMARK VINA RESULT:     -14.3      0.000      0.000
REMARK SMILES Cc1cccc(N2C(=O)/C(=C/c3ccc(C(=O)NCCCNC(=O)c4ccc(-c5c6nc(c(-c7ccccc7)c7ccc([nH]7)c(-c7ccccc7)c7nc(c(-c8ccccc8)c8ccc5[nH]8)C=C7)C=C6)cc4)cc3)c3ccccc3C2=O)c1
REMARK SMILES IDX 20 1 19 2 18 3 16 4 17 5 15 7 12 8 13 9 74 10 14 11 73 12
REMARK SMILES IDX 11 13 7 14 8 15 81 16 9 17 10 18 80 19 82 20 75 21 79 22
REMARK SMILES IDX 76 23 78 24 77 25 6 26 1 27 2 28 3 29 83 30 4 31 5 32 21 33
REMARK SMILES IDX 22 34 23 35 24 37 25 38 26 39 72 40 27 41 71 42 28 43 29 44
REMARK SMILES IDX 30 45 65 46 31 47 70 48 64 49 66 50 32 51 69 52 63 53 62 54
REMARK SMILES IDX 33 56 55 57 40 58 54 59 41 60 44 61 53 62 67 63 42 64 43 65
REMARK SMILES IDX 52 67 68 68 45 69 34 70 35 71 39 72 36 73 38 74 37 75 56 76
REMARK SMILES IDX 57 77 61 78 58 79 60 80 59 81 46 82 47 83 51 84 48 85 50 86
REMARK SMILES IDX 49 87
REMARK H PARENT 18 6 22 36 66 55 44 66
REMARK Flexibility Score: inf
ROOT
ATOM      1  C   UNL A   1      34.767  33.530  27.660  1.00  0.00     0.042 C 
ENDROOT
BRANCH   1   2
ATOM      2  C   UNL A   1      33.681  32.548  28.082  1.00  0.00     0.118 C 
BRANCH   2   3
ATOM      3  N   UNL A   1      32.511  32.588  27.209  1.00  0.00    -0.352 N 
ATOM      4  C   UNL A   1      31.851  31.586  26.534  1.00  0.00     0.251 C 
ATOM      5  O   UNL A   1      30.956  31.872  25.743  1.00  0.00    -0.269 OA
ATOM      6  H   UNL A   1      32.129  33.487  27.080  1.00  0.00     0.163 HD
BRANCH   4   7
ATOM      7  C   UNL A   1      32.244  30.167  26.689  1.00  0.00     0.039 A 
ATOM      8  C   UNL A   1      32.742  27.417  26.794  1.00  0.00    -0.025 A 
ATOM      9  C   UNL A   1      31.704  27.966  27.552  1.00  0.00     0.009 A 
ATOM     10  C   UNL A   1      33.617  28.266  26.106  1.00  0.00     0.009 A 
ATOM     11  C   UNL A   1      31.452  29.340  27.496  1.00  0.00     0.014 A 
ATOM     12  C   UNL A   1      33.381  29.641  26.073  1.00  0.00     0.014 A 
BRANCH   8  13
ATOM     13  C   UNL A   1      32.874  25.960  26.691  1.00  0.00     0.022 C 
ATOM     14  N   UNL A   1      33.405  23.138  24.517  1.00  0.00    -0.242 N 
ATOM     15  C   UNL A   1      32.978  23.751  25.714  1.00  0.00     0.265 C 
ATOM     16  C   UNL A   1      33.525  23.878  23.321  1.00  0.00     0.265 C 
ATOM     17  O   UNL A   1      32.951  23.242  26.834  1.00  0.00    -0.268 OA
ATOM     18  C   UNL A   1      32.616  25.208  25.596  1.00  0.00     0.049 C 
ATOM     19  C   UNL A   1      32.650  25.062  23.170  1.00  0.00     0.048 A 
ATOM     20  O   UNL A   1      34.259  23.645  22.363  1.00  0.00    -0.268 OA
ATOM     21  C   UNL A   1      32.135  25.691  24.299  1.00  0.00    -0.000 A 
ATOM     22  C   UNL A   1      32.319  25.516  21.883  1.00  0.00     0.014 A 
ATOM     23  C   UNL A   1      31.191  26.713  24.123  1.00  0.00     0.010 A 
ATOM     24  C   UNL A   1      31.422  26.570  21.722  1.00  0.00     0.001 A 
ATOM     25  C   UNL A   1      30.840  27.151  22.843  1.00  0.00     0.001 A 
BRANCH  14  26
ATOM     26  C   UNL A   1      33.835  21.738  24.552  1.00  0.00     0.053 A 
ATOM     27  C   UNL A   1      32.366  18.249  23.889  1.00  0.00     0.044 C 
ATOM     28  C   UNL A   1      33.341  19.336  24.238  1.00  0.00    -0.049 A 
ATOM     29  C   UNL A   1      34.647  19.005  24.594  1.00  0.00     0.003 A 
ATOM     30  C   UNL A   1      32.959  20.691  24.199  1.00  0.00     0.030 A 
ATOM     31  C   UNL A   1      35.545  20.013  24.917  1.00  0.00     0.002 A 
ATOM     32  C   UNL A   1      35.142  21.354  24.898  1.00  0.00     0.027 A 
ENDBRANCH  14  26
ENDBRANCH   8  13
ENDBRANCH   4   7
ENDBRANCH   2   3
ENDBRANCH   1   2
BRANCH   1  33
ATOM     33  C   UNL A   1      35.037  34.598  28.712  1.00  0.00     0.118 C 
BRANCH  33  34
ATOM     34  N   UNL A   1      33.862  34.969  29.498  1.00  0.00    -0.352 N 
ATOM     35  C   UNL A   1      33.614  34.709  30.849  1.00  0.00     0.251 C 
ATOM     36  H   UNL A   1      33.159  35.461  29.016  1.00  0.00     0.163 HD
ATOM     37  O   UNL A   1      32.627  35.128  31.404  1.00  0.00    -0.269 OA
BRANCH  35  38
ATOM     38  C   UNL A   1      34.675  33.999  31.601  1.00  0.00     0.039 A 
ATOM     39  C   UNL A   1      35.772  34.751  32.027  1.00  0.00     0.014 A 
ATOM     40  C   UNL A   1      34.721  32.610  31.571  1.00  0.00     0.014 A 
ATOM     41  C   UNL A   1      37.005  34.119  32.154  1.00  0.00     0.010 A 
ATOM     42  C   UNL A   1      35.960  31.996  31.604  1.00  0.00     0.010 A 
ATOM     43  C   UNL A   1      37.109  32.767  31.809  1.00  0.00    -0.014 A 
BRANCH  43  44
ATOM     44  C   UNL A   1      38.391  32.156  31.471  1.00  0.00     0.031 A 
ATOM     45  C   UNL A   1      38.447  30.928  30.661  1.00  0.00     0.074 A 
ATOM     46  C   UNL A   1      39.551  32.658  31.953  1.00  0.00     0.049 A 
ATOM     47  N   UNL A   1      39.248  29.943  30.914  1.00  0.00    -0.248 NA
ATOM     48  C   UNL A   1      37.576  30.706  29.514  1.00  0.00     0.031 C 
ATOM     49  C   UNL A   1      40.902  32.228  31.596  1.00  0.00     0.029 A 
ATOM     50  N   UNL A   1      39.743  33.505  33.045  1.00  0.00    -0.354 N 
ATOM     51  C   UNL A   1      39.207  29.115  29.821  1.00  0.00     0.074 A 
ATOM     52  C   UNL A   1      38.086  29.571  29.025  1.00  0.00     0.031 C 
ATOM     53  C   UNL A   1      41.727  32.532  32.609  1.00  0.00     0.029 A 
ATOM     54  C   UNL A   1      40.922  33.086  33.684  1.00  0.00     0.049 A 
ATOM     55  H   UNL A   1      39.163  34.251  33.316  1.00  0.00     0.167 HD
ATOM     56  C   UNL A   1      40.212  28.230  29.575  1.00  0.00     0.031 A 
ATOM     57  C   UNL A   1      41.006  32.759  35.004  1.00  0.00     0.031 A 
ATOM     58  C   UNL A   1      41.297  28.318  30.542  1.00  0.00     0.049 A 
ATOM     59  C   UNL A   1      41.535  31.363  35.240  1.00  0.00     0.074 A 
ATOM     60  C   UNL A   1      42.532  28.947  30.497  1.00  0.00     0.029 A 
ATOM     61  N   UNL A   1      41.089  27.955  31.867  1.00  0.00    -0.354 N 
ATOM     62  N   UNL A   1      41.647  30.467  34.302  1.00  0.00    -0.248 NA
ATOM     63  C   UNL A   1      41.882  30.833  36.558  1.00  0.00     0.031 C 
ATOM     64  C   UNL A   1      43.055  28.990  31.810  1.00  0.00     0.029 A 
ATOM     65  C   UNL A   1      42.144  28.381  32.652  1.00  0.00     0.049 A 
ATOM     66  H   UNL A   1      40.302  27.464  32.198  1.00  0.00     0.167 HD
ATOM     67  C   UNL A   1      42.025  29.270  34.853  1.00  0.00     0.074 A 
ATOM     68  C   UNL A   1      42.179  29.554  36.266  1.00  0.00     0.031 C 
ATOM     69  C   UNL A   1      42.150  28.146  34.088  1.00  0.00     0.031 A 
BRANCH  56  70
ATOM     70  C   UNL A   1      40.330  27.547  28.240  1.00  0.00    -0.014 A 
ATOM     71  C   UNL A   1      39.761  26.277  28.043  1.00  0.00     0.009 A 
ATOM     72  C   UNL A   1      41.039  28.095  27.157  1.00  0.00     0.009 A 
ATOM     73  C   UNL A   1      39.984  25.542  26.874  1.00  0.00     0.001 A 
ATOM     74  C   UNL A   1      41.300  27.350  26.001  1.00  0.00     0.001 A 
ATOM     75  C   UNL A   1      40.783  26.066  25.865  1.00  0.00     0.000 A 
ENDBRANCH  56  70
BRANCH  57  76
ATOM     76  C   UNL A   1      39.990  33.421  35.860  1.00  0.00    -0.014 A 
ATOM     77  C   UNL A   1      38.920  32.640  36.341  1.00  0.00     0.009 A 
ATOM     78  C   UNL A   1      40.276  34.639  36.490  1.00  0.00     0.009 A 
ATOM     79  C   UNL A   1      38.236  33.011  37.500  1.00  0.00     0.001 A 
ATOM     80  C   UNL A   1      39.580  35.009  37.646  1.00  0.00     0.001 A 
ATOM     81  C   UNL A   1      38.589  34.178  38.170  1.00  0.00     0.000 A 
ENDBRANCH  57  76
BRANCH  69  82
ATOM     82  C   UNL A   1      42.376  26.740  34.587  1.00  0.00    -0.014 A 
ATOM     83  C   UNL A   1      41.497  26.044  35.426  1.00  0.00     0.009 A 
ATOM     84  C   UNL A   1      43.487  26.016  34.096  1.00  0.00     0.009 A 
ATOM     85  C   UNL A   1      41.742  24.712  35.795  1.00  0.00     0.001 A 
ATOM     86  C   UNL A   1      43.711  24.678  34.426  1.00  0.00     0.001 A 
ATOM     87  C   UNL A   1      42.843  24.028  35.290  1.00  0.00     0.000 A 
ENDBRANCH  69  82
ENDBRANCH  43  44
ENDBRANCH  35  38
ENDBRANCH  33  34
ENDBRANCH   1  33
TORSDOF 12
ENDMDL
MODEL 2
REMARK VINA RESULT:     -13.9      2.460      4.379
REMARK SMILES Cc1cccc(N2C(=O)/C(=C/c3ccc(C(=O)NCCCNC(=O)c4ccc(-c5c6nc(c(-c7ccccc7)c7ccc([nH]7)c(-c7ccccc7)c7nc(c(-c8ccccc8)c8ccc5[nH]8)C=C7)C=C6)cc4)cc3)c3ccccc3C2=O)c1
REMARK SMILES IDX 20 1 19 2 18 3 16 4 17 5 15 7 12 8 13 9 74 10 14 11 73 12
REMARK SMILES IDX 11 13 7 14 8 15 81 16 9 17 10 18 80 19 82 20 75 21 79 22
REMARK SMILES IDX 76 23 78 24 77 25 6 26 1 27 2 28 3 29 83 30 4 31 5 32 21 33
REMARK SMILES IDX 22 34 23 35 24 37 25 38 26 39 72 40 27 41 71 42 28 43 29 44
REMARK SMILES IDX 30 45 65 46 31 47 70 48 64 49 66 50 32 51 69 52 63 53 62 54
REMARK SMILES IDX 33 56 55 57 40 58 54 59 41 60 44 61 53 62 67 63 42 64 43 65
REMARK SMILES IDX 52 67 68 68 45 69 34 70 35 71 39 72 36 73 38 74 37 75 56 76
REMARK SMILES IDX 57 77 61 78 58 79 60 80 59 81 46 82 47 83 51 84 48 85 50 86
REMARK SMILES IDX 49 87
REMARK H PARENT 18 6 22 36 66 55 44 66
REMARK Flexibility Score: inf
ROOT
ATOM      1  C   UNL A   1      33.424  29.866  25.966  1.00  0.00     0.042 C 
ENDROOT
BRANCH   1   2
ATOM      2  C   UNL A   1      32.604  28.742  25.346  1.00  0.00     0.118 C 
BRANCH   2   3
ATOM      3  N   UNL A   1      31.396  29.222  24.682  1.00  0.00    -0.352 N 
ATOM      4  C   UNL A   1      30.472  28.566  23.898  1.00  0.00     0.251 C 
ATOM      5  O   UNL A   1      29.593  29.207  23.329  1.00  0.00    -0.269 OA
ATOM      6  H   UNL A   1      31.210  30.180  24.816  1.00  0.00     0.163 HD
BRANCH   4   7
ATOM      7  C   UNL A   1      30.558  27.106  23.669  1.00  0.00     0.039 A 
ATOM      8  C   UNL A   1      31.028  24.373  23.306  1.00  0.00    -0.025 A 
ATOM      9  C   UNL A   1      31.409  25.284  22.315  1.00  0.00     0.009 A 
ATOM     10  C   UNL A   1      30.281  24.820  24.403  1.00  0.00     0.009 A 
ATOM     11  C   UNL A   1      31.178  26.650  22.499  1.00  0.00     0.014 A 
ATOM     12  C   UNL A   1      30.028  26.182  24.571  1.00  0.00     0.014 A 
BRANCH   8  13
ATOM     13  C   UNL A   1      31.454  22.973  23.208  1.00  0.00     0.022 C 
ATOM     14  N   UNL A   1      33.386  20.312  24.677  1.00  0.00    -0.242 N 
ATOM     15  C   UNL A   1      32.705  20.945  23.616  1.00  0.00     0.265 C 
ATOM     16  C   UNL A   1      33.860  21.050  25.783  1.00  0.00     0.265 C 
ATOM     17  O   UNL A   1      32.144  20.396  22.667  1.00  0.00    -0.268 OA
ATOM     18  C   UNL A   1      32.582  22.441  23.733  1.00  0.00     0.049 C 
ATOM     19  C   UNL A   1      34.196  22.473  25.550  1.00  0.00     0.048 A 
ATOM     20  O   UNL A   1      34.056  20.647  26.927  1.00  0.00    -0.268 OA
ATOM     21  C   UNL A   1      33.616  23.156  24.486  1.00  0.00    -0.000 A 
ATOM     22  C   UNL A   1      35.129  23.107  26.386  1.00  0.00     0.014 A 
ATOM     23  C   UNL A   1      34.066  24.453  24.199  1.00  0.00     0.010 A 
ATOM     24  C   UNL A   1      35.528  24.416  26.123  1.00  0.00     0.001 A 
ATOM     25  C   UNL A   1      35.013  25.078  25.014  1.00  0.00     0.001 A 
BRANCH  14  26
ATOM     26  C   UNL A   1      33.499  18.852  24.676  1.00  0.00     0.053 A 
ATOM     27  C   UNL A   1      31.647  15.811  26.125  1.00  0.00     0.044 C 
ATOM     28  C   UNL A   1      32.651  16.635  25.372  1.00  0.00    -0.049 A 
ATOM     29  C   UNL A   1      33.682  16.006  24.679  1.00  0.00     0.003 A 
ATOM     30  C   UNL A   1      32.558  18.040  25.344  1.00  0.00     0.030 A 
ATOM     31  C   UNL A   1      34.608  16.772  23.984  1.00  0.00     0.002 A 
ATOM     32  C   UNL A   1      34.517  18.170  23.988  1.00  0.00     0.027 A 
ENDBRANCH  14  26
ENDBRANCH   8  13
ENDBRANCH   4   7
ENDBRANCH   2   3
ENDBRANCH   1   2
BRANCH   1  33
ATOM     33  C   UNL A   1      33.444  29.812  27.488  1.00  0.00     0.118 C 
BRANCH  33  34
ATOM     34  N   UNL A   1      34.002  31.007  28.118  1.00  0.00    -0.352 N 
ATOM     35  C   UNL A   1      35.298  31.194  28.611  1.00  0.00     0.251 C 
ATOM     36  H   UNL A   1      33.391  31.773  28.207  1.00  0.00     0.163 HD
ATOM     37  O   UNL A   1      35.660  32.257  29.053  1.00  0.00    -0.269 OA
BRANCH  35  38
ATOM     38  C   UNL A   1      36.244  30.064  28.455  1.00  0.00     0.039 A 
ATOM     39  C   UNL A   1      36.565  29.334  29.601  1.00  0.00     0.014 A 
ATOM     40  C   UNL A   1      37.016  29.972  27.302  1.00  0.00     0.014 A 
ATOM     41  C   UNL A   1      37.818  28.732  29.679  1.00  0.00     0.010 A 
ATOM     42  C   UNL A   1      38.295  29.457  27.410  1.00  0.00     0.010 A 
ATOM     43  C   UNL A   1      38.721  28.916  28.627  1.00  0.00    -0.014 A 
BRANCH  43  44
ATOM     44  C   UNL A   1      40.158  28.730  28.807  1.00  0.00     0.031 A 
ATOM     45  C   UNL A   1      40.834  27.536  28.274  1.00  0.00     0.074 A 
ATOM     46  C   UNL A   1      40.890  29.610  29.529  1.00  0.00     0.049 A 
ATOM     47  N   UNL A   1      41.742  26.880  28.923  1.00  0.00    -0.248 NA
ATOM     48  C   UNL A   1      40.510  26.970  26.971  1.00  0.00     0.031 C 
ATOM     49  C   UNL A   1      42.344  29.617  29.682  1.00  0.00     0.029 A 
ATOM     50  N   UNL A   1      40.447  30.543  30.467  1.00  0.00    -0.354 N 
ATOM     51  C   UNL A   1      42.315  26.014  28.027  1.00  0.00     0.074 A 
ATOM     52  C   UNL A   1      41.456  26.031  26.861  1.00  0.00     0.031 C 
ATOM     53  C   UNL A   1      42.648  30.237  30.832  1.00  0.00     0.029 A 
ATOM     54  C   UNL A   1      41.401  30.570  31.498  1.00  0.00     0.049 A 
ATOM     55  H   UNL A   1      39.623  31.079  30.417  1.00  0.00     0.167 HD
ATOM     56  C   UNL A   1      43.549  25.486  28.255  1.00  0.00     0.031 A 
ATOM     57  C   UNL A   1      41.115  30.374  32.815  1.00  0.00     0.031 A 
ATOM     58  C   UNL A   1      44.163  25.983  29.479  1.00  0.00     0.049 A 
ATOM     59  C   UNL A   1      41.901  29.242  33.435  1.00  0.00     0.074 A 
ATOM     60  C   UNL A   1      45.107  26.972  29.708  1.00  0.00     0.029 A 
ATOM     61  N   UNL A   1      43.623  25.659  30.717  1.00  0.00    -0.354 N 
ATOM     62  N   UNL A   1      42.576  28.371  32.743  1.00  0.00    -0.248 NA
ATOM     63  C   UNL A   1      41.908  28.940  34.866  1.00  0.00     0.031 C 
ATOM     64  C   UNL A   1      45.111  27.267  31.091  1.00  0.00     0.029 A 
ATOM     65  C   UNL A   1      44.177  26.453  31.704  1.00  0.00     0.049 A 
ATOM     66  H   UNL A   1      42.943  24.964  30.870  1.00  0.00     0.167 HD
ATOM     67  C   UNL A   1      43.063  27.398  33.578  1.00  0.00     0.074 A 
ATOM     68  C   UNL A   1      42.635  27.809  34.901  1.00  0.00     0.031 C 
ATOM     69  C   UNL A   1      43.755  26.327  33.091  1.00  0.00     0.031 A 
BRANCH  56  70
ATOM     70  C   UNL A   1      44.307  24.792  27.157  1.00  0.00    -0.014 A 
ATOM     71  C   UNL A   1      44.798  23.490  27.351  1.00  0.00     0.009 A 
ATOM     72  C   UNL A   1      44.607  25.403  25.927  1.00  0.00     0.009 A 
ATOM     73  C   UNL A   1      45.640  22.873  26.420  1.00  0.00     0.001 A 
ATOM     74  C   UNL A   1      45.482  24.808  25.009  1.00  0.00     0.001 A 
ATOM     75  C   UNL A   1      46.009  23.547  25.263  1.00  0.00     0.000 A 
ENDBRANCH  56  70
BRANCH  57  76
ATOM     76  C   UNL A   1      39.724  30.728  33.193  1.00  0.00    -0.014 A 
ATOM     77  C   UNL A   1      39.363  32.090  33.189  1.00  0.00     0.009 A 
ATOM     78  C   UNL A   1      38.711  29.760  33.166  1.00  0.00     0.009 A 
ATOM     79  C   UNL A   1      38.028  32.471  33.035  1.00  0.00     0.001 A 
ATOM     80  C   UNL A   1      37.375  30.148  33.022  1.00  0.00     0.001 A 
ATOM     81  C   UNL A   1      37.039  31.499  32.918  1.00  0.00     0.000 A 
ENDBRANCH  57  76
BRANCH  69  82
ATOM     82  C   UNL A   1      44.182  25.106  33.866  1.00  0.00    -0.014 A 
ATOM     83  C   UNL A   1      43.314  24.094  34.297  1.00  0.00     0.009 A 
ATOM     84  C   UNL A   1      45.562  24.889  34.084  1.00  0.00     0.009 A 
ATOM     85  C   UNL A   1      43.795  22.953  34.956  1.00  0.00     0.001 A 
ATOM     86  C   UNL A   1      46.049  23.734  34.701  1.00  0.00     0.001 A 
ATOM     87  C   UNL A   1      45.161  22.769  35.150  1.00  0.00     0.000 A 
ENDBRANCH  69  82
ENDBRANCH  43  44
ENDBRANCH  35  38
ENDBRANCH  33  34
ENDBRANCH   1  33
TORSDOF 12
ENDMDL
MODEL 3
REMARK VINA RESULT:     -13.9      4.702     10.445
REMARK SMILES Cc1cccc(N2C(=O)/C(=C/c3ccc(C(=O)NCCCNC(=O)c4ccc(-c5c6nc(c(-c7ccccc7)c7ccc([nH]7)c(-c7ccccc7)c7nc(c(-c8ccccc8)c8ccc5[nH]8)C=C7)C=C6)cc4)cc3)c3ccccc3C2=O)c1
REMARK SMILES IDX 20 1 19 2 18 3 16 4 17 5 15 7 12 8 13 9 74 10 14 11 73 12
REMARK SMILES IDX 11 13 7 14 8 15 81 16 9 17 10 18 80 19 82 20 75 21 79 22
REMARK SMILES IDX 76 23 78 24 77 25 6 26 1 27 2 28 3 29 83 30 4 31 5 32 21 33
REMARK SMILES IDX 22 34 23 35 24 37 25 38 26 39 72 40 27 41 71 42 28 43 29 44
REMARK SMILES IDX 30 45 65 46 31 47 70 48 64 49 66 50 32 51 69 52 63 53 62 54
REMARK SMILES IDX 33 56 55 57 40 58 54 59 41 60 44 61 53 62 67 63 42 64 43 65
REMARK SMILES IDX 52 67 68 68 45 69 34 70 35 71 39 72 36 73 38 74 37 75 56 76
REMARK SMILES IDX 57 77 61 78 58 79 60 80 59 81 46 82 47 83 51 84 48 85 50 86
REMARK SMILES IDX 49 87
REMARK H PARENT 18 6 22 36 66 55 44 66
REMARK Flexibility Score: inf
ROOT
ATOM      1  C   UNL A   1      41.452  22.605  26.206  1.00  0.00     0.042 C 
ENDROOT
BRANCH   1   2
ATOM      2  C   UNL A   1      39.992  22.304  26.519  1.00  0.00     0.118 C 
BRANCH   2   3
ATOM      3  N   UNL A   1      39.557  21.011  26.002  1.00  0.00    -0.352 N 
ATOM      4  C   UNL A   1      38.393  20.634  25.368  1.00  0.00     0.251 C 
ATOM      5  O   UNL A   1      38.184  19.447  25.134  1.00  0.00    -0.269 OA
ATOM      6  H   UNL A   1      40.206  20.281  26.129  1.00  0.00     0.163 HD
BRANCH   4   7
ATOM      7  C   UNL A   1      37.350  21.628  25.023  1.00  0.00     0.039 A 
ATOM      8  C   UNL A   1      35.588  23.725  24.462  1.00  0.00    -0.025 A 
ATOM      9  C   UNL A   1      35.790  23.319  25.785  1.00  0.00     0.009 A 
ATOM     10  C   UNL A   1      36.155  22.983  23.419  1.00  0.00     0.009 A 
ATOM     11  C   UNL A   1      36.674  22.274  26.065  1.00  0.00     0.014 A 
ATOM     12  C   UNL A   1      37.016  21.921  23.700  1.00  0.00     0.014 A 
BRANCH   8  13
ATOM     13  C   UNL A   1      34.827  24.949  24.186  1.00  0.00     0.022 C 
ATOM     14  N   UNL A   1      31.884  26.887  24.931  1.00  0.00    -0.242 N 
ATOM     15  C   UNL A   1      32.989  26.517  24.134  1.00  0.00     0.265 C 
ATOM     16  C   UNL A   1      31.347  26.001  25.889  1.00  0.00     0.265 C 
ATOM     17  O   UNL A   1      33.614  27.241  23.359  1.00  0.00    -0.268 OA
ATOM     18  C   UNL A   1      33.494  25.115  24.347  1.00  0.00     0.049 C 
ATOM     19  C   UNL A   1      31.510  24.552  25.633  1.00  0.00     0.048 A 
ATOM     20  O   UNL A   1      30.730  26.285  26.913  1.00  0.00    -0.268 OA
ATOM     21  C   UNL A   1      32.537  24.106  24.808  1.00  0.00    -0.000 A 
ATOM     22  C   UNL A   1      30.600  23.644  26.199  1.00  0.00     0.014 A 
ATOM     23  C   UNL A   1      32.575  22.747  24.463  1.00  0.00     0.010 A 
ATOM     24  C   UNL A   1      30.682  22.288  25.893  1.00  0.00     0.001 A 
ATOM     25  C   UNL A   1      31.655  21.845  25.005  1.00  0.00     0.001 A 
BRANCH  14  26
ATOM     26  C   UNL A   1      31.366  28.253  24.833  1.00  0.00     0.053 A 
ATOM     27  C   UNL A   1      31.731  31.618  26.655  1.00  0.00     0.044 C 
ATOM     28  C   UNL A   1      31.288  30.581  25.664  1.00  0.00    -0.049 A 
ATOM     29  C   UNL A   1      30.387  30.926  24.659  1.00  0.00     0.003 A 
ATOM     30  C   UNL A   1      31.781  29.264  25.725  1.00  0.00     0.030 A 
ATOM     31  C   UNL A   1      29.979  29.964  23.744  1.00  0.00     0.002 A 
ATOM     32  C   UNL A   1      30.459  28.652  23.835  1.00  0.00     0.027 A 
ENDBRANCH  14  26
ENDBRANCH   8  13
ENDBRANCH   4   7
ENDBRANCH   2   3
ENDBRANCH   1   2
BRANCH   1  33
ATOM     33  C   UNL A   1      42.384  21.459  26.579  1.00  0.00     0.118 C 
BRANCH  33  34
ATOM     34  N   UNL A   1      43.034  20.826  25.433  1.00  0.00    -0.352 N 
ATOM     35  C   UNL A   1      44.190  21.240  24.763  1.00  0.00     0.251 C 
ATOM     36  H   UNL A   1      42.606  20.009  25.091  1.00  0.00     0.163 HD
ATOM     37  O   UNL A   1      44.668  20.591  23.865  1.00  0.00    -0.269 OA
BRANCH  35  38
ATOM     38  C   UNL A   1      44.869  22.450  25.283  1.00  0.00     0.039 A 
ATOM     39  C   UNL A   1      45.507  22.345  26.521  1.00  0.00     0.014 A 
ATOM     40  C   UNL A   1      44.582  23.690  24.724  1.00  0.00     0.014 A 
ATOM     41  C   UNL A   1      45.601  23.479  27.322  1.00  0.00     0.010 A 
ATOM     42  C   UNL A   1      44.588  24.798  25.551  1.00  0.00     0.010 A 
ATOM     43  C   UNL A   1      45.017  24.670  26.876  1.00  0.00    -0.014 A 
BRANCH  43  44
ATOM     44  C   UNL A   1      44.663  25.744  27.798  1.00  0.00     0.031 A 
ATOM     45  C   UNL A   1      43.285  26.258  27.860  1.00  0.00     0.074 A 
ATOM     46  C   UNL A   1      45.604  26.345  28.564  1.00  0.00     0.049 A 
ATOM     47  N   UNL A   1      42.995  27.516  27.956  1.00  0.00    -0.248 NA
ATOM     48  C   UNL A   1      42.120  25.384  27.787  1.00  0.00     0.031 C 
ATOM     49  C   UNL A   1      45.372  27.336  29.612  1.00  0.00     0.029 A 
ATOM     50  N   UNL A   1      46.988  26.355  28.388  1.00  0.00    -0.354 N 
ATOM     51  C   UNL A   1      41.657  27.588  28.250  1.00  0.00     0.074 A 
ATOM     52  C   UNL A   1      41.136  26.254  28.036  1.00  0.00     0.031 C 
ATOM     53  C   UNL A   1      46.485  28.072  29.756  1.00  0.00     0.029 A 
ATOM     54  C   UNL A   1      47.435  27.637  28.748  1.00  0.00     0.049 A 
ATOM     55  H   UNL A   1      47.544  25.607  28.072  1.00  0.00     0.167 HD
ATOM     56  C   UNL A   1      41.125  28.706  28.817  1.00  0.00     0.031 A 
ATOM     57  C   UNL A   1      48.180  28.445  27.942  1.00  0.00     0.031 A 
ATOM     58  C   UNL A   1      42.121  29.730  29.102  1.00  0.00     0.049 A 
ATOM     59  C   UNL A   1      47.546  29.794  27.699  1.00  0.00     0.074 A 
ATOM     60  C   UNL A   1      42.787  30.078  30.268  1.00  0.00     0.029 A 
ATOM     61  N   UNL A   1      42.779  30.378  28.064  1.00  0.00    -0.354 N 
ATOM     62  N   UNL A   1      46.308  30.072  27.994  1.00  0.00    -0.248 NA
ATOM     63  C   UNL A   1      48.215  30.901  27.016  1.00  0.00     0.031 C 
ATOM     64  C   UNL A   1      43.872  30.916  29.923  1.00  0.00     0.029 A 
ATOM     65  C   UNL A   1      43.862  31.085  28.551  1.00  0.00     0.049 A 
ATOM     66  H   UNL A   1      42.511  30.339  27.118  1.00  0.00     0.167 HD
ATOM     67  C   UNL A   1      45.995  31.324  27.531  1.00  0.00     0.074 A 
ATOM     68  C   UNL A   1      47.228  31.811  26.944  1.00  0.00     0.031 C 
ATOM     69  C   UNL A   1      44.733  31.830  27.655  1.00  0.00     0.031 A 
BRANCH  56  70
ATOM     70  C   UNL A   1      39.746  28.685  29.418  1.00  0.00    -0.014 A 
ATOM     71  C   UNL A   1      38.645  29.143  28.676  1.00  0.00     0.009 A 
ATOM     72  C   UNL A   1      39.490  28.270  30.737  1.00  0.00     0.009 A 
ATOM     73  C   UNL A   1      37.378  29.289  29.251  1.00  0.00     0.001 A 
ATOM     74  C   UNL A   1      38.235  28.451  31.330  1.00  0.00     0.001 A 
ATOM     75  C   UNL A   1      37.181  28.974  30.590  1.00  0.00     0.000 A 
ENDBRANCH  56  70
BRANCH  57  76
ATOM     76  C   UNL A   1      48.999  27.716  26.941  1.00  0.00    -0.014 A 
ATOM     77  C   UNL A   1      48.481  27.578  25.637  1.00  0.00     0.009 A 
ATOM     78  C   UNL A   1      50.371  27.523  27.147  1.00  0.00     0.009 A 
ATOM     79  C   UNL A   1      49.335  27.377  24.551  1.00  0.00     0.001 A 
ATOM     80  C   UNL A   1      51.220  27.312  26.056  1.00  0.00     0.001 A 
ATOM     81  C   UNL A   1      50.708  27.278  24.758  1.00  0.00     0.000 A 
ENDBRANCH  57  76
BRANCH  69  82
ATOM     82  C   UNL A   1      44.211  33.102  27.034  1.00  0.00    -0.014 A 
ATOM     83  C   UNL A   1      44.020  33.296  25.661  1.00  0.00     0.009 A 
ATOM     84  C   UNL A   1      43.771  34.141  27.887  1.00  0.00     0.009 A 
ATOM     85  C   UNL A   1      43.465  34.485  25.163  1.00  0.00     0.001 A 
ATOM     86  C   UNL A   1      43.179  35.308  27.397  1.00  0.00     0.001 A 
ATOM     87  C   UNL A   1      43.039  35.486  26.030  1.00  0.00     0.000 A 
ENDBRANCH  69  82
ENDBRANCH  43  44
ENDBRANCH  35  38
ENDBRANCH  33  34
ENDBRANCH   1  33
TORSDOF 12
ENDMDL
