MODEL 1
REMARK VINA RESULT:     -10.4      0.000      0.000
REMARK SMILES C[C@@H]1[C@@H](C)CC[C@H]1[NH2+][C@@H](C)[C@@H](C)C(=O)NCCCNC(=O)c1ccc(-c2c3nc(c(-c4ccccc4)c4ccc([nH]4)c(-c4ccccc4)c4nc(c(-c5ccccc5)c5ccc2[nH]5)C=C4)C=C3)cc1
REMARK SMILES IDX 16 1 15 2 13 3 14 4 11 6 12 7 9 8 10 9 8 10 7 13 1 14 2 15
REMARK SMILES IDX 3 16 5 17 4 18 6 19 17 20 18 21 19 22 20 23 21 25 22 26
REMARK SMILES IDX 23 27 69 28 24 29 68 30 25 31 26 32 27 33 62 34 28 35 67 36
REMARK SMILES IDX 61 37 63 38 29 39 66 40 60 41 59 42 30 44 52 45 37 46 51 47
REMARK SMILES IDX 38 48 41 49 50 50 64 51 39 52 40 53 49 55 65 56 42 57 31 58
REMARK SMILES IDX 32 59 36 60 33 61 35 62 34 63 53 64 54 65 58 66 55 67 57 68
REMARK SMILES IDX 56 69 43 70 44 71 48 72 45 73 47 74 46 75
REMARK H PARENT 15 5 8 11 8 12 19 24 63 43 41 54
REMARK Flexibility Score: inf
ROOT
ATOM      1  C   UNL A   1      33.158  34.820  28.819  1.00  0.00     0.117 C 
ENDROOT
BRANCH   1   2
ATOM      2  N   UNL A   1      33.087  36.151  29.394  1.00  0.00    -0.356 N 
ATOM      3  C   UNL A   1      32.922  36.576  30.675  1.00  0.00     0.228 C 
ATOM      4  O   UNL A   1      32.948  37.796  30.866  1.00  0.00    -0.275 OA
ATOM      5  H   UNL A   1      33.172  36.879  28.737  1.00  0.00     0.163 HD
BRANCH   3   6
ATOM      6  C   UNL A   1      32.691  35.620  31.847  1.00  0.00     0.133 C 
ATOM      7  C   UNL A   1      31.443  36.031  32.631  1.00  0.00     0.024 C 
BRANCH   6   8
ATOM      8  C   UNL A   1      33.989  35.391  32.671  1.00  0.00     0.191 C 
ATOM      9  C   UNL A   1      34.123  36.527  33.702  1.00  0.00     0.076 C 
BRANCH   8  10
ATOM     10  N   UNL A   1      35.165  35.305  31.786  1.00  0.00    -0.341 N 
ATOM     11  H   UNL A   1      34.871  35.594  30.853  1.00  0.00     0.346 HD
ATOM     12  H   UNL A   1      35.870  35.906  32.213  1.00  0.00     0.346 HD
BRANCH  10  13
ATOM     13  C   UNL A   1      35.796  33.987  31.666  1.00  0.00     0.185 C 
ATOM     14  C   UNL A   1      38.220  34.556  32.286  1.00  0.00     0.014 C 
ATOM     15  C   UNL A   1      36.936  33.840  32.699  1.00  0.00     0.047 C 
ATOM     16  C   UNL A   1      37.146  32.318  32.850  1.00  0.00    -0.005 C 
ATOM     17  C   UNL A   1      35.852  31.665  32.355  1.00  0.00     0.010 C 
ATOM     18  C   UNL A   1      37.464  31.922  34.289  1.00  0.00     0.008 C 
ATOM     19  C   UNL A   1      34.899  32.802  32.025  1.00  0.00     0.065 C 
ENDBRANCH  10  13
ENDBRANCH   8  10
ENDBRANCH   6   8
ENDBRANCH   3   6
ENDBRANCH   1   2
BRANCH   1  20
ATOM     20  C   UNL A   1      34.397  34.610  27.955  1.00  0.00     0.042 C 
BRANCH  20  21
ATOM     21  C   UNL A   1      35.079  33.263  28.147  1.00  0.00     0.118 C 
BRANCH  21  22
ATOM     22  N   UNL A   1      34.223  32.142  27.791  1.00  0.00    -0.352 N 
ATOM     23  C   UNL A   1      34.503  30.804  27.677  1.00  0.00     0.251 C 
ATOM     24  H   UNL A   1      33.288  32.382  27.601  1.00  0.00     0.163 HD
ATOM     25  O   UNL A   1      33.668  30.056  27.167  1.00  0.00    -0.269 OA
BRANCH  23  26
ATOM     26  C   UNL A   1      35.793  30.248  28.141  1.00  0.00     0.039 A 
ATOM     27  C   UNL A   1      36.877  30.237  27.256  1.00  0.00     0.014 A 
ATOM     28  C   UNL A   1      35.933  29.694  29.414  1.00  0.00     0.014 A 
ATOM     29  C   UNL A   1      38.108  29.722  27.669  1.00  0.00     0.010 A 
ATOM     30  C   UNL A   1      37.183  29.265  29.855  1.00  0.00     0.010 A 
ATOM     31  C   UNL A   1      38.280  29.259  28.983  1.00  0.00    -0.014 A 
BRANCH  31  32
ATOM     32  C   UNL A   1      39.590  28.743  29.455  1.00  0.00     0.031 A 
ATOM     33  C   UNL A   1      40.415  29.548  30.424  1.00  0.00     0.074 A 
ATOM     34  C   UNL A   1      40.065  27.580  28.969  1.00  0.00     0.049 A 
ATOM     35  N   UNL A   1      41.602  29.288  30.912  1.00  0.00    -0.248 NA
ATOM     36  C   UNL A   1      39.845  30.825  30.883  1.00  0.00     0.031 C 
ATOM     37  C   UNL A   1      39.383  26.722  27.999  1.00  0.00     0.029 A 
ATOM     38  N   UNL A   1      41.241  26.919  29.227  1.00  0.00    -0.354 N 
ATOM     39  C   UNL A   1      41.929  30.379  31.709  1.00  0.00     0.074 A 
ATOM     40  C   UNL A   1      40.839  31.322  31.602  1.00  0.00     0.031 C 
ATOM     41  C   UNL A   1      40.133  25.632  27.773  1.00  0.00     0.029 A 
ATOM     42  C   UNL A   1      41.366  25.732  28.546  1.00  0.00     0.049 A 
ATOM     43  H   UNL A   1      41.929  27.264  29.842  1.00  0.00     0.167 HD
ATOM     44  C   UNL A   1      43.028  30.570  32.477  1.00  0.00     0.031 A 
ATOM     45  C   UNL A   1      42.362  24.827  28.546  1.00  0.00     0.031 A 
ATOM     46  C   UNL A   1      44.103  29.623  32.602  1.00  0.00     0.049 A 
ATOM     47  C   UNL A   1      43.573  25.066  29.403  1.00  0.00     0.074 A 
ATOM     48  C   UNL A   1      45.224  29.692  33.409  1.00  0.00     0.029 A 
ATOM     49  N   UNL A   1      44.189  28.432  31.898  1.00  0.00    -0.354 N 
ATOM     50  N   UNL A   1      43.832  26.068  30.207  1.00  0.00    -0.248 NA
ATOM     51  C   UNL A   1      44.625  24.040  29.358  1.00  0.00     0.031 C 
ATOM     52  C   UNL A   1      46.016  28.568  33.154  1.00  0.00     0.029 A 
ATOM     53  C   UNL A   1      45.359  27.771  32.232  1.00  0.00     0.049 A 
ATOM     54  H   UNL A   1      43.517  28.105  31.255  1.00  0.00     0.167 HD
ATOM     55  C   UNL A   1      45.059  25.777  30.791  1.00  0.00     0.074 A 
ATOM     56  C   UNL A   1      45.486  24.500  30.255  1.00  0.00     0.031 C 
ATOM     57  C   UNL A   1      45.768  26.501  31.691  1.00  0.00     0.031 A 
BRANCH  44  58
ATOM     58  C   UNL A   1      43.126  31.867  33.234  1.00  0.00    -0.014 A 
ATOM     59  C   UNL A   1      43.759  32.992  32.680  1.00  0.00     0.009 A 
ATOM     60  C   UNL A   1      42.552  31.974  34.510  1.00  0.00     0.009 A 
ATOM     61  C   UNL A   1      43.854  34.181  33.407  1.00  0.00     0.001 A 
ATOM     62  C   UNL A   1      42.621  33.173  35.221  1.00  0.00     0.001 A 
ATOM     63  C   UNL A   1      43.282  34.272  34.674  1.00  0.00     0.000 A 
ENDBRANCH  44  58
BRANCH  45  64
ATOM     64  C   UNL A   1      42.246  23.591  27.728  1.00  0.00    -0.014 A 
ATOM     65  C   UNL A   1      41.729  22.415  28.293  1.00  0.00     0.009 A 
ATOM     66  C   UNL A   1      42.655  23.576  26.387  1.00  0.00     0.009 A 
ATOM     67  C   UNL A   1      41.651  21.243  27.540  1.00  0.00     0.001 A 
ATOM     68  C   UNL A   1      42.550  22.409  25.627  1.00  0.00     0.001 A 
ATOM     69  C   UNL A   1      42.057  21.241  26.206  1.00  0.00     0.000 A 
ENDBRANCH  45  64
BRANCH  57  70
ATOM     70  C   UNL A   1      47.057  25.907  32.186  1.00  0.00    -0.014 A 
ATOM     71  C   UNL A   1      48.272  26.140  31.523  1.00  0.00     0.009 A 
ATOM     72  C   UNL A   1      47.057  25.130  33.355  1.00  0.00     0.009 A 
ATOM     73  C   UNL A   1      49.456  25.576  32.004  1.00  0.00     0.001 A 
ATOM     74  C   UNL A   1      48.246  24.594  33.849  1.00  0.00     0.001 A 
ATOM     75  C   UNL A   1      49.442  24.808  33.168  1.00  0.00     0.000 A 
ENDBRANCH  57  70
ENDBRANCH  31  32
ENDBRANCH  23  26
ENDBRANCH  21  22
ENDBRANCH  20  21
ENDBRANCH   1  20
TORSDOF 13
ENDMDL
MODEL 2
REMARK VINA RESULT:      -9.9      1.272      2.338
REMARK SMILES C[C@@H]1[C@@H](C)CC[C@H]1[NH2+][C@@H](C)[C@@H](C)C(=O)NCCCNC(=O)c1ccc(-c2c3nc(c(-c4ccccc4)c4ccc([nH]4)c(-c4ccccc4)c4nc(c(-c5ccccc5)c5ccc2[nH]5)C=C4)C=C3)cc1
REMARK SMILES IDX 16 1 15 2 13 3 14 4 11 6 12 7 9 8 10 9 8 10 7 13 1 14 2 15
REMARK SMILES IDX 3 16 5 17 4 18 6 19 17 20 18 21 19 22 20 23 21 25 22 26
REMARK SMILES IDX 23 27 69 28 24 29 68 30 25 31 26 32 27 33 62 34 28 35 67 36
REMARK SMILES IDX 61 37 63 38 29 39 66 40 60 41 59 42 30 44 52 45 37 46 51 47
REMARK SMILES IDX 38 48 41 49 50 50 64 51 39 52 40 53 49 55 65 56 42 57 31 58
REMARK SMILES IDX 32 59 36 60 33 61 35 62 34 63 53 64 54 65 58 66 55 67 57 68
REMARK SMILES IDX 56 69 43 70 44 71 48 72 45 73 47 74 46 75
REMARK H PARENT 15 5 8 11 8 12 19 24 63 43 41 54
REMARK Flexibility Score: inf
ROOT
ATOM      1  C   UNL A   1      34.164  34.804  29.973  1.00  0.00     0.117 C 
ENDROOT
BRANCH   1   2
ATOM      2  N   UNL A   1      33.651  34.090  31.127  1.00  0.00    -0.356 N 
ATOM      3  C   UNL A   1      34.272  33.347  32.081  1.00  0.00     0.228 C 
ATOM      4  O   UNL A   1      33.562  32.893  32.985  1.00  0.00    -0.275 OA
ATOM      5  H   UNL A   1      32.675  34.155  31.241  1.00  0.00     0.163 HD
BRANCH   3   6
ATOM      6  C   UNL A   1      35.772  33.048  32.059  1.00  0.00     0.133 C 
ATOM      7  C   UNL A   1      36.026  31.572  32.377  1.00  0.00     0.024 C 
BRANCH   6   8
ATOM      8  C   UNL A   1      36.582  34.088  32.883  1.00  0.00     0.191 C 
ATOM      9  C   UNL A   1      35.593  34.968  33.671  1.00  0.00     0.076 C 
BRANCH   8  10
ATOM     10  N   UNL A   1      37.456  34.888  32.007  1.00  0.00    -0.341 N 
ATOM     11  H   UNL A   1      36.910  35.154  31.187  1.00  0.00     0.346 HD
ATOM     12  H   UNL A   1      37.769  35.672  32.579  1.00  0.00     0.346 HD
BRANCH  10  13
ATOM     13  C   UNL A   1      38.680  34.235  31.535  1.00  0.00     0.185 C 
ATOM     14  C   UNL A   1      38.083  33.809  29.077  1.00  0.00     0.014 C 
ATOM     15  C   UNL A   1      38.949  34.596  30.057  1.00  0.00     0.047 C 
ATOM     16  C   UNL A   1      40.455  34.326  29.846  1.00  0.00    -0.005 C 
ATOM     17  C   UNL A   1      41.084  34.339  31.242  1.00  0.00     0.010 C 
ATOM     18  C   UNL A   1      41.100  35.358  28.925  1.00  0.00     0.008 C 
ATOM     19  C   UNL A   1      39.970  34.707  32.209  1.00  0.00     0.065 C 
ENDBRANCH  10  13
ENDBRANCH   8  10
ENDBRANCH   6   8
ENDBRANCH   3   6
ENDBRANCH   1   2
BRANCH   1  20
ATOM     20  C   UNL A   1      33.800  34.137  28.650  1.00  0.00     0.042 C 
BRANCH  20  21
ATOM     21  C   UNL A   1      34.725  32.999  28.242  1.00  0.00     0.118 C 
BRANCH  21  22
ATOM     22  N   UNL A   1      34.003  31.832  27.760  1.00  0.00    -0.352 N 
ATOM     23  C   UNL A   1      34.420  30.540  27.568  1.00  0.00     0.251 C 
ATOM     24  H   UNL A   1      33.060  31.996  27.534  1.00  0.00     0.163 HD
ATOM     25  O   UNL A   1      33.690  29.756  26.960  1.00  0.00    -0.269 OA
BRANCH  23  26
ATOM     26  C   UNL A   1      35.734  30.076  28.063  1.00  0.00     0.039 A 
ATOM     27  C   UNL A   1      35.823  29.573  29.366  1.00  0.00     0.014 A 
ATOM     28  C   UNL A   1      36.885  30.176  27.281  1.00  0.00     0.014 A 
ATOM     29  C   UNL A   1      37.051  29.124  29.859  1.00  0.00     0.010 A 
ATOM     30  C   UNL A   1      38.089  29.645  27.738  1.00  0.00     0.010 A 
ATOM     31  C   UNL A   1      38.189  29.129  29.038  1.00  0.00    -0.014 A 
BRANCH  31  32
ATOM     32  C   UNL A   1      39.495  28.620  29.526  1.00  0.00     0.031 A 
ATOM     33  C   UNL A   1      40.277  29.402  30.550  1.00  0.00     0.074 A 
ATOM     34  C   UNL A   1      40.008  27.487  29.010  1.00  0.00     0.049 A 
ATOM     35  N   UNL A   1      41.455  29.145  31.061  1.00  0.00    -0.248 NA
ATOM     36  C   UNL A   1      39.668  30.648  31.042  1.00  0.00     0.031 C 
ATOM     37  C   UNL A   1      39.371  26.654  27.987  1.00  0.00     0.029 A 
ATOM     38  N   UNL A   1      41.189  26.839  29.275  1.00  0.00    -0.354 N 
ATOM     39  C   UNL A   1      41.737  30.210  31.909  1.00  0.00     0.074 A 
ATOM     40  C   UNL A   1      40.631  31.136  31.808  1.00  0.00     0.031 C 
ATOM     41  C   UNL A   1      40.149  25.589  27.740  1.00  0.00     0.029 A 
ATOM     42  C   UNL A   1      41.357  25.683  28.552  1.00  0.00     0.049 A 
ATOM     43  H   UNL A   1      41.852  27.172  29.923  1.00  0.00     0.167 HD
ATOM     44  C   UNL A   1      42.810  30.392  32.715  1.00  0.00     0.031 A 
ATOM     45  C   UNL A   1      42.371  24.798  28.545  1.00  0.00     0.031 A 
ATOM     46  C   UNL A   1      43.900  29.461  32.834  1.00  0.00     0.049 A 
ATOM     47  C   UNL A   1      43.553  25.026  29.445  1.00  0.00     0.074 A 
ATOM     48  C   UNL A   1      44.997  29.520  33.675  1.00  0.00     0.029 A 
ATOM     49  N   UNL A   1      44.030  28.302  32.086  1.00  0.00    -0.354 N 
ATOM     50  N   UNL A   1      43.769  25.999  30.295  1.00  0.00    -0.248 NA
ATOM     51  C   UNL A   1      44.626  24.023  29.390  1.00  0.00     0.031 C 
ATOM     52  C   UNL A   1      45.818  28.423  33.399  1.00  0.00     0.029 A 
ATOM     53  C   UNL A   1      45.203  27.650  32.427  1.00  0.00     0.049 A 
ATOM     54  H   UNL A   1      43.384  27.987  31.412  1.00  0.00     0.167 HD
ATOM     55  C   UNL A   1      44.985  25.710  30.901  1.00  0.00     0.074 A 
ATOM     56  C   UNL A   1      45.452  24.463  30.329  1.00  0.00     0.031 C 
ATOM     57  C   UNL A   1      45.653  26.410  31.849  1.00  0.00     0.031 A 
BRANCH  44  58
ATOM     58  C   UNL A   1      42.860  31.660  33.525  1.00  0.00    -0.014 A 
ATOM     59  C   UNL A   1      42.151  31.788  34.730  1.00  0.00     0.009 A 
ATOM     60  C   UNL A   1      43.652  32.733  33.088  1.00  0.00     0.009 A 
ATOM     61  C   UNL A   1      42.198  32.979  35.456  1.00  0.00     0.001 A 
ATOM     62  C   UNL A   1      43.723  33.912  33.833  1.00  0.00     0.001 A 
ATOM     63  C   UNL A   1      42.987  34.039  35.011  1.00  0.00     0.000 A 
ENDBRANCH  44  58
BRANCH  45  64
ATOM     64  C   UNL A   1      42.303  23.593  27.676  1.00  0.00    -0.014 A 
ATOM     65  C   UNL A   1      42.779  23.645  26.357  1.00  0.00     0.009 A 
ATOM     66  C   UNL A   1      41.757  22.393  28.154  1.00  0.00     0.009 A 
ATOM     67  C   UNL A   1      42.684  22.527  25.526  1.00  0.00     0.001 A 
ATOM     68  C   UNL A   1      41.689  21.268  27.329  1.00  0.00     0.001 A 
ATOM     69  C   UNL A   1      42.143  21.339  26.013  1.00  0.00     0.000 A 
ENDBRANCH  45  64
BRANCH  57  70
ATOM     70  C   UNL A   1      46.940  25.823  32.358  1.00  0.00    -0.014 A 
ATOM     71  C   UNL A   1      48.164  26.084  31.723  1.00  0.00     0.009 A 
ATOM     72  C   UNL A   1      46.927  25.023  33.511  1.00  0.00     0.009 A 
ATOM     73  C   UNL A   1      49.346  25.524  32.215  1.00  0.00     0.001 A 
ATOM     74  C   UNL A   1      48.113  24.491  34.017  1.00  0.00     0.001 A 
ATOM     75  C   UNL A   1      49.320  24.733  33.364  1.00  0.00     0.000 A 
ENDBRANCH  57  70
ENDBRANCH  31  32
ENDBRANCH  23  26
ENDBRANCH  21  22
ENDBRANCH  20  21
ENDBRANCH   1  20
TORSDOF 13
ENDMDL
MODEL 3
REMARK VINA RESULT:      -9.8      4.274      9.650
REMARK SMILES C[C@@H]1[C@@H](C)CC[C@H]1[NH2+][C@@H](C)[C@@H](C)C(=O)NCCCNC(=O)c1ccc(-c2c3nc(c(-c4ccccc4)c4ccc([nH]4)c(-c4ccccc4)c4nc(c(-c5ccccc5)c5ccc2[nH]5)C=C4)C=C3)cc1
REMARK SMILES IDX 16 1 15 2 13 3 14 4 11 6 12 7 9 8 10 9 8 10 7 13 1 14 2 15
REMARK SMILES IDX 3 16 5 17 4 18 6 19 17 20 18 21 19 22 20 23 21 25 22 26
REMARK SMILES IDX 23 27 69 28 24 29 68 30 25 31 26 32 27 33 62 34 28 35 67 36
REMARK SMILES IDX 61 37 63 38 29 39 66 40 60 41 59 42 30 44 52 45 37 46 51 47
REMARK SMILES IDX 38 48 41 49 50 50 64 51 39 52 40 53 49 55 65 56 42 57 31 58
REMARK SMILES IDX 32 59 36 60 33 61 35 62 34 63 53 64 54 65 58 66 55 67 57 68
REMARK SMILES IDX 56 69 43 70 44 71 48 72 45 73 47 74 46 75
REMARK H PARENT 15 5 8 11 8 12 19 24 63 43 41 54
REMARK Flexibility Score: inf
ROOT
ATOM      1  C   UNL A   1      36.209  19.970  25.052  1.00  0.00     0.117 C 
ENDROOT
BRANCH   1   2
ATOM      2  N   UNL A   1      35.941  21.127  25.886  1.00  0.00    -0.356 N 
ATOM      3  C   UNL A   1      35.460  22.364  25.589  1.00  0.00     0.228 C 
ATOM      4  O   UNL A   1      35.292  23.139  26.537  1.00  0.00    -0.275 OA
ATOM      5  H   UNL A   1      36.144  20.993  26.840  1.00  0.00     0.163 HD
BRANCH   3   6
ATOM      6  C   UNL A   1      35.152  22.819  24.162  1.00  0.00     0.133 C 
ATOM      7  C   UNL A   1      36.448  23.109  23.403  1.00  0.00     0.024 C 
BRANCH   6   8
ATOM      8  C   UNL A   1      34.062  23.926  24.131  1.00  0.00     0.191 C 
ATOM      9  C   UNL A   1      33.484  24.008  22.705  1.00  0.00     0.076 C 
BRANCH   8  10
ATOM     10  N   UNL A   1      34.612  25.218  24.579  1.00  0.00    -0.341 N 
ATOM     11  H   UNL A   1      35.436  25.022  25.148  1.00  0.00     0.346 HD
ATOM     12  H   UNL A   1      34.802  25.743  23.725  1.00  0.00     0.346 HD
BRANCH  10  13
ATOM     13  C   UNL A   1      33.717  26.070  25.369  1.00  0.00     0.185 C 
ATOM     14  C   UNL A   1      33.903  28.284  24.087  1.00  0.00     0.014 C 
ATOM     15  C   UNL A   1      33.013  27.101  24.459  1.00  0.00     0.047 C 
ATOM     16  C   UNL A   1      31.762  27.544  25.250  1.00  0.00    -0.005 C 
ATOM     17  C   UNL A   1      31.500  26.438  26.275  1.00  0.00     0.010 C 
ATOM     18  C   UNL A   1      30.557  27.768  24.340  1.00  0.00     0.008 C 
ATOM     19  C   UNL A   1      32.525  25.349  26.001  1.00  0.00     0.065 C 
ENDBRANCH  10  13
ENDBRANCH   8  10
ENDBRANCH   6   8
ENDBRANCH   3   6
ENDBRANCH   1   2
BRANCH   1  20
ATOM     20  C   UNL A   1      37.674  19.858  24.641  1.00  0.00     0.042 C 
BRANCH  20  21
ATOM     21  C   UNL A   1      38.666  20.247  25.727  1.00  0.00     0.118 C 
BRANCH  21  22
ATOM     22  N   UNL A   1      39.807  19.348  25.797  1.00  0.00    -0.352 N 
ATOM     23  C   UNL A   1      41.122  19.593  26.097  1.00  0.00     0.251 C 
ATOM     24  H   UNL A   1      39.601  18.407  25.596  1.00  0.00     0.163 HD
ATOM     25  O   UNL A   1      41.959  18.711  25.901  1.00  0.00    -0.269 OA
BRANCH  23  26
ATOM     26  C   UNL A   1      41.554  20.901  26.636  1.00  0.00     0.039 A 
ATOM     27  C   UNL A   1      42.007  21.880  25.744  1.00  0.00     0.014 A 
ATOM     28  C   UNL A   1      41.567  21.157  28.008  1.00  0.00     0.014 A 
ATOM     29  C   UNL A   1      42.418  23.125  26.225  1.00  0.00     0.010 A 
ATOM     30  C   UNL A   1      41.889  22.428  28.479  1.00  0.00     0.010 A 
ATOM     31  C   UNL A   1      42.334  23.420  27.595  1.00  0.00    -0.014 A 
BRANCH  31  32
ATOM     32  C   UNL A   1      42.728  24.751  28.123  1.00  0.00     0.031 A 
ATOM     33  C   UNL A   1      41.685  25.814  28.349  1.00  0.00     0.074 A 
ATOM     34  C   UNL A   1      44.027  25.024  28.346  1.00  0.00     0.049 A 
ATOM     35  N   UNL A   1      41.840  27.049  28.757  1.00  0.00    -0.248 NA
ATOM     36  C   UNL A   1      40.290  25.452  28.050  1.00  0.00     0.031 C 
ATOM     37  C   UNL A   1      45.140  24.095  28.134  1.00  0.00     0.029 A 
ATOM     38  N   UNL A   1      44.634  26.169  28.801  1.00  0.00    -0.354 N 
ATOM     39  C   UNL A   1      40.571  27.614  28.736  1.00  0.00     0.074 A 
ATOM     40  C   UNL A   1      39.667  26.606  28.231  1.00  0.00     0.031 C 
ATOM     41  C   UNL A   1      46.286  24.694  28.493  1.00  0.00     0.029 A 
ATOM     42  C   UNL A   1      45.998  26.059  28.919  1.00  0.00     0.049 A 
ATOM     43  H   UNL A   1      44.137  26.990  29.021  1.00  0.00     0.167 HD
ATOM     44  C   UNL A   1      40.188  28.855  29.121  1.00  0.00     0.031 A 
ATOM     45  C   UNL A   1      46.914  26.958  29.326  1.00  0.00     0.031 A 
ATOM     46  C   UNL A   1      41.082  29.852  29.645  1.00  0.00     0.049 A 
ATOM     47  C   UNL A   1      46.463  28.329  29.743  1.00  0.00     0.074 A 
ATOM     48  C   UNL A   1      40.782  31.113  30.129  1.00  0.00     0.029 A 
ATOM     49  N   UNL A   1      42.456  29.700  29.751  1.00  0.00    -0.354 N 
ATOM     50  N   UNL A   1      45.250  28.824  29.787  1.00  0.00    -0.248 NA
ATOM     51  C   UNL A   1      47.512  29.264  30.177  1.00  0.00     0.031 C 
ATOM     52  C   UNL A   1      41.979  31.743  30.479  1.00  0.00     0.029 A 
ATOM     53  C   UNL A   1      43.020  30.854  30.268  1.00  0.00     0.049 A 
ATOM     54  H   UNL A   1      42.957  28.890  29.497  1.00  0.00     0.167 HD
ATOM     55  C   UNL A   1      45.385  30.113  30.286  1.00  0.00     0.074 A 
ATOM     56  C   UNL A   1      46.797  30.320  30.539  1.00  0.00     0.031 C 
ATOM     57  C   UNL A   1      44.426  31.042  30.516  1.00  0.00     0.031 A 
BRANCH  44  58
ATOM     58  C   UNL A   1      38.732  29.207  28.974  1.00  0.00    -0.014 A 
ATOM     59  C   UNL A   1      38.205  29.647  27.749  1.00  0.00     0.009 A 
ATOM     60  C   UNL A   1      37.869  29.071  30.073  1.00  0.00     0.009 A 
ATOM     61  C   UNL A   1      36.854  29.984  27.640  1.00  0.00     0.001 A 
ATOM     62  C   UNL A   1      36.513  29.379  29.952  1.00  0.00     0.001 A 
ATOM     63  C   UNL A   1      36.008  29.846  28.739  1.00  0.00     0.000 A 
ENDBRANCH  44  58
BRANCH  45  64
ATOM     64  C   UNL A   1      48.351  26.581  29.390  1.00  0.00    -0.014 A 
ATOM     65  C   UNL A   1      48.884  26.021  30.561  1.00  0.00     0.009 A 
ATOM     66  C   UNL A   1      49.197  26.786  28.290  1.00  0.00     0.009 A 
ATOM     67  C   UNL A   1      50.239  25.699  30.639  1.00  0.00     0.001 A 
ATOM     68  C   UNL A   1      50.547  26.436  28.360  1.00  0.00     0.001 A 
ATOM     69  C   UNL A   1      51.069  25.903  29.537  1.00  0.00     0.000 A 
ENDBRANCH  45  64
BRANCH  57  70
ATOM     70  C   UNL A   1      44.866  32.351  31.110  1.00  0.00    -0.014 A 
ATOM     71  C   UNL A   1      45.216  33.442  30.300  1.00  0.00     0.009 A 
ATOM     72  C   UNL A   1      44.899  32.501  32.506  1.00  0.00     0.009 A 
ATOM     73  C   UNL A   1      45.623  34.647  30.878  1.00  0.00     0.001 A 
ATOM     74  C   UNL A   1      45.276  33.715  33.079  1.00  0.00     0.001 A 
ATOM     75  C   UNL A   1      45.648  34.783  32.266  1.00  0.00     0.000 A 
ENDBRANCH  57  70
ENDBRANCH  31  32
ENDBRANCH  23  26
ENDBRANCH  21  22
ENDBRANCH  20  21
ENDBRANCH   1  20
TORSDOF 13
ENDMDL
