MODEL 1
REMARK VINA RESULT:     -12.1      0.000      0.000
REMARK SMILES COc1ccc(-c2cc(C[C@H]3CCCC3=O)ccc2[C@@H](C)C(=O)NCCCNC(=O)c2ccc(-c3c4nc(c(-c5ccccc5)c5ccc([nH]5)c(-c5ccccc5)c5nc(c(-c6ccccc6)c6ccc3[nH]6)C=C5)C=C4)cc2)cc1
REMARK SMILES IDX 25 1 24 2 22 3 23 4 20 6 21 7 19 8 7 9 8 10 9 11 18 12 17 13
REMARK SMILES IDX 6 14 3 15 4 16 80 17 5 18 79 19 2 20 1 21 10 22 11 23 12 24
REMARK SMILES IDX 15 25 13 26 14 27 16 28 26 29 27 30 28 31 29 32 30 34 31 35
REMARK SMILES IDX 32 36 78 37 33 38 77 39 34 40 35 41 36 42 71 43 37 44 76 45
REMARK SMILES IDX 70 46 72 47 38 48 75 49 69 50 68 51 39 53 61 54 46 55 60 56
REMARK SMILES IDX 47 57 50 58 59 59 73 60 48 61 49 62 58 64 74 65 51 66 40 67
REMARK SMILES IDX 41 68 45 69 42 70 44 71 43 72 62 73 63 74 67 75 64 76 66 77
REMARK SMILES IDX 65 78 52 79 53 80 57 81 54 82 56 83 55 84
REMARK H PARENT 24 5 28 33 72 52 50 63
REMARK Flexibility Score: inf
ROOT
ATOM      1  C   UNL A   1      36.518  19.602  25.005  1.00  0.00     0.117 C 
ENDROOT
BRANCH   1   2
ATOM      2  N   UNL A   1      36.178  20.827  25.701  1.00  0.00    -0.356 N 
ATOM      3  C   UNL A   1      35.719  22.034  25.270  1.00  0.00     0.227 C 
ATOM      4  O   UNL A   1      35.622  22.907  26.143  1.00  0.00    -0.274 OA
ATOM      5  H   UNL A   1      36.301  20.776  26.676  1.00  0.00     0.163 HD
BRANCH   3   6
ATOM      6  C   UNL A   1      35.344  22.359  23.812  1.00  0.00     0.106 C 
ATOM      7  C   UNL A   1      36.458  22.975  22.966  1.00  0.00     0.023 C 
BRANCH   6   8
ATOM      8  C   UNL A   1      33.982  23.041  23.689  1.00  0.00    -0.028 A 
ATOM      9  C   UNL A   1      32.776  22.391  24.045  1.00  0.00    -0.014 A 
ATOM     10  C   UNL A   1      31.566  23.120  24.014  1.00  0.00     0.012 A 
ATOM     11  C   UNL A   1      31.517  24.444  23.565  1.00  0.00    -0.047 A 
ATOM     12  C   UNL A   1      33.903  24.359  23.212  1.00  0.00     0.005 A 
ATOM     13  C   UNL A   1      32.701  25.062  23.174  1.00  0.00     0.004 A 
BRANCH   9  14
ATOM     14  C   UNL A   1      32.686  20.935  24.235  1.00  0.00    -0.018 A 
ATOM     15  C   UNL A   1      32.548  18.127  24.457  1.00  0.00     0.118 A 
ATOM     16  C   UNL A   1      32.444  18.736  23.210  1.00  0.00     0.047 A 
ATOM     17  C   UNL A   1      32.737  18.915  25.594  1.00  0.00     0.047 A 
ATOM     18  C   UNL A   1      32.507  20.123  23.101  1.00  0.00     0.012 A 
ATOM     19  C   UNL A   1      32.798  20.314  25.484  1.00  0.00     0.012 A 
BRANCH  15  20
ATOM     20  O   UNL A   1      32.493  16.761  24.428  1.00  0.00    -0.497 OA
ATOM     21  C   UNL A   1      32.909  16.098  25.614  1.00  0.00     0.278 C 
ENDBRANCH  15  20
ENDBRANCH   9  14
BRANCH  11  22
ATOM     22  C   UNL A   1      30.198  25.146  23.353  1.00  0.00     0.047 C 
BRANCH  22  23
ATOM     23  C   UNL A   1      29.792  26.105  24.482  1.00  0.00     0.060 C 
ATOM     24  C   UNL A   1      30.136  25.685  25.918  1.00  0.00     0.012 C 
ATOM     25  C   UNL A   1      30.502  27.436  24.372  1.00  0.00     0.136 C 
ATOM     26  C   UNL A   1      31.450  26.381  26.261  1.00  0.00     0.009 C 
ATOM     27  C   UNL A   1      31.371  27.731  25.565  1.00  0.00     0.076 C 
ATOM     28  O   UNL A   1      30.362  28.204  23.427  1.00  0.00    -0.299 OA
ENDBRANCH  22  23
ENDBRANCH  11  22
ENDBRANCH   6   8
ENDBRANCH   3   6
ENDBRANCH   1   2
BRANCH   1  29
ATOM     29  C   UNL A   1      38.008  19.526  24.671  1.00  0.00     0.042 C 
BRANCH  29  30
ATOM     30  C   UNL A   1      38.926  19.960  25.803  1.00  0.00     0.118 C 
BRANCH  30  31
ATOM     31  N   UNL A   1      40.157  19.185  25.835  1.00  0.00    -0.352 N 
ATOM     32  C   UNL A   1      41.455  19.574  26.053  1.00  0.00     0.251 C 
ATOM     33  H   UNL A   1      40.040  18.222  25.674  1.00  0.00     0.163 HD
ATOM     34  O   UNL A   1      42.361  18.777  25.816  1.00  0.00    -0.269 OA
BRANCH  32  35
ATOM     35  C   UNL A   1      41.788  20.927  26.558  1.00  0.00     0.039 A 
ATOM     36  C   UNL A   1      41.680  21.173  27.932  1.00  0.00     0.014 A 
ATOM     37  C   UNL A   1      42.131  21.973  25.697  1.00  0.00     0.014 A 
ATOM     38  C   UNL A   1      41.948  22.446  28.441  1.00  0.00     0.010 A 
ATOM     39  C   UNL A   1      42.482  23.220  26.214  1.00  0.00     0.010 A 
ATOM     40  C   UNL A   1      42.372  23.476  27.588  1.00  0.00    -0.014 A 
BRANCH  40  41
ATOM     41  C   UNL A   1      42.664  24.837  28.106  1.00  0.00     0.031 A 
ATOM     42  C   UNL A   1      44.067  25.205  28.511  1.00  0.00     0.074 A 
ATOM     43  C   UNL A   1      41.662  25.724  28.265  1.00  0.00     0.049 A 
ATOM     44  N   UNL A   1      44.508  26.317  29.044  1.00  0.00    -0.248 NA
ATOM     45  C   UNL A   1      45.105  24.179  28.317  1.00  0.00     0.031 C 
ATOM     46  C   UNL A   1      40.254  25.481  27.944  1.00  0.00     0.029 A 
ATOM     47  N   UNL A   1      41.678  27.011  28.741  1.00  0.00    -0.354 N 
ATOM     48  C   UNL A   1      45.864  26.113  29.272  1.00  0.00     0.074 A 
ATOM     49  C   UNL A   1      46.164  24.759  28.863  1.00  0.00     0.031 C 
ATOM     50  C   UNL A   1      39.547  26.592  28.208  1.00  0.00     0.029 A 
ATOM     51  C   UNL A   1      40.443  27.609  28.749  1.00  0.00     0.049 A 
ATOM     52  H   UNL A   1      42.498  27.461  29.048  1.00  0.00     0.167 HD
ATOM     53  C   UNL A   1      46.784  26.980  29.760  1.00  0.00     0.031 A 
ATOM     54  C   UNL A   1      40.070  28.839  29.150  1.00  0.00     0.031 A 
ATOM     55  C   UNL A   1      46.494  28.334  30.144  1.00  0.00     0.049 A 
ATOM     56  C   UNL A   1      41.110  29.786  29.681  1.00  0.00     0.074 A 
ATOM     57  C   UNL A   1      47.367  29.311  30.593  1.00  0.00     0.029 A 
ATOM     58  N   UNL A   1      45.232  28.906  30.119  1.00  0.00    -0.354 N 
ATOM     59  N   UNL A   1      42.398  29.597  29.835  1.00  0.00    -0.248 NA
ATOM     60  C   UNL A   1      40.644  31.121  30.082  1.00  0.00     0.031 C 
ATOM     61  C   UNL A   1      46.625  30.462  30.878  1.00  0.00     0.029 A 
ATOM     62  C   UNL A   1      45.300  30.216  30.560  1.00  0.00     0.049 A 
ATOM     63  H   UNL A   1      44.409  28.449  29.830  1.00  0.00     0.167 HD
ATOM     64  C   UNL A   1      42.900  30.795  30.324  1.00  0.00     0.074 A 
ATOM     65  C   UNL A   1      41.781  31.708  30.428  1.00  0.00     0.031 C 
ATOM     66  C   UNL A   1      44.176  31.111  30.655  1.00  0.00     0.031 A 
BRANCH  53  67
ATOM     67  C   UNL A   1      48.194  26.480  29.909  1.00  0.00    -0.014 A 
ATOM     68  C   UNL A   1      49.141  26.657  28.887  1.00  0.00     0.009 A 
ATOM     69  C   UNL A   1      48.589  25.846  31.097  1.00  0.00     0.009 A 
ATOM     70  C   UNL A   1      50.443  26.175  29.038  1.00  0.00     0.001 A 
ATOM     71  C   UNL A   1      49.900  25.392  31.257  1.00  0.00     0.001 A 
ATOM     72  C   UNL A   1      50.822  25.547  30.223  1.00  0.00     0.000 A 
ENDBRANCH  53  67
BRANCH  54  73
ATOM     73  C   UNL A   1      38.650  29.257  29.043  1.00  0.00    -0.014 A 
ATOM     74  C   UNL A   1      37.793  29.151  30.150  1.00  0.00     0.009 A 
ATOM     75  C   UNL A   1      38.141  29.764  27.837  1.00  0.00     0.009 A 
ATOM     76  C   UNL A   1      36.451  29.523  30.045  1.00  0.00     0.001 A 
ATOM     77  C   UNL A   1      36.805  30.160  27.742  1.00  0.00     0.001 A 
ATOM     78  C   UNL A   1      35.959  30.031  28.843  1.00  0.00     0.000 A 
ENDBRANCH  54  73
BRANCH  66  79
ATOM     79  C   UNL A   1      44.433  32.512  31.129  1.00  0.00    -0.014 A 
ATOM     80  C   UNL A   1      44.388  32.841  32.491  1.00  0.00     0.009 A 
ATOM     81  C   UNL A   1      44.766  33.509  30.196  1.00  0.00     0.009 A 
ATOM     82  C   UNL A   1      44.642  34.149  32.910  1.00  0.00     0.001 A 
ATOM     83  C   UNL A   1      45.046  34.808  30.620  1.00  0.00     0.001 A 
ATOM     84  C   UNL A   1      44.975  35.129  31.974  1.00  0.00     0.000 A 
ENDBRANCH  66  79
ENDBRANCH  40  41
ENDBRANCH  32  35
ENDBRANCH  30  31
ENDBRANCH  29  30
ENDBRANCH   1  29
TORSDOF 15
ENDMDL
MODEL 2
REMARK VINA RESULT:     -12.1      3.573      9.339
REMARK SMILES COc1ccc(-c2cc(C[C@H]3CCCC3=O)ccc2[C@@H](C)C(=O)NCCCNC(=O)c2ccc(-c3c4nc(c(-c5ccccc5)c5ccc([nH]5)c(-c5ccccc5)c5nc(c(-c6ccccc6)c6ccc3[nH]6)C=C5)C=C4)cc2)cc1
REMARK SMILES IDX 25 1 24 2 22 3 23 4 20 6 21 7 19 8 7 9 8 10 9 11 18 12 17 13
REMARK SMILES IDX 6 14 3 15 4 16 80 17 5 18 79 19 2 20 1 21 10 22 11 23 12 24
REMARK SMILES IDX 15 25 13 26 14 27 16 28 26 29 27 30 28 31 29 32 30 34 31 35
REMARK SMILES IDX 32 36 78 37 33 38 77 39 34 40 35 41 36 42 71 43 37 44 76 45
REMARK SMILES IDX 70 46 72 47 38 48 75 49 69 50 68 51 39 53 61 54 46 55 60 56
REMARK SMILES IDX 47 57 50 58 59 59 73 60 48 61 49 62 58 64 74 65 51 66 40 67
REMARK SMILES IDX 41 68 45 69 42 70 44 71 43 72 62 73 63 74 67 75 64 76 66 77
REMARK SMILES IDX 65 78 52 79 53 80 57 81 54 82 56 83 55 84
REMARK H PARENT 24 5 28 33 72 52 50 63
REMARK Flexibility Score: inf
ROOT
ATOM      1  C   UNL A   1      31.028  31.242  25.573  1.00  0.00     0.117 C 
ENDROOT
BRANCH   1   2
ATOM      2  N   UNL A   1      32.175  30.396  25.313  1.00  0.00    -0.356 N 
ATOM      3  C   UNL A   1      32.426  29.082  25.563  1.00  0.00     0.227 C 
ATOM      4  O   UNL A   1      33.571  28.697  25.288  1.00  0.00    -0.274 OA
ATOM      5  H   UNL A   1      32.918  30.862  24.868  1.00  0.00     0.163 HD
BRANCH   3   6
ATOM      6  C   UNL A   1      31.405  28.093  26.158  1.00  0.00     0.106 C 
ATOM      7  C   UNL A   1      31.397  27.991  27.683  1.00  0.00     0.023 C 
BRANCH   6   8
ATOM      8  C   UNL A   1      31.374  26.757  25.418  1.00  0.00    -0.028 A 
ATOM      9  C   UNL A   1      30.945  26.646  24.074  1.00  0.00    -0.014 A 
ATOM     10  C   UNL A   1      31.051  25.401  23.416  1.00  0.00     0.012 A 
ATOM     11  C   UNL A   1      31.495  24.253  24.083  1.00  0.00    -0.047 A 
ATOM     12  C   UNL A   1      31.786  25.586  26.075  1.00  0.00     0.005 A 
ATOM     13  C   UNL A   1      31.873  24.360  25.418  1.00  0.00     0.004 A 
BRANCH   9  14
ATOM     14  C   UNL A   1      30.190  27.710  23.393  1.00  0.00    -0.018 A 
ATOM     15  C   UNL A   1      28.632  29.727  22.185  1.00  0.00     0.118 A 
ATOM     16  C   UNL A   1      28.027  28.757  22.977  1.00  0.00     0.047 A 
ATOM     17  C   UNL A   1      30.017  29.704  22.005  1.00  0.00     0.047 A 
ATOM     18  C   UNL A   1      28.795  27.757  23.569  1.00  0.00     0.012 A 
ATOM     19  C   UNL A   1      30.792  28.695  22.602  1.00  0.00     0.012 A 
BRANCH  15  20
ATOM     20  O   UNL A   1      27.774  30.663  21.678  1.00  0.00    -0.497 OA
ATOM     21  C   UNL A   1      28.257  31.999  21.653  1.00  0.00     0.278 C 
ENDBRANCH  15  20
ENDBRANCH   9  14
BRANCH  11  22
ATOM     22  C   UNL A   1      31.420  22.895  23.431  1.00  0.00     0.047 C 
BRANCH  22  23
ATOM     23  C   UNL A   1      32.754  22.375  22.874  1.00  0.00     0.060 C 
ATOM     24  C   UNL A   1      33.769  23.420  22.390  1.00  0.00     0.012 C 
ATOM     25  C   UNL A   1      33.551  21.636  23.925  1.00  0.00     0.136 C 
ATOM     26  C   UNL A   1      34.732  23.647  23.551  1.00  0.00     0.009 C 
ATOM     27  C   UNL A   1      34.880  22.284  24.209  1.00  0.00     0.076 C 
ATOM     28  O   UNL A   1      33.170  20.605  24.466  1.00  0.00    -0.299 OA
ENDBRANCH  22  23
ENDBRANCH  11  22
ENDBRANCH   6   8
ENDBRANCH   3   6
ENDBRANCH   1   2
BRANCH   1  29
ATOM     29  C   UNL A   1      31.207  32.080  26.839  1.00  0.00     0.042 C 
BRANCH  29  30
ATOM     30  C   UNL A   1      32.568  32.747  26.960  1.00  0.00     0.118 C 
BRANCH  30  31
ATOM     31  N   UNL A   1      32.487  34.039  27.625  1.00  0.00    -0.352 N 
ATOM     32  C   UNL A   1      33.207  34.554  28.672  1.00  0.00     0.251 C 
ATOM     33  H   UNL A   1      31.801  34.644  27.262  1.00  0.00     0.163 HD
ATOM     34  O   UNL A   1      32.816  35.588  29.210  1.00  0.00    -0.269 OA
BRANCH  32  35
ATOM     35  C   UNL A   1      34.436  33.893  29.173  1.00  0.00     0.039 A 
ATOM     36  C   UNL A   1      35.650  34.167  28.532  1.00  0.00     0.014 A 
ATOM     37  C   UNL A   1      34.401  32.954  30.207  1.00  0.00     0.014 A 
ATOM     38  C   UNL A   1      36.824  33.534  28.950  1.00  0.00     0.010 A 
ATOM     39  C   UNL A   1      35.584  32.387  30.680  1.00  0.00     0.010 A 
ATOM     40  C   UNL A   1      36.805  32.653  30.042  1.00  0.00    -0.014 A 
BRANCH  40  41
ATOM     41  C   UNL A   1      38.039  31.969  30.504  1.00  0.00     0.031 A 
ATOM     42  C   UNL A   1      38.868  32.573  31.607  1.00  0.00     0.074 A 
ATOM     43  C   UNL A   1      38.445  30.836  29.899  1.00  0.00     0.049 A 
ATOM     44  N   UNL A   1      40.008  32.162  32.104  1.00  0.00    -0.248 NA
ATOM     45  C   UNL A   1      38.363  33.816  32.212  1.00  0.00     0.031 C 
ATOM     46  C   UNL A   1      37.753  30.167  28.796  1.00  0.00     0.029 A 
ATOM     47  N   UNL A   1      39.546  30.049  30.127  1.00  0.00    -0.354 N 
ATOM     48  C   UNL A   1      40.366  33.108  33.057  1.00  0.00     0.074 A 
ATOM     49  C   UNL A   1      39.349  34.136  33.037  1.00  0.00     0.031 C 
ATOM     50  C   UNL A   1      38.431  29.057  28.463  1.00  0.00     0.029 A 
ATOM     51  C   UNL A   1      39.621  28.957  29.300  1.00  0.00     0.049 A 
ATOM     52  H   UNL A   1      40.218  30.250  30.819  1.00  0.00     0.167 HD
ATOM     53  C   UNL A   1      41.436  33.114  33.889  1.00  0.00     0.031 A 
ATOM     54  C   UNL A   1      40.547  27.982  29.221  1.00  0.00     0.031 A 
ATOM     55  C   UNL A   1      42.434  32.081  33.927  1.00  0.00     0.049 A 
ATOM     56  C   UNL A   1      41.721  28.006  30.160  1.00  0.00     0.074 A 
ATOM     57  C   UNL A   1      43.524  31.963  34.774  1.00  0.00     0.029 A 
ATOM     58  N   UNL A   1      42.463  30.981  33.084  1.00  0.00    -0.354 N 
ATOM     59  N   UNL A   1      42.014  28.877  31.094  1.00  0.00    -0.248 NA
ATOM     60  C   UNL A   1      42.686  26.903  30.039  1.00  0.00     0.031 C 
ATOM     61  C   UNL A   1      44.234  30.813  34.415  1.00  0.00     0.029 A 
ATOM     62  C   UNL A   1      43.560  30.190  33.378  1.00  0.00     0.049 A 
ATOM     63  H   UNL A   1      41.802  30.792  32.380  1.00  0.00     0.167 HD
ATOM     64  C   UNL A   1      43.180  28.414  31.690  1.00  0.00     0.074 A 
ATOM     65  C   UNL A   1      43.532  27.179  31.021  1.00  0.00     0.031 C 
ATOM     66  C   UNL A   1      43.893  28.963  32.703  1.00  0.00     0.031 A 
BRANCH  53  67
ATOM     67  C   UNL A   1      41.579  34.283  34.823  1.00  0.00    -0.014 A 
ATOM     68  C   UNL A   1      42.255  35.450  34.429  1.00  0.00     0.009 A 
ATOM     69  C   UNL A   1      41.008  34.229  36.103  1.00  0.00     0.009 A 
ATOM     70  C   UNL A   1      42.389  36.522  35.314  1.00  0.00     0.001 A 
ATOM     71  C   UNL A   1      41.118  35.314  36.975  1.00  0.00     0.001 A 
ATOM     72  C   UNL A   1      41.818  36.455  36.584  1.00  0.00     0.000 A 
ENDBRANCH  53  67
BRANCH  54  73
ATOM     73  C   UNL A   1      40.390  26.887  28.232  1.00  0.00    -0.014 A 
ATOM     74  C   UNL A   1      39.652  25.737  28.557  1.00  0.00     0.009 A 
ATOM     75  C   UNL A   1      40.972  26.981  26.959  1.00  0.00     0.009 A 
ATOM     76  C   UNL A   1      39.521  24.696  27.636  1.00  0.00     0.001 A 
ATOM     77  C   UNL A   1      40.817  25.950  26.030  1.00  0.00     0.001 A 
ATOM     78  C   UNL A   1      40.098  24.805  26.372  1.00  0.00     0.000 A 
ENDBRANCH  54  73
BRANCH  66  79
ATOM     79  C   UNL A   1      45.107  28.213  33.171  1.00  0.00    -0.014 A 
ATOM     80  C   UNL A   1      46.375  28.471  32.632  1.00  0.00     0.009 A 
ATOM     81  C   UNL A   1      44.981  27.262  34.197  1.00  0.00     0.009 A 
ATOM     82  C   UNL A   1      47.493  27.769  33.090  1.00  0.00     0.001 A 
ATOM     83  C   UNL A   1      46.103  26.581  34.671  1.00  0.00     0.001 A 
ATOM     84  C   UNL A   1      47.355  26.829  34.112  1.00  0.00     0.000 A 
ENDBRANCH  66  79
ENDBRANCH  40  41
ENDBRANCH  32  35
ENDBRANCH  30  31
ENDBRANCH  29  30
ENDBRANCH   1  29
TORSDOF 15
ENDMDL
MODEL 3
REMARK VINA RESULT:     -12.0      3.948      9.346
REMARK SMILES COc1ccc(-c2cc(C[C@H]3CCCC3=O)ccc2[C@@H](C)C(=O)NCCCNC(=O)c2ccc(-c3c4nc(c(-c5ccccc5)c5ccc([nH]5)c(-c5ccccc5)c5nc(c(-c6ccccc6)c6ccc3[nH]6)C=C5)C=C4)cc2)cc1
REMARK SMILES IDX 25 1 24 2 22 3 23 4 20 6 21 7 19 8 7 9 8 10 9 11 18 12 17 13
REMARK SMILES IDX 6 14 3 15 4 16 80 17 5 18 79 19 2 20 1 21 10 22 11 23 12 24
REMARK SMILES IDX 15 25 13 26 14 27 16 28 26 29 27 30 28 31 29 32 30 34 31 35
REMARK SMILES IDX 32 36 78 37 33 38 77 39 34 40 35 41 36 42 71 43 37 44 76 45
REMARK SMILES IDX 70 46 72 47 38 48 75 49 69 50 68 51 39 53 61 54 46 55 60 56
REMARK SMILES IDX 47 57 50 58 59 59 73 60 48 61 49 62 58 64 74 65 51 66 40 67
REMARK SMILES IDX 41 68 45 69 42 70 44 71 43 72 62 73 63 74 67 75 64 76 66 77
REMARK SMILES IDX 65 78 52 79 53 80 57 81 54 82 56 83 55 84
REMARK H PARENT 24 5 28 33 72 52 50 63
REMARK Flexibility Score: inf
ROOT
ATOM      1  C   UNL A   1      31.036  31.073  25.342  1.00  0.00     0.117 C 
ENDROOT
BRANCH   1   2
ATOM      2  N   UNL A   1      32.209  30.231  25.216  1.00  0.00    -0.356 N 
ATOM      3  C   UNL A   1      32.457  28.939  25.563  1.00  0.00     0.227 C 
ATOM      4  O   UNL A   1      33.624  28.558  25.394  1.00  0.00    -0.274 OA
ATOM      5  H   UNL A   1      32.977  30.682  24.796  1.00  0.00     0.163 HD
BRANCH   3   6
ATOM      6  C   UNL A   1      31.410  27.971  26.145  1.00  0.00     0.106 C 
ATOM      7  C   UNL A   1      31.380  27.871  27.669  1.00  0.00     0.023 C 
BRANCH   6   8
ATOM      8  C   UNL A   1      31.361  26.636  25.404  1.00  0.00    -0.028 A 
ATOM      9  C   UNL A   1      30.904  26.528  24.068  1.00  0.00    -0.014 A 
ATOM     10  C   UNL A   1      30.995  25.283  23.408  1.00  0.00     0.012 A 
ATOM     11  C   UNL A   1      31.451  24.134  24.064  1.00  0.00    -0.047 A 
ATOM     12  C   UNL A   1      31.784  25.464  26.051  1.00  0.00     0.005 A 
ATOM     13  C   UNL A   1      31.856  24.239  25.391  1.00  0.00     0.004 A 
BRANCH   9  14
ATOM     14  C   UNL A   1      30.137  27.594  23.404  1.00  0.00    -0.018 A 
ATOM     15  C   UNL A   1      28.560  29.617  22.232  1.00  0.00     0.118 A 
ATOM     16  C   UNL A   1      27.973  28.660  23.054  1.00  0.00     0.047 A 
ATOM     17  C   UNL A   1      29.938  29.576  22.004  1.00  0.00     0.047 A 
ATOM     18  C   UNL A   1      28.750  27.658  23.629  1.00  0.00     0.012 A 
ATOM     19  C   UNL A   1      30.722  28.564  22.583  1.00  0.00     0.012 A 
BRANCH  15  20
ATOM     20  O   UNL A   1      27.695  30.558  21.747  1.00  0.00    -0.497 OA
ATOM     21  C   UNL A   1      28.248  31.500  20.839  1.00  0.00     0.278 C 
ENDBRANCH  15  20
ENDBRANCH   9  14
BRANCH  11  22
ATOM     22  C   UNL A   1      31.360  22.776  23.412  1.00  0.00     0.047 C 
BRANCH  22  23
ATOM     23  C   UNL A   1      32.689  22.238  22.862  1.00  0.00     0.060 C 
ATOM     24  C   UNL A   1      33.684  23.263  22.300  1.00  0.00     0.012 C 
ATOM     25  C   UNL A   1      33.512  21.568  23.939  1.00  0.00     0.136 C 
ATOM     26  C   UNL A   1      34.665  23.566  23.428  1.00  0.00     0.009 C 
ATOM     27  C   UNL A   1      34.839  22.244  24.161  1.00  0.00     0.076 C 
ATOM     28  O   UNL A   1      33.152  20.567  24.546  1.00  0.00    -0.299 OA
ENDBRANCH  22  23
ENDBRANCH  11  22
ENDBRANCH   6   8
ENDBRANCH   3   6
ENDBRANCH   1   2
BRANCH   1  29
ATOM     29  C   UNL A   1      31.063  31.908  26.621  1.00  0.00     0.042 C 
BRANCH  29  30
ATOM     30  C   UNL A   1      32.421  32.511  26.946  1.00  0.00     0.118 C 
BRANCH  30  31
ATOM     31  N   UNL A   1      32.313  33.891  27.397  1.00  0.00    -0.352 N 
ATOM     32  C   UNL A   1      32.993  34.570  28.375  1.00  0.00     0.251 C 
ATOM     33  H   UNL A   1      31.639  34.426  26.919  1.00  0.00     0.163 HD
ATOM     34  O   UNL A   1      32.581  35.672  28.729  1.00  0.00    -0.269 OA
BRANCH  32  35
ATOM     35  C   UNL A   1      34.205  34.005  29.017  1.00  0.00     0.039 A 
ATOM     36  C   UNL A   1      35.459  34.372  28.515  1.00  0.00     0.014 A 
ATOM     37  C   UNL A   1      34.125  33.067  30.049  1.00  0.00     0.014 A 
ATOM     38  C   UNL A   1      36.623  33.830  29.068  1.00  0.00     0.010 A 
ATOM     39  C   UNL A   1      35.286  32.593  30.657  1.00  0.00     0.010 A 
ATOM     40  C   UNL A   1      36.547  32.951  30.158  1.00  0.00    -0.014 A 
BRANCH  40  41
ATOM     41  C   UNL A   1      37.769  32.364  30.763  1.00  0.00     0.031 A 
ATOM     42  C   UNL A   1      38.418  31.159  30.134  1.00  0.00     0.074 A 
ATOM     43  C   UNL A   1      38.267  32.877  31.904  1.00  0.00     0.049 A 
ATOM     44  N   UNL A   1      39.449  30.465  30.547  1.00  0.00    -0.248 NA
ATOM     45  C   UNL A   1      37.811  30.650  28.893  1.00  0.00     0.031 C 
ATOM     46  C   UNL A   1      37.714  34.020  32.633  1.00  0.00     0.029 A 
ATOM     47  N   UNL A   1      39.352  32.498  32.655  1.00  0.00    -0.354 N 
ATOM     48  C   UNL A   1      39.595  29.427  29.634  1.00  0.00     0.074 A 
ATOM     49  C   UNL A   1      38.523  29.555  28.673  1.00  0.00     0.031 C 
ATOM     50  C   UNL A   1      38.478  34.265  33.710  1.00  0.00     0.029 A 
ATOM     51  C   UNL A   1      39.550  33.276  33.767  1.00  0.00     0.049 A 
ATOM     52  H   UNL A   1      39.932  31.738  32.416  1.00  0.00     0.167 HD
ATOM     53  C   UNL A   1      40.548  28.464  29.587  1.00  0.00     0.031 A 
ATOM     54  C   UNL A   1      40.489  33.202  34.730  1.00  0.00     0.031 A 
ATOM     55  C   UNL A   1      41.629  28.351  30.526  1.00  0.00     0.049 A 
ATOM     56  C   UNL A   1      41.539  32.130  34.652  1.00  0.00     0.074 A 
ATOM     57  C   UNL A   1      42.679  27.448  30.530  1.00  0.00     0.029 A 
ATOM     58  N   UNL A   1      41.803  29.172  31.629  1.00  0.00    -0.354 N 
ATOM     59  N   UNL A   1      41.697  31.193  33.749  1.00  0.00    -0.248 NA
ATOM     60  C   UNL A   1      42.548  32.115  35.720  1.00  0.00     0.031 C 
ATOM     61  C   UNL A   1      43.465  27.698  31.659  1.00  0.00     0.029 A 
ATOM     62  C   UNL A   1      42.932  28.786  32.330  1.00  0.00     0.049 A 
ATOM     63  H   UNL A   1      41.211  29.919  31.878  1.00  0.00     0.167 HD
ATOM     64  C   UNL A   1      42.837  30.494  34.125  1.00  0.00     0.074 A 
ATOM     65  C   UNL A   1      43.337  31.124  35.329  1.00  0.00     0.031 C 
ATOM     66  C   UNL A   1      43.417  29.427  33.525  1.00  0.00     0.031 A 
BRANCH  53  67
ATOM     67  C   UNL A   1      40.453  27.453  28.478  1.00  0.00    -0.014 A 
ATOM     68  C   UNL A   1      41.108  27.654  27.252  1.00  0.00     0.009 A 
ATOM     69  C   UNL A   1      39.721  26.272  28.670  1.00  0.00     0.009 A 
ATOM     70  C   UNL A   1      41.000  26.710  26.228  1.00  0.00     0.001 A 
ATOM     71  C   UNL A   1      39.639  25.316  27.656  1.00  0.00     0.001 A 
ATOM     72  C   UNL A   1      40.269  25.541  26.432  1.00  0.00     0.000 A 
ENDBRANCH  53  67
BRANCH  54  73
ATOM     73  C   UNL A   1      40.493  34.188  35.840  1.00  0.00    -0.014 A 
ATOM     74  C   UNL A   1      41.226  35.380  35.727  1.00  0.00     0.009 A 
ATOM     75  C   UNL A   1      39.766  33.947  37.016  1.00  0.00     0.009 A 
ATOM     76  C   UNL A   1      41.249  36.299  36.779  1.00  0.00     0.001 A 
ATOM     77  C   UNL A   1      39.770  34.880  38.055  1.00  0.00     0.001 A 
ATOM     78  C   UNL A   1      40.517  36.051  37.939  1.00  0.00     0.000 A 
ENDBRANCH  54  73
BRANCH  66  79
ATOM     79  C   UNL A   1      44.678  28.896  34.143  1.00  0.00    -0.014 A 
ATOM     80  C   UNL A   1      44.645  27.872  35.101  1.00  0.00     0.009 A 
ATOM     81  C   UNL A   1      45.920  29.403  33.727  1.00  0.00     0.009 A 
ATOM     82  C   UNL A   1      45.831  27.386  35.654  1.00  0.00     0.001 A 
ATOM     83  C   UNL A   1      47.105  28.896  34.262  1.00  0.00     0.001 A 
ATOM     84  C   UNL A   1      47.060  27.895  35.230  1.00  0.00     0.000 A 
ENDBRANCH  66  79
ENDBRANCH  40  41
ENDBRANCH  32  35
ENDBRANCH  30  31
ENDBRANCH  29  30
ENDBRANCH   1  29
TORSDOF 15
ENDMDL
