MODEL 1
REMARK VINA RESULT:     -11.6      0.000      0.000
REMARK SMILES CCOc1cccc(C(=O)Nc2ccc(Cl)c(C(=O)NCCCNC(=O)c3ccc(-c4c5nc(c(-c6ccccc6)c6ccc([nH]6)c(-c6ccccc6)c6nc(c(-c7ccccc7)c7ccc4[nH]7)C=C6)C=C5)cc3)c2)c1
REMARK SMILES IDX 21 1 20 2 18 3 19 4 17 6 12 7 13 8 75 9 14 10 15 11 16 12
REMARK SMILES IDX 11 13 9 14 10 15 8 17 4 18 5 19 76 20 6 21 7 22 3 23 2 24
REMARK SMILES IDX 1 25 22 26 23 27 24 28 25 29 26 31 27 32 28 33 74 34 29 35
REMARK SMILES IDX 73 36 30 37 31 38 32 39 67 40 33 41 72 42 66 43 68 44 34 45
REMARK SMILES IDX 71 46 65 47 64 48 35 50 57 51 42 52 56 53 43 54 46 55 55 56
REMARK SMILES IDX 69 57 44 58 45 59 54 61 70 62 47 63 36 64 37 65 41 66 38 67
REMARK SMILES IDX 40 68 39 69 58 70 59 71 63 72 60 73 62 74 61 75 48 76 49 77
REMARK SMILES IDX 53 78 50 79 52 80 51 81
REMARK H PARENT 20 5 11 16 24 30 68 49 46 60
REMARK Flexibility Score: inf
ROOT
ATOM      1  C   UNL A   1      31.584  30.590  26.631  1.00  0.00     0.118 C 
ENDROOT
BRANCH   1   2
ATOM      2  N   UNL A   1      32.322  30.312  25.418  1.00  0.00    -0.352 N 
ATOM      3  C   UNL A   1      32.317  29.263  24.532  1.00  0.00     0.252 C 
ATOM      4  O   UNL A   1      33.220  29.275  23.697  1.00  0.00    -0.269 OA
ATOM      5  H   UNL A   1      32.959  31.024  25.176  1.00  0.00     0.163 HD
BRANCH   3   6
ATOM      6  C   UNL A   1      31.298  28.164  24.531  1.00  0.00     0.060 A 
ATOM      7  C   UNL A   1      30.350  26.111  25.475  1.00  0.00     0.042 A 
ATOM      8  C   UNL A   1      29.373  26.090  24.487  1.00  0.00     0.028 A 
ATOM      9  C   UNL A   1      31.357  27.082  25.430  1.00  0.00     0.041 A 
ATOM     10  C   UNL A   1      29.310  27.128  23.562  1.00  0.00     0.023 A 
ATOM     11  C   UNL A   1      30.238  28.180  23.602  1.00  0.00     0.053 A 
ATOM     12  Cl  UNL A   1      29.915  29.482  22.508  1.00  0.00    -0.083 Cl
BRANCH   7  13
ATOM     13  N   UNL A   1      30.261  25.152  26.492  1.00  0.00    -0.322 N 
ATOM     14  C   UNL A   1      30.782  23.877  26.597  1.00  0.00     0.255 C 
ATOM     15  O   UNL A   1      30.332  23.135  27.471  1.00  0.00    -0.269 OA
ATOM     16  H   UNL A   1      29.731  25.437  27.272  1.00  0.00     0.170 HD
BRANCH  14  17
ATOM     17  C   UNL A   1      31.937  23.392  25.777  1.00  0.00     0.043 A 
ATOM     18  C   UNL A   1      34.267  23.411  25.092  1.00  0.00     0.120 A 
ATOM     19  C   UNL A   1      33.977  22.497  24.079  1.00  0.00     0.046 A 
ATOM     20  C   UNL A   1      33.262  23.806  25.981  1.00  0.00     0.060 A 
ATOM     21  C   UNL A   1      32.691  21.981  23.945  1.00  0.00     0.005 A 
ATOM     22  C   UNL A   1      31.670  22.441  24.780  1.00  0.00     0.014 A 
BRANCH  18  23
ATOM     23  O   UNL A   1      35.483  24.026  24.992  1.00  0.00    -0.494 OA
BRANCH  23  24
ATOM     24  C   UNL A   1      36.488  23.678  25.942  1.00  0.00     0.226 C 
ATOM     25  C   UNL A   1      37.453  22.630  25.411  1.00  0.00     0.049 C 
ENDBRANCH  23  24
ENDBRANCH  18  23
ENDBRANCH  14  17
ENDBRANCH   7  13
ENDBRANCH   3   6
ENDBRANCH   1   2
BRANCH   1  26
ATOM     26  C   UNL A   1      31.369  32.090  26.801  1.00  0.00     0.042 C 
BRANCH  26  27
ATOM     27  C   UNL A   1      32.680  32.837  26.984  1.00  0.00     0.118 C 
BRANCH  27  28
ATOM     28  N   UNL A   1      32.488  34.078  27.720  1.00  0.00    -0.352 N 
ATOM     29  C   UNL A   1      33.171  34.561  28.803  1.00  0.00     0.251 C 
ATOM     30  H   UNL A   1      31.761  34.655  27.390  1.00  0.00     0.163 HD
ATOM     31  O   UNL A   1      32.720  35.528  29.423  1.00  0.00    -0.269 OA
BRANCH  29  32
ATOM     32  C   UNL A   1      34.432  33.930  29.245  1.00  0.00     0.039 A 
ATOM     33  C   UNL A   1      35.622  34.282  28.601  1.00  0.00     0.014 A 
ATOM     34  C   UNL A   1      34.447  32.966  30.258  1.00  0.00     0.014 A 
ATOM     35  C   UNL A   1      36.824  33.691  28.992  1.00  0.00     0.010 A 
ATOM     36  C   UNL A   1      35.657  32.445  30.707  1.00  0.00     0.010 A 
ATOM     37  C   UNL A   1      36.853  32.781  30.060  1.00  0.00    -0.014 A 
BRANCH  37  38
ATOM     38  C   UNL A   1      38.123  32.137  30.476  1.00  0.00     0.031 A 
ATOM     39  C   UNL A   1      38.953  32.748  31.574  1.00  0.00     0.074 A 
ATOM     40  C   UNL A   1      38.545  31.024  29.847  1.00  0.00     0.049 A 
ATOM     41  N   UNL A   1      40.088  32.332  32.080  1.00  0.00    -0.248 NA
ATOM     42  C   UNL A   1      38.460  34.004  32.164  1.00  0.00     0.031 C 
ATOM     43  C   UNL A   1      37.858  30.366  28.734  1.00  0.00     0.029 A 
ATOM     44  N   UNL A   1      39.654  30.246  30.061  1.00  0.00    -0.354 N 
ATOM     45  C   UNL A   1      40.449  33.283  33.026  1.00  0.00     0.074 A 
ATOM     46  C   UNL A   1      39.447  34.324  32.986  1.00  0.00     0.031 C 
ATOM     47  C   UNL A   1      38.540  29.262  28.389  1.00  0.00     0.029 A 
ATOM     48  C   UNL A   1      39.724  29.151  29.236  1.00  0.00     0.049 A 
ATOM     49  H   UNL A   1      40.336  30.453  30.741  1.00  0.00     0.167 HD
ATOM     50  C   UNL A   1      41.508  33.281  33.872  1.00  0.00     0.031 A 
ATOM     51  C   UNL A   1      40.635  28.163  29.176  1.00  0.00     0.031 A 
ATOM     52  C   UNL A   1      42.493  32.236  33.926  1.00  0.00     0.049 A 
ATOM     53  C   UNL A   1      41.785  28.167  30.142  1.00  0.00     0.074 A 
ATOM     54  C   UNL A   1      43.571  32.109  34.786  1.00  0.00     0.029 A 
ATOM     55  N   UNL A   1      42.516  31.134  33.086  1.00  0.00    -0.354 N 
ATOM     56  N   UNL A   1      42.074  29.038  31.080  1.00  0.00    -0.248 NA
ATOM     57  C   UNL A   1      42.723  27.040  30.055  1.00  0.00     0.031 C 
ATOM     58  C   UNL A   1      44.270  30.949  34.437  1.00  0.00     0.029 A 
ATOM     59  C   UNL A   1      43.600  30.329  33.396  1.00  0.00     0.049 A 
ATOM     60  H   UNL A   1      41.861  30.952  32.375  1.00  0.00     0.167 HD
ATOM     61  C   UNL A   1      43.211  28.551  31.710  1.00  0.00     0.074 A 
ATOM     62  C   UNL A   1      43.546  27.299  31.061  1.00  0.00     0.031 C 
ATOM     63  C   UNL A   1      43.918  29.091  32.733  1.00  0.00     0.031 A 
BRANCH  50  64
ATOM     64  C   UNL A   1      41.645  34.454  34.803  1.00  0.00    -0.014 A 
ATOM     65  C   UNL A   1      42.398  35.584  34.446  1.00  0.00     0.009 A 
ATOM     66  C   UNL A   1      41.002  34.435  36.051  1.00  0.00     0.009 A 
ATOM     67  C   UNL A   1      42.538  36.653  35.334  1.00  0.00     0.001 A 
ATOM     68  C   UNL A   1      41.120  35.517  36.925  1.00  0.00     0.001 A 
ATOM     69  C   UNL A   1      41.897  36.620  36.572  1.00  0.00     0.000 A 
ENDBRANCH  50  64
BRANCH  51  70
ATOM     70  C   UNL A   1      40.475  27.063  28.190  1.00  0.00    -0.014 A 
ATOM     71  C   UNL A   1      41.054  27.160  26.916  1.00  0.00     0.009 A 
ATOM     72  C   UNL A   1      39.744  25.911  28.518  1.00  0.00     0.009 A 
ATOM     73  C   UNL A   1      40.881  26.139  25.979  1.00  0.00     0.001 A 
ATOM     74  C   UNL A   1      39.595  24.878  27.588  1.00  0.00     0.001 A 
ATOM     75  C   UNL A   1      40.155  24.997  26.317  1.00  0.00     0.000 A 
ENDBRANCH  51  70
BRANCH  63  76
ATOM     76  C   UNL A   1      45.102  28.309  33.227  1.00  0.00    -0.014 A 
ATOM     77  C   UNL A   1      44.963  27.322  34.216  1.00  0.00     0.009 A 
ATOM     78  C   UNL A   1      46.371  28.554  32.682  1.00  0.00     0.009 A 
ATOM     79  C   UNL A   1      46.081  26.627  34.679  1.00  0.00     0.001 A 
ATOM     80  C   UNL A   1      47.482  27.837  33.127  1.00  0.00     0.001 A 
ATOM     81  C   UNL A   1      47.339  26.884  34.133  1.00  0.00     0.000 A 
ENDBRANCH  63  76
ENDBRANCH  37  38
ENDBRANCH  29  32
ENDBRANCH  27  28
ENDBRANCH  26  27
ENDBRANCH   1  26
TORSDOF 14
ENDMDL
MODEL 2
REMARK VINA RESULT:     -11.4      0.592      5.919
REMARK SMILES CCOc1cccc(C(=O)Nc2ccc(Cl)c(C(=O)NCCCNC(=O)c3ccc(-c4c5nc(c(-c6ccccc6)c6ccc([nH]6)c(-c6ccccc6)c6nc(c(-c7ccccc7)c7ccc4[nH]7)C=C6)C=C5)cc3)c2)c1
REMARK SMILES IDX 21 1 20 2 18 3 19 4 17 6 12 7 13 8 75 9 14 10 15 11 16 12
REMARK SMILES IDX 11 13 9 14 10 15 8 17 4 18 5 19 76 20 6 21 7 22 3 23 2 24
REMARK SMILES IDX 1 25 22 26 23 27 24 28 25 29 26 31 27 32 28 33 74 34 29 35
REMARK SMILES IDX 73 36 30 37 31 38 32 39 67 40 33 41 72 42 66 43 68 44 34 45
REMARK SMILES IDX 71 46 65 47 64 48 35 50 57 51 42 52 56 53 43 54 46 55 55 56
REMARK SMILES IDX 69 57 44 58 45 59 54 61 70 62 47 63 36 64 37 65 41 66 38 67
REMARK SMILES IDX 40 68 39 69 58 70 59 71 63 72 60 73 62 74 61 75 48 76 49 77
REMARK SMILES IDX 53 78 50 79 52 80 51 81
REMARK H PARENT 20 5 11 16 24 30 68 49 46 60
REMARK Flexibility Score: inf
ROOT
ATOM      1  C   UNL A   1      31.587  30.443  26.511  1.00  0.00     0.118 C 
ENDROOT
BRANCH   1   2
ATOM      2  N   UNL A   1      32.301  30.112  25.297  1.00  0.00    -0.352 N 
ATOM      3  C   UNL A   1      32.233  29.053  24.424  1.00  0.00     0.252 C 
ATOM      4  O   UNL A   1      33.130  29.007  23.583  1.00  0.00    -0.269 OA
ATOM      5  H   UNL A   1      32.973  30.784  25.043  1.00  0.00     0.163 HD
BRANCH   3   6
ATOM      6  C   UNL A   1      31.157  28.011  24.444  1.00  0.00     0.060 A 
ATOM      7  C   UNL A   1      30.108  26.023  25.417  1.00  0.00     0.042 A 
ATOM      8  C   UNL A   1      29.122  26.043  24.437  1.00  0.00     0.028 A 
ATOM      9  C   UNL A   1      31.165  26.937  25.354  1.00  0.00     0.041 A 
ATOM     10  C   UNL A   1      29.108  27.073  23.501  1.00  0.00     0.023 A 
ATOM     11  C   UNL A   1      30.091  28.074  23.523  1.00  0.00     0.053 A 
ATOM     12  Cl  UNL A   1      29.829  29.380  22.417  1.00  0.00    -0.083 Cl
BRANCH   7  13
ATOM     13  N   UNL A   1      29.976  25.080  26.446  1.00  0.00    -0.322 N 
ATOM     14  C   UNL A   1      30.361  23.756  26.531  1.00  0.00     0.255 C 
ATOM     15  O   UNL A   1      29.885  23.069  27.435  1.00  0.00    -0.269 OA
ATOM     16  H   UNL A   1      29.527  25.423  27.253  1.00  0.00     0.170 HD
BRANCH  14  17
ATOM     17  C   UNL A   1      31.406  23.147  25.649  1.00  0.00     0.043 A 
ATOM     18  C   UNL A   1      33.628  22.272  25.209  1.00  0.00     0.120 A 
ATOM     19  C   UNL A   1      33.313  22.146  23.856  1.00  0.00     0.046 A 
ATOM     20  C   UNL A   1      32.656  22.709  26.113  1.00  0.00     0.060 A 
ATOM     21  C   UNL A   1      32.034  22.459  23.402  1.00  0.00     0.005 A 
ATOM     22  C   UNL A   1      31.089  22.975  24.292  1.00  0.00     0.014 A 
BRANCH  18  23
ATOM     23  O   UNL A   1      34.958  22.167  25.508  1.00  0.00    -0.494 OA
BRANCH  23  24
ATOM     24  C   UNL A   1      35.597  23.288  26.114  1.00  0.00     0.226 C 
ATOM     25  C   UNL A   1      36.862  23.703  25.381  1.00  0.00     0.049 C 
ENDBRANCH  23  24
ENDBRANCH  18  23
ENDBRANCH  14  17
ENDBRANCH   7  13
ENDBRANCH   3   6
ENDBRANCH   1   2
BRANCH   1  26
ATOM     26  C   UNL A   1      31.429  31.954  26.649  1.00  0.00     0.042 C 
BRANCH  26  27
ATOM     27  C   UNL A   1      32.747  32.638  26.974  1.00  0.00     0.118 C 
BRANCH  27  28
ATOM     28  N   UNL A   1      32.535  33.919  27.631  1.00  0.00    -0.352 N 
ATOM     29  C   UNL A   1      33.192  34.469  28.698  1.00  0.00     0.251 C 
ATOM     30  H   UNL A   1      31.812  34.471  27.253  1.00  0.00     0.163 HD
ATOM     31  O   UNL A   1      32.725  35.469  29.250  1.00  0.00    -0.269 OA
BRANCH  29  32
ATOM     32  C   UNL A   1      34.446  33.871  29.203  1.00  0.00     0.039 A 
ATOM     33  C   UNL A   1      34.377  32.954  30.256  1.00  0.00     0.014 A 
ATOM     34  C   UNL A   1      35.689  34.235  28.677  1.00  0.00     0.014 A 
ATOM     35  C   UNL A   1      35.547  32.384  30.759  1.00  0.00     0.010 A 
ATOM     36  C   UNL A   1      36.846  33.600  29.118  1.00  0.00     0.010 A 
ATOM     37  C   UNL A   1      36.790  32.690  30.182  1.00  0.00    -0.014 A 
BRANCH  37  38
ATOM     38  C   UNL A   1      38.042  32.101  30.716  1.00  0.00     0.031 A 
ATOM     39  C   UNL A   1      38.616  30.857  30.089  1.00  0.00     0.074 A 
ATOM     40  C   UNL A   1      38.644  32.663  31.780  1.00  0.00     0.049 A 
ATOM     41  N   UNL A   1      39.700  30.196  30.411  1.00  0.00    -0.248 NA
ATOM     42  C   UNL A   1      37.861  30.261  28.975  1.00  0.00     0.031 C 
ATOM     43  C   UNL A   1      38.158  33.837  32.508  1.00  0.00     0.029 A 
ATOM     44  N   UNL A   1      39.801  32.322  32.431  1.00  0.00    -0.354 N 
ATOM     45  C   UNL A   1      39.742  29.103  29.555  1.00  0.00     0.074 A 
ATOM     46  C   UNL A   1      38.550  29.156  28.740  1.00  0.00     0.031 C 
ATOM     47  C   UNL A   1      39.032  34.143  33.480  1.00  0.00     0.029 A 
ATOM     48  C   UNL A   1      40.122  33.172  33.462  1.00  0.00     0.049 A 
ATOM     49  H   UNL A   1      40.351  31.543  32.184  1.00  0.00     0.167 HD
ATOM     50  C   UNL A   1      40.699  28.151  29.439  1.00  0.00     0.031 A 
ATOM     51  C   UNL A   1      41.180  33.173  34.292  1.00  0.00     0.031 A 
ATOM     52  C   UNL A   1      41.895  28.109  30.235  1.00  0.00     0.049 A 
ATOM     53  C   UNL A   1      42.242  32.124  34.126  1.00  0.00     0.074 A 
ATOM     54  C   UNL A   1      42.955  27.222  30.156  1.00  0.00     0.029 A 
ATOM     55  N   UNL A   1      42.191  29.000  31.254  1.00  0.00    -0.354 N 
ATOM     56  N   UNL A   1      42.302  31.137  33.264  1.00  0.00    -0.248 NA
ATOM     57  C   UNL A   1      43.393  32.201  35.036  1.00  0.00     0.031 C 
ATOM     58  C   UNL A   1      43.874  27.553  31.158  1.00  0.00     0.029 A 
ATOM     59  C   UNL A   1      43.410  28.675  31.826  1.00  0.00     0.049 A 
ATOM     60  H   UNL A   1      41.619  29.751  31.532  1.00  0.00     0.167 HD
ATOM     61  C   UNL A   1      43.507  30.492  33.510  1.00  0.00     0.074 A 
ATOM     62  C   UNL A   1      44.155  31.214  34.588  1.00  0.00     0.031 C 
ATOM     63  C   UNL A   1      44.032  29.401  32.901  1.00  0.00     0.031 A 
BRANCH  50  64
ATOM     64  C   UNL A   1      40.479  27.077  28.409  1.00  0.00    -0.014 A 
ATOM     65  C   UNL A   1      41.032  27.179  27.121  1.00  0.00     0.009 A 
ATOM     66  C   UNL A   1      39.720  25.942  28.733  1.00  0.00     0.009 A 
ATOM     67  C   UNL A   1      40.795  26.186  26.168  1.00  0.00     0.001 A 
ATOM     68  C   UNL A   1      39.509  24.937  27.787  1.00  0.00     0.001 A 
ATOM     69  C   UNL A   1      40.037  25.064  26.502  1.00  0.00     0.000 A 
ENDBRANCH  50  64
BRANCH  51  70
ATOM     70  C   UNL A   1      41.310  34.227  35.331  1.00  0.00    -0.014 A 
ATOM     71  C   UNL A   1      40.776  34.030  36.614  1.00  0.00     0.009 A 
ATOM     72  C   UNL A   1      41.967  35.434  35.047  1.00  0.00     0.009 A 
ATOM     73  C   UNL A   1      40.872  35.032  37.582  1.00  0.00     0.001 A 
ATOM     74  C   UNL A   1      42.086  36.423  36.026  1.00  0.00     0.001 A 
ATOM     75  C   UNL A   1      41.531  36.225  37.289  1.00  0.00     0.000 A 
ENDBRANCH  51  70
BRANCH  63  76
ATOM     76  C   UNL A   1      45.385  28.947  33.371  1.00  0.00    -0.014 A 
ATOM     77  C   UNL A   1      45.523  28.083  34.469  1.00  0.00     0.009 A 
ATOM     78  C   UNL A   1      46.536  29.377  32.694  1.00  0.00     0.009 A 
ATOM     79  C   UNL A   1      46.791  27.696  34.906  1.00  0.00     0.001 A 
ATOM     80  C   UNL A   1      47.801  28.964  33.115  1.00  0.00     0.001 A 
ATOM     81  C   UNL A   1      47.927  28.135  34.227  1.00  0.00     0.000 A 
ENDBRANCH  63  76
ENDBRANCH  37  38
ENDBRANCH  29  32
ENDBRANCH  27  28
ENDBRANCH  26  27
ENDBRANCH   1  26
TORSDOF 14
ENDMDL
MODEL 3
REMARK VINA RESULT:     -11.4      2.700      4.985
REMARK SMILES CCOc1cccc(C(=O)Nc2ccc(Cl)c(C(=O)NCCCNC(=O)c3ccc(-c4c5nc(c(-c6ccccc6)c6ccc([nH]6)c(-c6ccccc6)c6nc(c(-c7ccccc7)c7ccc4[nH]7)C=C6)C=C5)cc3)c2)c1
REMARK SMILES IDX 21 1 20 2 18 3 19 4 17 6 12 7 13 8 75 9 14 10 15 11 16 12
REMARK SMILES IDX 11 13 9 14 10 15 8 17 4 18 5 19 76 20 6 21 7 22 3 23 2 24
REMARK SMILES IDX 1 25 22 26 23 27 24 28 25 29 26 31 27 32 28 33 74 34 29 35
REMARK SMILES IDX 73 36 30 37 31 38 32 39 67 40 33 41 72 42 66 43 68 44 34 45
REMARK SMILES IDX 71 46 65 47 64 48 35 50 57 51 42 52 56 53 43 54 46 55 55 56
REMARK SMILES IDX 69 57 44 58 45 59 54 61 70 62 47 63 36 64 37 65 41 66 38 67
REMARK SMILES IDX 40 68 39 69 58 70 59 71 63 72 60 73 62 74 61 75 48 76 49 77
REMARK SMILES IDX 53 78 50 79 52 80 51 81
REMARK H PARENT 20 5 11 16 24 30 68 49 46 60
REMARK Flexibility Score: inf
ROOT
ATOM      1  C   UNL A   1      31.778  26.816  26.302  1.00  0.00     0.118 C 
ENDROOT
BRANCH   1   2
ATOM      2  N   UNL A   1      31.424  25.552  26.911  1.00  0.00    -0.352 N 
ATOM      3  C   UNL A   1      31.602  24.243  26.535  1.00  0.00     0.252 C 
ATOM      4  O   UNL A   1      31.004  23.414  27.218  1.00  0.00    -0.269 OA
ATOM      5  H   UNL A   1      30.961  25.651  27.774  1.00  0.00     0.163 HD
BRANCH   3   6
ATOM      6  C   UNL A   1      32.465  23.804  25.392  1.00  0.00     0.060 A 
ATOM      7  C   UNL A   1      33.031  23.787  23.008  1.00  0.00     0.042 A 
ATOM      8  C   UNL A   1      34.102  22.935  23.252  1.00  0.00     0.028 A 
ATOM      9  C   UNL A   1      32.168  24.130  24.055  1.00  0.00     0.041 A 
ATOM     10  C   UNL A   1      34.401  22.567  24.561  1.00  0.00     0.023 A 
ATOM     11  C   UNL A   1      33.616  23.026  25.630  1.00  0.00     0.053 A 
ATOM     12  Cl  UNL A   1      34.225  22.633  27.203  1.00  0.00    -0.083 Cl
BRANCH   7  13
ATOM     13  N   UNL A   1      32.881  24.279  21.705  1.00  0.00    -0.322 N 
ATOM     14  C   UNL A   1      32.443  25.500  21.231  1.00  0.00     0.255 C 
ATOM     15  O   UNL A   1      32.143  25.588  20.040  1.00  0.00    -0.269 OA
ATOM     16  H   UNL A   1      33.134  23.639  20.999  1.00  0.00     0.170 HD
BRANCH  14  17
ATOM     17  C   UNL A   1      32.417  26.743  22.065  1.00  0.00     0.043 A 
ATOM     18  C   UNL A   1      31.285  28.564  23.205  1.00  0.00     0.120 A 
ATOM     19  C   UNL A   1      32.518  29.144  23.506  1.00  0.00     0.046 A 
ATOM     20  C   UNL A   1      31.238  27.333  22.544  1.00  0.00     0.060 A 
ATOM     21  C   UNL A   1      33.701  28.503  23.146  1.00  0.00     0.005 A 
ATOM     22  C   UNL A   1      33.651  27.317  22.412  1.00  0.00     0.014 A 
BRANCH  18  23
ATOM     23  O   UNL A   1      30.200  29.374  23.390  1.00  0.00    -0.494 OA
BRANCH  23  24
ATOM     24  C   UNL A   1      29.129  29.280  22.454  1.00  0.00     0.226 C 
ATOM     25  C   UNL A   1      27.891  30.038  22.908  1.00  0.00     0.049 C 
ENDBRANCH  23  24
ENDBRANCH  18  23
ENDBRANCH  14  17
ENDBRANCH   7  13
ENDBRANCH   3   6
ENDBRANCH   1   2
BRANCH   1  26
ATOM     26  C   UNL A   1      32.022  27.879  27.368  1.00  0.00     0.042 C 
BRANCH  26  27
ATOM     27  C   UNL A   1      33.404  28.500  27.248  1.00  0.00     0.118 C 
BRANCH  27  28
ATOM     28  N   UNL A   1      33.361  29.941  27.452  1.00  0.00    -0.352 N 
ATOM     29  C   UNL A   1      34.292  30.767  28.020  1.00  0.00     0.251 C 
ATOM     30  H   UNL A   1      32.542  30.386  27.135  1.00  0.00     0.163 HD
ATOM     31  O   UNL A   1      33.982  31.928  28.302  1.00  0.00    -0.269 OA
BRANCH  29  32
ATOM     32  C   UNL A   1      35.657  30.281  28.310  1.00  0.00     0.039 A 
ATOM     33  C   UNL A   1      35.927  29.755  29.578  1.00  0.00     0.014 A 
ATOM     34  C   UNL A   1      36.680  30.376  27.362  1.00  0.00     0.014 A 
ATOM     35  C   UNL A   1      37.211  29.300  29.881  1.00  0.00     0.010 A 
ATOM     36  C   UNL A   1      37.935  29.839  27.636  1.00  0.00     0.010 A 
ATOM     37  C   UNL A   1      38.221  29.323  28.906  1.00  0.00    -0.014 A 
BRANCH  37  38
ATOM     38  C   UNL A   1      39.592  28.854  29.221  1.00  0.00     0.031 A 
ATOM     39  C   UNL A   1      40.529  29.734  30.006  1.00  0.00     0.074 A 
ATOM     40  C   UNL A   1      40.005  27.653  28.776  1.00  0.00     0.049 A 
ATOM     41  N   UNL A   1      41.761  29.500  30.383  1.00  0.00    -0.248 NA
ATOM     42  C   UNL A   1      40.026  31.062  30.396  1.00  0.00     0.031 C 
ATOM     43  C   UNL A   1      39.212  26.731  27.961  1.00  0.00     0.029 A 
ATOM     44  N   UNL A   1      41.199  27.000  28.951  1.00  0.00    -0.354 N 
ATOM     45  C   UNL A   1      42.183  30.654  31.031  1.00  0.00     0.074 A 
ATOM     46  C   UNL A   1      41.099  31.607  30.949  1.00  0.00     0.031 C 
ATOM     47  C   UNL A   1      39.925  25.615  27.742  1.00  0.00     0.029 A 
ATOM     48  C   UNL A   1      41.233  25.754  28.374  1.00  0.00     0.049 A 
ATOM     49  H   UNL A   1      41.958  27.387  29.444  1.00  0.00     0.167 HD
ATOM     50  C   UNL A   1      43.358  30.894  31.661  1.00  0.00     0.031 A 
ATOM     51  C   UNL A   1      42.206  24.826  28.365  1.00  0.00     0.031 A 
ATOM     52  C   UNL A   1      44.427  29.939  31.762  1.00  0.00     0.049 A 
ATOM     53  C   UNL A   1      43.490  25.103  29.094  1.00  0.00     0.074 A 
ATOM     54  C   UNL A   1      45.635  30.061  32.428  1.00  0.00     0.029 A 
ATOM     55  N   UNL A   1      44.415  28.681  31.180  1.00  0.00    -0.354 N 
ATOM     56  N   UNL A   1      43.846  26.173  29.764  1.00  0.00    -0.248 NA
ATOM     57  C   UNL A   1      44.498  24.035  29.083  1.00  0.00     0.031 C 
ATOM     58  C   UNL A   1      46.370  28.890  32.214  1.00  0.00     0.029 A 
ATOM     59  C   UNL A   1      45.600  28.021  31.458  1.00  0.00     0.049 A 
ATOM     60  H   UNL A   1      43.673  28.312  30.647  1.00  0.00     0.167 HD
ATOM     61  C   UNL A   1      45.107  25.897  30.275  1.00  0.00     0.074 A 
ATOM     62  C   UNL A   1      45.443  24.551  29.854  1.00  0.00     0.031 C 
ATOM     63  C   UNL A   1      45.917  26.685  31.024  1.00  0.00     0.031 A 
BRANCH  50  64
ATOM     64  C   UNL A   1      43.538  32.249  32.289  1.00  0.00    -0.014 A 
ATOM     65  C   UNL A   1      43.148  32.495  33.615  1.00  0.00     0.009 A 
ATOM     66  C   UNL A   1      44.118  33.290  31.548  1.00  0.00     0.009 A 
ATOM     67  C   UNL A   1      43.296  33.767  34.173  1.00  0.00     0.001 A 
ATOM     68  C   UNL A   1      44.292  34.553  32.118  1.00  0.00     0.001 A 
ATOM     69  C   UNL A   1      43.871  34.794  33.426  1.00  0.00     0.000 A 
ENDBRANCH  50  64
BRANCH  51  70
ATOM     70  C   UNL A   1      41.989  23.528  27.675  1.00  0.00    -0.014 A 
ATOM     71  C   UNL A   1      41.380  22.458  28.349  1.00  0.00     0.009 A 
ATOM     72  C   UNL A   1      42.389  23.352  26.342  1.00  0.00     0.009 A 
ATOM     73  C   UNL A   1      41.202  21.229  27.711  1.00  0.00     0.001 A 
ATOM     74  C   UNL A   1      42.184  22.129  25.697  1.00  0.00     0.001 A 
ATOM     75  C   UNL A   1      41.601  21.066  26.384  1.00  0.00     0.000 A 
ENDBRANCH  51  70
BRANCH  63  76
ATOM     76  C   UNL A   1      47.228  26.094  31.457  1.00  0.00    -0.014 A 
ATOM     77  C   UNL A   1      47.382  25.512  32.725  1.00  0.00     0.009 A 
ATOM     78  C   UNL A   1      48.320  26.106  30.576  1.00  0.00     0.009 A 
ATOM     79  C   UNL A   1      48.617  24.994  33.117  1.00  0.00     0.001 A 
ATOM     80  C   UNL A   1      49.545  25.560  30.960  1.00  0.00     0.001 A 
ATOM     81  C   UNL A   1      49.696  25.017  32.234  1.00  0.00     0.000 A 
ENDBRANCH  63  76
ENDBRANCH  37  38
ENDBRANCH  29  32
ENDBRANCH  27  28
ENDBRANCH  26  27
ENDBRANCH   1  26
TORSDOF 14
ENDMDL
