MODEL 1
REMARK VINA RESULT:     -11.6      0.000      0.000
REMARK SMILES COc1ccc(C(=O)NCCCNC(=O)c2ccc(-c3c4nc(c(-c5ccccc5)c5ccc([nH]5)c(-c5ccccc5)c5nc(c(-c6ccccc6)c6ccc3[nH]6)C=C5)C=C4)cc2)cc1NC(=O)c1ccccc1Cl
REMARK SMILES IDX 11 1 10 2 9 3 7 4 8 5 6 7 3 8 4 9 65 10 5 11 64 12 2 13 1 14
REMARK SMILES IDX 66 15 67 16 68 18 69 19 70 20 74 21 71 22 73 23 75 24 72 25
REMARK SMILES IDX 12 26 13 27 14 28 15 30 16 31 17 32 63 33 18 34 62 35 19 36
REMARK SMILES IDX 20 37 21 38 56 39 22 40 61 41 55 42 57 43 23 44 60 45 54 46
REMARK SMILES IDX 53 47 24 49 46 50 31 51 45 52 32 53 35 54 44 55 58 56 33 57
REMARK SMILES IDX 34 58 43 60 59 61 36 62 25 63 26 64 30 65 27 66 29 67 28 68
REMARK SMILES IDX 47 69 48 70 52 71 49 72 51 73 50 74 37 75 38 76 42 77 39 78
REMARK SMILES IDX 41 79 40 80
REMARK H PARENT 9 6 66 17 13 29 57 48 35 59
REMARK Flexibility Score: inf
ROOT
ATOM      1  C   UNL A   1      37.848  19.719  24.990  1.00  0.00     0.042 C 
ENDROOT
BRANCH   1   2
ATOM      2  C   UNL A   1      36.793  20.798  24.765  1.00  0.00     0.118 C 
BRANCH   2   3
ATOM      3  N   UNL A   1      37.264  22.088  25.210  1.00  0.00    -0.352 N 
ATOM      4  C   UNL A   1      36.635  23.158  25.784  1.00  0.00     0.251 C 
ATOM      5  O   UNL A   1      37.365  24.079  26.159  1.00  0.00    -0.269 OA
ATOM      6  H   UNL A   1      38.228  22.225  25.072  1.00  0.00     0.163 HD
BRANCH   4   7
ATOM      7  C   UNL A   1      35.159  23.273  25.996  1.00  0.00     0.042 A 
ATOM      8  C   UNL A   1      32.456  23.520  26.725  1.00  0.00     0.142 A 
ATOM      9  C   UNL A   1      33.323  22.783  27.525  1.00  0.00     0.049 A 
ATOM     10  C   UNL A   1      32.911  24.103  25.528  1.00  0.00     0.084 A 
ATOM     11  C   UNL A   1      34.655  22.635  27.143  1.00  0.00     0.018 A 
ATOM     12  C   UNL A   1      34.274  24.028  25.210  1.00  0.00     0.044 A 
BRANCH   8  13
ATOM     13  O   UNL A   1      31.194  23.740  27.219  1.00  0.00    -0.495 OA
ATOM     14  C   UNL A   1      30.241  22.762  26.805  1.00  0.00     0.278 C 
ENDBRANCH   8  13
BRANCH  10  15
ATOM     15  N   UNL A   1      31.966  24.780  24.737  1.00  0.00    -0.319 N 
ATOM     16  C   UNL A   1      31.501  26.072  24.713  1.00  0.00     0.257 C 
ATOM     17  H   UNL A   1      31.550  24.206  24.054  1.00  0.00     0.170 HD
ATOM     18  O   UNL A   1      30.592  26.361  23.933  1.00  0.00    -0.269 OA
BRANCH  16  19
ATOM     19  C   UNL A   1      32.038  27.157  25.553  1.00  0.00     0.058 A 
ATOM     20  C   UNL A   1      31.327  27.421  26.737  1.00  0.00     0.015 A 
ATOM     21  C   UNL A   1      33.097  27.997  25.187  1.00  0.00     0.053 A 
ATOM     22  C   UNL A   1      31.706  28.471  27.575  1.00  0.00     0.001 A 
ATOM     23  C   UNL A   1      33.485  29.038  26.044  1.00  0.00     0.021 A 
ATOM     24  Cl  UNL A   1      33.945  27.850  23.691  1.00  0.00    -0.083 Cl
ATOM     25  C   UNL A   1      32.795  29.269  27.237  1.00  0.00     0.002 A 
ENDBRANCH  16  19
ENDBRANCH  10  15
ENDBRANCH   4   7
ENDBRANCH   2   3
ENDBRANCH   1   2
BRANCH   1  26
ATOM     26  C   UNL A   1      38.938  20.139  25.968  1.00  0.00     0.118 C 
BRANCH  26  27
ATOM     27  N   UNL A   1      40.120  19.282  25.916  1.00  0.00    -0.352 N 
ATOM     28  C   UNL A   1      41.453  19.567  26.092  1.00  0.00     0.251 C 
ATOM     29  H   UNL A   1      39.929  18.336  25.720  1.00  0.00     0.163 HD
ATOM     30  O   UNL A   1      42.291  18.711  25.838  1.00  0.00    -0.269 OA
BRANCH  28  31
ATOM     31  C   UNL A   1      41.880  20.904  26.554  1.00  0.00     0.039 A 
ATOM     32  C   UNL A   1      42.328  21.839  25.615  1.00  0.00     0.014 A 
ATOM     33  C   UNL A   1      41.847  21.236  27.907  1.00  0.00     0.014 A 
ATOM     34  C   UNL A   1      42.665  23.130  26.028  1.00  0.00     0.010 A 
ATOM     35  C   UNL A   1      42.073  22.547  28.301  1.00  0.00     0.010 A 
ATOM     36  C   UNL A   1      42.496  23.505  27.369  1.00  0.00    -0.014 A 
BRANCH  36  37
ATOM     37  C   UNL A   1      42.774  24.881  27.851  1.00  0.00     0.031 A 
ATOM     38  C   UNL A   1      44.166  25.242  28.296  1.00  0.00     0.074 A 
ATOM     39  C   UNL A   1      41.763  25.758  28.002  1.00  0.00     0.049 A 
ATOM     40  N   UNL A   1      44.587  26.314  28.916  1.00  0.00    -0.248 NA
ATOM     41  C   UNL A   1      45.216  24.237  28.053  1.00  0.00     0.031 C 
ATOM     42  C   UNL A   1      40.363  25.513  27.650  1.00  0.00     0.029 A 
ATOM     43  N   UNL A   1      41.757  27.029  28.518  1.00  0.00    -0.354 N 
ATOM     44  C   UNL A   1      45.936  26.095  29.167  1.00  0.00     0.074 A 
ATOM     45  C   UNL A   1      46.247  24.766  28.693  1.00  0.00     0.031 C 
ATOM     46  C   UNL A   1      39.638  26.602  27.945  1.00  0.00     0.029 A 
ATOM     47  C   UNL A   1      40.509  27.601  28.554  1.00  0.00     0.049 A 
ATOM     48  H   UNL A   1      42.570  27.487  28.832  1.00  0.00     0.167 HD
ATOM     49  C   UNL A   1      46.842  26.935  29.722  1.00  0.00     0.031 A 
ATOM     50  C   UNL A   1      40.107  28.791  29.041  1.00  0.00     0.031 A 
ATOM     51  C   UNL A   1      46.528  28.262  30.177  1.00  0.00     0.049 A 
ATOM     52  C   UNL A   1      41.129  29.708  29.655  1.00  0.00     0.074 A 
ATOM     53  C   UNL A   1      47.378  29.220  30.699  1.00  0.00     0.029 A 
ATOM     54  N   UNL A   1      45.258  28.820  30.157  1.00  0.00    -0.354 N 
ATOM     55  N   UNL A   1      42.414  29.513  29.831  1.00  0.00    -0.248 NA
ATOM     56  C   UNL A   1      40.646  31.013  30.126  1.00  0.00     0.031 C 
ATOM     57  C   UNL A   1      46.613  30.338  31.044  1.00  0.00     0.029 A 
ATOM     58  C   UNL A   1      45.297  30.102  30.677  1.00  0.00     0.049 A 
ATOM     59  H   UNL A   1      44.448  28.370  29.822  1.00  0.00     0.167 HD
ATOM     60  C   UNL A   1      42.898  30.681  30.407  1.00  0.00     0.074 A 
ATOM     61  C   UNL A   1      41.771  31.582  30.535  1.00  0.00     0.031 C 
ATOM     62  C   UNL A   1      44.163  30.981  30.795  1.00  0.00     0.031 A 
BRANCH  49  63
ATOM     63  C   UNL A   1      48.252  26.429  29.869  1.00  0.00    -0.014 A 
ATOM     64  C   UNL A   1      48.669  25.755  31.030  1.00  0.00     0.009 A 
ATOM     65  C   UNL A   1      49.177  26.623  28.832  1.00  0.00     0.009 A 
ATOM     66  C   UNL A   1      49.993  25.335  31.171  1.00  0.00     0.001 A 
ATOM     67  C   UNL A   1      50.491  26.168  28.960  1.00  0.00     0.001 A 
ATOM     68  C   UNL A   1      50.902  25.538  30.134  1.00  0.00     0.000 A 
ENDBRANCH  49  63
BRANCH  50  69
ATOM     69  C   UNL A   1      38.676  29.182  28.958  1.00  0.00    -0.014 A 
ATOM     70  C   UNL A   1      37.826  29.012  30.061  1.00  0.00     0.009 A 
ATOM     71  C   UNL A   1      38.153  29.743  27.782  1.00  0.00     0.009 A 
ATOM     72  C   UNL A   1      36.478  29.370  29.980  1.00  0.00     0.001 A 
ATOM     73  C   UNL A   1      36.813  30.130  27.714  1.00  0.00     0.001 A 
ATOM     74  C   UNL A   1      35.973  29.935  28.809  1.00  0.00     0.000 A 
ENDBRANCH  50  69
BRANCH  62  75
ATOM     75  C   UNL A   1      44.402  32.354  31.356  1.00  0.00    -0.014 A 
ATOM     76  C   UNL A   1      44.741  33.435  30.528  1.00  0.00     0.009 A 
ATOM     77  C   UNL A   1      44.232  32.578  32.731  1.00  0.00     0.009 A 
ATOM     78  C   UNL A   1      44.935  34.706  31.072  1.00  0.00     0.001 A 
ATOM     79  C   UNL A   1      44.394  33.854  33.268  1.00  0.00     0.001 A 
ATOM     80  C   UNL A   1      44.755  34.916  32.439  1.00  0.00     0.000 A 
ENDBRANCH  62  75
ENDBRANCH  36  37
ENDBRANCH  28  31
ENDBRANCH  26  27
ENDBRANCH   1  26
TORSDOF 13
ENDMDL
MODEL 2
REMARK VINA RESULT:     -11.5      1.122      5.970
REMARK SMILES COc1ccc(C(=O)NCCCNC(=O)c2ccc(-c3c4nc(c(-c5ccccc5)c5ccc([nH]5)c(-c5ccccc5)c5nc(c(-c6ccccc6)c6ccc3[nH]6)C=C5)C=C4)cc2)cc1NC(=O)c1ccccc1Cl
REMARK SMILES IDX 11 1 10 2 9 3 7 4 8 5 6 7 3 8 4 9 65 10 5 11 64 12 2 13 1 14
REMARK SMILES IDX 66 15 67 16 68 18 69 19 70 20 74 21 71 22 73 23 75 24 72 25
REMARK SMILES IDX 12 26 13 27 14 28 15 30 16 31 17 32 63 33 18 34 62 35 19 36
REMARK SMILES IDX 20 37 21 38 56 39 22 40 61 41 55 42 57 43 23 44 60 45 54 46
REMARK SMILES IDX 53 47 24 49 46 50 31 51 45 52 32 53 35 54 44 55 58 56 33 57
REMARK SMILES IDX 34 58 43 60 59 61 36 62 25 63 26 64 30 65 27 66 29 67 28 68
REMARK SMILES IDX 47 69 48 70 52 71 49 72 51 73 50 74 37 75 38 76 42 77 39 78
REMARK SMILES IDX 41 79 40 80
REMARK H PARENT 9 6 66 17 13 29 57 48 35 59
REMARK Flexibility Score: inf
ROOT
ATOM      1  C   UNL A   1      37.757  19.819  24.954  1.00  0.00     0.042 C 
ENDROOT
BRANCH   1   2
ATOM      2  C   UNL A   1      36.634  20.851  24.953  1.00  0.00     0.118 C 
BRANCH   2   3
ATOM      3  N   UNL A   1      37.106  22.136  25.409  1.00  0.00    -0.352 N 
ATOM      4  C   UNL A   1      36.473  23.217  25.959  1.00  0.00     0.251 C 
ATOM      5  O   UNL A   1      37.202  24.129  26.355  1.00  0.00    -0.269 OA
ATOM      6  H   UNL A   1      38.077  22.260  25.303  1.00  0.00     0.163 HD
BRANCH   4   7
ATOM      7  C   UNL A   1      34.992  23.352  26.121  1.00  0.00     0.042 A 
ATOM      8  C   UNL A   1      32.269  23.627  26.758  1.00  0.00     0.142 A 
ATOM      9  C   UNL A   1      33.094  22.855  27.570  1.00  0.00     0.049 A 
ATOM     10  C   UNL A   1      32.776  24.232  25.595  1.00  0.00     0.084 A 
ATOM     11  C   UNL A   1      34.437  22.693  27.232  1.00  0.00     0.018 A 
ATOM     12  C   UNL A   1      34.149  24.142  25.323  1.00  0.00     0.044 A 
BRANCH   8  13
ATOM     13  O   UNL A   1      30.994  23.856  27.213  1.00  0.00    -0.495 OA
ATOM     14  C   UNL A   1      30.071  22.825  26.864  1.00  0.00     0.278 C 
ENDBRANCH   8  13
BRANCH  10  15
ATOM     15  N   UNL A   1      31.872  24.945  24.788  1.00  0.00    -0.319 N 
ATOM     16  C   UNL A   1      31.483  26.261  24.735  1.00  0.00     0.257 C 
ATOM     17  H   UNL A   1      31.423  24.382  24.118  1.00  0.00     0.170 HD
ATOM     18  O   UNL A   1      30.591  26.585  23.948  1.00  0.00    -0.269 OA
BRANCH  16  19
ATOM     19  C   UNL A   1      32.082  27.332  25.552  1.00  0.00     0.058 A 
ATOM     20  C   UNL A   1      31.416  27.628  26.754  1.00  0.00     0.015 A 
ATOM     21  C   UNL A   1      33.159  28.130  25.149  1.00  0.00     0.053 A 
ATOM     22  C   UNL A   1      31.856  28.669  27.572  1.00  0.00     0.001 A 
ATOM     23  C   UNL A   1      33.609  29.163  25.986  1.00  0.00     0.021 A 
ATOM     24  Cl  UNL A   1      33.958  27.944  23.630  1.00  0.00    -0.083 Cl
ATOM     25  C   UNL A   1      32.963  29.426  27.197  1.00  0.00     0.002 A 
ENDBRANCH  16  19
ENDBRANCH  10  15
ENDBRANCH   4   7
ENDBRANCH   2   3
ENDBRANCH   1   2
BRANCH   1  26
ATOM     26  C   UNL A   1      39.009  20.295  25.680  1.00  0.00     0.118 C 
BRANCH  26  27
ATOM     27  N   UNL A   1      40.030  19.257  25.808  1.00  0.00    -0.352 N 
ATOM     28  C   UNL A   1      41.369  19.337  26.110  1.00  0.00     0.251 C 
ATOM     29  H   UNL A   1      39.702  18.342  25.652  1.00  0.00     0.163 HD
ATOM     30  O   UNL A   1      42.072  18.340  26.000  1.00  0.00    -0.269 OA
BRANCH  28  31
ATOM     31  C   UNL A   1      41.968  20.620  26.533  1.00  0.00     0.039 A 
ATOM     32  C   UNL A   1      42.365  21.541  25.557  1.00  0.00     0.014 A 
ATOM     33  C   UNL A   1      42.145  20.915  27.883  1.00  0.00     0.014 A 
ATOM     34  C   UNL A   1      42.864  22.787  25.942  1.00  0.00     0.010 A 
ATOM     35  C   UNL A   1      42.534  22.190  28.264  1.00  0.00     0.010 A 
ATOM     36  C   UNL A   1      42.910  23.137  27.301  1.00  0.00    -0.014 A 
BRANCH  36  37
ATOM     37  C   UNL A   1      43.368  24.470  27.764  1.00  0.00     0.031 A 
ATOM     38  C   UNL A   1      42.349  25.526  28.101  1.00  0.00     0.074 A 
ATOM     39  C   UNL A   1      44.681  24.767  27.766  1.00  0.00     0.049 A 
ATOM     40  N   UNL A   1      42.523  26.798  28.346  1.00  0.00    -0.248 NA
ATOM     41  C   UNL A   1      40.939  25.099  28.116  1.00  0.00     0.031 C 
ATOM     42  C   UNL A   1      45.763  23.845  27.416  1.00  0.00     0.029 A 
ATOM     43  N   UNL A   1      45.327  25.944  28.048  1.00  0.00    -0.354 N 
ATOM     44  C   UNL A   1      41.248  27.327  28.507  1.00  0.00     0.074 A 
ATOM     45  C   UNL A   1      40.310  26.254  28.268  1.00  0.00     0.031 C 
ATOM     46  C   UNL A   1      46.938  24.486  27.520  1.00  0.00     0.029 A 
ATOM     47  C   UNL A   1      46.689  25.874  27.892  1.00  0.00     0.049 A 
ATOM     48  H   UNL A   1      44.858  26.761  28.336  1.00  0.00     0.167 HD
ATOM     49  C   UNL A   1      40.889  28.588  28.846  1.00  0.00     0.031 A 
ATOM     50  C   UNL A   1      47.633  26.828  28.014  1.00  0.00     0.031 A 
ATOM     51  C   UNL A   1      41.829  29.646  29.099  1.00  0.00     0.049 A 
ATOM     52  C   UNL A   1      47.213  28.222  28.390  1.00  0.00     0.074 A 
ATOM     53  C   UNL A   1      41.580  30.943  29.507  1.00  0.00     0.029 A 
ATOM     54  N   UNL A   1      43.205  29.522  28.969  1.00  0.00    -0.354 N 
ATOM     55  N   UNL A   1      46.007  28.694  28.599  1.00  0.00    -0.248 NA
ATOM     56  C   UNL A   1      48.286  29.212  28.559  1.00  0.00     0.031 C 
ATOM     57  C   UNL A   1      42.802  31.620  29.574  1.00  0.00     0.029 A 
ATOM     58  C   UNL A   1      43.817  30.726  29.270  1.00  0.00     0.049 A 
ATOM     59  H   UNL A   1      43.677  28.699  28.703  1.00  0.00     0.167 HD
ATOM     60  C   UNL A   1      46.179  30.027  28.951  1.00  0.00     0.074 A 
ATOM     61  C   UNL A   1      47.604  30.282  28.942  1.00  0.00     0.031 C 
ATOM     62  C   UNL A   1      45.239  30.957  29.255  1.00  0.00     0.031 A 
BRANCH  49  63
ATOM     63  C   UNL A   1      39.417  28.881  28.954  1.00  0.00    -0.014 A 
ATOM     64  C   UNL A   1      38.722  28.696  30.162  1.00  0.00     0.009 A 
ATOM     65  C   UNL A   1      38.713  29.353  27.836  1.00  0.00     0.009 A 
ATOM     66  C   UNL A   1      37.347  28.926  30.233  1.00  0.00     0.001 A 
ATOM     67  C   UNL A   1      37.344  29.618  27.920  1.00  0.00     0.001 A 
ATOM     68  C   UNL A   1      36.660  29.390  29.113  1.00  0.00     0.000 A 
ENDBRANCH  49  63
BRANCH  50  69
ATOM     69  C   UNL A   1      49.063  26.491  27.788  1.00  0.00    -0.014 A 
ATOM     70  C   UNL A   1      49.876  26.086  28.858  1.00  0.00     0.009 A 
ATOM     71  C   UNL A   1      49.620  26.556  26.502  1.00  0.00     0.009 A 
ATOM     72  C   UNL A   1      51.223  25.779  28.647  1.00  0.00     0.001 A 
ATOM     73  C   UNL A   1      50.958  26.217  26.289  1.00  0.00     0.001 A 
ATOM     74  C   UNL A   1      51.762  25.838  27.363  1.00  0.00     0.000 A 
ENDBRANCH  50  69
BRANCH  62  75
ATOM     75  C   UNL A   1      45.726  32.324  29.643  1.00  0.00    -0.014 A 
ATOM     76  C   UNL A   1      45.876  33.345  28.691  1.00  0.00     0.009 A 
ATOM     77  C   UNL A   1      45.987  32.608  30.992  1.00  0.00     0.009 A 
ATOM     78  C   UNL A   1      46.308  34.614  29.081  1.00  0.00     0.001 A 
ATOM     79  C   UNL A   1      46.388  33.885  31.384  1.00  0.00     0.001 A 
ATOM     80  C   UNL A   1      46.556  34.885  30.427  1.00  0.00     0.000 A 
ENDBRANCH  62  75
ENDBRANCH  36  37
ENDBRANCH  28  31
ENDBRANCH  26  27
ENDBRANCH   1  26
TORSDOF 13
ENDMDL
MODEL 3
REMARK VINA RESULT:     -11.5      3.219      8.783
REMARK SMILES COc1ccc(C(=O)NCCCNC(=O)c2ccc(-c3c4nc(c(-c5ccccc5)c5ccc([nH]5)c(-c5ccccc5)c5nc(c(-c6ccccc6)c6ccc3[nH]6)C=C5)C=C4)cc2)cc1NC(=O)c1ccccc1Cl
REMARK SMILES IDX 11 1 10 2 9 3 7 4 8 5 6 7 3 8 4 9 65 10 5 11 64 12 2 13 1 14
REMARK SMILES IDX 66 15 67 16 68 18 69 19 70 20 74 21 71 22 73 23 75 24 72 25
REMARK SMILES IDX 12 26 13 27 14 28 15 30 16 31 17 32 63 33 18 34 62 35 19 36
REMARK SMILES IDX 20 37 21 38 56 39 22 40 61 41 55 42 57 43 23 44 60 45 54 46
REMARK SMILES IDX 53 47 24 49 46 50 31 51 45 52 32 53 35 54 44 55 58 56 33 57
REMARK SMILES IDX 34 58 43 60 59 61 36 62 25 63 26 64 30 65 27 66 29 67 28 68
REMARK SMILES IDX 47 69 48 70 52 71 49 72 51 73 50 74 37 75 38 76 42 77 39 78
REMARK SMILES IDX 41 79 40 80
REMARK H PARENT 9 6 66 17 13 29 57 48 35 59
REMARK Flexibility Score: inf
ROOT
ATOM      1  C   UNL A   1      31.477  31.919  26.550  1.00  0.00     0.042 C 
ENDROOT
BRANCH   1   2
ATOM      2  C   UNL A   1      31.685  30.459  26.161  1.00  0.00     0.118 C 
BRANCH   2   3
ATOM      3  N   UNL A   1      32.913  29.942  26.716  1.00  0.00    -0.352 N 
ATOM      4  C   UNL A   1      33.780  28.967  26.306  1.00  0.00     0.251 C 
ATOM      5  O   UNL A   1      34.818  28.852  26.961  1.00  0.00    -0.269 OA
ATOM      6  H   UNL A   1      33.179  30.376  27.558  1.00  0.00     0.163 HD
BRANCH   4   7
ATOM      7  C   UNL A   1      33.562  28.064  25.133  1.00  0.00     0.042 A 
ATOM      8  C   UNL A   1      33.442  26.494  22.806  1.00  0.00     0.142 A 
ATOM      9  C   UNL A   1      33.885  27.810  22.729  1.00  0.00     0.049 A 
ATOM     10  C   UNL A   1      33.008  25.956  24.031  1.00  0.00     0.084 A 
ATOM     11  C   UNL A   1      33.911  28.597  23.879  1.00  0.00     0.018 A 
ATOM     12  C   UNL A   1      33.135  26.728  25.195  1.00  0.00     0.044 A 
BRANCH   8  13
ATOM     13  O   UNL A   1      33.563  25.733  21.669  1.00  0.00    -0.495 OA
ATOM     14  C   UNL A   1      32.450  25.849  20.784  1.00  0.00     0.278 C 
ENDBRANCH   8  13
BRANCH  10  15
ATOM     15  N   UNL A   1      32.514  24.640  24.024  1.00  0.00    -0.319 N 
ATOM     16  C   UNL A   1      33.105  23.405  24.127  1.00  0.00     0.257 C 
ATOM     17  H   UNL A   1      31.536  24.594  23.923  1.00  0.00     0.170 HD
ATOM     18  O   UNL A   1      32.403  22.399  24.009  1.00  0.00    -0.269 OA
BRANCH  16  19
ATOM     19  C   UNL A   1      34.540  23.197  24.396  1.00  0.00     0.058 A 
ATOM     20  C   UNL A   1      35.358  23.052  23.262  1.00  0.00     0.015 A 
ATOM     21  C   UNL A   1      35.091  23.010  25.669  1.00  0.00     0.053 A 
ATOM     22  C   UNL A   1      36.720  22.783  23.399  1.00  0.00     0.001 A 
ATOM     23  C   UNL A   1      36.466  22.760  25.800  1.00  0.00     0.021 A 
ATOM     24  Cl  UNL A   1      34.152  23.027  27.118  1.00  0.00    -0.083 Cl
ATOM     25  C   UNL A   1      37.278  22.654  24.668  1.00  0.00     0.002 A 
ENDBRANCH  16  19
ENDBRANCH  10  15
ENDBRANCH   4   7
ENDBRANCH   2   3
ENDBRANCH   1   2
BRANCH   1  26
ATOM     26  C   UNL A   1      32.761  32.615  26.981  1.00  0.00     0.118 C 
BRANCH  26  27
ATOM     27  N   UNL A   1      32.526  33.881  27.673  1.00  0.00    -0.352 N 
ATOM     28  C   UNL A   1      33.192  34.479  28.717  1.00  0.00     0.251 C 
ATOM     29  H   UNL A   1      31.758  34.394  27.333  1.00  0.00     0.163 HD
ATOM     30  O   UNL A   1      32.713  35.473  29.246  1.00  0.00    -0.269 OA
BRANCH  28  31
ATOM     31  C   UNL A   1      34.460  33.912  29.222  1.00  0.00     0.039 A 
ATOM     32  C   UNL A   1      34.438  33.101  30.362  1.00  0.00     0.014 A 
ATOM     33  C   UNL A   1      35.667  34.181  28.581  1.00  0.00     0.014 A 
ATOM     34  C   UNL A   1      35.617  32.499  30.807  1.00  0.00     0.010 A 
ATOM     35  C   UNL A   1      36.814  33.496  28.955  1.00  0.00     0.010 A 
ATOM     36  C   UNL A   1      36.805  32.658  30.079  1.00  0.00    -0.014 A 
BRANCH  36  37
ATOM     37  C   UNL A   1      38.072  31.988  30.467  1.00  0.00     0.031 A 
ATOM     38  C   UNL A   1      39.040  32.704  31.370  1.00  0.00     0.074 A 
ATOM     39  C   UNL A   1      38.402  30.803  29.919  1.00  0.00     0.049 A 
ATOM     40  N   UNL A   1      40.269  32.388  31.684  1.00  0.00    -0.248 NA
ATOM     41  C   UNL A   1      38.577  33.973  31.959  1.00  0.00     0.031 C 
ATOM     42  C   UNL A   1      37.569  30.031  28.995  1.00  0.00     0.029 A 
ATOM     43  N   UNL A   1      39.544  30.053  30.041  1.00  0.00    -0.354 N 
ATOM     44  C   UNL A   1      40.734  33.433  32.474  1.00  0.00     0.074 A 
ATOM     45  C   UNL A   1      39.681  34.420  32.536  1.00  0.00     0.031 C 
ATOM     46  C   UNL A   1      38.221  28.910  28.647  1.00  0.00     0.029 A 
ATOM     47  C   UNL A   1      39.535  28.910  29.280  1.00  0.00     0.049 A 
ATOM     48  H   UNL A   1      40.299  30.310  30.619  1.00  0.00     0.167 HD
ATOM     49  C   UNL A   1      41.924  33.551  33.110  1.00  0.00     0.031 A 
ATOM     50  C   UNL A   1      40.487  27.975  29.096  1.00  0.00     0.031 A 
ATOM     51  C   UNL A   1      42.961  32.556  33.057  1.00  0.00     0.049 A 
ATOM     52  C   UNL A   1      41.801  28.126  29.811  1.00  0.00     0.074 A 
ATOM     53  C   UNL A   1      44.180  32.544  33.710  1.00  0.00     0.029 A 
ATOM     54  N   UNL A   1      42.894  31.391  32.306  1.00  0.00    -0.354 N 
ATOM     55  N   UNL A   1      42.205  29.090  30.603  1.00  0.00    -0.248 NA
ATOM     56  C   UNL A   1      42.786  27.053  29.614  1.00  0.00     0.031 C 
ATOM     57  C   UNL A   1      44.874  31.396  33.313  1.00  0.00     0.029 A 
ATOM     58  C   UNL A   1      44.060  30.662  32.464  1.00  0.00     0.049 A 
ATOM     59  H   UNL A   1      42.131  31.123  31.745  1.00  0.00     0.167 HD
ATOM     60  C   UNL A   1      43.479  28.726  31.022  1.00  0.00     0.074 A 
ATOM     61  C   UNL A   1      43.772  27.447  30.408  1.00  0.00     0.031 C 
ATOM     62  C   UNL A   1      44.330  29.391  31.843  1.00  0.00     0.031 A 
BRANCH  49  63
ATOM     63  C   UNL A   1      42.158  34.805  33.909  1.00  0.00    -0.014 A 
ATOM     64  C   UNL A   1      42.723  35.950  33.322  1.00  0.00     0.009 A 
ATOM     65  C   UNL A   1      41.804  34.847  35.267  1.00  0.00     0.009 A 
ATOM     66  C   UNL A   1      42.978  37.089  34.089  1.00  0.00     0.001 A 
ATOM     67  C   UNL A   1      42.026  36.000  36.022  1.00  0.00     0.001 A 
ATOM     68  C   UNL A   1      42.626  37.115  35.437  1.00  0.00     0.000 A 
ENDBRANCH  49  63
BRANCH  50  69
ATOM     69  C   UNL A   1      40.225  26.814  28.206  1.00  0.00    -0.014 A 
ATOM     70  C   UNL A   1      40.717  26.799  26.892  1.00  0.00     0.009 A 
ATOM     71  C   UNL A   1      39.496  25.707  28.669  1.00  0.00     0.009 A 
ATOM     72  C   UNL A   1      40.462  25.711  26.053  1.00  0.00     0.001 A 
ATOM     73  C   UNL A   1      39.270  24.607  27.837  1.00  0.00     0.001 A 
ATOM     74  C   UNL A   1      39.745  24.614  26.527  1.00  0.00     0.000 A 
ENDBRANCH  50  69
BRANCH  62  75
ATOM     75  C   UNL A   1      45.641  28.728  32.156  1.00  0.00    -0.014 A 
ATOM     76  C   UNL A   1      45.772  27.834  33.229  1.00  0.00     0.009 A 
ATOM     77  C   UNL A   1      46.750  28.964  31.328  1.00  0.00     0.009 A 
ATOM     78  C   UNL A   1      46.996  27.212  33.484  1.00  0.00     0.001 A 
ATOM     79  C   UNL A   1      47.963  28.319  31.565  1.00  0.00     0.001 A 
ATOM     80  C   UNL A   1      48.088  27.450  32.649  1.00  0.00     0.000 A 
ENDBRANCH  62  75
ENDBRANCH  36  37
ENDBRANCH  28  31
ENDBRANCH  26  27
ENDBRANCH   1  26
TORSDOF 13
ENDMDL
