MODEL 1
REMARK VINA RESULT:     -12.4      0.000      0.000
REMARK SMILES CCOc1cc2c(cc1/C=C1/C(=O)N(c3cccc(C(=O)NCCCNC(=O)c4ccc(-c5c6nc(c(-c7ccccc7)c7ccc([nH]7)c(-c7ccccc7)c7nc(c(-c8ccccc8)c8ccc5[nH]8)C=C7)C=C6)cc4)c3)C(=S)N=C1O)OCO2
REMARK SMILES IDX 23 1 22 2 20 3 21 4 19 6 15 7 16 8 77 9 17 10 18 11 14 12
REMARK SMILES IDX 10 13 11 14 12 15 81 16 13 17 80 18 78 19 79 20 9 21 4 22
REMARK SMILES IDX 5 23 6 24 8 25 7 26 85 27 83 28 84 29 3 30 2 31 1 32 82 33
REMARK SMILES IDX 24 35 25 36 26 37 27 38 28 40 29 41 30 42 76 43 31 44 75 45
REMARK SMILES IDX 32 46 33 47 34 48 69 49 35 50 74 51 68 52 70 53 36 54 73 55
REMARK SMILES IDX 67 56 66 57 37 59 59 60 44 61 58 62 45 63 48 64 57 65 71 66
REMARK SMILES IDX 46 67 47 68 56 70 72 71 49 72 38 73 39 74 43 75 40 76 42 77
REMARK SMILES IDX 41 78 60 79 61 80 65 81 62 82 64 83 63 84 50 85 51 86 55 87
REMARK SMILES IDX 52 88 54 89 53 90
REMARK H PARENT 22 5 82 34 26 39 70 58 48 69
REMARK Flexibility Score: inf
ROOT
ATOM      1  C   UNL A   1      31.416  30.272  25.767  1.00  0.00     0.118 C 
ENDROOT
BRANCH   1   2
ATOM      2  N   UNL A   1      31.145  30.226  24.335  1.00  0.00    -0.352 N 
ATOM      3  C   UNL A   1      30.744  29.251  23.452  1.00  0.00     0.251 C 
ATOM      4  O   UNL A   1      30.614  29.591  22.273  1.00  0.00    -0.269 OA
ATOM      5  H   UNL A   1      31.282  31.098  23.898  1.00  0.00     0.163 HD
BRANCH   3   6
ATOM      6  C   UNL A   1      30.524  27.818  23.809  1.00  0.00     0.041 A 
ATOM      7  C   UNL A   1      31.320  25.519  24.052  1.00  0.00     0.052 A 
ATOM      8  C   UNL A   1      29.998  25.092  24.204  1.00  0.00     0.027 A 
ATOM      9  C   UNL A   1      31.554  26.904  24.020  1.00  0.00     0.040 A 
ATOM     10  C   UNL A   1      28.945  26.010  24.154  1.00  0.00     0.003 A 
ATOM     11  C   UNL A   1      29.206  27.358  23.904  1.00  0.00     0.014 A 
BRANCH   7  12
ATOM     12  N   UNL A   1      32.430  24.632  23.735  1.00  0.00    -0.251 N 
ATOM     13  C   UNL A   1      34.785  22.368  25.446  1.00  0.00     0.031 C 
ATOM     14  C   UNL A   1      34.310  23.250  24.535  1.00  0.00     0.103 C 
ATOM     15  C   UNL A   1      33.010  23.935  24.818  1.00  0.00     0.270 C 
ATOM     16  C   UNL A   1      34.900  23.624  23.261  1.00  0.00     0.226 C 
ATOM     17  O   UNL A   1      32.509  23.853  25.942  1.00  0.00    -0.268 OA
ATOM     18  N   UNL A   1      34.321  24.222  22.300  1.00  0.00    -0.184 NA
ATOM     19  C   UNL A   1      33.024  24.656  22.439  1.00  0.00     0.210 C 
ATOM     20  S   UNL A   1      32.369  25.324  21.018  1.00  0.00    -0.038 S 
BRANCH  13  21
ATOM     21  C   UNL A   1      35.976  21.478  25.398  1.00  0.00     0.021 A 
ATOM     22  C   UNL A   1      35.877  20.122  24.965  1.00  0.00     0.130 A 
ATOM     23  C   UNL A   1      37.012  19.297  24.934  1.00  0.00     0.097 A 
ATOM     24  C   UNL A   1      38.210  19.819  25.361  1.00  0.00     0.169 A 
ATOM     25  C   UNL A   1      37.251  21.987  25.711  1.00  0.00     0.062 A 
ATOM     26  C   UNL A   1      38.328  21.131  25.733  1.00  0.00     0.166 A 
ATOM     27  O   UNL A   1      39.390  19.149  25.433  1.00  0.00    -0.453 OA
ATOM     28  O   UNL A   1      39.596  21.455  26.100  1.00  0.00    -0.454 OA
ATOM     29  C   UNL A   1      40.240  20.169  26.000  1.00  0.00     0.468 C 
BRANCH  22  30
ATOM     30  O   UNL A   1      34.677  19.687  24.453  1.00  0.00    -0.493 OA
BRANCH  30  31
ATOM     31  C   UNL A   1      34.457  18.271  24.443  1.00  0.00     0.226 C 
ATOM     32  C   UNL A   1      32.983  17.886  24.430  1.00  0.00     0.049 C 
ENDBRANCH  30  31
ENDBRANCH  22  30
ENDBRANCH  13  21
BRANCH  16  33
ATOM     33  O   UNL A   1      36.203  23.394  23.089  1.00  0.00    -0.493 OA
ATOM     34  H   UNL A   1      36.793  23.483  23.812  1.00  0.00     0.295 HD
ENDBRANCH  16  33
ENDBRANCH   7  12
ENDBRANCH   3   6
ENDBRANCH   1   2
BRANCH   1  35
ATOM     35  C   UNL A   1      31.276  31.654  26.381  1.00  0.00     0.042 C 
BRANCH  35  36
ATOM     36  C   UNL A   1      32.507  32.141  27.126  1.00  0.00     0.118 C 
BRANCH  36  37
ATOM     37  N   UNL A   1      32.403  33.539  27.532  1.00  0.00    -0.352 N 
ATOM     38  C   UNL A   1      33.163  34.299  28.383  1.00  0.00     0.251 C 
ATOM     39  H   UNL A   1      31.651  34.023  27.121  1.00  0.00     0.163 HD
ATOM     40  O   UNL A   1      32.742  35.404  28.733  1.00  0.00    -0.269 OA
BRANCH  38  41
ATOM     41  C   UNL A   1      34.464  33.823  28.904  1.00  0.00     0.039 A 
ATOM     42  C   UNL A   1      34.502  33.195  30.153  1.00  0.00     0.014 A 
ATOM     43  C   UNL A   1      35.653  34.032  28.204  1.00  0.00     0.014 A 
ATOM     44  C   UNL A   1      35.712  32.716  30.660  1.00  0.00     0.010 A 
ATOM     45  C   UNL A   1      36.840  33.464  28.659  1.00  0.00     0.010 A 
ATOM     46  C   UNL A   1      36.886  32.810  29.896  1.00  0.00    -0.014 A 
BRANCH  46  47
ATOM     47  C   UNL A   1      38.168  32.228  30.373  1.00  0.00     0.031 A 
ATOM     48  C   UNL A   1      38.678  30.932  29.801  1.00  0.00     0.074 A 
ATOM     49  C   UNL A   1      38.834  32.827  31.378  1.00  0.00     0.049 A 
ATOM     50  N   UNL A   1      39.745  30.248  30.130  1.00  0.00    -0.248 NA
ATOM     51  C   UNL A   1      37.868  30.306  28.744  1.00  0.00     0.031 C 
ATOM     52  C   UNL A   1      38.413  34.053  32.062  1.00  0.00     0.029 A 
ATOM     53  N   UNL A   1      40.003  32.482  32.007  1.00  0.00    -0.354 N 
ATOM     54  C   UNL A   1      39.717  29.103  29.344  1.00  0.00     0.074 A 
ATOM     55  C   UNL A   1      38.504  29.160  28.558  1.00  0.00     0.031 C 
ATOM     56  C   UNL A   1      39.327  34.372  32.993  1.00  0.00     0.029 A 
ATOM     57  C   UNL A   1      40.373  33.357  32.999  1.00  0.00     0.049 A 
ATOM     58  H   UNL A   1      40.528  31.683  31.768  1.00  0.00     0.167 HD
ATOM     59  C   UNL A   1      40.626  28.102  29.268  1.00  0.00     0.031 A 
ATOM     60  C   UNL A   1      41.435  33.342  33.827  1.00  0.00     0.031 A 
ATOM     61  C   UNL A   1      41.842  28.057  30.036  1.00  0.00     0.049 A 
ATOM     62  C   UNL A   1      42.442  32.235  33.710  1.00  0.00     0.074 A 
ATOM     63  C   UNL A   1      42.869  27.130  29.971  1.00  0.00     0.029 A 
ATOM     64  N   UNL A   1      42.193  28.976  31.012  1.00  0.00    -0.354 N 
ATOM     65  N   UNL A   1      42.446  31.206  32.897  1.00  0.00    -0.248 NA
ATOM     66  C   UNL A   1      43.599  32.296  34.614  1.00  0.00     0.031 C 
ATOM     67  C   UNL A   1      43.816  27.461  30.945  1.00  0.00     0.029 A 
ATOM     68  C   UNL A   1      43.406  28.623  31.579  1.00  0.00     0.049 A 
ATOM     69  H   UNL A   1      41.658  29.763  31.265  1.00  0.00     0.167 HD
ATOM     70  C   UNL A   1      43.611  30.506  33.179  1.00  0.00     0.074 A 
ATOM     71  C   UNL A   1      44.299  31.240  34.221  1.00  0.00     0.031 C 
ATOM     72  C   UNL A   1      44.070  29.358  32.624  1.00  0.00     0.031 A 
BRANCH  59  73
ATOM     73  C   UNL A   1      40.330  26.967  28.326  1.00  0.00    -0.014 A 
ATOM     74  C   UNL A   1      39.541  25.875  28.721  1.00  0.00     0.009 A 
ATOM     75  C   UNL A   1      40.831  27.002  27.014  1.00  0.00     0.009 A 
ATOM     76  C   UNL A   1      39.296  24.821  27.837  1.00  0.00     0.001 A 
ATOM     77  C   UNL A   1      40.559  25.962  26.123  1.00  0.00     0.001 A 
ATOM     78  C   UNL A   1      39.801  24.867  26.539  1.00  0.00     0.000 A 
ENDBRANCH  59  73
BRANCH  60  79
ATOM     79  C   UNL A   1      41.605  34.429  34.826  1.00  0.00    -0.014 A 
ATOM     80  C   UNL A   1      42.287  35.607  34.487  1.00  0.00     0.009 A 
ATOM     81  C   UNL A   1      41.069  34.301  36.117  1.00  0.00     0.009 A 
ATOM     82  C   UNL A   1      42.446  36.627  35.427  1.00  0.00     0.001 A 
ATOM     83  C   UNL A   1      41.207  35.335  37.046  1.00  0.00     0.001 A 
ATOM     84  C   UNL A   1      41.902  36.493  36.703  1.00  0.00     0.000 A 
ENDBRANCH  60  79
BRANCH  72  85
ATOM     85  C   UNL A   1      45.388  28.836  33.125  1.00  0.00    -0.014 A 
ATOM     86  C   UNL A   1      45.451  27.922  34.188  1.00  0.00     0.009 A 
ATOM     87  C   UNL A   1      46.578  29.240  32.503  1.00  0.00     0.009 A 
ATOM     88  C   UNL A   1      46.684  27.450  34.640  1.00  0.00     0.001 A 
ATOM     89  C   UNL A   1      47.807  28.745  32.938  1.00  0.00     0.001 A 
ATOM     90  C   UNL A   1      47.861  27.858  34.012  1.00  0.00     0.000 A 
ENDBRANCH  72  85
ENDBRANCH  46  47
ENDBRANCH  38  41
ENDBRANCH  36  37
ENDBRANCH  35  36
ENDBRANCH   1  35
TORSDOF 15
ENDMDL
MODEL 2
REMARK VINA RESULT:     -11.9      4.626     11.834
REMARK SMILES CCOc1cc2c(cc1/C=C1/C(=O)N(c3cccc(C(=O)NCCCNC(=O)c4ccc(-c5c6nc(c(-c7ccccc7)c7ccc([nH]7)c(-c7ccccc7)c7nc(c(-c8ccccc8)c8ccc5[nH]8)C=C7)C=C6)cc4)c3)C(=S)N=C1O)OCO2
REMARK SMILES IDX 23 1 22 2 20 3 21 4 19 6 15 7 16 8 77 9 17 10 18 11 14 12
REMARK SMILES IDX 10 13 11 14 12 15 81 16 13 17 80 18 78 19 79 20 9 21 4 22
REMARK SMILES IDX 5 23 6 24 8 25 7 26 85 27 83 28 84 29 3 30 2 31 1 32 82 33
REMARK SMILES IDX 24 35 25 36 26 37 27 38 28 40 29 41 30 42 76 43 31 44 75 45
REMARK SMILES IDX 32 46 33 47 34 48 69 49 35 50 74 51 68 52 70 53 36 54 73 55
REMARK SMILES IDX 67 56 66 57 37 59 59 60 44 61 58 62 45 63 48 64 57 65 71 66
REMARK SMILES IDX 46 67 47 68 56 70 72 71 49 72 38 73 39 74 43 75 40 76 42 77
REMARK SMILES IDX 41 78 60 79 61 80 65 81 62 82 64 83 63 84 50 85 51 86 55 87
REMARK SMILES IDX 52 88 54 89 53 90
REMARK H PARENT 22 5 82 34 26 39 70 58 48 69
REMARK Flexibility Score: inf
ROOT
ATOM      1  C   UNL A   1      48.669  25.170  32.695  1.00  0.00     0.118 C 
ENDROOT
BRANCH   1   2
ATOM      2  N   UNL A   1      47.762  26.265  32.372  1.00  0.00    -0.352 N 
ATOM      3  C   UNL A   1      47.163  26.725  31.222  1.00  0.00     0.251 C 
ATOM      4  O   UNL A   1      46.433  27.712  31.336  1.00  0.00    -0.269 OA
ATOM      5  H   UNL A   1      47.522  26.801  33.163  1.00  0.00     0.163 HD
BRANCH   3   6
ATOM      6  C   UNL A   1      47.389  26.158  29.860  1.00  0.00     0.041 A 
ATOM      7  C   UNL A   1      46.561  25.306  27.723  1.00  0.00     0.052 A 
ATOM      8  C   UNL A   1      47.840  24.826  27.434  1.00  0.00     0.027 A 
ATOM      9  C   UNL A   1      46.412  26.106  28.869  1.00  0.00     0.040 A 
ATOM     10  C   UNL A   1      48.888  25.001  28.344  1.00  0.00     0.003 A 
ATOM     11  C   UNL A   1      48.648  25.616  29.574  1.00  0.00     0.014 A 
BRANCH   7  12
ATOM     12  N   UNL A   1      45.354  24.874  27.032  1.00  0.00    -0.251 N 
ATOM     13  C   UNL A   1      42.761  22.264  27.287  1.00  0.00     0.031 C 
ATOM     14  C   UNL A   1      43.608  23.159  26.725  1.00  0.00     0.103 C 
ATOM     15  C   UNL A   1      44.675  23.764  27.582  1.00  0.00     0.270 C 
ATOM     16  C   UNL A   1      43.614  23.647  25.356  1.00  0.00     0.226 C 
ATOM     17  O   UNL A   1      44.899  23.295  28.701  1.00  0.00    -0.268 OA
ATOM     18  N   UNL A   1      44.215  24.678  24.918  1.00  0.00    -0.184 NA
ATOM     19  C   UNL A   1      45.024  25.412  25.754  1.00  0.00     0.210 C 
ATOM     20  S   UNL A   1      45.651  26.822  25.036  1.00  0.00    -0.038 S 
BRANCH  13  21
ATOM     21  C   UNL A   1      41.565  21.582  26.723  1.00  0.00     0.021 A 
ATOM     22  C   UNL A   1      41.591  20.198  26.375  1.00  0.00     0.130 A 
ATOM     23  C   UNL A   1      40.455  19.575  25.837  1.00  0.00     0.097 A 
ATOM     24  C   UNL A   1      39.331  20.339  25.626  1.00  0.00     0.169 A 
ATOM     25  C   UNL A   1      40.350  22.280  26.593  1.00  0.00     0.062 A 
ATOM     26  C   UNL A   1      39.277  21.654  26.001  1.00  0.00     0.166 A 
ATOM     27  O   UNL A   1      38.164  19.905  25.079  1.00  0.00    -0.453 OA
ATOM     28  O   UNL A   1      38.074  22.224  25.727  1.00  0.00    -0.454 OA
ATOM     29  C   UNL A   1      37.409  21.135  25.055  1.00  0.00     0.468 C 
BRANCH  22  30
ATOM     30  O   UNL A   1      42.707  19.464  26.703  1.00  0.00    -0.493 OA
BRANCH  30  31
ATOM     31  C   UNL A   1      43.128  18.474  25.756  1.00  0.00     0.226 C 
ATOM     32  C   UNL A   1      44.409  18.845  25.020  1.00  0.00     0.049 C 
ENDBRANCH  30  31
ENDBRANCH  22  30
ENDBRANCH  13  21
BRANCH  16  33
ATOM     33  O   UNL A   1      42.993  22.912  24.433  1.00  0.00    -0.493 OA
ATOM     34  H   UNL A   1      43.187  21.998  24.353  1.00  0.00     0.295 HD
ENDBRANCH  16  33
ENDBRANCH   7  12
ENDBRANCH   3   6
ENDBRANCH   1   2
BRANCH   1  35
ATOM     35  C   UNL A   1      48.775  24.869  34.180  1.00  0.00     0.042 C 
BRANCH  35  36
ATOM     36  C   UNL A   1      47.454  24.541  34.854  1.00  0.00     0.118 C 
BRANCH  36  37
ATOM     37  N   UNL A   1      47.340  25.124  36.186  1.00  0.00    -0.352 N 
ATOM     38  C   UNL A   1      46.606  26.183  36.657  1.00  0.00     0.251 C 
ATOM     39  H   UNL A   1      47.890  24.679  36.870  1.00  0.00     0.163 HD
ATOM     40  O   UNL A   1      46.848  26.622  37.783  1.00  0.00    -0.269 OA
BRANCH  38  41
ATOM     41  C   UNL A   1      45.547  26.821  35.844  1.00  0.00     0.039 A 
ATOM     42  C   UNL A   1      44.272  26.246  35.826  1.00  0.00     0.014 A 
ATOM     43  C   UNL A   1      45.804  27.945  35.058  1.00  0.00     0.014 A 
ATOM     44  C   UNL A   1      43.247  26.838  35.083  1.00  0.00     0.010 A 
ATOM     45  C   UNL A   1      44.761  28.595  34.404  1.00  0.00     0.010 A 
ATOM     46  C   UNL A   1      43.473  28.043  34.400  1.00  0.00    -0.014 A 
BRANCH  46  47
ATOM     47  C   UNL A   1      42.378  28.741  33.678  1.00  0.00     0.031 A 
ATOM     48  C   UNL A   1      41.502  29.734  34.395  1.00  0.00     0.074 A 
ATOM     49  C   UNL A   1      42.120  28.422  32.396  1.00  0.00     0.049 A 
ATOM     50  N   UNL A   1      40.467  30.398  33.945  1.00  0.00    -0.248 NA
ATOM     51  C   UNL A   1      41.809  29.992  35.812  1.00  0.00     0.031 C 
ATOM     52  C   UNL A   1      42.854  27.429  31.606  1.00  0.00     0.029 A 
ATOM     53  N   UNL A   1      41.164  28.892  31.532  1.00  0.00    -0.354 N 
ATOM     54  C   UNL A   1      39.985  31.126  35.026  1.00  0.00     0.074 A 
ATOM     55  C   UNL A   1      40.809  30.785  36.165  1.00  0.00     0.031 C 
ATOM     56  C   UNL A   1      42.340  27.388  30.365  1.00  0.00     0.029 A 
ATOM     57  C   UNL A   1      41.220  28.319  30.284  1.00  0.00     0.049 A 
ATOM     58  H   UNL A   1      40.502  29.576  31.782  1.00  0.00     0.167 HD
ATOM     59  C   UNL A   1      38.962  32.012  35.066  1.00  0.00     0.031 A 
ATOM     60  C   UNL A   1      40.453  28.516  29.196  1.00  0.00     0.031 A 
ATOM     61  C   UNL A   1      38.156  32.365  33.927  1.00  0.00     0.049 A 
ATOM     62  C   UNL A   1      39.338  29.519  29.256  1.00  0.00     0.074 A 
ATOM     63  C   UNL A   1      37.150  33.313  33.843  1.00  0.00     0.029 A 
ATOM     64  N   UNL A   1      38.262  31.781  32.675  1.00  0.00    -0.354 N 
ATOM     65  N   UNL A   1      38.953  30.265  30.263  1.00  0.00    -0.248 NA
ATOM     66  C   UNL A   1      38.561  29.718  28.025  1.00  0.00     0.031 C 
ATOM     67  C   UNL A   1      36.613  33.264  32.553  1.00  0.00     0.029 A 
ATOM     68  C   UNL A   1      37.320  32.326  31.819  1.00  0.00     0.049 A 
ATOM     69  H   UNL A   1      38.910  31.081  32.431  1.00  0.00     0.167 HD
ATOM     70  C   UNL A   1      37.901  31.034  29.783  1.00  0.00     0.074 A 
ATOM     71  C   UNL A   1      37.725  30.680  28.390  1.00  0.00     0.031 C 
ATOM     72  C   UNL A   1      37.149  31.952  30.438  1.00  0.00     0.031 A 
BRANCH  59  73
ATOM     73  C   UNL A   1      38.651  32.652  36.391  1.00  0.00    -0.014 A 
ATOM     74  C   UNL A   1      37.783  32.044  37.312  1.00  0.00     0.009 A 
ATOM     75  C   UNL A   1      39.253  33.874  36.733  1.00  0.00     0.009 A 
ATOM     76  C   UNL A   1      37.490  32.666  38.528  1.00  0.00     0.001 A 
ATOM     77  C   UNL A   1      38.984  34.478  37.962  1.00  0.00     0.001 A 
ATOM     78  C   UNL A   1      38.094  33.880  38.854  1.00  0.00     0.000 A 
ENDBRANCH  59  73
BRANCH  60  79
ATOM     79  C   UNL A   1      40.733  27.757  27.950  1.00  0.00    -0.014 A 
ATOM     80  C   UNL A   1      41.603  28.276  26.980  1.00  0.00     0.009 A 
ATOM     81  C   UNL A   1      40.146  26.500  27.733  1.00  0.00     0.009 A 
ATOM     82  C   UNL A   1      41.865  27.561  25.810  1.00  0.00     0.001 A 
ATOM     83  C   UNL A   1      40.432  25.776  26.574  1.00  0.00     0.001 A 
ATOM     84  C   UNL A   1      41.284  26.310  25.610  1.00  0.00     0.000 A 
ENDBRANCH  60  79
BRANCH  72  85
ATOM     85  C   UNL A   1      36.077  32.647  29.647  1.00  0.00    -0.014 A 
ATOM     86  C   UNL A   1      36.292  33.917  29.090  1.00  0.00     0.009 A 
ATOM     87  C   UNL A   1      34.848  32.007  29.429  1.00  0.00     0.009 A 
ATOM     88  C   UNL A   1      35.284  34.547  28.359  1.00  0.00     0.001 A 
ATOM     89  C   UNL A   1      33.852  32.627  28.674  1.00  0.00     0.001 A 
ATOM     90  C   UNL A   1      34.066  33.899  28.148  1.00  0.00     0.000 A 
ENDBRANCH  72  85
ENDBRANCH  46  47
ENDBRANCH  38  41
ENDBRANCH  36  37
ENDBRANCH  35  36
ENDBRANCH   1  35
TORSDOF 15
ENDMDL
MODEL 3
REMARK VINA RESULT:     -11.8      5.021     11.093
REMARK SMILES CCOc1cc2c(cc1/C=C1/C(=O)N(c3cccc(C(=O)NCCCNC(=O)c4ccc(-c5c6nc(c(-c7ccccc7)c7ccc([nH]7)c(-c7ccccc7)c7nc(c(-c8ccccc8)c8ccc5[nH]8)C=C7)C=C6)cc4)c3)C(=S)N=C1O)OCO2
REMARK SMILES IDX 23 1 22 2 20 3 21 4 19 6 15 7 16 8 77 9 17 10 18 11 14 12
REMARK SMILES IDX 10 13 11 14 12 15 81 16 13 17 80 18 78 19 79 20 9 21 4 22
REMARK SMILES IDX 5 23 6 24 8 25 7 26 85 27 83 28 84 29 3 30 2 31 1 32 82 33
REMARK SMILES IDX 24 35 25 36 26 37 27 38 28 40 29 41 30 42 76 43 31 44 75 45
REMARK SMILES IDX 32 46 33 47 34 48 69 49 35 50 74 51 68 52 70 53 36 54 73 55
REMARK SMILES IDX 67 56 66 57 37 59 59 60 44 61 58 62 45 63 48 64 57 65 71 66
REMARK SMILES IDX 46 67 47 68 56 70 72 71 49 72 38 73 39 74 43 75 40 76 42 77
REMARK SMILES IDX 41 78 60 79 61 80 65 81 62 82 64 83 63 84 50 85 51 86 55 87
REMARK SMILES IDX 52 88 54 89 53 90
REMARK H PARENT 22 5 82 34 26 39 70 58 48 69
REMARK Flexibility Score: inf
ROOT
ATOM      1  C   UNL A   1      34.155  35.474  29.083  1.00  0.00     0.118 C 
ENDROOT
BRANCH   1   2
ATOM      2  N   UNL A   1      33.419  35.432  30.340  1.00  0.00    -0.352 N 
ATOM      3  C   UNL A   1      33.641  34.876  31.579  1.00  0.00     0.251 C 
ATOM      4  O   UNL A   1      32.765  35.052  32.429  1.00  0.00    -0.269 OA
ATOM      5  H   UNL A   1      32.562  35.915  30.291  1.00  0.00     0.163 HD
BRANCH   3   6
ATOM      6  C   UNL A   1      34.819  34.031  31.933  1.00  0.00     0.041 A 
ATOM      7  C   UNL A   1      37.229  33.704  32.192  1.00  0.00     0.052 A 
ATOM      8  C   UNL A   1      37.014  32.330  32.321  1.00  0.00     0.027 A 
ATOM      9  C   UNL A   1      36.097  34.536  32.162  1.00  0.00     0.040 A 
ATOM     10  C   UNL A   1      35.721  31.802  32.252  1.00  0.00     0.003 A 
ATOM     11  C   UNL A   1      34.637  32.645  32.005  1.00  0.00     0.014 A 
BRANCH   7  12
ATOM     12  N   UNL A   1      38.522  34.303  31.894  1.00  0.00    -0.251 N 
ATOM     13  C   UNL A   1      40.666  35.037  28.985  1.00  0.00     0.031 C 
ATOM     14  C   UNL A   1      40.317  34.719  30.254  1.00  0.00     0.103 C 
ATOM     15  C   UNL A   1      38.890  34.365  30.532  1.00  0.00     0.270 C 
ATOM     16  C   UNL A   1      41.164  34.692  31.434  1.00  0.00     0.226 C 
ATOM     17  O   UNL A   1      38.117  34.163  29.592  1.00  0.00    -0.268 OA
ATOM     18  N   UNL A   1      40.781  34.674  32.646  1.00  0.00    -0.184 NA
ATOM     19  C   UNL A   1      39.440  34.594  32.945  1.00  0.00     0.210 C 
ATOM     20  S   UNL A   1      39.102  34.702  34.609  1.00  0.00    -0.038 S 
BRANCH  13  21
ATOM     21  C   UNL A   1      41.961  35.517  28.432  1.00  0.00     0.021 A 
ATOM     22  C   UNL A   1      43.083  34.645  28.297  1.00  0.00     0.130 A 
ATOM     23  C   UNL A   1      44.298  35.119  27.780  1.00  0.00     0.097 A 
ATOM     24  C   UNL A   1      44.388  36.449  27.440  1.00  0.00     0.169 A 
ATOM     25  C   UNL A   1      42.080  36.837  27.957  1.00  0.00     0.062 A 
ATOM     26  C   UNL A   1      43.307  37.283  27.519  1.00  0.00     0.166 A 
ATOM     27  O   UNL A   1      45.497  37.076  26.965  1.00  0.00    -0.453 OA
ATOM     28  O   UNL A   1      43.596  38.549  27.116  1.00  0.00    -0.454 OA
ATOM     29  C   UNL A   1      45.010  38.431  26.861  1.00  0.00     0.468 C 
BRANCH  22  30
ATOM     30  O   UNL A   1      42.903  33.306  28.557  1.00  0.00    -0.493 OA
BRANCH  30  31
ATOM     31  C   UNL A   1      44.083  32.493  28.591  1.00  0.00     0.226 C 
ATOM     32  C   UNL A   1      44.435  31.994  29.987  1.00  0.00     0.049 C 
ENDBRANCH  30  31
ENDBRANCH  22  30
ENDBRANCH  13  21
BRANCH  16  33
ATOM     33  O   UNL A   1      42.482  34.601  31.251  1.00  0.00    -0.493 OA
ATOM     34  H   UNL A   1      42.954  35.325  30.887  1.00  0.00     0.295 HD
ENDBRANCH  16  33
ENDBRANCH   7  12
ENDBRANCH   3   6
ENDBRANCH   1   2
BRANCH   1  35
ATOM     35  C   UNL A   1      33.838  34.327  28.138  1.00  0.00     0.042 C 
BRANCH  35  36
ATOM     36  C   UNL A   1      34.688  33.086  28.343  1.00  0.00     0.118 C 
BRANCH  36  37
ATOM     37  N   UNL A   1      34.063  31.881  27.811  1.00  0.00    -0.352 N 
ATOM     38  C   UNL A   1      34.551  30.615  27.607  1.00  0.00     0.251 C 
ATOM     39  H   UNL A   1      33.121  31.996  27.551  1.00  0.00     0.163 HD
ATOM     40  O   UNL A   1      33.887  29.821  26.938  1.00  0.00    -0.269 OA
BRANCH  38  41
ATOM     41  C   UNL A   1      35.857  30.185  28.154  1.00  0.00     0.039 A 
ATOM     42  C   UNL A   1      35.896  29.581  29.415  1.00  0.00     0.014 A 
ATOM     43  C   UNL A   1      37.050  30.417  27.467  1.00  0.00     0.014 A 
ATOM     44  C   UNL A   1      37.112  29.147  29.947  1.00  0.00     0.010 A 
ATOM     45  C   UNL A   1      38.246  29.891  27.947  1.00  0.00     0.010 A 
ATOM     46  C   UNL A   1      38.294  29.260  29.197  1.00  0.00    -0.014 A 
BRANCH  46  47
ATOM     47  C   UNL A   1      39.584  28.725  29.701  1.00  0.00     0.031 A 
ATOM     48  C   UNL A   1      40.354  29.461  30.765  1.00  0.00     0.074 A 
ATOM     49  C   UNL A   1      40.104  27.614  29.144  1.00  0.00     0.049 A 
ATOM     50  N   UNL A   1      41.521  29.175  31.288  1.00  0.00    -0.248 NA
ATOM     51  C   UNL A   1      39.751  30.697  31.288  1.00  0.00     0.031 C 
ATOM     52  C   UNL A   1      39.489  26.842  28.060  1.00  0.00     0.029 A 
ATOM     53  N   UNL A   1      41.272  26.945  29.405  1.00  0.00    -0.354 N 
ATOM     54  C   UNL A   1      41.801  30.207  32.175  1.00  0.00     0.074 A 
ATOM     55  C   UNL A   1      40.708  31.149  32.084  1.00  0.00     0.031 C 
ATOM     56  C   UNL A   1      40.271  25.789  27.772  1.00  0.00     0.029 A 
ATOM     57  C   UNL A   1      41.457  25.833  28.619  1.00  0.00     0.049 A 
ATOM     58  H   UNL A   1      41.917  27.234  30.091  1.00  0.00     0.167 HD
ATOM     59  C   UNL A   1      42.861  30.349  33.004  1.00  0.00     0.031 A 
ATOM     60  C   UNL A   1      42.470  24.948  28.580  1.00  0.00     0.031 A 
ATOM     61  C   UNL A   1      43.938  29.400  33.108  1.00  0.00     0.049 A 
ATOM     62  C   UNL A   1      43.626  25.114  29.525  1.00  0.00     0.074 A 
ATOM     63  C   UNL A   1      45.016  29.411  33.977  1.00  0.00     0.029 A 
ATOM     64  N   UNL A   1      44.075  28.274  32.313  1.00  0.00    -0.354 N 
ATOM     65  N   UNL A   1      43.832  26.048  30.421  1.00  0.00    -0.248 NA
ATOM     66  C   UNL A   1      44.682  24.094  29.461  1.00  0.00     0.031 C 
ATOM     67  C   UNL A   1      45.832  28.317  33.671  1.00  0.00     0.029 A 
ATOM     68  C   UNL A   1      45.235  27.596  32.650  1.00  0.00     0.049 A 
ATOM     69  H   UNL A   1      43.441  27.996  31.612  1.00  0.00     0.167 HD
ATOM     70  C   UNL A   1      45.030  25.720  31.041  1.00  0.00     0.074 A 
ATOM     71  C   UNL A   1      45.493  24.490  30.432  1.00  0.00     0.031 C 
ATOM     72  C   UNL A   1      45.688  26.380  32.025  1.00  0.00     0.031 A 
BRANCH  59  73
ATOM     73  C   UNL A   1      42.911  31.587  33.858  1.00  0.00    -0.014 A 
ATOM     74  C   UNL A   1      43.756  32.663  33.539  1.00  0.00     0.009 A 
ATOM     75  C   UNL A   1      42.084  31.687  34.989  1.00  0.00     0.009 A 
ATOM     76  C   UNL A   1      43.803  33.794  34.358  1.00  0.00     0.001 A 
ATOM     77  C   UNL A   1      42.111  32.832  35.787  1.00  0.00     0.001 A 
ATOM     78  C   UNL A   1      42.978  33.879  35.478  1.00  0.00     0.000 A 
ENDBRANCH  59  73
BRANCH  60  79
ATOM     79  C   UNL A   1      42.422  23.813  27.623  1.00  0.00    -0.014 A 
ATOM     80  C   UNL A   1      41.827  22.598  27.989  1.00  0.00     0.009 A 
ATOM     81  C   UNL A   1      42.952  23.947  26.330  1.00  0.00     0.009 A 
ATOM     82  C   UNL A   1      41.781  21.532  27.088  1.00  0.00     0.001 A 
ATOM     83  C   UNL A   1      42.881  22.889  25.422  1.00  0.00     0.001 A 
ATOM     84  C   UNL A   1      42.303  21.680  25.804  1.00  0.00     0.000 A 
ENDBRANCH  60  79
BRANCH  72  85
ATOM     85  C   UNL A   1      46.972  25.772  32.515  1.00  0.00    -0.014 A 
ATOM     86  C   UNL A   1      48.201  26.089  31.917  1.00  0.00     0.009 A 
ATOM     87  C   UNL A   1      46.953  24.896  33.611  1.00  0.00     0.009 A 
ATOM     88  C   UNL A   1      49.383  25.512  32.385  1.00  0.00     0.001 A 
ATOM     89  C   UNL A   1      48.139  24.344  34.096  1.00  0.00     0.001 A 
ATOM     90  C   UNL A   1      49.352  24.644  33.477  1.00  0.00     0.000 A 
ENDBRANCH  72  85
ENDBRANCH  46  47
ENDBRANCH  38  41
ENDBRANCH  36  37
ENDBRANCH  35  36
ENDBRANCH   1  35
TORSDOF 15
ENDMDL
