MODEL 1
REMARK VINA RESULT:     -11.0      0.000      0.000
REMARK SMILES C=C[C@@H](C)Oc1cnc2ccccc2c1C(=O)NCCCNC(=O)c1ccc(-c2c3nc(c(-c4ccccc4)c4ccc([nH]4)c(-c4ccccc4)c4nc(c(-c5ccccc5)c5ccc2[nH]5)C=C4)C=C3)cc1
REMARK SMILES IDX 19 1 18 2 16 3 17 4 15 6 6 7 7 8 8 9 14 10 9 11 13 12 10 13
REMARK SMILES IDX 12 14 11 15 5 16 3 17 4 18 2 19 1 20 20 21 21 22 22 23 23 24
REMARK SMILES IDX 24 26 25 27 26 28 72 29 27 30 71 31 28 32 29 33 30 34 65 35
REMARK SMILES IDX 31 36 70 37 64 38 66 39 32 40 69 41 63 42 62 43 33 45 55 46
REMARK SMILES IDX 40 47 54 48 41 49 44 50 53 51 67 52 42 53 43 54 52 56 68 57
REMARK SMILES IDX 45 58 34 59 35 60 39 61 36 62 38 63 37 64 56 65 57 66 61 67
REMARK SMILES IDX 58 68 60 69 59 70 46 71 47 72 51 73 48 74 50 75 49 76
REMARK H PARENT 18 5 22 25 66 44 44 55
REMARK Flexibility Score: inf
ROOT
ATOM      1  C   UNL A   1      37.251  21.475  24.803  1.00  0.00     0.118 C 
ENDROOT
BRANCH   1   2
ATOM      2  N   UNL A   1      36.310  21.370  25.911  1.00  0.00    -0.352 N 
ATOM      3  C   UNL A   1      34.944  21.261  26.040  1.00  0.00     0.255 C 
ATOM      4  O   UNL A   1      34.525  21.475  27.182  1.00  0.00    -0.269 OA
ATOM      5  H   UNL A   1      36.765  21.379  26.783  1.00  0.00     0.163 HD
BRANCH   3   6
ATOM      6  C   UNL A   1      33.974  20.844  24.969  1.00  0.00     0.092 A 
ATOM      7  C   UNL A   1      33.149  21.863  24.441  1.00  0.00     0.151 A 
ATOM      8  C   UNL A   1      32.295  21.530  23.406  1.00  0.00     0.159 A 
ATOM      9  N   UNL A   1      32.085  20.278  22.963  1.00  0.00    -0.252 NA
ATOM     10  C   UNL A   1      33.876  19.534  24.403  1.00  0.00     0.017 A 
ATOM     11  C   UNL A   1      32.851  19.307  23.456  1.00  0.00     0.071 A 
ATOM     12  C   UNL A   1      34.741  18.446  24.644  1.00  0.00     0.011 A 
ATOM     13  C   UNL A   1      32.628  18.033  22.954  1.00  0.00     0.029 A 
ATOM     14  C   UNL A   1      34.499  17.161  24.154  1.00  0.00     0.001 A 
ATOM     15  C   UNL A   1      33.417  16.948  23.322  1.00  0.00     0.002 A 
BRANCH   7  16
ATOM     16  O   UNL A   1      33.277  23.164  24.839  1.00  0.00    -0.484 OA
BRANCH  16  17
ATOM     17  C   UNL A   1      32.130  23.871  25.345  1.00  0.00     0.192 C 
ATOM     18  C   UNL A   1      32.363  25.372  25.523  1.00  0.00     0.057 C 
BRANCH  17  19
ATOM     19  C   UNL A   1      31.545  23.229  26.583  1.00  0.00     0.009 C 
ATOM     20  C   UNL A   1      30.235  23.083  26.825  1.00  0.00     0.008 C 
ENDBRANCH  17  19
ENDBRANCH  16  17
ENDBRANCH   7  16
ENDBRANCH   3   6
ENDBRANCH   1   2
BRANCH   1  21
ATOM     21  C   UNL A   1      38.187  20.253  24.798  1.00  0.00     0.042 C 
BRANCH  21  22
ATOM     22  C   UNL A   1      38.944  20.008  26.098  1.00  0.00     0.118 C 
BRANCH  22  23
ATOM     23  N   UNL A   1      40.183  19.279  25.879  1.00  0.00    -0.352 N 
ATOM     24  C   UNL A   1      41.487  19.692  25.900  1.00  0.00     0.251 C 
ATOM     25  H   UNL A   1      40.063  18.322  25.682  1.00  0.00     0.163 HD
ATOM     26  O   UNL A   1      42.344  18.927  25.435  1.00  0.00    -0.269 OA
BRANCH  24  27
ATOM     27  C   UNL A   1      41.926  21.002  26.448  1.00  0.00     0.039 A 
ATOM     28  C   UNL A   1      41.882  21.187  27.838  1.00  0.00     0.014 A 
ATOM     29  C   UNL A   1      42.263  22.091  25.638  1.00  0.00     0.014 A 
ATOM     30  C   UNL A   1      42.177  22.433  28.404  1.00  0.00     0.010 A 
ATOM     31  C   UNL A   1      42.640  23.313  26.208  1.00  0.00     0.010 A 
ATOM     32  C   UNL A   1      42.566  23.511  27.594  1.00  0.00    -0.014 A 
BRANCH  32  33
ATOM     33  C   UNL A   1      42.815  24.856  28.183  1.00  0.00     0.031 A 
ATOM     34  C   UNL A   1      44.213  25.269  28.574  1.00  0.00     0.074 A 
ATOM     35  C   UNL A   1      41.794  25.713  28.377  1.00  0.00     0.049 A 
ATOM     36  N   UNL A   1      44.631  26.399  29.091  1.00  0.00    -0.248 NA
ATOM     37  C   UNL A   1      45.280  24.273  28.380  1.00  0.00     0.031 C 
ATOM     38  C   UNL A   1      40.388  25.438  28.081  1.00  0.00     0.029 A 
ATOM     39  N   UNL A   1      41.786  26.997  28.867  1.00  0.00    -0.354 N 
ATOM     40  C   UNL A   1      45.996  26.239  29.304  1.00  0.00     0.074 A 
ATOM     41  C   UNL A   1      46.328  24.889  28.907  1.00  0.00     0.031 C 
ATOM     42  C   UNL A   1      39.658  26.532  28.357  1.00  0.00     0.029 A 
ATOM     43  C   UNL A   1      40.539  27.575  28.874  1.00  0.00     0.049 A 
ATOM     44  H   UNL A   1      42.595  27.458  29.183  1.00  0.00     0.167 HD
ATOM     45  C   UNL A   1      46.900  27.136  29.766  1.00  0.00     0.031 A 
ATOM     46  C   UNL A   1      40.150  28.811  29.241  1.00  0.00     0.031 A 
ATOM     47  C   UNL A   1      46.587  28.489  30.139  1.00  0.00     0.049 A 
ATOM     48  C   UNL A   1      41.175  29.800  29.720  1.00  0.00     0.074 A 
ATOM     49  C   UNL A   1      47.443  29.486  30.577  1.00  0.00     0.029 A 
ATOM     50  N   UNL A   1      45.316  29.039  30.106  1.00  0.00    -0.354 N 
ATOM     51  N   UNL A   1      42.468  29.646  29.865  1.00  0.00    -0.248 NA
ATOM     52  C   UNL A   1      40.686  31.143  30.062  1.00  0.00     0.031 C 
ATOM     53  C   UNL A   1      46.682  30.632  30.837  1.00  0.00     0.029 A 
ATOM     54  C   UNL A   1      45.362  30.360  30.520  1.00  0.00     0.049 A 
ATOM     55  H   UNL A   1      44.501  28.561  29.830  1.00  0.00     0.167 HD
ATOM     56  C   UNL A   1      42.951  30.878  30.285  1.00  0.00     0.074 A 
ATOM     57  C   UNL A   1      41.815  31.773  30.358  1.00  0.00     0.031 C 
ATOM     58  C   UNL A   1      44.224  31.238  30.582  1.00  0.00     0.031 A 
BRANCH  45  59
ATOM     59  C   UNL A   1      48.325  26.671  29.893  1.00  0.00    -0.014 A 
ATOM     60  C   UNL A   1      48.777  26.023  31.055  1.00  0.00     0.009 A 
ATOM     61  C   UNL A   1      49.225  26.867  28.834  1.00  0.00     0.009 A 
ATOM     62  C   UNL A   1      50.109  25.622  31.170  1.00  0.00     0.001 A 
ATOM     63  C   UNL A   1      50.550  26.438  28.941  1.00  0.00     0.001 A 
ATOM     64  C   UNL A   1      50.994  25.827  30.112  1.00  0.00     0.000 A 
ENDBRANCH  45  59
BRANCH  46  65
ATOM     65  C   UNL A   1      38.722  29.205  29.124  1.00  0.00    -0.014 A 
ATOM     66  C   UNL A   1      38.228  29.729  27.919  1.00  0.00     0.009 A 
ATOM     67  C   UNL A   1      37.849  29.065  30.213  1.00  0.00     0.009 A 
ATOM     68  C   UNL A   1      36.894  30.128  27.815  1.00  0.00     0.001 A 
ATOM     69  C   UNL A   1      36.509  29.443  30.097  1.00  0.00     0.001 A 
ATOM     70  C   UNL A   1      36.035  29.981  28.902  1.00  0.00     0.000 A 
ENDBRANCH  46  65
BRANCH  58  71
ATOM     71  C   UNL A   1      44.455  32.670  30.971  1.00  0.00    -0.014 A 
ATOM     72  C   UNL A   1      44.406  33.081  32.312  1.00  0.00     0.009 A 
ATOM     73  C   UNL A   1      44.744  33.619  29.977  1.00  0.00     0.009 A 
ATOM     74  C   UNL A   1      44.602  34.422  32.645  1.00  0.00     0.001 A 
ATOM     75  C   UNL A   1      44.964  34.954  30.317  1.00  0.00     0.001 A 
ATOM     76  C   UNL A   1      44.882  35.357  31.648  1.00  0.00     0.000 A 
ENDBRANCH  58  71
ENDBRANCH  32  33
ENDBRANCH  24  27
ENDBRANCH  22  23
ENDBRANCH  21  22
ENDBRANCH   1  21
TORSDOF 13
ENDMDL
MODEL 2
REMARK VINA RESULT:     -10.7      3.722      8.396
REMARK SMILES C=C[C@@H](C)Oc1cnc2ccccc2c1C(=O)NCCCNC(=O)c1ccc(-c2c3nc(c(-c4ccccc4)c4ccc([nH]4)c(-c4ccccc4)c4nc(c(-c5ccccc5)c5ccc2[nH]5)C=C4)C=C3)cc1
REMARK SMILES IDX 19 1 18 2 16 3 17 4 15 6 6 7 7 8 8 9 14 10 9 11 13 12 10 13
REMARK SMILES IDX 12 14 11 15 5 16 3 17 4 18 2 19 1 20 20 21 21 22 22 23 23 24
REMARK SMILES IDX 24 26 25 27 26 28 72 29 27 30 71 31 28 32 29 33 30 34 65 35
REMARK SMILES IDX 31 36 70 37 64 38 66 39 32 40 69 41 63 42 62 43 33 45 55 46
REMARK SMILES IDX 40 47 54 48 41 49 44 50 53 51 67 52 42 53 43 54 52 56 68 57
REMARK SMILES IDX 45 58 34 59 35 60 39 61 36 62 38 63 37 64 56 65 57 66 61 67
REMARK SMILES IDX 58 68 60 69 59 70 46 71 47 72 51 73 48 74 50 75 49 76
REMARK H PARENT 18 5 22 25 66 44 44 55
REMARK Flexibility Score: inf
ROOT
ATOM      1  C   UNL A   1      32.306  30.437  26.150  1.00  0.00     0.118 C 
ENDROOT
BRANCH   1   2
ATOM      2  N   UNL A   1      32.724  30.032  24.814  1.00  0.00    -0.352 N 
ATOM      3  C   UNL A   1      32.559  28.917  24.023  1.00  0.00     0.255 C 
ATOM      4  O   UNL A   1      33.317  28.872  23.049  1.00  0.00    -0.269 OA
ATOM      5  H   UNL A   1      33.258  30.727  24.367  1.00  0.00     0.163 HD
BRANCH   3   6
ATOM      6  C   UNL A   1      31.524  27.841  24.198  1.00  0.00     0.092 A 
ATOM      7  C   UNL A   1      30.279  28.061  23.567  1.00  0.00     0.151 A 
ATOM      8  C   UNL A   1      29.328  27.061  23.649  1.00  0.00     0.159 A 
ATOM      9  N   UNL A   1      29.445  25.957  24.407  1.00  0.00    -0.252 NA
ATOM     10  C   UNL A   1      31.725  26.601  24.881  1.00  0.00     0.017 A 
ATOM     11  C   UNL A   1      30.611  25.739  25.012  1.00  0.00     0.071 A 
ATOM     12  C   UNL A   1      32.945  26.108  25.392  1.00  0.00     0.011 A 
ATOM     13  C   UNL A   1      30.707  24.575  25.761  1.00  0.00     0.029 A 
ATOM     14  C   UNL A   1      33.031  24.948  26.164  1.00  0.00     0.001 A 
ATOM     15  C   UNL A   1      31.896  24.188  26.371  1.00  0.00     0.002 A 
BRANCH   7  16
ATOM     16  O   UNL A   1      30.057  29.161  22.788  1.00  0.00    -0.484 OA
BRANCH  16  17
ATOM     17  C   UNL A   1      28.852  29.929  22.963  1.00  0.00     0.192 C 
ATOM     18  C   UNL A   1      28.008  30.046  21.693  1.00  0.00     0.057 C 
BRANCH  17  19
ATOM     19  C   UNL A   1      29.102  31.271  23.613  1.00  0.00     0.009 C 
ATOM     20  C   UNL A   1      28.514  32.420  23.250  1.00  0.00     0.008 C 
ENDBRANCH  17  19
ENDBRANCH  16  17
ENDBRANCH   7  16
ENDBRANCH   3   6
ENDBRANCH   1   2
BRANCH   1  21
ATOM     21  C   UNL A   1      32.838  29.432  27.188  1.00  0.00     0.042 C 
BRANCH  21  22
ATOM     22  C   UNL A   1      34.322  29.561  27.516  1.00  0.00     0.118 C 
BRANCH  22  23
ATOM     23  N   UNL A   1      34.568  30.558  28.546  1.00  0.00    -0.352 N 
ATOM     24  C   UNL A   1      35.658  30.780  29.342  1.00  0.00     0.251 C 
ATOM     25  H   UNL A   1      33.822  31.182  28.696  1.00  0.00     0.163 HD
ATOM     26  O   UNL A   1      35.521  31.538  30.314  1.00  0.00    -0.269 OA
BRANCH  24  27
ATOM     27  C   UNL A   1      36.989  30.162  29.105  1.00  0.00     0.039 A 
ATOM     28  C   UNL A   1      37.714  29.705  30.216  1.00  0.00     0.014 A 
ATOM     29  C   UNL A   1      37.598  30.126  27.847  1.00  0.00     0.014 A 
ATOM     30  C   UNL A   1      39.018  29.216  30.068  1.00  0.00     0.010 A 
ATOM     31  C   UNL A   1      38.868  29.558  27.687  1.00  0.00     0.010 A 
ATOM     32  C   UNL A   1      39.608  29.132  28.798  1.00  0.00    -0.014 A 
BRANCH  32  33
ATOM     33  C   UNL A   1      41.018  28.676  28.642  1.00  0.00     0.031 A 
ATOM     34  C   UNL A   1      41.319  27.245  28.268  1.00  0.00     0.074 A 
ATOM     35  C   UNL A   1      42.036  29.536  28.839  1.00  0.00     0.049 A 
ATOM     36  N   UNL A   1      42.478  26.663  28.077  1.00  0.00    -0.248 NA
ATOM     37  C   UNL A   1      40.167  26.342  28.112  1.00  0.00     0.031 C 
ATOM     38  C   UNL A   1      41.898  30.937  29.237  1.00  0.00     0.029 A 
ATOM     39  N   UNL A   1      43.393  29.355  28.723  1.00  0.00    -0.354 N 
ATOM     40  C   UNL A   1      42.194  25.330  27.803  1.00  0.00     0.074 A 
ATOM     41  C   UNL A   1      40.760  25.176  27.901  1.00  0.00     0.031 C 
ATOM     42  C   UNL A   1      43.117  31.500  29.294  1.00  0.00     0.029 A 
ATOM     43  C   UNL A   1      44.123  30.495  28.963  1.00  0.00     0.049 A 
ATOM     44  H   UNL A   1      43.804  28.492  28.490  1.00  0.00     0.167 HD
ATOM     45  C   UNL A   1      43.042  24.324  27.477  1.00  0.00     0.031 A 
ATOM     46  C   UNL A   1      45.450  30.711  28.909  1.00  0.00     0.031 A 
ATOM     47  C   UNL A   1      44.467  24.470  27.351  1.00  0.00     0.049 A 
ATOM     48  C   UNL A   1      46.370  29.590  28.513  1.00  0.00     0.074 A 
ATOM     49  C   UNL A   1      45.405  23.520  26.983  1.00  0.00     0.029 A 
ATOM     50  N   UNL A   1      45.159  25.649  27.579  1.00  0.00    -0.354 N 
ATOM     51  N   UNL A   1      46.077  28.350  28.208  1.00  0.00    -0.248 NA
ATOM     52  C   UNL A   1      47.802  29.909  28.432  1.00  0.00     0.031 C 
ATOM     53  C   UNL A   1      46.670  24.119  27.017  1.00  0.00     0.029 A 
ATOM     54  C   UNL A   1      46.513  25.450  27.365  1.00  0.00     0.049 A 
ATOM     55  H   UNL A   1      44.750  26.500  27.854  1.00  0.00     0.167 HD
ATOM     56  C   UNL A   1      47.283  27.750  27.869  1.00  0.00     0.074 A 
ATOM     57  C   UNL A   1      48.308  28.765  27.993  1.00  0.00     0.031 C 
ATOM     58  C   UNL A   1      47.520  26.470  27.487  1.00  0.00     0.031 A 
BRANCH  45  59
ATOM     59  C   UNL A   1      42.438  22.968  27.235  1.00  0.00    -0.014 A 
ATOM     60  C   UNL A   1      42.354  22.015  28.264  1.00  0.00     0.009 A 
ATOM     61  C   UNL A   1      41.932  22.641  25.967  1.00  0.00     0.009 A 
ATOM     62  C   UNL A   1      41.816  20.751  28.016  1.00  0.00     0.001 A 
ATOM     63  C   UNL A   1      41.369  21.386  25.730  1.00  0.00     0.001 A 
ATOM     64  C   UNL A   1      41.321  20.438  26.751  1.00  0.00     0.000 A 
ENDBRANCH  45  59
BRANCH  46  65
ATOM     65  C   UNL A   1      45.994  32.066  29.191  1.00  0.00    -0.014 A 
ATOM     66  C   UNL A   1      46.102  33.014  28.161  1.00  0.00     0.009 A 
ATOM     67  C   UNL A   1      46.411  32.416  30.483  1.00  0.00     0.009 A 
ATOM     68  C   UNL A   1      46.640  34.277  28.415  1.00  0.00     0.001 A 
ATOM     69  C   UNL A   1      46.926  33.689  30.739  1.00  0.00     0.001 A 
ATOM     70  C   UNL A   1      47.048  34.615  29.704  1.00  0.00     0.000 A 
ENDBRANCH  46  65
BRANCH  58  71
ATOM     71  C   UNL A   1      48.936  26.115  27.136  1.00  0.00    -0.014 A 
ATOM     72  C   UNL A   1      49.805  25.554  28.083  1.00  0.00     0.009 A 
ATOM     73  C   UNL A   1      49.399  26.330  25.828  1.00  0.00     0.009 A 
ATOM     74  C   UNL A   1      51.124  25.253  27.738  1.00  0.00     0.001 A 
ATOM     75  C   UNL A   1      50.710  26.005  25.480  1.00  0.00     0.001 A 
ATOM     76  C   UNL A   1      51.575  25.477  26.437  1.00  0.00     0.000 A 
ENDBRANCH  58  71
ENDBRANCH  32  33
ENDBRANCH  24  27
ENDBRANCH  22  23
ENDBRANCH  21  22
ENDBRANCH   1  21
TORSDOF 13
ENDMDL
MODEL 3
REMARK VINA RESULT:     -10.7      0.878      2.661
REMARK SMILES C=C[C@@H](C)Oc1cnc2ccccc2c1C(=O)NCCCNC(=O)c1ccc(-c2c3nc(c(-c4ccccc4)c4ccc([nH]4)c(-c4ccccc4)c4nc(c(-c5ccccc5)c5ccc2[nH]5)C=C4)C=C3)cc1
REMARK SMILES IDX 19 1 18 2 16 3 17 4 15 6 6 7 7 8 8 9 14 10 9 11 13 12 10 13
REMARK SMILES IDX 12 14 11 15 5 16 3 17 4 18 2 19 1 20 20 21 21 22 22 23 23 24
REMARK SMILES IDX 24 26 25 27 26 28 72 29 27 30 71 31 28 32 29 33 30 34 65 35
REMARK SMILES IDX 31 36 70 37 64 38 66 39 32 40 69 41 63 42 62 43 33 45 55 46
REMARK SMILES IDX 40 47 54 48 41 49 44 50 53 51 67 52 42 53 43 54 52 56 68 57
REMARK SMILES IDX 45 58 34 59 35 60 39 61 36 62 38 63 37 64 56 65 57 66 61 67
REMARK SMILES IDX 58 68 60 69 59 70 46 71 47 72 51 73 48 74 50 75 49 76
REMARK H PARENT 18 5 22 25 66 44 44 55
REMARK Flexibility Score: inf
ROOT
ATOM      1  C   UNL A   1      36.849  20.731  24.608  1.00  0.00     0.118 C 
ENDROOT
BRANCH   1   2
ATOM      2  N   UNL A   1      36.011  20.844  25.795  1.00  0.00    -0.352 N 
ATOM      3  C   UNL A   1      34.840  21.491  26.119  1.00  0.00     0.255 C 
ATOM      4  O   UNL A   1      34.612  21.546  27.332  1.00  0.00    -0.269 OA
ATOM      5  H   UNL A   1      36.373  20.330  26.552  1.00  0.00     0.163 HD
BRANCH   3   6
ATOM      6  C   UNL A   1      33.826  22.043  25.156  1.00  0.00     0.092 A 
ATOM      7  C   UNL A   1      33.297  21.132  24.215  1.00  0.00     0.151 A 
ATOM      8  C   UNL A   1      32.311  21.587  23.360  1.00  0.00     0.159 A 
ATOM      9  N   UNL A   1      31.922  22.870  23.258  1.00  0.00    -0.252 NA
ATOM     10  C   UNL A   1      33.312  23.377  25.167  1.00  0.00     0.017 A 
ATOM     11  C   UNL A   1      32.416  23.741  24.135  1.00  0.00     0.071 A 
ATOM     12  C   UNL A   1      33.555  24.365  26.145  1.00  0.00     0.011 A 
ATOM     13  C   UNL A   1      31.970  25.050  24.021  1.00  0.00     0.029 A 
ATOM     14  C   UNL A   1      33.121  25.686  26.014  1.00  0.00     0.001 A 
ATOM     15  C   UNL A   1      32.343  26.036  24.927  1.00  0.00     0.002 A 
BRANCH   7  16
ATOM     16  O   UNL A   1      33.642  19.809  24.228  1.00  0.00    -0.484 OA
BRANCH  16  17
ATOM     17  C   UNL A   1      32.618  18.805  24.355  1.00  0.00     0.192 C 
ATOM     18  C   UNL A   1      32.621  18.093  25.708  1.00  0.00     0.057 C 
BRANCH  17  19
ATOM     19  C   UNL A   1      32.601  17.836  23.194  1.00  0.00     0.009 C 
ATOM     20  C   UNL A   1      32.225  18.143  21.945  1.00  0.00     0.008 C 
ENDBRANCH  17  19
ENDBRANCH  16  17
ENDBRANCH   7  16
ENDBRANCH   3   6
ENDBRANCH   1   2
BRANCH   1  21
ATOM     21  C   UNL A   1      37.972  19.709  24.861  1.00  0.00     0.042 C 
BRANCH  21  22
ATOM     22  C   UNL A   1      38.971  20.095  25.946  1.00  0.00     0.118 C 
BRANCH  22  23
ATOM     23  N   UNL A   1      40.193  19.310  25.867  1.00  0.00    -0.352 N 
ATOM     24  C   UNL A   1      41.506  19.674  25.988  1.00  0.00     0.251 C 
ATOM     25  H   UNL A   1      40.051  18.350  25.699  1.00  0.00     0.163 HD
ATOM     26  O   UNL A   1      42.368  18.856  25.632  1.00  0.00    -0.269 OA
BRANCH  24  27
ATOM     27  C   UNL A   1      41.950  20.989  26.519  1.00  0.00     0.039 A 
ATOM     28  C   UNL A   1      41.902  21.194  27.906  1.00  0.00     0.014 A 
ATOM     29  C   UNL A   1      42.296  22.065  25.695  1.00  0.00     0.014 A 
ATOM     30  C   UNL A   1      42.200  22.446  28.456  1.00  0.00     0.010 A 
ATOM     31  C   UNL A   1      42.678  23.292  26.250  1.00  0.00     0.010 A 
ATOM     32  C   UNL A   1      42.598  23.510  27.632  1.00  0.00    -0.014 A 
BRANCH  32  33
ATOM     33  C   UNL A   1      42.853  24.863  28.203  1.00  0.00     0.031 A 
ATOM     34  C   UNL A   1      44.255  25.282  28.571  1.00  0.00     0.074 A 
ATOM     35  C   UNL A   1      41.832  25.720  28.401  1.00  0.00     0.049 A 
ATOM     36  N   UNL A   1      44.677  26.418  29.071  1.00  0.00    -0.248 NA
ATOM     37  C   UNL A   1      45.321  24.286  28.375  1.00  0.00     0.031 C 
ATOM     38  C   UNL A   1      40.424  25.439  28.126  1.00  0.00     0.029 A 
ATOM     39  N   UNL A   1      41.828  27.008  28.877  1.00  0.00    -0.354 N 
ATOM     40  C   UNL A   1      46.045  26.263  29.267  1.00  0.00     0.074 A 
ATOM     41  C   UNL A   1      46.375  24.910  28.881  1.00  0.00     0.031 C 
ATOM     42  C   UNL A   1      39.695  26.534  28.400  1.00  0.00     0.029 A 
ATOM     43  C   UNL A   1      40.581  27.584  28.894  1.00  0.00     0.049 A 
ATOM     44  H   UNL A   1      42.641  27.475  29.178  1.00  0.00     0.167 HD
ATOM     45  C   UNL A   1      46.954  27.167  29.708  1.00  0.00     0.031 A 
ATOM     46  C   UNL A   1      40.194  28.823  29.253  1.00  0.00     0.031 A 
ATOM     47  C   UNL A   1      46.643  28.523  30.070  1.00  0.00     0.049 A 
ATOM     48  C   UNL A   1      41.223  29.820  29.707  1.00  0.00     0.074 A 
ATOM     49  C   UNL A   1      47.502  29.527  30.486  1.00  0.00     0.029 A 
ATOM     50  N   UNL A   1      45.370  29.071  30.047  1.00  0.00    -0.354 N 
ATOM     51  N   UNL A   1      42.518  29.669  29.837  1.00  0.00    -0.248 NA
ATOM     52  C   UNL A   1      40.736  31.165  30.041  1.00  0.00     0.031 C 
ATOM     53  C   UNL A   1      46.742  30.674  30.744  1.00  0.00     0.029 A 
ATOM     54  C   UNL A   1      45.418  30.396  30.447  1.00  0.00     0.049 A 
ATOM     55  H   UNL A   1      44.552  28.588  29.788  1.00  0.00     0.167 HD
ATOM     56  C   UNL A   1      43.004  30.907  30.238  1.00  0.00     0.074 A 
ATOM     57  C   UNL A   1      41.867  31.800  30.316  1.00  0.00     0.031 C 
ATOM     58  C   UNL A   1      44.280  31.273  30.514  1.00  0.00     0.031 A 
BRANCH  45  59
ATOM     59  C   UNL A   1      48.381  26.706  29.822  1.00  0.00    -0.014 A 
ATOM     60  C   UNL A   1      48.864  26.121  31.005  1.00  0.00     0.009 A 
ATOM     61  C   UNL A   1      49.252  26.842  28.730  1.00  0.00     0.009 A 
ATOM     62  C   UNL A   1      50.198  25.723  31.105  1.00  0.00     0.001 A 
ATOM     63  C   UNL A   1      50.578  26.417  28.824  1.00  0.00     0.001 A 
ATOM     64  C   UNL A   1      51.054  25.869  30.014  1.00  0.00     0.000 A 
ENDBRANCH  45  59
BRANCH  46  65
ATOM     65  C   UNL A   1      38.763  29.213  29.150  1.00  0.00    -0.014 A 
ATOM     66  C   UNL A   1      38.259  29.747  27.954  1.00  0.00     0.009 A 
ATOM     67  C   UNL A   1      37.899  29.059  30.244  1.00  0.00     0.009 A 
ATOM     68  C   UNL A   1      36.923  30.143  27.863  1.00  0.00     0.001 A 
ATOM     69  C   UNL A   1      36.557  29.433  30.141  1.00  0.00     0.001 A 
ATOM     70  C   UNL A   1      36.072  29.982  28.955  1.00  0.00     0.000 A 
ENDBRANCH  46  65
BRANCH  58  71
ATOM     71  C   UNL A   1      44.513  32.709  30.884  1.00  0.00    -0.014 A 
ATOM     72  C   UNL A   1      44.780  33.682  29.909  1.00  0.00     0.009 A 
ATOM     73  C   UNL A   1      44.446  33.097  32.232  1.00  0.00     0.009 A 
ATOM     74  C   UNL A   1      45.015  35.006  30.280  1.00  0.00     0.001 A 
ATOM     75  C   UNL A   1      44.657  34.426  32.598  1.00  0.00     0.001 A 
ATOM     76  C   UNL A   1      44.952  35.378  31.623  1.00  0.00     0.000 A 
ENDBRANCH  58  71
ENDBRANCH  32  33
ENDBRANCH  24  27
ENDBRANCH  22  23
ENDBRANCH  21  22
ENDBRANCH   1  21
TORSDOF 13
ENDMDL
