MODEL 1
REMARK VINA RESULT:     -13.6      0.000      0.000
REMARK SMILES Cc1ccccc1/[NH+]=C1\S[C@@H](CC(=O)Nc2ccc(C(=O)NCCCNC(=O)c3ccc(-c4c5nc(c(-c6ccccc6)c6ccc([nH]6)c(-c6ccccc6)c6nc(c(-c7ccccc7)c7ccc4[nH]7)C=C6)C=C5)cc3)cc2)C(=O)N1C
REMARK SMILES IDX 23 1 22 2 20 3 21 4 19 6 16 7 17 8 78 9 18 10 77 11 15 12
REMARK SMILES IDX 13 13 14 14 12 16 11 17 8 18 9 19 10 21 81 22 79 23 82 24
REMARK SMILES IDX 80 25 7 26 1 27 2 28 3 29 4 30 6 31 5 32 24 33 25 34 26 35
REMARK SMILES IDX 27 36 28 38 29 39 30 40 76 41 31 42 75 43 32 44 33 45 34 46
REMARK SMILES IDX 69 47 35 48 74 49 68 50 70 51 36 52 73 53 67 54 66 55 37 57
REMARK SMILES IDX 59 58 44 59 58 60 45 61 48 62 57 63 71 64 46 65 47 66 56 68
REMARK SMILES IDX 72 69 49 70 38 71 39 72 43 73 40 74 42 75 41 76 60 77 61 78
REMARK SMILES IDX 65 79 62 80 64 81 63 82 50 83 51 84 55 85 52 86 54 87 53 88
REMARK H PARENT 22 5 15 15 8 20 26 37 70 56 48 67
REMARK Flexibility Score: inf
ROOT
ATOM      1  C   UNL A   1      32.831  30.989  27.088  1.00  0.00     0.118 C 
ENDROOT
BRANCH   1   2
ATOM      2  N   UNL A   1      32.076  29.843  27.593  1.00  0.00    -0.352 N 
ATOM      3  C   UNL A   1      31.891  28.583  27.060  1.00  0.00     0.251 C 
ATOM      4  O   UNL A   1      31.434  27.692  27.774  1.00  0.00    -0.269 OA
ATOM      5  H   UNL A   1      31.624  29.996  28.454  1.00  0.00     0.163 HD
BRANCH   3   6
ATOM      6  C   UNL A   1      32.244  28.262  25.654  1.00  0.00     0.039 A 
ATOM      7  C   UNL A   1      32.820  27.550  23.010  1.00  0.00     0.041 A 
ATOM      8  C   UNL A   1      33.758  27.359  24.019  1.00  0.00     0.027 A 
ATOM      9  C   UNL A   1      31.663  28.269  23.281  1.00  0.00     0.027 A 
ATOM     10  C   UNL A   1      33.477  27.710  25.331  1.00  0.00     0.016 A 
ATOM     11  C   UNL A   1      31.369  28.612  24.612  1.00  0.00     0.016 A 
BRANCH   7  12
ATOM     12  N   UNL A   1      33.044  26.982  21.751  1.00  0.00    -0.326 N 
ATOM     13  C   UNL A   1      32.776  25.668  21.416  1.00  0.00     0.226 C 
ATOM     14  O   UNL A   1      33.251  25.163  20.400  1.00  0.00    -0.275 OA
ATOM     15  H   UNL A   1      33.421  27.563  21.051  1.00  0.00     0.169 HD
BRANCH  13  16
ATOM     16  C   UNL A   1      31.705  24.948  22.224  1.00  0.00     0.128 C 
BRANCH  16  17
ATOM     17  C   UNL A   1      32.187  24.032  23.328  1.00  0.00     0.183 C 
ATOM     18  N   UNL A   1      32.278  20.747  25.067  1.00  0.00    -0.234 N 
ATOM     19  C   UNL A   1      31.862  21.786  24.442  1.00  0.00     0.319 C 
ATOM     20  H   UNL A   1      31.956  20.656  25.994  1.00  0.00     0.313 HD
ATOM     21  S   UNL A   1      32.043  22.280  22.793  1.00  0.00    -0.022 SA
ATOM     22  N   UNL A   1      31.194  22.771  25.109  1.00  0.00    -0.193 N 
ATOM     23  C   UNL A   1      31.437  24.049  24.650  1.00  0.00     0.324 C 
ATOM     24  C   UNL A   1      30.476  22.552  26.348  1.00  0.00     0.301 C 
ATOM     25  O   UNL A   1      31.189  25.066  25.288  1.00  0.00    -0.245 OA
BRANCH  18  26
ATOM     26  C   UNL A   1      33.125  19.720  24.625  1.00  0.00     0.128 A 
ATOM     27  C   UNL A   1      35.414  20.766  25.238  1.00  0.00     0.049 C 
ATOM     28  C   UNL A   1      34.530  19.649  24.763  1.00  0.00    -0.004 A 
ATOM     29  C   UNL A   1      35.195  18.441  24.458  1.00  0.00     0.008 A 
ATOM     30  C   UNL A   1      34.493  17.292  24.110  1.00  0.00     0.001 A 
ATOM     31  C   UNL A   1      32.445  18.546  24.253  1.00  0.00     0.052 A 
ATOM     32  C   UNL A   1      33.111  17.343  24.013  1.00  0.00     0.004 A 
ENDBRANCH  18  26
ENDBRANCH  16  17
ENDBRANCH  13  16
ENDBRANCH   7  12
ENDBRANCH   3   6
ENDBRANCH   1   2
BRANCH   1  33
ATOM     33  C   UNL A   1      34.304  30.965  27.496  1.00  0.00     0.042 C 
BRANCH  33  34
ATOM     34  C   UNL A   1      34.893  32.325  27.848  1.00  0.00     0.118 C 
BRANCH  34  35
ATOM     35  N   UNL A   1      33.944  33.249  28.468  1.00  0.00    -0.352 N 
ATOM     36  C   UNL A   1      34.065  33.967  29.652  1.00  0.00     0.251 C 
ATOM     37  H   UNL A   1      33.100  33.381  27.977  1.00  0.00     0.163 HD
ATOM     38  O   UNL A   1      33.190  34.732  30.011  1.00  0.00    -0.269 OA
BRANCH  36  39
ATOM     39  C   UNL A   1      35.346  33.888  30.399  1.00  0.00     0.039 A 
ATOM     40  C   UNL A   1      36.465  34.509  29.837  1.00  0.00     0.014 A 
ATOM     41  C   UNL A   1      35.488  32.983  31.444  1.00  0.00     0.014 A 
ATOM     42  C   UNL A   1      37.729  34.002  30.120  1.00  0.00     0.010 A 
ATOM     43  C   UNL A   1      36.722  32.396  31.628  1.00  0.00     0.010 A 
ATOM     44  C   UNL A   1      37.831  32.858  30.908  1.00  0.00    -0.014 A 
BRANCH  44  45
ATOM     45  C   UNL A   1      39.002  31.990  30.917  1.00  0.00     0.031 A 
ATOM     46  C   UNL A   1      38.966  30.664  30.272  1.00  0.00     0.074 A 
ATOM     47  C   UNL A   1      40.172  32.446  31.422  1.00  0.00     0.049 A 
ATOM     48  N   UNL A   1      39.824  29.731  30.509  1.00  0.00    -0.248 NA
ATOM     49  C   UNL A   1      37.920  30.259  29.339  1.00  0.00     0.031 C 
ATOM     50  C   UNL A   1      41.511  31.904  31.203  1.00  0.00     0.029 A 
ATOM     51  N   UNL A   1      40.349  33.394  32.427  1.00  0.00    -0.354 N 
ATOM     52  C   UNL A   1      39.630  28.743  29.577  1.00  0.00     0.074 A 
ATOM     53  C   UNL A   1      38.390  29.081  28.917  1.00  0.00     0.031 C 
ATOM     54  C   UNL A   1      42.322  32.334  32.180  1.00  0.00     0.029 A 
ATOM     55  C   UNL A   1      41.500  33.030  33.153  1.00  0.00     0.049 A 
ATOM     56  H   UNL A   1      39.775  34.176  32.599  1.00  0.00     0.167 HD
ATOM     57  C   UNL A   1      40.599  27.807  29.386  1.00  0.00     0.031 A 
ATOM     58  C   UNL A   1      41.421  32.713  34.480  1.00  0.00     0.031 A 
ATOM     59  C   UNL A   1      41.716  27.961  30.314  1.00  0.00     0.049 A 
ATOM     60  C   UNL A   1      41.832  31.291  34.820  1.00  0.00     0.074 A 
ATOM     61  C   UNL A   1      43.006  28.455  30.214  1.00  0.00     0.029 A 
ATOM     62  N   UNL A   1      41.466  27.817  31.667  1.00  0.00    -0.354 N 
ATOM     63  N   UNL A   1      42.165  30.386  33.942  1.00  0.00    -0.248 NA
ATOM     64  C   UNL A   1      41.788  30.748  36.180  1.00  0.00     0.031 C 
ATOM     65  C   UNL A   1      43.539  28.572  31.531  1.00  0.00     0.029 A 
ATOM     66  C   UNL A   1      42.575  28.140  32.421  1.00  0.00     0.049 A 
ATOM     67  H   UNL A   1      40.606  27.523  32.044  1.00  0.00     0.167 HD
ATOM     68  C   UNL A   1      42.282  29.169  34.562  1.00  0.00     0.074 A 
ATOM     69  C   UNL A   1      42.054  29.448  35.966  1.00  0.00     0.031 C 
ATOM     70  C   UNL A   1      42.491  28.014  33.865  1.00  0.00     0.031 A 
BRANCH  57  71
ATOM     71  C   UNL A   1      40.625  26.868  28.209  1.00  0.00    -0.014 A 
ATOM     72  C   UNL A   1      39.986  25.619  28.306  1.00  0.00     0.009 A 
ATOM     73  C   UNL A   1      41.276  27.138  26.994  1.00  0.00     0.009 A 
ATOM     74  C   UNL A   1      40.071  24.662  27.288  1.00  0.00     0.001 A 
ATOM     75  C   UNL A   1      41.401  26.171  25.988  1.00  0.00     0.001 A 
ATOM     76  C   UNL A   1      40.805  24.927  26.139  1.00  0.00     0.000 A 
ENDBRANCH  57  71
BRANCH  58  77
ATOM     77  C   UNL A   1      40.350  33.466  35.192  1.00  0.00    -0.014 A 
ATOM     78  C   UNL A   1      39.112  32.828  35.408  1.00  0.00     0.009 A 
ATOM     79  C   UNL A   1      40.664  34.600  35.955  1.00  0.00     0.009 A 
ATOM     80  C   UNL A   1      38.270  33.237  36.445  1.00  0.00     0.001 A 
ATOM     81  C   UNL A   1      39.808  35.017  36.981  1.00  0.00     0.001 A 
ATOM     82  C   UNL A   1      38.634  34.314  37.250  1.00  0.00     0.000 A 
ENDBRANCH  58  77
BRANCH  70  83
ATOM     83  C   UNL A   1      42.574  26.642  34.482  1.00  0.00    -0.014 A 
ATOM     84  C   UNL A   1      43.675  25.794  34.318  1.00  0.00     0.009 A 
ATOM     85  C   UNL A   1      41.458  26.113  35.169  1.00  0.00     0.009 A 
ATOM     86  C   UNL A   1      43.683  24.503  34.866  1.00  0.00     0.001 A 
ATOM     87  C   UNL A   1      41.453  24.821  35.699  1.00  0.00     0.001 A 
ATOM     88  C   UNL A   1      42.574  24.018  35.556  1.00  0.00     0.000 A 
ENDBRANCH  70  83
ENDBRANCH  44  45
ENDBRANCH  36  39
ENDBRANCH  34  35
ENDBRANCH  33  34
ENDBRANCH   1  33
TORSDOF 14
ENDMDL
MODEL 2
REMARK VINA RESULT:     -13.5      4.073      9.689
REMARK SMILES Cc1ccccc1/[NH+]=C1\S[C@@H](CC(=O)Nc2ccc(C(=O)NCCCNC(=O)c3ccc(-c4c5nc(c(-c6ccccc6)c6ccc([nH]6)c(-c6ccccc6)c6nc(c(-c7ccccc7)c7ccc4[nH]7)C=C6)C=C5)cc3)cc2)C(=O)N1C
REMARK SMILES IDX 23 1 22 2 20 3 21 4 19 6 16 7 17 8 78 9 18 10 77 11 15 12
REMARK SMILES IDX 13 13 14 14 12 16 11 17 8 18 9 19 10 21 81 22 79 23 82 24
REMARK SMILES IDX 80 25 7 26 1 27 2 28 3 29 4 30 6 31 5 32 24 33 25 34 26 35
REMARK SMILES IDX 27 36 28 38 29 39 30 40 76 41 31 42 75 43 32 44 33 45 34 46
REMARK SMILES IDX 69 47 35 48 74 49 68 50 70 51 36 52 73 53 67 54 66 55 37 57
REMARK SMILES IDX 59 58 44 59 58 60 45 61 48 62 57 63 71 64 46 65 47 66 56 68
REMARK SMILES IDX 72 69 49 70 38 71 39 72 43 73 40 74 42 75 41 76 60 77 61 78
REMARK SMILES IDX 65 79 62 80 64 81 63 82 50 83 51 84 55 85 52 86 54 87 53 88
REMARK H PARENT 22 5 15 15 8 20 26 37 70 56 48 67
REMARK Flexibility Score: inf
ROOT
ATOM      1  C   UNL A   1      38.134  21.361  25.376  1.00  0.00     0.118 C 
ENDROOT
BRANCH   1   2
ATOM      2  N   UNL A   1      37.638  21.921  24.119  1.00  0.00    -0.352 N 
ATOM      3  C   UNL A   1      36.453  22.566  23.828  1.00  0.00     0.251 C 
ATOM      4  O   UNL A   1      36.350  23.183  22.770  1.00  0.00    -0.269 OA
ATOM      5  H   UNL A   1      38.250  21.820  23.355  1.00  0.00     0.163 HD
BRANCH   3   6
ATOM      6  C   UNL A   1      35.299  22.554  24.763  1.00  0.00     0.039 A 
ATOM      7  C   UNL A   1      33.042  22.563  26.417  1.00  0.00     0.041 A 
ATOM      8  C   UNL A   1      33.991  23.576  26.503  1.00  0.00     0.027 A 
ATOM      9  C   UNL A   1      33.307  21.443  25.639  1.00  0.00     0.027 A 
ATOM     10  C   UNL A   1      35.111  23.576  25.684  1.00  0.00     0.016 A 
ATOM     11  C   UNL A   1      34.433  21.448  24.799  1.00  0.00     0.016 A 
BRANCH   7  12
ATOM     12  N   UNL A   1      31.822  22.709  27.087  1.00  0.00    -0.326 N 
ATOM     13  C   UNL A   1      30.737  23.421  26.611  1.00  0.00     0.226 C 
ATOM     14  O   UNL A   1      29.815  23.746  27.357  1.00  0.00    -0.275 OA
ATOM     15  H   UNL A   1      31.730  22.271  27.964  1.00  0.00     0.169 HD
BRANCH  13  16
ATOM     16  C   UNL A   1      30.624  23.591  25.102  1.00  0.00     0.128 C 
BRANCH  16  17
ATOM     17  C   UNL A   1      31.075  24.919  24.532  1.00  0.00     0.183 C 
ATOM     18  N   UNL A   1      30.546  27.945  22.437  1.00  0.00    -0.234 N 
ATOM     19  C   UNL A   1      30.554  26.731  22.847  1.00  0.00     0.319 C 
ATOM     20  H   UNL A   1      31.126  28.132  21.663  1.00  0.00     0.313 HD
ATOM     21  S   UNL A   1      29.611  25.921  24.052  1.00  0.00    -0.022 SA
ATOM     22  N   UNL A   1      31.464  25.842  22.354  1.00  0.00    -0.193 N 
ATOM     23  C   UNL A   1      31.911  24.906  23.263  1.00  0.00     0.324 C 
ATOM     24  C   UNL A   1      32.109  25.991  21.065  1.00  0.00     0.301 C 
ATOM     25  O   UNL A   1      32.927  24.237  23.116  1.00  0.00    -0.245 OA
BRANCH  18  26
ATOM     26  C   UNL A   1      29.832  29.047  22.930  1.00  0.00     0.128 A 
ATOM     27  C   UNL A   1      31.368  29.697  24.912  1.00  0.00     0.049 C 
ATOM     28  C   UNL A   1      30.210  29.914  23.980  1.00  0.00    -0.004 A 
ATOM     29  C   UNL A   1      29.478  31.102  24.196  1.00  0.00     0.008 A 
ATOM     30  C   UNL A   1      28.447  31.485  23.344  1.00  0.00     0.001 A 
ATOM     31  C   UNL A   1      28.773  29.454  22.097  1.00  0.00     0.052 A 
ATOM     32  C   UNL A   1      28.097  30.661  22.286  1.00  0.00     0.004 A 
ENDBRANCH  18  26
ENDBRANCH  16  17
ENDBRANCH  13  16
ENDBRANCH   7  12
ENDBRANCH   3   6
ENDBRANCH   1   2
BRANCH   1  33
ATOM     33  C   UNL A   1      38.950  22.359  26.197  1.00  0.00     0.042 C 
BRANCH  33  34
ATOM     34  C   UNL A   1      40.104  21.749  26.983  1.00  0.00     0.118 C 
BRANCH  34  35
ATOM     35  N   UNL A   1      40.884  20.763  26.236  1.00  0.00    -0.352 N 
ATOM     36  C   UNL A   1      42.250  20.738  25.977  1.00  0.00     0.251 C 
ATOM     37  H   UNL A   1      40.369  20.009  25.864  1.00  0.00     0.163 HD
ATOM     38  O   UNL A   1      42.754  19.814  25.367  1.00  0.00    -0.269 OA
BRANCH  36  39
ATOM     39  C   UNL A   1      43.103  21.791  26.583  1.00  0.00     0.039 A 
ATOM     40  C   UNL A   1      43.241  21.795  27.974  1.00  0.00     0.014 A 
ATOM     41  C   UNL A   1      43.489  22.893  25.829  1.00  0.00     0.014 A 
ATOM     42  C   UNL A   1      43.484  23.002  28.623  1.00  0.00     0.010 A 
ATOM     43  C   UNL A   1      43.602  24.108  26.471  1.00  0.00     0.010 A 
ATOM     44  C   UNL A   1      43.523  24.172  27.867  1.00  0.00    -0.014 A 
BRANCH  44  45
ATOM     45  C   UNL A   1      43.328  25.501  28.434  1.00  0.00     0.031 A 
ATOM     46  C   UNL A   1      42.074  26.243  28.204  1.00  0.00     0.074 A 
ATOM     47  C   UNL A   1      44.255  26.017  29.274  1.00  0.00     0.049 A 
ATOM     48  N   UNL A   1      41.952  27.514  28.389  1.00  0.00    -0.248 NA
ATOM     49  C   UNL A   1      40.859  25.620  27.691  1.00  0.00     0.031 C 
ATOM     50  C   UNL A   1      44.093  27.126  30.210  1.00  0.00     0.029 A 
ATOM     51  N   UNL A   1      45.623  25.756  29.289  1.00  0.00    -0.354 N 
ATOM     52  C   UNL A   1      40.617  27.819  28.310  1.00  0.00     0.074 A 
ATOM     53  C   UNL A   1      39.984  26.624  27.803  1.00  0.00     0.031 C 
ATOM     54  C   UNL A   1      45.303  27.609  30.529  1.00  0.00     0.029 A 
ATOM     55  C   UNL A   1      46.275  26.940  29.684  1.00  0.00     0.049 A 
ATOM     56  H   UNL A   1      46.056  24.900  29.064  1.00  0.00     0.167 HD
ATOM     57  C   UNL A   1      40.176  29.012  28.791  1.00  0.00     0.031 A 
ATOM     58  C   UNL A   1      47.149  27.573  28.845  1.00  0.00     0.031 A 
ATOM     59  C   UNL A   1      41.266  29.863  29.263  1.00  0.00     0.049 A 
ATOM     60  C   UNL A   1      46.739  28.979  28.441  1.00  0.00     0.074 A 
ATOM     61  C   UNL A   1      41.756  30.218  30.509  1.00  0.00     0.029 A 
ATOM     62  N   UNL A   1      42.217  30.276  28.347  1.00  0.00    -0.354 N 
ATOM     63  N   UNL A   1      45.614  29.548  28.777  1.00  0.00    -0.248 NA
ATOM     64  C   UNL A   1      47.524  29.810  27.525  1.00  0.00     0.031 C 
ATOM     65  C   UNL A   1      43.002  30.884  30.322  1.00  0.00     0.029 A 
ATOM     66  C   UNL A   1      43.257  30.938  28.964  1.00  0.00     0.049 A 
ATOM     67  H   UNL A   1      42.158  30.117  27.378  1.00  0.00     0.167 HD
ATOM     68  C   UNL A   1      45.473  30.724  28.087  1.00  0.00     0.074 A 
ATOM     69  C   UNL A   1      46.701  30.855  27.328  1.00  0.00     0.031 C 
ATOM     70  C   UNL A   1      44.329  31.466  28.140  1.00  0.00     0.031 A 
BRANCH  57  71
ATOM     71  C   UNL A   1      38.722  29.328  29.022  1.00  0.00    -0.014 A 
ATOM     72  C   UNL A   1      37.938  29.802  27.955  1.00  0.00     0.009 A 
ATOM     73  C   UNL A   1      38.072  29.204  30.261  1.00  0.00     0.009 A 
ATOM     74  C   UNL A   1      36.613  30.216  28.136  1.00  0.00     0.001 A 
ATOM     75  C   UNL A   1      36.760  29.655  30.459  1.00  0.00     0.001 A 
ATOM     76  C   UNL A   1      36.032  30.170  29.396  1.00  0.00     0.000 A 
ENDBRANCH  57  71
BRANCH  58  77
ATOM     77  C   UNL A   1      47.885  26.629  27.957  1.00  0.00    -0.014 A 
ATOM     78  C   UNL A   1      47.320  26.307  26.707  1.00  0.00     0.009 A 
ATOM     79  C   UNL A   1      49.247  26.371  28.166  1.00  0.00     0.009 A 
ATOM     80  C   UNL A   1      48.124  25.859  25.656  1.00  0.00     0.001 A 
ATOM     81  C   UNL A   1      50.044  25.904  27.115  1.00  0.00     0.001 A 
ATOM     82  C   UNL A   1      49.491  25.686  25.853  1.00  0.00     0.000 A 
ENDBRANCH  58  77
BRANCH  70  83
ATOM     83  C   UNL A   1      44.092  32.735  27.364  1.00  0.00    -0.014 A 
ATOM     84  C   UNL A   1      43.706  33.939  27.964  1.00  0.00     0.009 A 
ATOM     85  C   UNL A   1      44.143  32.714  25.952  1.00  0.00     0.009 A 
ATOM     86  C   UNL A   1      43.443  35.081  27.192  1.00  0.00     0.001 A 
ATOM     87  C   UNL A   1      43.863  33.842  25.179  1.00  0.00     0.001 A 
ATOM     88  C   UNL A   1      43.523  35.033  25.803  1.00  0.00     0.000 A 
ENDBRANCH  70  83
ENDBRANCH  44  45
ENDBRANCH  36  39
ENDBRANCH  34  35
ENDBRANCH  33  34
ENDBRANCH   1  33
TORSDOF 14
ENDMDL
MODEL 3
REMARK VINA RESULT:     -13.0      3.277      8.974
REMARK SMILES Cc1ccccc1/[NH+]=C1\S[C@@H](CC(=O)Nc2ccc(C(=O)NCCCNC(=O)c3ccc(-c4c5nc(c(-c6ccccc6)c6ccc([nH]6)c(-c6ccccc6)c6nc(c(-c7ccccc7)c7ccc4[nH]7)C=C6)C=C5)cc3)cc2)C(=O)N1C
REMARK SMILES IDX 23 1 22 2 20 3 21 4 19 6 16 7 17 8 78 9 18 10 77 11 15 12
REMARK SMILES IDX 13 13 14 14 12 16 11 17 8 18 9 19 10 21 81 22 79 23 82 24
REMARK SMILES IDX 80 25 7 26 1 27 2 28 3 29 4 30 6 31 5 32 24 33 25 34 26 35
REMARK SMILES IDX 27 36 28 38 29 39 30 40 76 41 31 42 75 43 32 44 33 45 34 46
REMARK SMILES IDX 69 47 35 48 74 49 68 50 70 51 36 52 73 53 67 54 66 55 37 57
REMARK SMILES IDX 59 58 44 59 58 60 45 61 48 62 57 63 71 64 46 65 47 66 56 68
REMARK SMILES IDX 72 69 49 70 38 71 39 72 43 73 40 74 42 75 41 76 60 77 61 78
REMARK SMILES IDX 65 79 62 80 64 81 63 82 50 83 51 84 55 85 52 86 54 87 53 88
REMARK H PARENT 22 5 15 15 8 20 26 37 70 56 48 67
REMARK Flexibility Score: inf
ROOT
ATOM      1  C   UNL A   1      38.138  21.816  25.810  1.00  0.00     0.118 C 
ENDROOT
BRANCH   1   2
ATOM      2  N   UNL A   1      37.638  22.154  24.478  1.00  0.00    -0.352 N 
ATOM      3  C   UNL A   1      36.395  22.595  24.069  1.00  0.00     0.251 C 
ATOM      4  O   UNL A   1      36.268  23.065  22.940  1.00  0.00    -0.269 OA
ATOM      5  H   UNL A   1      38.296  22.049  23.754  1.00  0.00     0.163 HD
BRANCH   3   6
ATOM      6  C   UNL A   1      35.207  22.536  24.956  1.00  0.00     0.039 A 
ATOM      7  C   UNL A   1      32.888  22.461  26.521  1.00  0.00     0.041 A 
ATOM      8  C   UNL A   1      33.832  23.467  26.696  1.00  0.00     0.027 A 
ATOM      9  C   UNL A   1      33.183  21.383  25.697  1.00  0.00     0.027 A 
ATOM     10  C   UNL A   1      34.983  23.509  25.922  1.00  0.00     0.016 A 
ATOM     11  C   UNL A   1      34.341  21.430  24.901  1.00  0.00     0.016 A 
BRANCH   7  12
ATOM     12  N   UNL A   1      31.643  22.574  27.150  1.00  0.00    -0.326 N 
ATOM     13  C   UNL A   1      30.614  23.394  26.730  1.00  0.00     0.226 C 
ATOM     14  O   UNL A   1      29.670  23.659  27.472  1.00  0.00    -0.275 OA
ATOM     15  H   UNL A   1      31.489  22.027  27.955  1.00  0.00     0.169 HD
BRANCH  13  16
ATOM     16  C   UNL A   1      30.584  23.772  25.254  1.00  0.00     0.128 C 
BRANCH  16  17
ATOM     17  C   UNL A   1      31.326  25.030  24.859  1.00  0.00     0.183 C 
ATOM     18  N   UNL A   1      31.716  28.726  24.775  1.00  0.00    -0.234 N 
ATOM     19  C   UNL A   1      31.204  27.552  24.736  1.00  0.00     0.319 C 
ATOM     20  H   UNL A   1      31.712  29.216  23.920  1.00  0.00     0.313 HD
ATOM     21  S   UNL A   1      30.870  26.405  25.989  1.00  0.00    -0.022 SA
ATOM     22  N   UNL A   1      30.876  26.982  23.541  1.00  0.00    -0.193 N 
ATOM     23  C   UNL A   1      31.059  25.615  23.482  1.00  0.00     0.324 C 
ATOM     24  C   UNL A   1      30.592  27.744  22.343  1.00  0.00     0.301 C 
ATOM     25  O   UNL A   1      31.119  24.976  22.439  1.00  0.00    -0.245 OA
BRANCH  18  26
ATOM     26  C   UNL A   1      32.283  29.416  25.857  1.00  0.00     0.128 A 
ATOM     27  C   UNL A   1      34.313  27.876  26.325  1.00  0.00     0.049 C 
ATOM     28  C   UNL A   1      33.493  29.120  26.523  1.00  0.00    -0.004 A 
ATOM     29  C   UNL A   1      34.022  30.050  27.445  1.00  0.00     0.008 A 
ATOM     30  C   UNL A   1      33.428  31.290  27.648  1.00  0.00     0.001 A 
ATOM     31  C   UNL A   1      31.695  30.672  26.098  1.00  0.00     0.052 A 
ATOM     32  C   UNL A   1      32.262  31.606  26.968  1.00  0.00     0.004 A 
ENDBRANCH  18  26
ENDBRANCH  16  17
ENDBRANCH  13  16
ENDBRANCH   7  12
ENDBRANCH   3   6
ENDBRANCH   1   2
BRANCH   1  33
ATOM     33  C   UNL A   1      39.520  21.164  25.786  1.00  0.00     0.042 C 
BRANCH  33  34
ATOM     34  C   UNL A   1      40.417  21.520  26.964  1.00  0.00     0.118 C 
BRANCH  34  35
ATOM     35  N   UNL A   1      41.740  22.015  26.584  1.00  0.00    -0.352 N 
ATOM     36  C   UNL A   1      42.179  23.326  26.443  1.00  0.00     0.251 C 
ATOM     37  H   UNL A   1      42.416  21.321  26.403  1.00  0.00     0.163 HD
ATOM     38  O   UNL A   1      43.336  23.572  26.156  1.00  0.00    -0.269 OA
BRANCH  36  39
ATOM     39  C   UNL A   1      41.243  24.426  26.788  1.00  0.00     0.039 A 
ATOM     40  C   UNL A   1      41.287  25.585  26.008  1.00  0.00     0.014 A 
ATOM     41  C   UNL A   1      40.578  24.418  28.008  1.00  0.00     0.014 A 
ATOM     42  C   UNL A   1      40.927  26.799  26.585  1.00  0.00     0.010 A 
ATOM     43  C   UNL A   1      40.342  25.629  28.624  1.00  0.00     0.010 A 
ATOM     44  C   UNL A   1      40.588  26.823  27.936  1.00  0.00    -0.014 A 
BRANCH  44  45
ATOM     45  C   UNL A   1      40.624  28.032  28.751  1.00  0.00     0.031 A 
ATOM     46  C   UNL A   1      39.533  29.022  28.682  1.00  0.00     0.074 A 
ATOM     47  C   UNL A   1      41.608  28.197  29.665  1.00  0.00     0.049 A 
ATOM     48  N   UNL A   1      39.641  30.234  29.110  1.00  0.00    -0.248 NA
ATOM     49  C   UNL A   1      38.238  28.743  28.071  1.00  0.00     0.031 C 
ATOM     50  C   UNL A   1      41.628  29.117  30.799  1.00  0.00     0.029 A 
ATOM     51  N   UNL A   1      42.905  27.691  29.614  1.00  0.00    -0.354 N 
ATOM     52  C   UNL A   1      38.386  30.789  29.106  1.00  0.00     0.074 A 
ATOM     53  C   UNL A   1      37.559  29.850  28.384  1.00  0.00     0.031 C 
ATOM     54  C   UNL A   1      42.897  29.299  31.193  1.00  0.00     0.029 A 
ATOM     55  C   UNL A   1      43.752  28.638  30.224  1.00  0.00     0.049 A 
ATOM     56  H   UNL A   1      43.180  26.830  29.224  1.00  0.00     0.167 HD
ATOM     57  C   UNL A   1      38.158  31.928  29.813  1.00  0.00     0.031 A 
ATOM     58  C   UNL A   1      44.747  29.248  29.515  1.00  0.00     0.031 A 
ATOM     59  C   UNL A   1      39.373  32.457  30.429  1.00  0.00     0.049 A 
ATOM     60  C   UNL A   1      44.611  30.756  29.394  1.00  0.00     0.074 A 
ATOM     61  C   UNL A   1      39.888  32.470  31.715  1.00  0.00     0.029 A 
ATOM     62  N   UNL A   1      40.406  32.856  29.600  1.00  0.00    -0.354 N 
ATOM     63  N   UNL A   1      43.601  31.446  29.846  1.00  0.00    -0.248 NA
ATOM     64  C   UNL A   1      45.558  31.588  28.648  1.00  0.00     0.031 C 
ATOM     65  C   UNL A   1      41.239  32.919  31.647  1.00  0.00     0.029 A 
ATOM     66  C   UNL A   1      41.533  33.185  30.323  1.00  0.00     0.049 A 
ATOM     67  H   UNL A   1      40.344  32.900  28.619  1.00  0.00     0.167 HD
ATOM     68  C   UNL A   1      43.694  32.739  29.398  1.00  0.00     0.074 A 
ATOM     69  C   UNL A   1      44.945  32.785  28.665  1.00  0.00     0.031 C 
ATOM     70  C   UNL A   1      42.704  33.654  29.604  1.00  0.00     0.031 A 
BRANCH  57  71
ATOM     71  C   UNL A   1      36.780  32.455  30.117  1.00  0.00    -0.014 A 
ATOM     72  C   UNL A   1      36.275  33.537  29.374  1.00  0.00     0.009 A 
ATOM     73  C   UNL A   1      35.945  31.952  31.127  1.00  0.00     0.009 A 
ATOM     74  C   UNL A   1      35.049  34.140  29.684  1.00  0.00     0.001 A 
ATOM     75  C   UNL A   1      34.737  32.575  31.470  1.00  0.00     0.001 A 
ATOM     76  C   UNL A   1      34.293  33.676  30.752  1.00  0.00     0.000 A 
ENDBRANCH  57  71
BRANCH  58  77
ATOM     77  C   UNL A   1      45.321  28.373  28.453  1.00  0.00    -0.014 A 
ATOM     78  C   UNL A   1      46.224  27.360  28.835  1.00  0.00     0.009 A 
ATOM     79  C   UNL A   1      44.714  28.291  27.192  1.00  0.00     0.009 A 
ATOM     80  C   UNL A   1      46.415  26.234  28.031  1.00  0.00     0.001 A 
ATOM     81  C   UNL A   1      44.923  27.169  26.382  1.00  0.00     0.001 A 
ATOM     82  C   UNL A   1      45.740  26.126  26.818  1.00  0.00     0.000 A 
ENDBRANCH  58  77
BRANCH  70  83
ATOM     83  C   UNL A   1      42.722  35.071  29.091  1.00  0.00    -0.014 A 
ATOM     84  C   UNL A   1      43.135  36.161  29.865  1.00  0.00     0.009 A 
ATOM     85  C   UNL A   1      42.198  35.360  27.811  1.00  0.00     0.009 A 
ATOM     86  C   UNL A   1      43.082  37.469  29.361  1.00  0.00     0.001 A 
ATOM     87  C   UNL A   1      42.123  36.662  27.313  1.00  0.00     0.001 A 
ATOM     88  C   UNL A   1      42.578  37.718  28.087  1.00  0.00     0.000 A 
ENDBRANCH  70  83
ENDBRANCH  44  45
ENDBRANCH  36  39
ENDBRANCH  34  35
ENDBRANCH  33  34
ENDBRANCH   1  33
TORSDOF 14
ENDMDL
