MODEL 1
REMARK VINA RESULT:     -11.4      0.000      0.000
REMARK SMILES CC(=O)c1cccc(C(=O)NCCCNC(=O)c2ccc(-c3c4nc(c(-c5ccccc5)c5ccc([nH]5)c(-c5ccccc5)c5nc(c(-c6ccccc6)c6ccc3[nH]6)C=C5)C=C4)cc2)c1C
REMARK SMILES IDX 13 1 12 2 11 3 9 4 10 5 8 7 4 8 5 9 66 10 6 11 67 12 7 13
REMARK SMILES IDX 2 14 1 15 3 16 14 17 15 18 16 19 17 21 18 22 19 23 65 24
REMARK SMILES IDX 20 25 64 26 21 27 22 28 23 29 58 30 24 31 63 32 57 33 59 34
REMARK SMILES IDX 25 35 62 36 56 37 55 38 26 40 48 41 33 42 47 43 34 44 37 45
REMARK SMILES IDX 46 46 60 47 35 48 36 49 45 51 61 52 38 53 27 54 28 55 32 56
REMARK SMILES IDX 29 57 31 58 30 59 49 60 50 61 54 62 51 63 53 64 52 65 39 66
REMARK SMILES IDX 40 67 44 68 41 69 43 70 42 71
REMARK H PARENT 11 6 15 20 59 39 37 50
REMARK Flexibility Score: inf
ROOT
ATOM      1  C   UNL A   1      32.603  31.060  26.810  1.00  0.00     0.042 C 
ENDROOT
BRANCH   1   2
ATOM      2  C   UNL A   1      31.799  29.890  26.261  1.00  0.00     0.118 C 
BRANCH   2   3
ATOM      3  N   UNL A   1      31.066  30.161  25.034  1.00  0.00    -0.352 N 
ATOM      4  C   UNL A   1      30.562  29.474  23.967  1.00  0.00     0.251 C 
ATOM      5  O   UNL A   1      29.906  30.154  23.171  1.00  0.00    -0.269 OA
ATOM      6  H   UNL A   1      30.876  31.123  24.949  1.00  0.00     0.163 HD
BRANCH   4   7
ATOM      7  C   UNL A   1      30.809  28.042  23.621  1.00  0.00     0.043 A 
ATOM      8  C   UNL A   1      31.962  26.074  22.795  1.00  0.00     0.021 A 
ATOM      9  C   UNL A   1      30.887  25.255  23.162  1.00  0.00     0.012 A 
ATOM     10  C   UNL A   1      31.986  27.457  23.118  1.00  0.00    -0.028 A 
ATOM     11  C   UNL A   1      29.780  25.810  23.777  1.00  0.00     0.002 A 
ATOM     12  C   UNL A   1      33.293  28.188  23.056  1.00  0.00     0.046 C 
ATOM     13  C   UNL A   1      29.730  27.189  23.965  1.00  0.00     0.014 A 
BRANCH   8  14
ATOM     14  C   UNL A   1      33.064  25.399  22.062  1.00  0.00     0.160 C 
ATOM     15  C   UNL A   1      34.016  24.541  22.854  1.00  0.00     0.093 C 
ATOM     16  O   UNL A   1      33.209  25.596  20.859  1.00  0.00    -0.295 OA
ENDBRANCH   8  14
ENDBRANCH   4   7
ENDBRANCH   2   3
ENDBRANCH   1   2
BRANCH   1  17
ATOM     17  C   UNL A   1      33.874  30.580  27.506  1.00  0.00     0.118 C 
BRANCH  17  18
ATOM     18  N   UNL A   1      34.550  31.542  28.373  1.00  0.00    -0.352 N 
ATOM     19  C   UNL A   1      35.750  31.395  29.070  1.00  0.00     0.251 C 
ATOM     20  H   UNL A   1      34.098  32.410  28.480  1.00  0.00     0.163 HD
ATOM     21  O   UNL A   1      36.157  32.274  29.797  1.00  0.00    -0.269 OA
BRANCH  19  22
ATOM     22  C   UNL A   1      36.592  30.196  28.799  1.00  0.00     0.039 A 
ATOM     23  C   UNL A   1      36.793  29.292  29.848  1.00  0.00     0.014 A 
ATOM     24  C   UNL A   1      37.381  30.137  27.656  1.00  0.00     0.014 A 
ATOM     25  C   UNL A   1      37.967  28.544  29.876  1.00  0.00     0.010 A 
ATOM     26  C   UNL A   1      38.600  29.494  27.741  1.00  0.00     0.010 A 
ATOM     27  C   UNL A   1      38.923  28.760  28.887  1.00  0.00    -0.014 A 
BRANCH  27  28
ATOM     28  C   UNL A   1      40.320  28.364  29.029  1.00  0.00     0.031 A 
ATOM     29  C   UNL A   1      40.792  27.088  28.465  1.00  0.00     0.074 A 
ATOM     30  C   UNL A   1      41.202  29.189  29.637  1.00  0.00     0.049 A 
ATOM     31  N   UNL A   1      41.826  26.446  28.893  1.00  0.00    -0.248 NA
ATOM     32  C   UNL A   1      40.083  26.395  27.397  1.00  0.00     0.031 C 
ATOM     33  C   UNL A   1      42.661  29.094  29.637  1.00  0.00     0.029 A 
ATOM     34  N   UNL A   1      40.923  30.174  30.583  1.00  0.00    -0.354 N 
ATOM     35  C   UNL A   1      42.090  25.445  27.987  1.00  0.00     0.074 A 
ATOM     36  C   UNL A   1      40.928  25.396  27.132  1.00  0.00     0.031 C 
ATOM     37  C   UNL A   1      43.141  29.776  30.688  1.00  0.00     0.029 A 
ATOM     38  C   UNL A   1      42.003  30.207  31.482  1.00  0.00     0.049 A 
ATOM     39  H   UNL A   1      40.118  30.740  30.615  1.00  0.00     0.167 HD
ATOM     40  C   UNL A   1      43.325  24.869  27.968  1.00  0.00     0.031 A 
ATOM     41  C   UNL A   1      41.824  29.932  32.806  1.00  0.00     0.031 A 
ATOM     42  C   UNL A   1      44.174  25.360  29.052  1.00  0.00     0.049 A 
ATOM     43  C   UNL A   1      42.605  28.730  33.296  1.00  0.00     0.074 A 
ATOM     44  C   UNL A   1      45.209  26.280  29.107  1.00  0.00     0.029 A 
ATOM     45  N   UNL A   1      43.807  25.106  30.368  1.00  0.00    -0.354 N 
ATOM     46  N   UNL A   1      43.169  27.853  32.513  1.00  0.00    -0.248 NA
ATOM     47  C   UNL A   1      42.763  28.391  34.709  1.00  0.00     0.031 C 
ATOM     48  C   UNL A   1      45.428  26.618  30.469  1.00  0.00     0.029 A 
ATOM     49  C   UNL A   1      44.545  25.884  31.240  1.00  0.00     0.049 A 
ATOM     50  H   UNL A   1      43.115  24.462  30.642  1.00  0.00     0.167 HD
ATOM     51  C   UNL A   1      43.726  26.848  33.264  1.00  0.00     0.074 A 
ATOM     52  C   UNL A   1      43.466  27.246  34.636  1.00  0.00     0.031 C 
ATOM     53  C   UNL A   1      44.329  25.770  32.679  1.00  0.00     0.031 A 
BRANCH  40  54
ATOM     54  C   UNL A   1      43.847  24.086  26.785  1.00  0.00    -0.014 A 
ATOM     55  C   UNL A   1      43.649  22.695  26.730  1.00  0.00     0.009 A 
ATOM     56  C   UNL A   1      44.596  24.639  25.732  1.00  0.00     0.009 A 
ATOM     57  C   UNL A   1      44.250  21.895  25.748  1.00  0.00     0.001 A 
ATOM     58  C   UNL A   1      45.238  23.843  24.773  1.00  0.00     0.001 A 
ATOM     59  C   UNL A   1      45.075  22.467  24.789  1.00  0.00     0.000 A 
ENDBRANCH  40  54
BRANCH  41  60
ATOM     60  C   UNL A   1      40.484  30.341  33.315  1.00  0.00    -0.014 A 
ATOM     61  C   UNL A   1      40.191  31.720  33.377  1.00  0.00     0.009 A 
ATOM     62  C   UNL A   1      39.421  29.429  33.356  1.00  0.00     0.009 A 
ATOM     63  C   UNL A   1      38.870  32.174  33.343  1.00  0.00     0.001 A 
ATOM     64  C   UNL A   1      38.098  29.889  33.342  1.00  0.00     0.001 A 
ATOM     65  C   UNL A   1      37.825  31.256  33.294  1.00  0.00     0.000 A 
ENDBRANCH  41  60
BRANCH  53  66
ATOM     66  C   UNL A   1      44.819  24.509  33.362  1.00  0.00    -0.014 A 
ATOM     67  C   UNL A   1      46.123  24.297  33.827  1.00  0.00     0.009 A 
ATOM     68  C   UNL A   1      43.878  23.494  33.663  1.00  0.00     0.009 A 
ATOM     69  C   UNL A   1      46.472  23.128  34.523  1.00  0.00     0.001 A 
ATOM     70  C   UNL A   1      44.209  22.351  34.395  1.00  0.00     0.001 A 
ATOM     71  C   UNL A   1      45.514  22.163  34.818  1.00  0.00     0.000 A 
ENDBRANCH  53  66
ENDBRANCH  27  28
ENDBRANCH  19  22
ENDBRANCH  17  18
ENDBRANCH   1  17
TORSDOF 11
ENDMDL
MODEL 2
REMARK VINA RESULT:     -11.4      1.282      1.838
REMARK SMILES CC(=O)c1cccc(C(=O)NCCCNC(=O)c2ccc(-c3c4nc(c(-c5ccccc5)c5ccc([nH]5)c(-c5ccccc5)c5nc(c(-c6ccccc6)c6ccc3[nH]6)C=C5)C=C4)cc2)c1C
REMARK SMILES IDX 13 1 12 2 11 3 9 4 10 5 8 7 4 8 5 9 66 10 6 11 67 12 7 13
REMARK SMILES IDX 2 14 1 15 3 16 14 17 15 18 16 19 17 21 18 22 19 23 65 24
REMARK SMILES IDX 20 25 64 26 21 27 22 28 23 29 58 30 24 31 63 32 57 33 59 34
REMARK SMILES IDX 25 35 62 36 56 37 55 38 26 40 48 41 33 42 47 43 34 44 37 45
REMARK SMILES IDX 46 46 60 47 35 48 36 49 45 51 61 52 38 53 27 54 28 55 32 56
REMARK SMILES IDX 29 57 31 58 30 59 49 60 50 61 54 62 51 63 53 64 52 65 39 66
REMARK SMILES IDX 40 67 44 68 41 69 43 70 42 71
REMARK H PARENT 11 6 15 20 59 39 37 50
REMARK Flexibility Score: inf
ROOT
ATOM      1  C   UNL A   1      33.277  30.317  26.177  1.00  0.00     0.042 C 
ENDROOT
BRANCH   1   2
ATOM      2  C   UNL A   1      31.789  30.291  25.860  1.00  0.00     0.118 C 
BRANCH   2   3
ATOM      3  N   UNL A   1      31.441  29.752  24.554  1.00  0.00    -0.352 N 
ATOM      4  C   UNL A   1      31.398  28.543  23.921  1.00  0.00     0.251 C 
ATOM      5  O   UNL A   1      30.929  28.569  22.778  1.00  0.00    -0.269 OA
ATOM      6  H   UNL A   1      31.149  30.472  23.949  1.00  0.00     0.163 HD
BRANCH   4   7
ATOM      7  C   UNL A   1      31.945  27.246  24.420  1.00  0.00     0.043 A 
ATOM      8  C   UNL A   1      31.984  25.035  25.416  1.00  0.00     0.021 A 
ATOM      9  C   UNL A   1      33.363  24.929  25.196  1.00  0.00     0.012 A 
ATOM     10  C   UNL A   1      31.238  26.143  24.934  1.00  0.00    -0.028 A 
ATOM     11  C   UNL A   1      34.040  25.960  24.570  1.00  0.00     0.002 A 
ATOM     12  C   UNL A   1      29.746  26.025  24.852  1.00  0.00     0.046 C 
ATOM     13  C   UNL A   1      33.343  27.116  24.225  1.00  0.00     0.014 A 
BRANCH   8  14
ATOM     14  C   UNL A   1      31.366  23.916  26.173  1.00  0.00     0.160 C 
ATOM     15  C   UNL A   1      31.113  22.624  25.440  1.00  0.00     0.093 C 
ATOM     16  O   UNL A   1      31.028  24.081  27.341  1.00  0.00    -0.295 OA
ENDBRANCH   8  14
ENDBRANCH   4   7
ENDBRANCH   2   3
ENDBRANCH   1   2
BRANCH   1  17
ATOM     17  C   UNL A   1      33.523  30.280  27.683  1.00  0.00     0.118 C 
BRANCH  17  18
ATOM     18  N   UNL A   1      34.280  31.392  28.252  1.00  0.00    -0.352 N 
ATOM     19  C   UNL A   1      35.569  31.388  28.785  1.00  0.00     0.251 C 
ATOM     20  H   UNL A   1      33.817  32.262  28.260  1.00  0.00     0.163 HD
ATOM     21  O   UNL A   1      36.042  32.392  29.272  1.00  0.00    -0.269 OA
BRANCH  19  22
ATOM     22  C   UNL A   1      36.406  30.167  28.623  1.00  0.00     0.039 A 
ATOM     23  C   UNL A   1      36.617  29.369  29.752  1.00  0.00     0.014 A 
ATOM     24  C   UNL A   1      37.183  29.995  27.483  1.00  0.00     0.014 A 
ATOM     25  C   UNL A   1      37.789  28.623  29.840  1.00  0.00     0.010 A 
ATOM     26  C   UNL A   1      38.401  29.361  27.617  1.00  0.00     0.010 A 
ATOM     27  C   UNL A   1      38.736  28.740  28.825  1.00  0.00    -0.014 A 
BRANCH  27  28
ATOM     28  C   UNL A   1      40.134  28.356  28.990  1.00  0.00     0.031 A 
ATOM     29  C   UNL A   1      40.614  27.061  28.478  1.00  0.00     0.074 A 
ATOM     30  C   UNL A   1      41.009  29.207  29.570  1.00  0.00     0.049 A 
ATOM     31  N   UNL A   1      41.648  26.441  28.936  1.00  0.00    -0.248 NA
ATOM     32  C   UNL A   1      39.914  26.325  27.434  1.00  0.00     0.031 C 
ATOM     33  C   UNL A   1      42.467  29.119  29.583  1.00  0.00     0.029 A 
ATOM     34  N   UNL A   1      40.720  30.227  30.476  1.00  0.00    -0.354 N 
ATOM     35  C   UNL A   1      41.922  25.407  28.072  1.00  0.00     0.074 A 
ATOM     36  C   UNL A   1      40.765  25.320  27.212  1.00  0.00     0.031 C 
ATOM     37  C   UNL A   1      42.939  29.844  30.610  1.00  0.00     0.029 A 
ATOM     38  C   UNL A   1      41.794  30.300  31.379  1.00  0.00     0.049 A 
ATOM     39  H   UNL A   1      39.912  30.791  30.482  1.00  0.00     0.167 HD
ATOM     40  C   UNL A   1      43.159  24.836  28.081  1.00  0.00     0.031 A 
ATOM     41  C   UNL A   1      41.609  30.074  32.712  1.00  0.00     0.031 A 
ATOM     42  C   UNL A   1      44.000  25.372  29.150  1.00  0.00     0.049 A 
ATOM     43  C   UNL A   1      42.392  28.896  33.253  1.00  0.00     0.074 A 
ATOM     44  C   UNL A   1      45.030  26.298  29.176  1.00  0.00     0.029 A 
ATOM     45  N   UNL A   1      43.626  25.168  30.473  1.00  0.00    -0.354 N 
ATOM     46  N   UNL A   1      42.964  27.992  32.507  1.00  0.00    -0.248 NA
ATOM     47  C   UNL A   1      42.544  28.612  34.678  1.00  0.00     0.031 C 
ATOM     48  C   UNL A   1      45.240  26.689  30.525  1.00  0.00     0.029 A 
ATOM     49  C   UNL A   1      44.356  25.981  31.318  1.00  0.00     0.049 A 
ATOM     50  H   UNL A   1      42.935  24.531  30.768  1.00  0.00     0.167 HD
ATOM     51  C   UNL A   1      43.521  27.019  33.299  1.00  0.00     0.074 A 
ATOM     52  C   UNL A   1      43.252  27.468  34.653  1.00  0.00     0.031 C 
ATOM     53  C   UNL A   1      44.132  25.922  32.759  1.00  0.00     0.031 A 
BRANCH  40  54
ATOM     54  C   UNL A   1      43.691  24.010  26.933  1.00  0.00    -0.014 A 
ATOM     55  C   UNL A   1      44.265  24.653  25.821  1.00  0.00     0.009 A 
ATOM     56  C   UNL A   1      43.601  22.610  26.849  1.00  0.00     0.009 A 
ATOM     57  C   UNL A   1      44.623  23.954  24.660  1.00  0.00     0.001 A 
ATOM     58  C   UNL A   1      43.915  21.908  25.677  1.00  0.00     0.001 A 
ATOM     59  C   UNL A   1      44.415  22.584  24.576  1.00  0.00     0.000 A 
ENDBRANCH  40  54
BRANCH  41  60
ATOM     60  C   UNL A   1      40.264  30.498  33.197  1.00  0.00    -0.014 A 
ATOM     61  C   UNL A   1      39.962  31.876  33.197  1.00  0.00     0.009 A 
ATOM     62  C   UNL A   1      39.208  29.581  33.276  1.00  0.00     0.009 A 
ATOM     63  C   UNL A   1      38.638  32.319  33.138  1.00  0.00     0.001 A 
ATOM     64  C   UNL A   1      37.882  30.031  33.236  1.00  0.00     0.001 A 
ATOM     65  C   UNL A   1      37.599  31.393  33.126  1.00  0.00     0.000 A 
ENDBRANCH  41  60
BRANCH  53  66
ATOM     66  C   UNL A   1      44.623  24.691  33.493  1.00  0.00    -0.014 A 
ATOM     67  C   UNL A   1      43.851  23.558  33.779  1.00  0.00     0.009 A 
ATOM     68  C   UNL A   1      45.997  24.608  33.830  1.00  0.00     0.009 A 
ATOM     69  C   UNL A   1      44.410  22.426  34.393  1.00  0.00     0.001 A 
ATOM     70  C   UNL A   1      46.567  23.467  34.399  1.00  0.00     0.001 A 
ATOM     71  C   UNL A   1      45.768  22.375  34.691  1.00  0.00     0.000 A 
ENDBRANCH  53  66
ENDBRANCH  27  28
ENDBRANCH  19  22
ENDBRANCH  17  18
ENDBRANCH   1  17
TORSDOF 11
ENDMDL
MODEL 3
REMARK VINA RESULT:     -11.4      2.290      3.611
REMARK SMILES CC(=O)c1cccc(C(=O)NCCCNC(=O)c2ccc(-c3c4nc(c(-c5ccccc5)c5ccc([nH]5)c(-c5ccccc5)c5nc(c(-c6ccccc6)c6ccc3[nH]6)C=C5)C=C4)cc2)c1C
REMARK SMILES IDX 13 1 12 2 11 3 9 4 10 5 8 7 4 8 5 9 66 10 6 11 67 12 7 13
REMARK SMILES IDX 2 14 1 15 3 16 14 17 15 18 16 19 17 21 18 22 19 23 65 24
REMARK SMILES IDX 20 25 64 26 21 27 22 28 23 29 58 30 24 31 63 32 57 33 59 34
REMARK SMILES IDX 25 35 62 36 56 37 55 38 26 40 48 41 33 42 47 43 34 44 37 45
REMARK SMILES IDX 46 46 60 47 35 48 36 49 45 51 61 52 38 53 27 54 28 55 32 56
REMARK SMILES IDX 29 57 31 58 30 59 49 60 50 61 54 62 51 63 53 64 52 65 39 66
REMARK SMILES IDX 40 67 44 68 41 69 43 70 42 71
REMARK H PARENT 11 6 15 20 59 39 37 50
REMARK Flexibility Score: inf
ROOT
ATOM      1  C   UNL A   1      34.318  30.122  27.506  1.00  0.00     0.042 C 
ENDROOT
BRANCH   1   2
ATOM      2  C   UNL A   1      33.140  30.116  26.543  1.00  0.00     0.118 C 
BRANCH   2   3
ATOM      3  N   UNL A   1      33.461  29.761  25.169  1.00  0.00    -0.352 N 
ATOM      4  C   UNL A   1      32.961  28.978  24.168  1.00  0.00     0.251 C 
ATOM      5  O   UNL A   1      33.558  29.066  23.090  1.00  0.00    -0.269 OA
ATOM      6  H   UNL A   1      34.280  30.221  24.875  1.00  0.00     0.163 HD
BRANCH   4   7
ATOM      7  C   UNL A   1      31.859  27.976  24.274  1.00  0.00     0.043 A 
ATOM      8  C   UNL A   1      30.681  25.962  24.936  1.00  0.00     0.021 A 
ATOM      9  C   UNL A   1      29.532  26.372  24.247  1.00  0.00     0.012 A 
ATOM     10  C   UNL A   1      31.819  26.804  25.052  1.00  0.00    -0.028 A 
ATOM     11  C   UNL A   1      29.526  27.588  23.588  1.00  0.00     0.002 A 
ATOM     12  C   UNL A   1      32.843  26.491  26.101  1.00  0.00     0.046 C 
ATOM     13  C   UNL A   1      30.688  28.356  23.572  1.00  0.00     0.014 A 
BRANCH   8  14
ATOM     14  C   UNL A   1      30.620  24.604  25.536  1.00  0.00     0.160 C 
ATOM     15  C   UNL A   1      31.083  23.441  24.695  1.00  0.00     0.093 C 
ATOM     16  O   UNL A   1      30.149  24.451  26.658  1.00  0.00    -0.295 OA
ENDBRANCH   8  14
ENDBRANCH   4   7
ENDBRANCH   2   3
ENDBRANCH   1   2
BRANCH   1  17
ATOM     17  C   UNL A   1      34.910  31.521  27.650  1.00  0.00     0.118 C 
BRANCH  17  18
ATOM     18  N   UNL A   1      33.997  32.579  28.075  1.00  0.00    -0.352 N 
ATOM     19  C   UNL A   1      34.117  33.452  29.157  1.00  0.00     0.251 C 
ATOM     20  H   UNL A   1      33.189  32.691  27.524  1.00  0.00     0.163 HD
ATOM     21  O   UNL A   1      33.240  34.248  29.411  1.00  0.00    -0.269 OA
BRANCH  19  22
ATOM     22  C   UNL A   1      35.400  33.482  29.912  1.00  0.00     0.039 A 
ATOM     23  C   UNL A   1      36.484  34.147  29.327  1.00  0.00     0.014 A 
ATOM     24  C   UNL A   1      35.596  32.636  30.998  1.00  0.00     0.014 A 
ATOM     25  C   UNL A   1      37.776  33.729  29.633  1.00  0.00     0.010 A 
ATOM     26  C   UNL A   1      36.864  32.134  31.209  1.00  0.00     0.010 A 
ATOM     27  C   UNL A   1      37.944  32.629  30.470  1.00  0.00    -0.014 A 
BRANCH  27  28
ATOM     28  C   UNL A   1      39.180  31.856  30.533  1.00  0.00     0.031 A 
ATOM     29  C   UNL A   1      39.276  30.552  29.854  1.00  0.00     0.074 A 
ATOM     30  C   UNL A   1      40.261  32.353  31.173  1.00  0.00     0.049 A 
ATOM     31  N   UNL A   1      40.098  29.618  30.195  1.00  0.00    -0.248 NA
ATOM     32  C   UNL A   1      38.391  30.173  28.760  1.00  0.00     0.031 C 
ATOM     33  C   UNL A   1      41.637  31.864  31.116  1.00  0.00     0.029 A 
ATOM     34  N   UNL A   1      40.274  33.293  32.203  1.00  0.00    -0.354 N 
ATOM     35  C   UNL A   1      40.067  28.664  29.205  1.00  0.00     0.074 A 
ATOM     36  C   UNL A   1      38.927  29.007  28.388  1.00  0.00     0.031 C 
ATOM     37  C   UNL A   1      42.299  32.297  32.201  1.00  0.00     0.029 A 
ATOM     38  C   UNL A   1      41.332  32.954  33.064  1.00  0.00     0.049 A 
ATOM     39  H   UNL A   1      39.656  34.053  32.307  1.00  0.00     0.167 HD
ATOM     40  C   UNL A   1      41.095  27.777  29.098  1.00  0.00     0.031 A 
ATOM     41  C   UNL A   1      41.099  32.626  34.368  1.00  0.00     0.031 A 
ATOM     42  C   UNL A   1      42.059  27.922  30.188  1.00  0.00     0.049 A 
ATOM     43  C   UNL A   1      41.524  31.219  34.735  1.00  0.00     0.074 A 
ATOM     44  C   UNL A   1      43.307  28.517  30.279  1.00  0.00     0.029 A 
ATOM     45  N   UNL A   1      41.650  27.668  31.491  1.00  0.00    -0.354 N 
ATOM     46  N   UNL A   1      41.817  30.291  33.866  1.00  0.00    -0.248 NA
ATOM     47  C   UNL A   1      41.599  30.731  36.110  1.00  0.00     0.031 C 
ATOM     48  C   UNL A   1      43.626  28.665  31.656  1.00  0.00     0.029 A 
ATOM     49  C   UNL A   1      42.584  28.137  32.396  1.00  0.00     0.049 A 
ATOM     50  H   UNL A   1      40.811  27.216  31.737  1.00  0.00     0.167 HD
ATOM     51  C   UNL A   1      42.085  29.113  34.517  1.00  0.00     0.074 A 
ATOM     52  C   UNL A   1      41.960  29.448  35.924  1.00  0.00     0.031 C 
ATOM     53  C   UNL A   1      42.361  27.964  33.828  1.00  0.00     0.031 A 
BRANCH  40  54
ATOM     54  C   UNL A   1      41.369  26.984  27.840  1.00  0.00    -0.014 A 
ATOM     55  C   UNL A   1      41.346  25.579  27.885  1.00  0.00     0.009 A 
ATOM     56  C   UNL A   1      41.719  27.550  26.602  1.00  0.00     0.009 A 
ATOM     57  C   UNL A   1      41.752  24.792  26.798  1.00  0.00     0.001 A 
ATOM     58  C   UNL A   1      42.169  26.774  25.525  1.00  0.00     0.001 A 
ATOM     59  C   UNL A   1      42.198  25.393  25.628  1.00  0.00     0.000 A 
ENDBRANCH  40  54
BRANCH  41  60
ATOM     60  C   UNL A   1      39.929  33.341  34.953  1.00  0.00    -0.014 A 
ATOM     61  C   UNL A   1      38.639  32.847  34.667  1.00  0.00     0.009 A 
ATOM     62  C   UNL A   1      40.087  34.207  36.043  1.00  0.00     0.009 A 
ATOM     63  C   UNL A   1      37.567  33.103  35.527  1.00  0.00     0.001 A 
ATOM     64  C   UNL A   1      39.006  34.476  36.891  1.00  0.00     0.001 A 
ATOM     65  C   UNL A   1      37.760  33.893  36.656  1.00  0.00     0.000 A 
ENDBRANCH  41  60
BRANCH  53  66
ATOM     66  C   UNL A   1      42.493  26.565  34.392  1.00  0.00    -0.014 A 
ATOM     67  C   UNL A   1      41.541  25.923  35.195  1.00  0.00     0.009 A 
ATOM     68  C   UNL A   1      43.607  25.781  34.003  1.00  0.00     0.009 A 
ATOM     69  C   UNL A   1      41.709  24.592  35.609  1.00  0.00     0.001 A 
ATOM     70  C   UNL A   1      43.756  24.443  34.373  1.00  0.00     0.001 A 
ATOM     71  C   UNL A   1      42.807  23.848  35.188  1.00  0.00     0.000 A 
ENDBRANCH  53  66
ENDBRANCH  27  28
ENDBRANCH  19  22
ENDBRANCH  17  18
ENDBRANCH   1  17
TORSDOF 11
ENDMDL
