MODEL 1
REMARK VINA RESULT:     -10.6      0.000      0.000
REMARK SMILES C[C@@H](NC(=O)[C@@H]([NH3+])CC(=O)NCCCNC(=O)c1ccc(-c2c3nc(c(-c4ccccc4)c4ccc([nH]4)c(-c4ccccc4)c4nc(c(-c5ccccc5)c5ccc2[nH]5)C=C4)C=C3)cc1)C(=O)NC1C(C)(C)SC1(C)C
REMARK SMILES IDX 9 1 10 2 11 3 8 5 6 6 4 7 3 8 5 10 2 11 1 12 66 13 67 14
REMARK SMILES IDX 68 15 69 17 70 18 74 19 71 20 72 21 73 22 75 23 76 24 7 25
REMARK SMILES IDX 12 29 13 30 14 31 15 32 16 33 17 35 18 36 19 37 65 38 20 39
REMARK SMILES IDX 64 40 21 41 22 42 23 43 58 44 24 45 63 46 57 47 59 48 25 49
REMARK SMILES IDX 62 50 56 51 55 52 26 54 48 55 33 56 47 57 34 58 37 59 46 60
REMARK SMILES IDX 60 61 35 62 36 63 45 65 61 66 38 67 27 68 28 69 32 70 29 71
REMARK SMILES IDX 31 72 30 73 49 74 50 75 54 76 51 77 53 78 52 79 39 80 40 81
REMARK SMILES IDX 44 82 41 83 43 84 42 85
REMARK H PARENT 11 4 3 9 68 16 7 26 7 27 7 28 15 34 59 53 37 64
REMARK Flexibility Score: inf
ROOT
ATOM      1  C   UNL A   1      31.354  27.696  22.973  1.00  0.00     0.226 C 
ATOM      2  O   UNL A   1      30.963  27.206  21.913  1.00  0.00    -0.275 OA
ATOM      3  N   UNL A   1      32.504  28.422  22.970  1.00  0.00    -0.356 N 
ATOM      4  H   UNL A   1      32.906  28.567  22.082  1.00  0.00     0.163 HD
ENDROOT
BRANCH   1   5
ATOM      5  C   UNL A   1      30.586  27.482  24.257  1.00  0.00     0.175 C 
BRANCH   5   6
ATOM      6  C   UNL A   1      30.736  26.038  24.713  1.00  0.00     0.280 C 
BRANCH   6   7
ATOM      7  C   UNL A   1      30.965  25.857  26.232  1.00  0.00     0.279 C 
ATOM      8  N   UNL A   1      31.393  24.712  26.833  1.00  0.00    -0.339 N 
ATOM      9  H   UNL A   1      31.422  24.745  27.816  1.00  0.00     0.164 HD
ATOM     10  O   UNL A   1      30.795  26.828  26.978  1.00  0.00    -0.268 OA
BRANCH   8  11
ATOM     11  C   UNL A   1      31.814  23.445  26.248  1.00  0.00     0.168 C 
ATOM     12  C   UNL A   1      30.644  22.474  26.106  1.00  0.00     0.041 C 
BRANCH  11  13
ATOM     13  C   UNL A   1      32.956  22.806  27.040  1.00  0.00     0.242 C 
ATOM     14  O   UNL A   1      32.864  22.643  28.261  1.00  0.00    -0.273 OA
ATOM     15  N   UNL A   1      34.139  22.469  26.431  1.00  0.00    -0.349 N 
ATOM     16  H   UNL A   1      34.528  21.608  26.707  1.00  0.00     0.163 HD
BRANCH  15  17
ATOM     17  C   UNL A   1      34.915  23.227  25.412  1.00  0.00     0.113 C 
ATOM     18  C   UNL A   1      36.279  22.476  25.110  1.00  0.00     0.032 C 
ATOM     19  C   UNL A   1      34.460  23.266  23.884  1.00  0.00     0.032 C 
ATOM     20  C   UNL A   1      37.445  23.093  25.877  1.00  0.00     0.025 C 
ATOM     21  C   UNL A   1      36.318  20.948  25.205  1.00  0.00     0.025 C 
ATOM     22  S   UNL A   1      36.242  23.018  23.376  1.00  0.00    -0.145 SA
ATOM     23  C   UNL A   1      33.597  22.168  23.267  1.00  0.00     0.025 C 
ATOM     24  C   UNL A   1      34.035  24.654  23.364  1.00  0.00     0.025 C 
ENDBRANCH  15  17
ENDBRANCH  11  13
ENDBRANCH   8  11
ENDBRANCH   6   7
BRANCH   6  25
ATOM     25  N   UNL A   1      29.591  25.217  24.273  1.00  0.00    -0.347 N 
ATOM     26  H   UNL A   1      29.817  24.229  24.385  1.00  0.00     0.345 HD
ATOM     27  H   UNL A   1      29.390  25.412  23.292  1.00  0.00     0.345 HD
ATOM     28  H   UNL A   1      28.773  25.445  24.839  1.00  0.00     0.345 HD
ENDBRANCH   6  25
ENDBRANCH   5   6
ENDBRANCH   1   5
BRANCH   3  29
ATOM     29  C   UNL A   1      33.230  29.016  24.079  1.00  0.00     0.117 C 
BRANCH  29  30
ATOM     30  C   UNL A   1      34.012  27.966  24.852  1.00  0.00     0.042 C 
BRANCH  30  31
ATOM     31  C   UNL A   1      34.045  28.160  26.353  1.00  0.00     0.118 C 
BRANCH  31  32
ATOM     32  N   UNL A   1      33.758  29.525  26.743  1.00  0.00    -0.352 N 
ATOM     33  C   UNL A   1      34.441  30.377  27.566  1.00  0.00     0.251 C 
ATOM     34  H   UNL A   1      32.938  29.902  26.352  1.00  0.00     0.163 HD
ATOM     35  O   UNL A   1      33.899  31.447  27.873  1.00  0.00    -0.269 OA
BRANCH  33  36
ATOM     36  C   UNL A   1      35.787  30.065  28.105  1.00  0.00     0.039 A 
ATOM     37  C   UNL A   1      36.883  30.194  27.244  1.00  0.00     0.014 A 
ATOM     38  C   UNL A   1      35.996  29.570  29.396  1.00  0.00     0.014 A 
ATOM     39  C   UNL A   1      38.161  29.824  27.666  1.00  0.00     0.010 A 
ATOM     40  C   UNL A   1      37.285  29.310  29.856  1.00  0.00     0.010 A 
ATOM     41  C   UNL A   1      38.374  29.377  28.979  1.00  0.00    -0.014 A 
BRANCH  41  42
ATOM     42  C   UNL A   1      39.706  28.878  29.402  1.00  0.00     0.031 A 
ATOM     43  C   UNL A   1      40.196  27.535  28.922  1.00  0.00     0.074 A 
ATOM     44  C   UNL A   1      40.476  29.622  30.218  1.00  0.00     0.049 A 
ATOM     45  N   UNL A   1      41.342  26.944  29.148  1.00  0.00    -0.248 NA
ATOM     46  C   UNL A   1      39.264  26.738  28.106  1.00  0.00     0.031 C 
ATOM     47  C   UNL A   1      40.097  30.910  30.800  1.00  0.00     0.029 A 
ATOM     48  N   UNL A   1      41.745  29.401  30.689  1.00  0.00    -0.354 N 
ATOM     49  C   UNL A   1      41.257  25.705  28.523  1.00  0.00     0.074 A 
ATOM     50  C   UNL A   1      39.927  25.601  27.967  1.00  0.00     0.031 C 
ATOM     51  C   UNL A   1      41.127  31.383  31.520  1.00  0.00     0.029 A 
ATOM     52  C   UNL A   1      42.227  30.425  31.466  1.00  0.00     0.049 A 
ATOM     53  H   UNL A   1      42.260  28.586  30.489  1.00  0.00     0.167 HD
ATOM     54  C   UNL A   1      42.205  24.747  28.391  1.00  0.00     0.031 A 
ATOM     55  C   UNL A   1      43.428  30.583  32.053  1.00  0.00     0.031 A 
ATOM     56  C   UNL A   1      43.537  24.856  28.922  1.00  0.00     0.049 A 
ATOM     57  C   UNL A   1      44.486  29.536  31.852  1.00  0.00     0.074 A 
ATOM     58  C   UNL A   1      44.591  23.967  28.806  1.00  0.00     0.029 A 
ATOM     59  N   UNL A   1      43.996  25.929  29.669  1.00  0.00    -0.354 N 
ATOM     60  N   UNL A   1      44.413  28.402  31.197  1.00  0.00    -0.248 NA
ATOM     61  C   UNL A   1      45.802  29.807  32.447  1.00  0.00     0.031 C 
ATOM     62  C   UNL A   1      45.681  24.490  29.511  1.00  0.00     0.029 A 
ATOM     63  C   UNL A   1      45.318  25.725  30.025  1.00  0.00     0.049 A 
ATOM     64  H   UNL A   1      43.462  26.720  29.910  1.00  0.00     0.167 HD
ATOM     65  C   UNL A   1      45.677  27.834  31.282  1.00  0.00     0.074 A 
ATOM     66  C   UNL A   1      46.502  28.759  32.034  1.00  0.00     0.031 C 
ATOM     67  C   UNL A   1      46.118  26.655  30.779  1.00  0.00     0.031 A 
BRANCH  54  68
ATOM     68  C   UNL A   1      41.820  23.503  27.639  1.00  0.00    -0.014 A 
ATOM     69  C   UNL A   1      41.039  22.501  28.244  1.00  0.00     0.009 A 
ATOM     70  C   UNL A   1      42.254  23.318  26.319  1.00  0.00     0.009 A 
ATOM     71  C   UNL A   1      40.747  21.320  27.558  1.00  0.00     0.001 A 
ATOM     72  C   UNL A   1      41.933  22.150  25.624  1.00  0.00     0.001 A 
ATOM     73  C   UNL A   1      41.193  21.146  26.250  1.00  0.00     0.000 A 
ENDBRANCH  54  68
BRANCH  55  74
ATOM     74  C   UNL A   1      43.702  31.811  32.841  1.00  0.00    -0.014 A 
ATOM     75  C   UNL A   1      43.471  31.837  34.224  1.00  0.00     0.009 A 
ATOM     76  C   UNL A   1      44.225  32.954  32.217  1.00  0.00     0.009 A 
ATOM     77  C   UNL A   1      43.739  32.990  34.965  1.00  0.00     0.001 A 
ATOM     78  C   UNL A   1      44.516  34.097  32.965  1.00  0.00     0.001 A 
ATOM     79  C   UNL A   1      44.266  34.116  34.336  1.00  0.00     0.000 A 
ENDBRANCH  55  74
BRANCH  67  80
ATOM     80  C   UNL A   1      47.564  26.314  31.006  1.00  0.00    -0.014 A 
ATOM     81  C   UNL A   1      48.539  26.595  30.037  1.00  0.00     0.009 A 
ATOM     82  C   UNL A   1      47.955  25.731  32.220  1.00  0.00     0.009 A 
ATOM     83  C   UNL A   1      49.875  26.260  30.265  1.00  0.00     0.001 A 
ATOM     84  C   UNL A   1      49.296  25.421  32.456  1.00  0.00     0.001 A 
ATOM     85  C   UNL A   1      50.253  25.677  31.474  1.00  0.00     0.000 A 
ENDBRANCH  67  80
ENDBRANCH  41  42
ENDBRANCH  33  36
ENDBRANCH  31  32
ENDBRANCH  30  31
ENDBRANCH  29  30
ENDBRANCH   3  29
TORSDOF 16
ENDMDL
MODEL 2
REMARK VINA RESULT:     -10.5      2.554      7.674
REMARK SMILES C[C@@H](NC(=O)[C@@H]([NH3+])CC(=O)NCCCNC(=O)c1ccc(-c2c3nc(c(-c4ccccc4)c4ccc([nH]4)c(-c4ccccc4)c4nc(c(-c5ccccc5)c5ccc2[nH]5)C=C4)C=C3)cc1)C(=O)NC1C(C)(C)SC1(C)C
REMARK SMILES IDX 9 1 10 2 11 3 8 5 6 6 4 7 3 8 5 10 2 11 1 12 66 13 67 14
REMARK SMILES IDX 68 15 69 17 70 18 74 19 71 20 72 21 73 22 75 23 76 24 7 25
REMARK SMILES IDX 12 29 13 30 14 31 15 32 16 33 17 35 18 36 19 37 65 38 20 39
REMARK SMILES IDX 64 40 21 41 22 42 23 43 58 44 24 45 63 46 57 47 59 48 25 49
REMARK SMILES IDX 62 50 56 51 55 52 26 54 48 55 33 56 47 57 34 58 37 59 46 60
REMARK SMILES IDX 60 61 35 62 36 63 45 65 61 66 38 67 27 68 28 69 32 70 29 71
REMARK SMILES IDX 31 72 30 73 49 74 50 75 54 76 51 77 53 78 52 79 39 80 40 81
REMARK SMILES IDX 44 82 41 83 43 84 42 85
REMARK H PARENT 11 4 3 9 68 16 7 26 7 27 7 28 15 34 59 53 37 64
REMARK Flexibility Score: inf
ROOT
ATOM      1  C   UNL A   1      32.964  22.013  25.720  1.00  0.00     0.226 C 
ATOM      2  O   UNL A   1      31.847  22.143  26.224  1.00  0.00    -0.275 OA
ATOM      3  N   UNL A   1      34.049  21.984  26.541  1.00  0.00    -0.356 N 
ATOM      4  H   UNL A   1      33.846  21.991  27.505  1.00  0.00     0.163 HD
ENDROOT
BRANCH   1   5
ATOM      5  C   UNL A   1      33.133  21.910  24.223  1.00  0.00     0.175 C 
BRANCH   5   6
ATOM      6  C   UNL A   1      32.677  23.203  23.562  1.00  0.00     0.280 C 
BRANCH   6   7
ATOM      7  C   UNL A   1      33.766  23.930  22.738  1.00  0.00     0.279 C 
ATOM      8  N   UNL A   1      33.729  25.239  22.364  1.00  0.00    -0.339 N 
ATOM      9  H   UNL A   1      34.471  25.527  21.785  1.00  0.00     0.164 HD
ATOM     10  O   UNL A   1      34.784  23.306  22.417  1.00  0.00    -0.268 OA
BRANCH   8  11
ATOM     11  C   UNL A   1      32.761  26.280  22.688  1.00  0.00     0.168 C 
ATOM     12  C   UNL A   1      31.634  26.341  21.658  1.00  0.00     0.041 C 
BRANCH  11  13
ATOM     13  C   UNL A   1      33.429  27.648  22.842  1.00  0.00     0.242 C 
ATOM     14  O   UNL A   1      34.212  28.068  21.984  1.00  0.00    -0.273 OA
ATOM     15  N   UNL A   1      33.238  28.408  23.967  1.00  0.00    -0.349 N 
ATOM     16  H   UNL A   1      33.114  29.372  23.813  1.00  0.00     0.163 HD
BRANCH  15  17
ATOM     17  C   UNL A   1      33.190  27.974  25.391  1.00  0.00     0.113 C 
ATOM     18  C   UNL A   1      32.830  29.212  26.316  1.00  0.00     0.032 C 
ATOM     19  C   UNL A   1      32.002  27.065  25.942  1.00  0.00     0.032 C 
ATOM     20  C   UNL A   1      34.075  29.819  26.956  1.00  0.00     0.025 C 
ATOM     21  C   UNL A   1      31.919  30.310  25.759  1.00  0.00     0.025 C 
ATOM     22  S   UNL A   1      31.925  28.140  27.469  1.00  0.00    -0.145 SA
ATOM     23  C   UNL A   1      30.630  27.031  25.272  1.00  0.00     0.025 C 
ATOM     24  C   UNL A   1      32.420  25.655  26.406  1.00  0.00     0.025 C 
ENDBRANCH  15  17
ENDBRANCH  11  13
ENDBRANCH   8  11
ENDBRANCH   6   7
BRANCH   6  25
ATOM     25  N   UNL A   1      31.477  22.985  22.731  1.00  0.00    -0.347 N 
ATOM     26  H   UNL A   1      31.757  22.833  21.762  1.00  0.00     0.345 HD
ATOM     27  H   UNL A   1      30.872  23.804  22.786  1.00  0.00     0.345 HD
ATOM     28  H   UNL A   1      30.973  22.166  23.071  1.00  0.00     0.345 HD
ENDBRANCH   6  25
ENDBRANCH   5   6
ENDBRANCH   1   5
BRANCH   3  29
ATOM     29  C   UNL A   1      35.462  21.942  26.209  1.00  0.00     0.117 C 
BRANCH  29  30
ATOM     30  C   UNL A   1      36.021  23.340  25.999  1.00  0.00     0.042 C 
BRANCH  30  31
ATOM     31  C   UNL A   1      37.182  23.433  25.031  1.00  0.00     0.118 C 
BRANCH  31  32
ATOM     32  N   UNL A   1      38.309  22.618  25.436  1.00  0.00    -0.352 N 
ATOM     33  C   UNL A   1      39.426  22.940  26.154  1.00  0.00     0.251 C 
ATOM     34  H   UNL A   1      38.263  21.679  25.147  1.00  0.00     0.163 HD
ATOM     35  O   UNL A   1      40.332  22.098  26.229  1.00  0.00    -0.269 OA
BRANCH  33  36
ATOM     36  C   UNL A   1      39.595  24.249  26.832  1.00  0.00     0.039 A 
ATOM     37  C   UNL A   1      40.256  25.267  26.134  1.00  0.00     0.014 A 
ATOM     38  C   UNL A   1      39.204  24.479  28.155  1.00  0.00     0.014 A 
ATOM     39  C   UNL A   1      40.528  26.487  26.756  1.00  0.00     0.010 A 
ATOM     40  C   UNL A   1      39.371  25.734  28.736  1.00  0.00     0.010 A 
ATOM     41  C   UNL A   1      40.088  26.732  28.065  1.00  0.00    -0.014 A 
BRANCH  41  42
ATOM     42  C   UNL A   1      40.466  27.981  28.770  1.00  0.00     0.031 A 
ATOM     43  C   UNL A   1      39.462  29.096  28.921  1.00  0.00     0.074 A 
ATOM     44  C   UNL A   1      41.707  28.123  29.272  1.00  0.00     0.049 A 
ATOM     45  N   UNL A   1      39.587  30.245  29.536  1.00  0.00    -0.248 NA
ATOM     46  C   UNL A   1      38.154  28.908  28.270  1.00  0.00     0.031 C 
ATOM     47  C   UNL A   1      42.790  27.147  29.144  1.00  0.00     0.029 A 
ATOM     48  N   UNL A   1      42.260  29.144  30.002  1.00  0.00    -0.354 N 
ATOM     49  C   UNL A   1      38.389  30.918  29.326  1.00  0.00     0.074 A 
ATOM     50  C   UNL A   1      37.576  30.081  28.474  1.00  0.00     0.031 C 
ATOM     51  C   UNL A   1      43.866  27.600  29.806  1.00  0.00     0.029 A 
ATOM     52  C   UNL A   1      43.555  28.902  30.387  1.00  0.00     0.049 A 
ATOM     53  H   UNL A   1      41.775  29.970  30.227  1.00  0.00     0.167 HD
ATOM     54  C   UNL A   1      37.981  32.110  29.821  1.00  0.00     0.031 A 
ATOM     55  C   UNL A   1      44.392  29.640  31.140  1.00  0.00     0.031 A 
ATOM     56  C   UNL A   1      38.776  32.936  30.689  1.00  0.00     0.049 A 
ATOM     57  C   UNL A   1      43.906  30.935  31.724  1.00  0.00     0.074 A 
ATOM     58  C   UNL A   1      38.443  34.138  31.286  1.00  0.00     0.029 A 
ATOM     59  N   UNL A   1      40.069  32.634  31.087  1.00  0.00    -0.354 N 
ATOM     60  N   UNL A   1      42.744  31.524  31.575  1.00  0.00    -0.248 NA
ATOM     61  C   UNL A   1      44.837  31.651  32.607  1.00  0.00     0.031 C 
ATOM     62  C   UNL A   1      39.548  34.581  32.022  1.00  0.00     0.029 A 
ATOM     63  C   UNL A   1      40.551  33.629  31.919  1.00  0.00     0.049 A 
ATOM     64  H   UNL A   1      40.570  31.830  30.818  1.00  0.00     0.167 HD
ATOM     65  C   UNL A   1      42.795  32.668  32.361  1.00  0.00     0.074 A 
ATOM     66  C   UNL A   1      44.096  32.678  33.000  1.00  0.00     0.031 C 
ATOM     67  C   UNL A   1      41.850  33.623  32.540  1.00  0.00     0.031 A 
BRANCH  54  68
ATOM     68  C   UNL A   1      36.608  32.581  29.425  1.00  0.00    -0.014 A 
ATOM     69  C   UNL A   1      36.392  33.252  28.208  1.00  0.00     0.009 A 
ATOM     70  C   UNL A   1      35.519  32.368  30.282  1.00  0.00     0.009 A 
ATOM     71  C   UNL A   1      35.127  33.744  27.884  1.00  0.00     0.001 A 
ATOM     72  C   UNL A   1      34.247  32.834  29.941  1.00  0.00     0.001 A 
ATOM     73  C   UNL A   1      34.055  33.534  28.750  1.00  0.00     0.000 A 
ENDBRANCH  54  68
BRANCH  55  74
ATOM     74  C   UNL A   1      45.760  29.135  31.423  1.00  0.00    -0.014 A 
ATOM     75  C   UNL A   1      46.000  28.309  32.531  1.00  0.00     0.009 A 
ATOM     76  C   UNL A   1      46.826  29.454  30.568  1.00  0.00     0.009 A 
ATOM     77  C   UNL A   1      47.285  27.826  32.788  1.00  0.00     0.001 A 
ATOM     78  C   UNL A   1      48.105  28.950  30.814  1.00  0.00     0.001 A 
ATOM     79  C   UNL A   1      48.335  28.143  31.927  1.00  0.00     0.000 A 
ENDBRANCH  55  74
BRANCH  67  80
ATOM     80  C   UNL A   1      42.182  34.742  33.486  1.00  0.00    -0.014 A 
ATOM     81  C   UNL A   1      41.822  34.683  34.840  1.00  0.00     0.009 A 
ATOM     82  C   UNL A   1      42.892  35.858  33.016  1.00  0.00     0.009 A 
ATOM     83  C   UNL A   1      42.131  35.740  35.698  1.00  0.00     0.001 A 
ATOM     84  C   UNL A   1      43.224  36.901  33.882  1.00  0.00     0.001 A 
ATOM     85  C   UNL A   1      42.834  36.845  35.220  1.00  0.00     0.000 A 
ENDBRANCH  67  80
ENDBRANCH  41  42
ENDBRANCH  33  36
ENDBRANCH  31  32
ENDBRANCH  30  31
ENDBRANCH  29  30
ENDBRANCH   3  29
TORSDOF 16
ENDMDL
MODEL 3
REMARK VINA RESULT:     -10.3      0.945      5.953
REMARK SMILES C[C@@H](NC(=O)[C@@H]([NH3+])CC(=O)NCCCNC(=O)c1ccc(-c2c3nc(c(-c4ccccc4)c4ccc([nH]4)c(-c4ccccc4)c4nc(c(-c5ccccc5)c5ccc2[nH]5)C=C4)C=C3)cc1)C(=O)NC1C(C)(C)SC1(C)C
REMARK SMILES IDX 9 1 10 2 11 3 8 5 6 6 4 7 3 8 5 10 2 11 1 12 66 13 67 14
REMARK SMILES IDX 68 15 69 17 70 18 74 19 71 20 72 21 73 22 75 23 76 24 7 25
REMARK SMILES IDX 12 29 13 30 14 31 15 32 16 33 17 35 18 36 19 37 65 38 20 39
REMARK SMILES IDX 64 40 21 41 22 42 23 43 58 44 24 45 63 46 57 47 59 48 25 49
REMARK SMILES IDX 62 50 56 51 55 52 26 54 48 55 33 56 47 57 34 58 37 59 46 60
REMARK SMILES IDX 60 61 35 62 36 63 45 65 61 66 38 67 27 68 28 69 32 70 29 71
REMARK SMILES IDX 31 72 30 73 49 74 50 75 54 76 51 77 53 78 52 79 39 80 40 81
REMARK SMILES IDX 44 82 41 83 43 84 42 85
REMARK H PARENT 11 4 3 9 68 16 7 26 7 27 7 28 15 34 59 53 37 64
REMARK Flexibility Score: inf
ROOT
ATOM      1  C   UNL A   1      31.069  27.958  23.046  1.00  0.00     0.226 C 
ATOM      2  O   UNL A   1      30.683  27.478  21.979  1.00  0.00    -0.275 OA
ATOM      3  N   UNL A   1      32.253  28.628  23.068  1.00  0.00    -0.356 N 
ATOM      4  H   UNL A   1      32.684  28.747  22.189  1.00  0.00     0.163 HD
ENDROOT
BRANCH   1   5
ATOM      5  C   UNL A   1      30.260  27.791  24.311  1.00  0.00     0.175 C 
BRANCH   5   6
ATOM      6  C   UNL A   1      30.408  26.369  24.834  1.00  0.00     0.280 C 
BRANCH   6   7
ATOM      7  C   UNL A   1      30.906  26.263  26.294  1.00  0.00     0.279 C 
ATOM      8  N   UNL A   1      31.285  25.111  26.915  1.00  0.00    -0.339 N 
ATOM      9  H   UNL A   1      31.512  25.209  27.868  1.00  0.00     0.164 HD
ATOM     10  O   UNL A   1      31.021  27.299  26.960  1.00  0.00    -0.268 OA
BRANCH   8  11
ATOM     11  C   UNL A   1      31.404  23.757  26.390  1.00  0.00     0.168 C 
ATOM     12  C   UNL A   1      30.092  22.986  26.514  1.00  0.00     0.041 C 
BRANCH  11  13
ATOM     13  C   UNL A   1      32.549  22.990  27.055  1.00  0.00     0.242 C 
ATOM     14  O   UNL A   1      32.523  22.742  28.264  1.00  0.00    -0.273 OA
ATOM     15  N   UNL A   1      33.665  22.625  26.345  1.00  0.00    -0.349 N 
ATOM     16  H   UNL A   1      34.011  21.723  26.532  1.00  0.00     0.163 HD
BRANCH  15  17
ATOM     17  C   UNL A   1      34.425  23.408  25.331  1.00  0.00     0.113 C 
ATOM     18  C   UNL A   1      35.817  22.703  25.044  1.00  0.00     0.032 C 
ATOM     19  C   UNL A   1      33.984  23.428  23.799  1.00  0.00     0.032 C 
ATOM     20  C   UNL A   1      36.953  23.361  25.821  1.00  0.00     0.025 C 
ATOM     21  C   UNL A   1      35.907  21.177  25.143  1.00  0.00     0.025 C 
ATOM     22  S   UNL A   1      35.778  23.240  23.309  1.00  0.00    -0.145 SA
ATOM     23  C   UNL A   1      33.164  22.300  23.176  1.00  0.00     0.025 C 
ATOM     24  C   UNL A   1      33.516  24.800  23.272  1.00  0.00     0.025 C 
ENDBRANCH  15  17
ENDBRANCH  11  13
ENDBRANCH   8  11
ENDBRANCH   6   7
BRANCH   6  25
ATOM     25  N   UNL A   1      29.154  25.608  24.671  1.00  0.00    -0.347 N 
ATOM     26  H   UNL A   1      28.395  26.247  24.434  1.00  0.00     0.345 HD
ATOM     27  H   UNL A   1      28.933  25.127  25.544  1.00  0.00     0.345 HD
ATOM     28  H   UNL A   1      29.267  24.922  23.925  1.00  0.00     0.345 HD
ENDBRANCH   6  25
ENDBRANCH   5   6
ENDBRANCH   1   5
BRANCH   3  29
ATOM     29  C   UNL A   1      32.978  29.195  24.191  1.00  0.00     0.117 C 
BRANCH  29  30
ATOM     30  C   UNL A   1      33.818  28.141  24.894  1.00  0.00     0.042 C 
BRANCH  30  31
ATOM     31  C   UNL A   1      34.101  28.410  26.357  1.00  0.00     0.118 C 
BRANCH  31  32
ATOM     32  N   UNL A   1      33.860  29.791  26.725  1.00  0.00    -0.352 N 
ATOM     33  C   UNL A   1      34.546  30.618  27.569  1.00  0.00     0.251 C 
ATOM     34  H   UNL A   1      33.075  30.200  26.296  1.00  0.00     0.163 HD
ATOM     35  O   UNL A   1      34.041  31.715  27.845  1.00  0.00    -0.269 OA
BRANCH  33  36
ATOM     36  C   UNL A   1      35.853  30.251  28.166  1.00  0.00     0.039 A 
ATOM     37  C   UNL A   1      37.010  30.515  27.423  1.00  0.00     0.014 A 
ATOM     38  C   UNL A   1      35.972  29.582  29.389  1.00  0.00     0.014 A 
ATOM     39  C   UNL A   1      38.259  30.106  27.892  1.00  0.00     0.010 A 
ATOM     40  C   UNL A   1      37.227  29.277  29.911  1.00  0.00     0.010 A 
ATOM     41  C   UNL A   1      38.380  29.481  29.142  1.00  0.00    -0.014 A 
BRANCH  41  42
ATOM     42  C   UNL A   1      39.686  28.945  29.599  1.00  0.00     0.031 A 
ATOM     43  C   UNL A   1      40.454  29.655  30.686  1.00  0.00     0.074 A 
ATOM     44  C   UNL A   1      40.189  27.829  29.041  1.00  0.00     0.049 A 
ATOM     45  N   UNL A   1      41.589  29.325  31.248  1.00  0.00    -0.248 NA
ATOM     46  C   UNL A   1      39.886  30.919  31.186  1.00  0.00     0.031 C 
ATOM     47  C   UNL A   1      39.577  27.079  27.943  1.00  0.00     0.029 A 
ATOM     48  N   UNL A   1      41.329  27.124  29.334  1.00  0.00    -0.354 N 
ATOM     49  C   UNL A   1      41.877  30.347  32.145  1.00  0.00     0.074 A 
ATOM     50  C   UNL A   1      40.836  31.339  32.006  1.00  0.00     0.031 C 
ATOM     51  C   UNL A   1      40.329  25.999  27.680  1.00  0.00     0.029 A 
ATOM     52  C   UNL A   1      41.481  25.991  28.575  1.00  0.00     0.049 A 
ATOM     53  H   UNL A   1      41.975  27.405  30.022  1.00  0.00     0.167 HD
ATOM     54  C   UNL A   1      42.896  30.443  33.032  1.00  0.00     0.031 A 
ATOM     55  C   UNL A   1      42.435  25.041  28.610  1.00  0.00     0.031 A 
ATOM     56  C   UNL A   1      43.921  29.447  33.190  1.00  0.00     0.049 A 
ATOM     57  C   UNL A   1      43.529  25.136  29.634  1.00  0.00     0.074 A 
ATOM     58  C   UNL A   1      44.972  29.421  34.090  1.00  0.00     0.029 A 
ATOM     59  N   UNL A   1      44.016  28.294  32.427  1.00  0.00    -0.354 N 
ATOM     60  N   UNL A   1      43.747  26.073  30.525  1.00  0.00    -0.248 NA
ATOM     61  C   UNL A   1      44.490  24.025  29.677  1.00  0.00     0.031 C 
ATOM     62  C   UNL A   1      45.722  28.265  33.849  1.00  0.00     0.029 A 
ATOM     63  C   UNL A   1      45.110  27.549  32.832  1.00  0.00     0.049 A 
ATOM     64  H   UNL A   1      43.396  28.041  31.706  1.00  0.00     0.167 HD
ATOM     65  C   UNL A   1      44.856  25.656  31.249  1.00  0.00     0.074 A 
ATOM     66  C   UNL A   1      45.252  24.371  30.706  1.00  0.00     0.031 C 
ATOM     67  C   UNL A   1      45.489  26.277  32.274  1.00  0.00     0.031 A 
BRANCH  54  68
ATOM     68  C   UNL A   1      42.939  31.676  33.893  1.00  0.00    -0.014 A 
ATOM     69  C   UNL A   1      43.639  32.825  33.483  1.00  0.00     0.009 A 
ATOM     70  C   UNL A   1      42.288  31.687  35.135  1.00  0.00     0.009 A 
ATOM     71  C   UNL A   1      43.729  33.937  34.322  1.00  0.00     0.001 A 
ATOM     72  C   UNL A   1      42.352  32.813  35.958  1.00  0.00     0.001 A 
ATOM     73  C   UNL A   1      43.085  33.931  35.558  1.00  0.00     0.000 A 
ENDBRANCH  54  68
BRANCH  55  74
ATOM     74  C   UNL A   1      42.358  23.892  27.672  1.00  0.00    -0.014 A 
ATOM     75  C   UNL A   1      41.622  22.746  28.008  1.00  0.00     0.009 A 
ATOM     76  C   UNL A   1      42.996  23.949  26.424  1.00  0.00     0.009 A 
ATOM     77  C   UNL A   1      41.542  21.671  27.120  1.00  0.00     0.001 A 
ATOM     78  C   UNL A   1      42.893  22.882  25.528  1.00  0.00     0.001 A 
ATOM     79  C   UNL A   1      42.173  21.742  25.879  1.00  0.00     0.000 A 
ENDBRANCH  55  74
BRANCH  67  80
ATOM     80  C   UNL A   1      46.658  25.561  32.889  1.00  0.00    -0.014 A 
ATOM     81  C   UNL A   1      46.482  24.650  33.942  1.00  0.00     0.009 A 
ATOM     82  C   UNL A   1      47.949  25.782  32.385  1.00  0.00     0.009 A 
ATOM     83  C   UNL A   1      47.584  24.004  34.505  1.00  0.00     0.001 A 
ATOM     84  C   UNL A   1      49.045  25.114  32.933  1.00  0.00     0.001 A 
ATOM     85  C   UNL A   1      48.863  24.233  33.999  1.00  0.00     0.000 A 
ENDBRANCH  67  80
ENDBRANCH  41  42
ENDBRANCH  33  36
ENDBRANCH  31  32
ENDBRANCH  30  31
ENDBRANCH  29  30
ENDBRANCH   3  29
TORSDOF 16
ENDMDL
