MODEL 1
REMARK VINA RESULT:     -10.4      0.000      0.000
REMARK SMILES COC(=O)[C@H]1CCN(C(=O)N[C@H](C(=O)NCCCNC(=O)c2ccc(-c3c4nc(c(-c5ccccc5)c5ccc([nH]5)c(-c5ccccc5)c5nc(c(-c6ccccc6)c6ccc3[nH]6)C=C5)C=C4)cc2)C2CC2)C1
REMARK SMILES IDX 16 1 15 2 13 3 14 4 12 6 11 7 9 8 10 9 8 11 5 12 6 13 73 14
REMARK SMILES IDX 7 15 3 16 4 17 2 18 1 19 70 20 71 21 72 22 17 23 18 24 19 25
REMARK SMILES IDX 20 26 21 28 22 29 23 30 69 31 24 32 68 33 25 34 26 35 27 36
REMARK SMILES IDX 62 37 28 38 67 39 61 40 63 41 29 42 66 43 60 44 59 45 30 47
REMARK SMILES IDX 52 48 37 49 51 50 38 51 41 52 50 53 64 54 39 55 40 56 49 58
REMARK SMILES IDX 65 59 42 60 31 61 32 62 36 63 33 64 35 65 34 66 53 67 54 68
REMARK SMILES IDX 58 69 55 70 57 71 56 72 43 73 44 74 48 75 45 76 47 77 46 78
REMARK H PARENT 15 5 11 10 19 27 63 46 41 57
REMARK Flexibility Score: inf
ROOT
ATOM      1  C   UNL A   1      31.713  30.553  26.738  1.00  0.00     0.117 C 
ENDROOT
BRANCH   1   2
ATOM      2  N   UNL A   1      33.080  30.223  27.102  1.00  0.00    -0.354 N 
ATOM      3  C   UNL A   1      33.836  29.116  26.853  1.00  0.00     0.242 C 
ATOM      4  O   UNL A   1      34.822  28.979  27.586  1.00  0.00    -0.273 OA
ATOM      5  H   UNL A   1      33.542  30.920  27.620  1.00  0.00     0.163 HD
BRANCH   3   6
ATOM      6  C   UNL A   1      33.431  28.051  25.791  1.00  0.00     0.176 C 
BRANCH   6   7
ATOM      7  N   UNL A   1      33.571  28.441  24.390  1.00  0.00    -0.326 N 
ATOM      8  C   UNL A   1      32.747  28.594  23.342  1.00  0.00     0.318 C 
ATOM      9  O   UNL A   1      33.302  28.841  22.266  1.00  0.00    -0.249 OA
ATOM     10  H   UNL A   1      34.505  28.639  24.154  1.00  0.00     0.166 HD
BRANCH   8  11
ATOM     11  N   UNL A   1      31.410  28.401  23.411  1.00  0.00    -0.324 N 
ATOM     12  C   UNL A   1      29.105  29.009  23.389  1.00  0.00     0.120 C 
ATOM     13  C   UNL A   1      29.282  27.549  22.987  1.00  0.00     0.039 C 
ATOM     14  C   UNL A   1      30.525  29.563  23.347  1.00  0.00     0.136 C 
ATOM     15  C   UNL A   1      30.619  27.203  23.603  1.00  0.00     0.122 C 
BRANCH  12  16
ATOM     16  C   UNL A   1      28.185  29.752  22.456  1.00  0.00     0.310 C 
ATOM     17  O   UNL A   1      28.315  29.811  21.243  1.00  0.00    -0.252 OA
BRANCH  16  18
ATOM     18  O   UNL A   1      27.161  30.305  23.162  1.00  0.00    -0.469 OA
ATOM     19  C   UNL A   1      27.453  31.613  23.659  1.00  0.00     0.282 C 
ENDBRANCH  16  18
ENDBRANCH  12  16
ENDBRANCH   8  11
ENDBRANCH   6   7
BRANCH   6  20
ATOM     20  C   UNL A   1      33.937  26.628  25.944  1.00  0.00     0.021 C 
ATOM     21  C   UNL A   1      33.089  25.373  25.949  1.00  0.00     0.006 C 
ATOM     22  C   UNL A   1      33.946  25.689  24.758  1.00  0.00     0.006 C 
ENDBRANCH   6  20
ENDBRANCH   3   6
ENDBRANCH   1   2
BRANCH   1  23
ATOM     23  C   UNL A   1      31.453  32.043  26.892  1.00  0.00     0.042 C 
BRANCH  23  24
ATOM     24  C   UNL A   1      32.712  32.877  27.065  1.00  0.00     0.118 C 
BRANCH  24  25
ATOM     25  N   UNL A   1      32.472  34.130  27.763  1.00  0.00    -0.352 N 
ATOM     26  C   UNL A   1      33.158  34.693  28.811  1.00  0.00     0.251 C 
ATOM     27  H   UNL A   1      31.703  34.651  27.436  1.00  0.00     0.163 HD
ATOM     28  O   UNL A   1      32.699  35.674  29.389  1.00  0.00    -0.269 OA
BRANCH  26  29
ATOM     29  C   UNL A   1      34.438  34.106  29.266  1.00  0.00     0.039 A 
ATOM     30  C   UNL A   1      34.439  33.283  30.394  1.00  0.00     0.014 A 
ATOM     31  C   UNL A   1      35.636  34.371  28.596  1.00  0.00     0.014 A 
ATOM     32  C   UNL A   1      35.628  32.686  30.814  1.00  0.00     0.010 A 
ATOM     33  C   UNL A   1      36.795  33.688  28.947  1.00  0.00     0.010 A 
ATOM     34  C   UNL A   1      36.812  32.858  30.076  1.00  0.00    -0.014 A 
BRANCH  34  35
ATOM     35  C   UNL A   1      38.076  32.205  30.497  1.00  0.00     0.031 A 
ATOM     36  C   UNL A   1      38.927  32.821  31.577  1.00  0.00     0.074 A 
ATOM     37  C   UNL A   1      38.476  31.071  29.888  1.00  0.00     0.049 A 
ATOM     38  N   UNL A   1      40.052  32.390  32.088  1.00  0.00    -0.248 NA
ATOM     39  C   UNL A   1      38.469  34.103  32.137  1.00  0.00     0.031 C 
ATOM     40  C   UNL A   1      37.773  30.400  28.793  1.00  0.00     0.029 A 
ATOM     41  N   UNL A   1      39.573  30.276  30.114  1.00  0.00    -0.354 N 
ATOM     42  C   UNL A   1      40.438  33.350  33.015  1.00  0.00     0.074 A 
ATOM     43  C   UNL A   1      39.467  34.418  32.947  1.00  0.00     0.031 C 
ATOM     44  C   UNL A   1      38.428  29.272  28.474  1.00  0.00     0.029 A 
ATOM     45  C   UNL A   1      39.616  29.160  29.314  1.00  0.00     0.049 A 
ATOM     46  H   UNL A   1      40.262  30.485  30.784  1.00  0.00     0.167 HD
ATOM     47  C   UNL A   1      41.491  33.336  33.867  1.00  0.00     0.031 A 
ATOM     48  C   UNL A   1      40.509  28.154  29.266  1.00  0.00     0.031 A 
ATOM     49  C   UNL A   1      42.455  32.271  33.941  1.00  0.00     0.049 A 
ATOM     50  C   UNL A   1      41.670  28.162  30.222  1.00  0.00     0.074 A 
ATOM     51  C   UNL A   1      43.526  32.135  34.806  1.00  0.00     0.029 A 
ATOM     52  N   UNL A   1      42.463  31.159  33.112  1.00  0.00    -0.354 N 
ATOM     53  N   UNL A   1      41.978  29.041  31.145  1.00  0.00    -0.248 NA
ATOM     54  C   UNL A   1      42.598  27.025  30.137  1.00  0.00     0.031 C 
ATOM     55  C   UNL A   1      44.218  30.968  34.463  1.00  0.00     0.029 A 
ATOM     56  C   UNL A   1      43.538  30.344  33.429  1.00  0.00     0.049 A 
ATOM     57  H   UNL A   1      41.804  30.977  32.405  1.00  0.00     0.167 HD
ATOM     58  C   UNL A   1      43.116  28.549  31.771  1.00  0.00     0.074 A 
ATOM     59  C   UNL A   1      43.428  27.284  31.137  1.00  0.00     0.031 C 
ATOM     60  C   UNL A   1      43.841  29.094  32.779  1.00  0.00     0.031 A 
BRANCH  47  61
ATOM     61  C   UNL A   1      41.654  34.521  34.783  1.00  0.00    -0.014 A 
ATOM     62  C   UNL A   1      42.407  35.644  34.397  1.00  0.00     0.009 A 
ATOM     63  C   UNL A   1      41.032  34.524  36.040  1.00  0.00     0.009 A 
ATOM     64  C   UNL A   1      42.567  36.723  35.270  1.00  0.00     0.001 A 
ATOM     65  C   UNL A   1      41.165  35.619  36.896  1.00  0.00     0.001 A 
ATOM     66  C   UNL A   1      41.942  36.712  36.516  1.00  0.00     0.000 A 
ENDBRANCH  47  61
BRANCH  48  67
ATOM     67  C   UNL A   1      40.328  27.038  28.300  1.00  0.00    -0.014 A 
ATOM     68  C   UNL A   1      40.865  27.117  27.006  1.00  0.00     0.009 A 
ATOM     69  C   UNL A   1      39.603  25.891  28.663  1.00  0.00     0.009 A 
ATOM     70  C   UNL A   1      40.655  26.087  26.087  1.00  0.00     0.001 A 
ATOM     71  C   UNL A   1      39.422  24.848  27.753  1.00  0.00     0.001 A 
ATOM     72  C   UNL A   1      39.938  24.952  26.462  1.00  0.00     0.000 A 
ENDBRANCH  48  67
BRANCH  60  73
ATOM     73  C   UNL A   1      45.020  28.304  33.276  1.00  0.00    -0.014 A 
ATOM     74  C   UNL A   1      44.892  27.374  34.321  1.00  0.00     0.009 A 
ATOM     75  C   UNL A   1      46.279  28.489  32.683  1.00  0.00     0.009 A 
ATOM     76  C   UNL A   1      46.011  26.686  34.795  1.00  0.00     0.001 A 
ATOM     77  C   UNL A   1      47.387  27.773  33.135  1.00  0.00     0.001 A 
ATOM     78  C   UNL A   1      47.256  26.883  34.200  1.00  0.00     0.000 A 
ENDBRANCH  60  73
ENDBRANCH  34  35
ENDBRANCH  26  29
ENDBRANCH  24  25
ENDBRANCH  23  24
ENDBRANCH   1  23
TORSDOF 15
ENDMDL
MODEL 2
REMARK VINA RESULT:     -10.2      3.441      8.263
REMARK SMILES COC(=O)[C@H]1CCN(C(=O)N[C@H](C(=O)NCCCNC(=O)c2ccc(-c3c4nc(c(-c5ccccc5)c5ccc([nH]5)c(-c5ccccc5)c5nc(c(-c6ccccc6)c6ccc3[nH]6)C=C5)C=C4)cc2)C2CC2)C1
REMARK SMILES IDX 16 1 15 2 13 3 14 4 12 6 11 7 9 8 10 9 8 11 5 12 6 13 73 14
REMARK SMILES IDX 7 15 3 16 4 17 2 18 1 19 70 20 71 21 72 22 17 23 18 24 19 25
REMARK SMILES IDX 20 26 21 28 22 29 23 30 69 31 24 32 68 33 25 34 26 35 27 36
REMARK SMILES IDX 62 37 28 38 67 39 61 40 63 41 29 42 66 43 60 44 59 45 30 47
REMARK SMILES IDX 52 48 37 49 51 50 38 51 41 52 50 53 64 54 39 55 40 56 49 58
REMARK SMILES IDX 65 59 42 60 31 61 32 62 36 63 33 64 35 65 34 66 53 67 54 68
REMARK SMILES IDX 58 69 55 70 57 71 56 72 43 73 44 74 48 75 45 76 47 77 46 78
REMARK H PARENT 15 5 11 10 19 27 63 46 41 57
REMARK Flexibility Score: inf
ROOT
ATOM      1  C   UNL A   1      34.741  24.843  25.008  1.00  0.00     0.117 C 
ENDROOT
BRANCH   1   2
ATOM      2  N   UNL A   1      34.368  25.924  25.905  1.00  0.00    -0.354 N 
ATOM      3  C   UNL A   1      33.160  26.501  26.166  1.00  0.00     0.242 C 
ATOM      4  O   UNL A   1      33.217  27.616  26.698  1.00  0.00    -0.273 OA
ATOM      5  H   UNL A   1      35.118  26.307  26.413  1.00  0.00     0.163 HD
BRANCH   3   6
ATOM      6  C   UNL A   1      31.814  25.849  25.735  1.00  0.00     0.176 C 
BRANCH   6   7
ATOM      7  N   UNL A   1      31.293  24.794  26.602  1.00  0.00    -0.326 N 
ATOM      8  C   UNL A   1      31.278  23.453  26.590  1.00  0.00     0.318 C 
ATOM      9  O   UNL A   1      30.616  22.924  27.488  1.00  0.00    -0.249 OA
ATOM     10  H   UNL A   1      30.836  25.159  27.393  1.00  0.00     0.166 HD
BRANCH   8  11
ATOM     11  N   UNL A   1      31.858  22.709  25.619  1.00  0.00    -0.324 N 
ATOM     12  C   UNL A   1      33.310  21.060  24.696  1.00  0.00     0.120 C 
ATOM     13  C   UNL A   1      32.113  21.298  23.781  1.00  0.00     0.039 C 
ATOM     14  C   UNL A   1      32.918  21.772  25.986  1.00  0.00     0.136 C 
ATOM     15  C   UNL A   1      31.670  22.687  24.183  1.00  0.00     0.122 C 
BRANCH  12  16
ATOM     16  C   UNL A   1      33.574  19.595  24.922  1.00  0.00     0.310 C 
ATOM     17  O   UNL A   1      34.619  19.021  24.654  1.00  0.00    -0.252 OA
BRANCH  16  18
ATOM     18  O   UNL A   1      32.493  19.016  25.513  1.00  0.00    -0.469 OA
ATOM     19  C   UNL A   1      32.427  17.602  25.320  1.00  0.00     0.282 C 
ENDBRANCH  16  18
ENDBRANCH  12  16
ENDBRANCH   8  11
ENDBRANCH   6   7
BRANCH   6  20
ATOM     20  C   UNL A   1      30.658  26.745  25.327  1.00  0.00     0.021 C 
ATOM     21  C   UNL A   1      30.459  27.383  23.968  1.00  0.00     0.006 C 
ATOM     22  C   UNL A   1      29.591  26.233  24.386  1.00  0.00     0.006 C 
ENDBRANCH   6  20
ENDBRANCH   3   6
ENDBRANCH   1   2
BRANCH   1  23
ATOM     23  C   UNL A   1      35.791  23.946  25.643  1.00  0.00     0.042 C 
BRANCH  23  24
ATOM     24  C   UNL A   1      36.990  23.670  24.751  1.00  0.00     0.118 C 
BRANCH  24  25
ATOM     25  N   UNL A   1      37.864  22.634  25.279  1.00  0.00    -0.352 N 
ATOM     26  C   UNL A   1      38.975  22.751  26.078  1.00  0.00     0.251 C 
ATOM     27  H   UNL A   1      37.625  21.714  25.025  1.00  0.00     0.163 HD
ATOM     28  O   UNL A   1      39.693  21.776  26.278  1.00  0.00    -0.269 OA
BRANCH  26  29
ATOM     29  C   UNL A   1      39.326  24.056  26.682  1.00  0.00     0.039 A 
ATOM     30  C   UNL A   1      38.920  24.323  27.991  1.00  0.00     0.014 A 
ATOM     31  C   UNL A   1      40.041  25.019  25.964  1.00  0.00     0.014 A 
ATOM     32  C   UNL A   1      39.277  25.530  28.593  1.00  0.00     0.010 A 
ATOM     33  C   UNL A   1      40.491  26.170  26.601  1.00  0.00     0.010 A 
ATOM     34  C   UNL A   1      40.092  26.452  27.914  1.00  0.00    -0.014 A 
BRANCH  34  35
ATOM     35  C   UNL A   1      40.502  27.727  28.556  1.00  0.00     0.031 A 
ATOM     36  C   UNL A   1      41.921  27.918  29.025  1.00  0.00     0.074 A 
ATOM     37  C   UNL A   1      39.593  28.703  28.743  1.00  0.00     0.049 A 
ATOM     38  N   UNL A   1      42.469  28.964  29.592  1.00  0.00    -0.248 NA
ATOM     39  C   UNL A   1      42.837  26.777  28.864  1.00  0.00     0.031 C 
ATOM     40  C   UNL A   1      38.176  28.624  28.382  1.00  0.00     0.029 A 
ATOM     41  N   UNL A   1      39.730  29.960  29.276  1.00  0.00    -0.354 N 
ATOM     42  C   UNL A   1      43.782  28.600  29.863  1.00  0.00     0.074 A 
ATOM     43  C   UNL A   1      43.931  27.220  29.464  1.00  0.00     0.031 C 
ATOM     44  C   UNL A   1      37.585  29.798  28.661  1.00  0.00     0.029 A 
ATOM     45  C   UNL A   1      38.570  30.696  29.254  1.00  0.00     0.049 A 
ATOM     46  H   UNL A   1      40.577  30.302  29.641  1.00  0.00     0.167 HD
ATOM     47  C   UNL A   1      44.785  29.354  30.374  1.00  0.00     0.031 A 
ATOM     48  C   UNL A   1      38.327  31.956  29.659  1.00  0.00     0.031 A 
ATOM     49  C   UNL A   1      44.641  30.731  30.765  1.00  0.00     0.049 A 
ATOM     50  C   UNL A   1      39.457  32.772  30.224  1.00  0.00     0.074 A 
ATOM     51  C   UNL A   1      45.608  31.598  31.243  1.00  0.00     0.029 A 
ATOM     52  N   UNL A   1      43.449  31.439  30.728  1.00  0.00    -0.354 N 
ATOM     53  N   UNL A   1      40.713  32.438  30.401  1.00  0.00    -0.248 NA
ATOM     54  C   UNL A   1      39.136  34.149  30.628  1.00  0.00     0.031 C 
ATOM     55  C   UNL A   1      44.988  32.815  31.548  1.00  0.00     0.029 A 
ATOM     56  C   UNL A   1      43.651  32.726  31.197  1.00  0.00     0.049 A 
ATOM     57  H   UNL A   1      42.589  31.080  30.413  1.00  0.00     0.167 HD
ATOM     58  C   UNL A   1      41.337  33.570  30.909  1.00  0.00     0.074 A 
ATOM     59  C   UNL A   1      40.326  34.606  30.986  1.00  0.00     0.031 C 
ATOM     60  C   UNL A   1      42.631  33.740  31.280  1.00  0.00     0.031 A 
BRANCH  47  61
ATOM     61  C   UNL A   1      46.128  28.694  30.544  1.00  0.00    -0.014 A 
ATOM     62  C   UNL A   1      46.471  28.033  31.736  1.00  0.00     0.009 A 
ATOM     63  C   UNL A   1      47.056  28.714  29.492  1.00  0.00     0.009 A 
ATOM     64  C   UNL A   1      47.730  27.446  31.885  1.00  0.00     0.001 A 
ATOM     65  C   UNL A   1      48.301  28.097  29.630  1.00  0.00     0.001 A 
ATOM     66  C   UNL A   1      48.642  27.474  30.830  1.00  0.00     0.000 A 
ENDBRANCH  47  61
BRANCH  48  67
ATOM     67  C   UNL A   1      36.966  32.538  29.520  1.00  0.00    -0.014 A 
ATOM     68  C   UNL A   1      36.035  32.438  30.565  1.00  0.00     0.009 A 
ATOM     69  C   UNL A   1      36.585  33.186  28.334  1.00  0.00     0.009 A 
ATOM     70  C   UNL A   1      34.743  32.946  30.414  1.00  0.00     0.001 A 
ATOM     71  C   UNL A   1      35.303  33.721  28.197  1.00  0.00     0.001 A 
ATOM     72  C   UNL A   1      34.379  33.591  29.233  1.00  0.00     0.000 A 
ENDBRANCH  48  67
BRANCH  60  73
ATOM     73  C   UNL A   1      43.026  35.106  31.769  1.00  0.00    -0.014 A 
ATOM     74  C   UNL A   1      43.555  36.073  30.898  1.00  0.00     0.009 A 
ATOM     75  C   UNL A   1      42.860  35.433  33.124  1.00  0.00     0.009 A 
ATOM     76  C   UNL A   1      43.957  37.318  31.385  1.00  0.00     0.001 A 
ATOM     77  C   UNL A   1      43.228  36.691  33.601  1.00  0.00     0.001 A 
ATOM     78  C   UNL A   1      43.791  37.627  32.735  1.00  0.00     0.000 A 
ENDBRANCH  60  73
ENDBRANCH  34  35
ENDBRANCH  26  29
ENDBRANCH  24  25
ENDBRANCH  23  24
ENDBRANCH   1  23
TORSDOF 15
ENDMDL
MODEL 3
REMARK VINA RESULT:     -10.1      4.154      9.027
REMARK SMILES COC(=O)[C@H]1CCN(C(=O)N[C@H](C(=O)NCCCNC(=O)c2ccc(-c3c4nc(c(-c5ccccc5)c5ccc([nH]5)c(-c5ccccc5)c5nc(c(-c6ccccc6)c6ccc3[nH]6)C=C5)C=C4)cc2)C2CC2)C1
REMARK SMILES IDX 16 1 15 2 13 3 14 4 12 6 11 7 9 8 10 9 8 11 5 12 6 13 73 14
REMARK SMILES IDX 7 15 3 16 4 17 2 18 1 19 70 20 71 21 72 22 17 23 18 24 19 25
REMARK SMILES IDX 20 26 21 28 22 29 23 30 69 31 24 32 68 33 25 34 26 35 27 36
REMARK SMILES IDX 62 37 28 38 67 39 61 40 63 41 29 42 66 43 60 44 59 45 30 47
REMARK SMILES IDX 52 48 37 49 51 50 38 51 41 52 50 53 64 54 39 55 40 56 49 58
REMARK SMILES IDX 65 59 42 60 31 61 32 62 36 63 33 64 35 65 34 66 53 67 54 68
REMARK SMILES IDX 58 69 55 70 57 71 56 72 43 73 44 74 48 75 45 76 47 77 46 78
REMARK H PARENT 15 5 11 10 19 27 63 46 41 57
REMARK Flexibility Score: inf
ROOT
ATOM      1  C   UNL A   1      36.081  20.600  24.963  1.00  0.00     0.117 C 
ENDROOT
BRANCH   1   2
ATOM      2  N   UNL A   1      34.860  19.814  25.027  1.00  0.00    -0.354 N 
ATOM      3  C   UNL A   1      33.550  20.188  25.073  1.00  0.00     0.242 C 
ATOM      4  O   UNL A   1      32.771  19.318  25.479  1.00  0.00    -0.273 OA
ATOM      5  H   UNL A   1      35.005  18.841  25.040  1.00  0.00     0.163 HD
BRANCH   3   6
ATOM      6  C   UNL A   1      33.083  21.634  24.735  1.00  0.00     0.176 C 
BRANCH   6   7
ATOM      7  N   UNL A   1      33.422  22.136  23.405  1.00  0.00    -0.326 N 
ATOM      8  C   UNL A   1      33.823  23.306  22.887  1.00  0.00     0.318 C 
ATOM      9  O   UNL A   1      33.900  23.339  21.655  1.00  0.00    -0.249 OA
ATOM     10  H   UNL A   1      33.333  21.440  22.715  1.00  0.00     0.166 HD
BRANCH   8  11
ATOM     11  N   UNL A   1      34.040  24.416  23.631  1.00  0.00    -0.324 N 
ATOM     12  C   UNL A   1      33.868  26.715  24.236  1.00  0.00     0.120 C 
ATOM     13  C   UNL A   1      34.152  25.853  25.463  1.00  0.00     0.039 C 
ATOM     14  C   UNL A   1      33.510  25.694  23.161  1.00  0.00     0.136 C 
ATOM     15  C   UNL A   1      34.788  24.624  24.854  1.00  0.00     0.122 C 
BRANCH  12  16
ATOM     16  C   UNL A   1      32.751  27.696  24.473  1.00  0.00     0.310 C 
ATOM     17  O   UNL A   1      32.869  28.912  24.455  1.00  0.00    -0.252 OA
BRANCH  16  18
ATOM     18  O   UNL A   1      31.580  27.027  24.662  1.00  0.00    -0.469 OA
ATOM     19  C   UNL A   1      30.451  27.677  24.075  1.00  0.00     0.282 C 
ENDBRANCH  16  18
ENDBRANCH  12  16
ENDBRANCH   8  11
ENDBRANCH   6   7
BRANCH   6  20
ATOM     20  C   UNL A   1      31.654  22.039  25.048  1.00  0.00     0.021 C 
ATOM     21  C   UNL A   1      31.110  22.426  26.408  1.00  0.00     0.006 C 
ATOM     22  C   UNL A   1      31.319  23.480  25.361  1.00  0.00     0.006 C 
ENDBRANCH   6  20
ENDBRANCH   3   6
ENDBRANCH   1   2
BRANCH   1  23
ATOM     23  C   UNL A   1      37.306  19.701  24.913  1.00  0.00     0.042 C 
BRANCH  23  24
ATOM     24  C   UNL A   1      38.514  20.261  25.646  1.00  0.00     0.118 C 
BRANCH  24  25
ATOM     25  N   UNL A   1      39.643  19.344  25.662  1.00  0.00    -0.352 N 
ATOM     26  C   UNL A   1      40.958  19.582  25.981  1.00  0.00     0.251 C 
ATOM     27  H   UNL A   1      39.435  18.417  25.404  1.00  0.00     0.163 HD
ATOM     28  O   UNL A   1      41.807  18.722  25.763  1.00  0.00    -0.269 OA
BRANCH  26  29
ATOM     29  C   UNL A   1      41.361  20.880  26.565  1.00  0.00     0.039 A 
ATOM     30  C   UNL A   1      41.881  21.865  25.722  1.00  0.00     0.014 A 
ATOM     31  C   UNL A   1      41.240  21.129  27.935  1.00  0.00     0.014 A 
ATOM     32  C   UNL A   1      42.228  23.111  26.245  1.00  0.00     0.010 A 
ATOM     33  C   UNL A   1      41.479  22.405  28.434  1.00  0.00     0.010 A 
ATOM     34  C   UNL A   1      42.001  23.403  27.601  1.00  0.00    -0.014 A 
BRANCH  34  35
ATOM     35  C   UNL A   1      42.340  24.735  28.163  1.00  0.00     0.031 A 
ATOM     36  C   UNL A   1      43.756  25.053  28.564  1.00  0.00     0.074 A 
ATOM     37  C   UNL A   1      41.367  25.651  28.340  1.00  0.00     0.049 A 
ATOM     38  N   UNL A   1      44.246  26.163  29.056  1.00  0.00    -0.248 NA
ATOM     39  C   UNL A   1      44.749  23.974  28.420  1.00  0.00     0.031 C 
ATOM     40  C   UNL A   1      39.948  25.452  28.042  1.00  0.00     0.029 A 
ATOM     41  N   UNL A   1      41.430  26.940  28.806  1.00  0.00    -0.354 N 
ATOM     42  C   UNL A   1      45.592  25.910  29.290  1.00  0.00     0.074 A 
ATOM     43  C   UNL A   1      45.828  24.526  28.952  1.00  0.00     0.031 C 
ATOM     44  C   UNL A   1      39.282  26.592  28.288  1.00  0.00     0.029 A 
ATOM     45  C   UNL A   1      40.219  27.588  28.796  1.00  0.00     0.049 A 
ATOM     46  H   UNL A   1      42.263  27.362  29.118  1.00  0.00     0.167 HD
ATOM     47  C   UNL A   1      46.554  26.760  29.721  1.00  0.00     0.031 A 
ATOM     48  C   UNL A   1      39.899  28.847  29.149  1.00  0.00     0.031 A 
ATOM     49  C   UNL A   1      46.323  28.141  30.051  1.00  0.00     0.049 A 
ATOM     50  C   UNL A   1      40.985  29.771  29.626  1.00  0.00     0.074 A 
ATOM     51  C   UNL A   1      47.240  29.099  30.445  1.00  0.00     0.029 A 
ATOM     52  N   UNL A   1      45.081  28.757  30.029  1.00  0.00    -0.354 N 
ATOM     53  N   UNL A   1      42.268  29.538  29.768  1.00  0.00    -0.248 NA
ATOM     54  C   UNL A   1      40.578  31.139  29.976  1.00  0.00     0.031 C 
ATOM     55  C   UNL A   1      46.544  30.282  30.717  1.00  0.00     0.029 A 
ATOM     56  C   UNL A   1      45.205  30.079  30.426  1.00  0.00     0.049 A 
ATOM     57  H   UNL A   1      44.239  28.321  29.768  1.00  0.00     0.167 HD
ATOM     58  C   UNL A   1      42.825  30.737  30.194  1.00  0.00     0.074 A 
ATOM     59  C   UNL A   1      41.743  31.699  30.262  1.00  0.00     0.031 C 
ATOM     60  C   UNL A   1      44.115  31.019  30.502  1.00  0.00     0.031 A 
BRANCH  47  61
ATOM     61  C   UNL A   1      47.948  26.208  29.867  1.00  0.00    -0.014 A 
ATOM     62  C   UNL A   1      48.818  26.121  28.766  1.00  0.00     0.009 A 
ATOM     63  C   UNL A   1      48.406  25.788  31.125  1.00  0.00     0.009 A 
ATOM     64  C   UNL A   1      50.100  25.584  28.916  1.00  0.00     0.001 A 
ATOM     65  C   UNL A   1      49.700  25.283  31.278  1.00  0.00     0.001 A 
ATOM     66  C   UNL A   1      50.541  25.171  30.172  1.00  0.00     0.000 A 
ENDBRANCH  47  61
BRANCH  48  67
ATOM     67  C   UNL A   1      38.493  29.321  29.038  1.00  0.00    -0.014 A 
ATOM     68  C   UNL A   1      37.646  29.314  30.156  1.00  0.00     0.009 A 
ATOM     69  C   UNL A   1      37.987  29.769  27.808  1.00  0.00     0.009 A 
ATOM     70  C   UNL A   1      36.314  29.718  30.039  1.00  0.00     0.001 A 
ATOM     71  C   UNL A   1      36.664  30.203  27.700  1.00  0.00     0.001 A 
ATOM     72  C   UNL A   1      35.825  30.166  28.812  1.00  0.00     0.000 A 
ENDBRANCH  48  67
BRANCH  60  73
ATOM     73  C   UNL A   1      44.426  32.433  30.908  1.00  0.00    -0.014 A 
ATOM     74  C   UNL A   1      44.757  33.413  29.957  1.00  0.00     0.009 A 
ATOM     75  C   UNL A   1      44.379  32.792  32.264  1.00  0.00     0.009 A 
ATOM     76  C   UNL A   1      45.087  34.708  30.364  1.00  0.00     0.001 A 
ATOM     77  C   UNL A   1      44.672  34.096  32.663  1.00  0.00     0.001 A 
ATOM     78  C   UNL A   1      45.041  35.049  31.715  1.00  0.00     0.000 A 
ENDBRANCH  60  73
ENDBRANCH  34  35
ENDBRANCH  26  29
ENDBRANCH  24  25
ENDBRANCH  23  24
ENDBRANCH   1  23
TORSDOF 15
ENDMDL
