MODEL 1
REMARK VINA RESULT:     -11.4      0.000      0.000
REMARK SMILES Cc1cc(OC(F)(F)F)cc2c1O[C@@H](C(F)(F)F)C(C(=O)NCCCNC(=O)c1ccc(-c3c4nc(c(-c5ccccc5)c5ccc([nH]5)c(-c5ccccc5)c5nc(c(-c6ccccc6)c6ccc3[nH]6)C=C5)C=C4)cc1)=C2
REMARK SMILES IDX 24 1 23 2 22 3 20 4 21 5 19 7 1 8 2 9 3 10 12 11 4 12 11 13
REMARK SMILES IDX 13 14 10 15 77 16 14 17 5 18 6 19 7 20 8 21 9 22 15 23 16 24
REMARK SMILES IDX 17 25 18 26 25 27 26 28 27 29 28 31 29 32 30 33 76 34 31 35
REMARK SMILES IDX 75 36 32 37 33 38 34 39 69 40 35 41 74 42 68 43 70 44 36 45
REMARK SMILES IDX 73 46 67 47 66 48 37 50 59 51 44 52 58 53 45 54 48 55 57 56
REMARK SMILES IDX 71 57 46 58 47 59 56 61 72 62 49 63 38 64 39 65 43 66 40 67
REMARK SMILES IDX 42 68 41 69 60 70 61 71 65 72 62 73 64 74 63 75 50 76 51 77
REMARK SMILES IDX 55 78 52 79 54 80 53 81
REMARK H PARENT 22 6 26 30 70 49 48 60
REMARK Flexibility Score: inf
ROOT
ATOM      1  C   UNL A   1      32.546  28.120  27.090  1.00  0.00     0.042 C 
ENDROOT
BRANCH   1   2
ATOM      2  C   UNL A   1      31.615  28.735  26.052  1.00  0.00     0.118 C 
BRANCH   2   3
ATOM      3  N   UNL A   1      32.319  29.017  24.811  1.00  0.00    -0.352 N 
ATOM      4  C   UNL A   1      32.876  28.311  23.801  1.00  0.00     0.251 C 
ATOM      5  O   UNL A   1      33.358  28.994  22.892  1.00  0.00    -0.270 OA
ATOM      6  H   UNL A   1      32.417  29.986  24.667  1.00  0.00     0.163 HD
BRANCH   4   7
ATOM      7  C   UNL A   1      32.939  26.823  23.719  1.00  0.00     0.067 C 
ATOM      8  C   UNL A   1      32.424  21.812  22.708  1.00  0.00     0.048 C 
ATOM      9  C   UNL A   1      33.370  22.646  23.526  1.00  0.00    -0.005 A 
ATOM     10  C   UNL A   1      34.343  22.022  24.321  1.00  0.00     0.054 A 
ATOM     11  C   UNL A   1      33.254  24.041  23.562  1.00  0.00     0.131 A 
ATOM     12  C   UNL A   1      35.210  22.779  25.113  1.00  0.00     0.130 A 
ATOM     13  C   UNL A   1      34.112  24.809  24.350  1.00  0.00     0.021 A 
ATOM     14  O   UNL A   1      32.304  24.607  22.763  1.00  0.00    -0.475 OA
ATOM     15  C   UNL A   1      35.089  24.173  25.122  1.00  0.00     0.058 A 
ATOM     16  C   UNL A   1      33.998  26.261  24.330  1.00  0.00     0.025 C 
ATOM     17  C   UNL A   1      31.885  25.956  23.091  1.00  0.00     0.314 C 
BRANCH  12  18
ATOM     18  O   UNL A   1      36.205  22.292  25.914  1.00  0.00    -0.406 OA
BRANCH  18  19
ATOM     19  C   UNL A   1      37.506  22.193  25.361  1.00  0.00     0.573 C 
ATOM     20  F   UNL A   1      38.354  23.059  25.957  1.00  0.00    -0.132 F 
ATOM     21  F   UNL A   1      37.992  20.937  25.476  1.00  0.00    -0.132 F 
ATOM     22  F   UNL A   1      37.446  22.500  24.047  1.00  0.00    -0.132 F 
ENDBRANCH  18  19
ENDBRANCH  12  18
BRANCH  17  23
ATOM     23  C   UNL A   1      30.564  25.914  23.878  1.00  0.00     0.429 C 
ATOM     24  F   UNL A   1      30.747  25.757  25.207  1.00  0.00    -0.167 F 
ATOM     25  F   UNL A   1      29.818  27.030  23.712  1.00  0.00    -0.167 F 
ATOM     26  F   UNL A   1      29.804  24.871  23.454  1.00  0.00    -0.167 F 
ENDBRANCH  17  23
ENDBRANCH   4   7
ENDBRANCH   2   3
ENDBRANCH   1   2
BRANCH   1  27
ATOM     27  C   UNL A   1      33.918  28.786  27.093  1.00  0.00     0.118 C 
BRANCH  27  28
ATOM     28  N   UNL A   1      33.845  30.142  27.621  1.00  0.00    -0.352 N 
ATOM     29  C   UNL A   1      34.725  30.802  28.443  1.00  0.00     0.251 C 
ATOM     30  H   UNL A   1      33.053  30.660  27.348  1.00  0.00     0.163 HD
ATOM     31  O   UNL A   1      34.371  31.818  29.033  1.00  0.00    -0.269 OA
BRANCH  29  32
ATOM     32  C   UNL A   1      36.097  30.286  28.616  1.00  0.00     0.039 A 
ATOM     33  C   UNL A   1      36.467  29.722  29.840  1.00  0.00     0.014 A 
ATOM     34  C   UNL A   1      37.031  30.407  27.584  1.00  0.00     0.014 A 
ATOM     35  C   UNL A   1      37.767  29.243  30.012  1.00  0.00     0.010 A 
ATOM     36  C   UNL A   1      38.301  29.860  27.729  1.00  0.00     0.010 A 
ATOM     37  C   UNL A   1      38.686  29.297  28.954  1.00  0.00    -0.014 A 
BRANCH  37  38
ATOM     38  C   UNL A   1      40.083  28.841  29.130  1.00  0.00     0.031 A 
ATOM     39  C   UNL A   1      40.461  27.444  28.725  1.00  0.00     0.074 A 
ATOM     40  C   UNL A   1      40.999  29.664  29.673  1.00  0.00     0.049 A 
ATOM     41  N   UNL A   1      41.622  26.849  28.812  1.00  0.00    -0.248 NA
ATOM     42  C   UNL A   1      39.394  26.597  28.164  1.00  0.00     0.031 C 
ATOM     43  C   UNL A   1      40.745  31.033  30.124  1.00  0.00     0.029 A 
ATOM     44  N   UNL A   1      42.331  29.468  29.932  1.00  0.00    -0.354 N 
ATOM     45  C   UNL A   1      41.423  25.566  28.322  1.00  0.00     0.074 A 
ATOM     46  C   UNL A   1      40.022  25.444  27.990  1.00  0.00     0.031 C 
ATOM     47  C   UNL A   1      41.893  31.565  30.573  1.00  0.00     0.029 A 
ATOM     48  C   UNL A   1      42.956  30.567  30.469  1.00  0.00     0.049 A 
ATOM     49  H   UNL A   1      42.797  28.620  29.751  1.00  0.00     0.167 HD
ATOM     50  C   UNL A   1      42.334  24.585  28.134  1.00  0.00     0.031 A 
ATOM     51  C   UNL A   1      44.239  30.754  30.830  1.00  0.00     0.031 A 
ATOM     52  C   UNL A   1      43.730  24.714  28.438  1.00  0.00     0.049 A 
ATOM     53  C   UNL A   1      45.228  29.638  30.644  1.00  0.00     0.074 A 
ATOM     54  C   UNL A   1      44.739  23.791  28.231  1.00  0.00     0.029 A 
ATOM     55  N   UNL A   1      44.312  25.834  29.007  1.00  0.00    -0.354 N 
ATOM     56  N   UNL A   1      45.033  28.447  30.132  1.00  0.00    -0.248 NA
ATOM     57  C   UNL A   1      46.610  29.887  31.079  1.00  0.00     0.031 C 
ATOM     58  C   UNL A   1      45.928  24.338  28.718  1.00  0.00     0.029 A 
ATOM     59  C   UNL A   1      45.665  25.616  29.183  1.00  0.00     0.049 A 
ATOM     60  H   UNL A   1      43.835  26.660  29.248  1.00  0.00     0.167 HD
ATOM     61  C   UNL A   1      46.267  27.811  30.169  1.00  0.00     0.074 A 
ATOM     62  C   UNL A   1      47.207  28.749  30.746  1.00  0.00     0.031 C 
ATOM     63  C   UNL A   1      46.586  26.561  29.759  1.00  0.00     0.031 A 
BRANCH  50  64
ATOM     64  C   UNL A   1      41.859  23.289  27.546  1.00  0.00    -0.014 A 
ATOM     65  C   UNL A   1      41.998  23.032  26.174  1.00  0.00     0.009 A 
ATOM     66  C   UNL A   1      41.352  22.285  28.383  1.00  0.00     0.009 A 
ATOM     67  C   UNL A   1      41.626  21.794  25.647  1.00  0.00     0.001 A 
ATOM     68  C   UNL A   1      41.002  21.040  27.857  1.00  0.00     0.001 A 
ATOM     69  C   UNL A   1      41.137  20.797  26.491  1.00  0.00     0.000 A 
ENDBRANCH  50  64
BRANCH  51  70
ATOM     70  C   UNL A   1      44.660  32.072  31.367  1.00  0.00    -0.014 A 
ATOM     71  C   UNL A   1      45.104  33.079  30.498  1.00  0.00     0.009 A 
ATOM     72  C   UNL A   1      44.563  32.350  32.740  1.00  0.00     0.009 A 
ATOM     73  C   UNL A   1      45.444  34.341  30.994  1.00  0.00     0.001 A 
ATOM     74  C   UNL A   1      44.885  33.618  33.229  1.00  0.00     0.001 A 
ATOM     75  C   UNL A   1      45.327  34.611  32.356  1.00  0.00     0.000 A 
ENDBRANCH  51  70
BRANCH  63  76
ATOM     76  C   UNL A   1      48.008  26.106  29.907  1.00  0.00    -0.014 A 
ATOM     77  C   UNL A   1      48.927  26.290  28.864  1.00  0.00     0.009 A 
ATOM     78  C   UNL A   1      48.464  25.643  31.151  1.00  0.00     0.009 A 
ATOM     79  C   UNL A   1      50.282  26.027  29.069  1.00  0.00     0.001 A 
ATOM     80  C   UNL A   1      49.821  25.400  31.358  1.00  0.00     0.001 A 
ATOM     81  C   UNL A   1      50.729  25.594  30.318  1.00  0.00     0.000 A 
ENDBRANCH  63  76
ENDBRANCH  37  38
ENDBRANCH  29  32
ENDBRANCH  27  28
ENDBRANCH   1  27
TORSDOF 13
ENDMDL
MODEL 2
REMARK VINA RESULT:     -11.4      0.308      5.834
REMARK SMILES Cc1cc(OC(F)(F)F)cc2c1O[C@@H](C(F)(F)F)C(C(=O)NCCCNC(=O)c1ccc(-c3c4nc(c(-c5ccccc5)c5ccc([nH]5)c(-c5ccccc5)c5nc(c(-c6ccccc6)c6ccc3[nH]6)C=C5)C=C4)cc1)=C2
REMARK SMILES IDX 24 1 23 2 22 3 20 4 21 5 19 7 1 8 2 9 3 10 12 11 4 12 11 13
REMARK SMILES IDX 13 14 10 15 77 16 14 17 5 18 6 19 7 20 8 21 9 22 15 23 16 24
REMARK SMILES IDX 17 25 18 26 25 27 26 28 27 29 28 31 29 32 30 33 76 34 31 35
REMARK SMILES IDX 75 36 32 37 33 38 34 39 69 40 35 41 74 42 68 43 70 44 36 45
REMARK SMILES IDX 73 46 67 47 66 48 37 50 59 51 44 52 58 53 45 54 48 55 57 56
REMARK SMILES IDX 71 57 46 58 47 59 56 61 72 62 49 63 38 64 39 65 43 66 40 67
REMARK SMILES IDX 42 68 41 69 60 70 61 71 65 72 62 73 64 74 63 75 50 76 51 77
REMARK SMILES IDX 55 78 52 79 54 80 53 81
REMARK H PARENT 22 6 26 30 70 49 48 60
REMARK Flexibility Score: inf
ROOT
ATOM      1  C   UNL A   1      32.458  28.331  27.012  1.00  0.00     0.042 C 
ENDROOT
BRANCH   1   2
ATOM      2  C   UNL A   1      31.541  28.903  25.939  1.00  0.00     0.118 C 
BRANCH   2   3
ATOM      3  N   UNL A   1      32.267  29.168  24.707  1.00  0.00    -0.352 N 
ATOM      4  C   UNL A   1      32.844  28.448  23.718  1.00  0.00     0.251 C 
ATOM      5  O   UNL A   1      33.344  29.118  22.808  1.00  0.00    -0.270 OA
ATOM      6  H   UNL A   1      32.368  30.135  24.551  1.00  0.00     0.163 HD
BRANCH   4   7
ATOM      7  C   UNL A   1      32.911  26.959  23.659  1.00  0.00     0.067 C 
ATOM      8  C   UNL A   1      32.409  21.932  22.723  1.00  0.00     0.048 C 
ATOM      9  C   UNL A   1      33.350  22.781  23.533  1.00  0.00    -0.005 A 
ATOM     10  C   UNL A   1      34.319  22.171  24.343  1.00  0.00     0.054 A 
ATOM     11  C   UNL A   1      33.231  24.175  23.547  1.00  0.00     0.131 A 
ATOM     12  C   UNL A   1      35.181  22.941  25.128  1.00  0.00     0.130 A 
ATOM     13  C   UNL A   1      34.084  24.957  24.327  1.00  0.00     0.021 A 
ATOM     14  O   UNL A   1      32.283  24.727  22.735  1.00  0.00    -0.475 OA
ATOM     15  C   UNL A   1      35.057  24.334  25.115  1.00  0.00     0.058 A 
ATOM     16  C   UNL A   1      33.967  26.408  24.285  1.00  0.00     0.025 C 
ATOM     17  C   UNL A   1      31.861  26.081  23.040  1.00  0.00     0.314 C 
BRANCH  12  18
ATOM     18  O   UNL A   1      36.173  22.468  25.941  1.00  0.00    -0.406 OA
BRANCH  18  19
ATOM     19  C   UNL A   1      37.503  22.520  25.456  1.00  0.00     0.573 C 
ATOM     20  F   UNL A   1      37.546  22.278  24.128  1.00  0.00    -0.132 F 
ATOM     21  F   UNL A   1      38.071  23.719  25.713  1.00  0.00    -0.132 F 
ATOM     22  F   UNL A   1      38.232  21.570  26.080  1.00  0.00    -0.132 F 
ENDBRANCH  18  19
ENDBRANCH  12  18
BRANCH  17  23
ATOM     23  C   UNL A   1      30.536  26.048  23.821  1.00  0.00     0.429 C 
ATOM     24  F   UNL A   1      29.802  27.171  23.659  1.00  0.00    -0.167 F 
ATOM     25  F   UNL A   1      29.746  25.007  23.470  1.00  0.00    -0.167 F 
ATOM     26  F   UNL A   1      30.782  25.919  25.150  1.00  0.00    -0.167 F 
ENDBRANCH  17  23
ENDBRANCH   4   7
ENDBRANCH   2   3
ENDBRANCH   1   2
BRANCH   1  27
ATOM     27  C   UNL A   1      33.836  28.984  26.995  1.00  0.00     0.118 C 
BRANCH  27  28
ATOM     28  N   UNL A   1      33.796  30.315  27.588  1.00  0.00    -0.352 N 
ATOM     29  C   UNL A   1      34.685  30.908  28.450  1.00  0.00     0.251 C 
ATOM     30  H   UNL A   1      33.021  30.867  27.334  1.00  0.00     0.163 HD
ATOM     31  O   UNL A   1      34.354  31.903  29.086  1.00  0.00    -0.269 OA
BRANCH  29  32
ATOM     32  C   UNL A   1      36.041  30.345  28.610  1.00  0.00     0.039 A 
ATOM     33  C   UNL A   1      36.393  29.742  29.821  1.00  0.00     0.014 A 
ATOM     34  C   UNL A   1      36.978  30.460  27.580  1.00  0.00     0.014 A 
ATOM     35  C   UNL A   1      37.677  29.218  29.980  1.00  0.00     0.010 A 
ATOM     36  C   UNL A   1      38.229  29.870  27.711  1.00  0.00     0.010 A 
ATOM     37  C   UNL A   1      38.597  29.268  28.922  1.00  0.00    -0.014 A 
BRANCH  37  38
ATOM     38  C   UNL A   1      39.979  28.763  29.086  1.00  0.00     0.031 A 
ATOM     39  C   UNL A   1      41.023  29.652  29.702  1.00  0.00     0.074 A 
ATOM     40  C   UNL A   1      40.301  27.527  28.662  1.00  0.00     0.049 A 
ATOM     41  N   UNL A   1      42.288  29.406  29.918  1.00  0.00    -0.248 NA
ATOM     42  C   UNL A   1      40.595  31.001  30.114  1.00  0.00     0.031 C 
ATOM     43  C   UNL A   1      39.379  26.582  28.030  1.00  0.00     0.029 A 
ATOM     44  N   UNL A   1      41.494  26.853  28.706  1.00  0.00    -0.354 N 
ATOM     45  C   UNL A   1      42.803  30.562  30.486  1.00  0.00     0.074 A 
ATOM     46  C   UNL A   1      41.734  31.533  30.532  1.00  0.00     0.031 C 
ATOM     47  C   UNL A   1      40.034  25.437  27.776  1.00  0.00     0.029 A 
ATOM     48  C   UNL A   1      41.425  25.578  28.200  1.00  0.00     0.049 A 
ATOM     49  H   UNL A   1      42.323  27.245  29.065  1.00  0.00     0.167 HD
ATOM     50  C   UNL A   1      44.050  30.787  30.958  1.00  0.00     0.031 A 
ATOM     51  C   UNL A   1      42.373  24.627  28.094  1.00  0.00     0.031 A 
ATOM     52  C   UNL A   1      45.105  29.815  30.937  1.00  0.00     0.049 A 
ATOM     53  C   UNL A   1      43.761  24.910  28.594  1.00  0.00     0.074 A 
ATOM     54  C   UNL A   1      46.388  29.934  31.441  1.00  0.00     0.029 A 
ATOM     55  N   UNL A   1      44.999  28.548  30.388  1.00  0.00    -0.354 N 
ATOM     56  N   UNL A   1      44.219  25.993  29.175  1.00  0.00    -0.248 NA
ATOM     57  C   UNL A   1      44.762  23.846  28.430  1.00  0.00     0.031 C 
ATOM     58  C   UNL A   1      47.073  28.751  31.157  1.00  0.00     0.029 A 
ATOM     59  C   UNL A   1      46.202  27.883  30.519  1.00  0.00     0.049 A 
ATOM     60  H   UNL A   1      44.188  28.178  29.970  1.00  0.00     0.167 HD
ATOM     61  C   UNL A   1      45.554  25.737  29.458  1.00  0.00     0.074 A 
ATOM     62  C   UNL A   1      45.832  24.393  28.995  1.00  0.00     0.031 C 
ATOM     63  C   UNL A   1      46.462  26.546  30.052  1.00  0.00     0.031 A 
BRANCH  50  64
ATOM     64  C   UNL A   1      44.340  32.128  31.564  1.00  0.00    -0.014 A 
ATOM     65  C   UNL A   1      44.789  33.192  30.766  1.00  0.00     0.009 A 
ATOM     66  C   UNL A   1      44.076  32.354  32.922  1.00  0.00     0.009 A 
ATOM     67  C   UNL A   1      44.981  34.457  31.322  1.00  0.00     0.001 A 
ATOM     68  C   UNL A   1      44.248  33.627  33.470  1.00  0.00     0.001 A 
ATOM     69  C   UNL A   1      44.702  34.675  32.671  1.00  0.00     0.000 A 
ENDBRANCH  50  64
BRANCH  51  70
ATOM     70  C   UNL A   1      42.016  23.304  27.523  1.00  0.00    -0.014 A 
ATOM     71  C   UNL A   1      42.307  23.013  26.182  1.00  0.00     0.009 A 
ATOM     72  C   UNL A   1      41.440  22.308  28.327  1.00  0.00     0.009 A 
ATOM     73  C   UNL A   1      42.027  21.749  25.657  1.00  0.00     0.001 A 
ATOM     74  C   UNL A   1      41.179  21.040  27.804  1.00  0.00     0.001 A 
ATOM     75  C   UNL A   1      41.470  20.762  26.469  1.00  0.00     0.000 A 
ENDBRANCH  51  70
BRANCH  63  76
ATOM     76  C   UNL A   1      47.855  26.026  30.248  1.00  0.00    -0.014 A 
ATOM     77  C   UNL A   1      48.802  26.121  29.219  1.00  0.00     0.009 A 
ATOM     78  C   UNL A   1      48.264  25.593  31.520  1.00  0.00     0.009 A 
ATOM     79  C   UNL A   1      50.138  25.798  29.462  1.00  0.00     0.001 A 
ATOM     80  C   UNL A   1      49.603  25.291  31.765  1.00  0.00     0.001 A 
ATOM     81  C   UNL A   1      50.539  25.395  30.737  1.00  0.00     0.000 A 
ENDBRANCH  63  76
ENDBRANCH  37  38
ENDBRANCH  29  32
ENDBRANCH  27  28
ENDBRANCH   1  27
TORSDOF 13
ENDMDL
MODEL 3
REMARK VINA RESULT:     -11.2      2.329      7.416
REMARK SMILES Cc1cc(OC(F)(F)F)cc2c1O[C@@H](C(F)(F)F)C(C(=O)NCCCNC(=O)c1ccc(-c3c4nc(c(-c5ccccc5)c5ccc([nH]5)c(-c5ccccc5)c5nc(c(-c6ccccc6)c6ccc3[nH]6)C=C5)C=C4)cc1)=C2
REMARK SMILES IDX 24 1 23 2 22 3 20 4 21 5 19 7 1 8 2 9 3 10 12 11 4 12 11 13
REMARK SMILES IDX 13 14 10 15 77 16 14 17 5 18 6 19 7 20 8 21 9 22 15 23 16 24
REMARK SMILES IDX 17 25 18 26 25 27 26 28 27 29 28 31 29 32 30 33 76 34 31 35
REMARK SMILES IDX 75 36 32 37 33 38 34 39 69 40 35 41 74 42 68 43 70 44 36 45
REMARK SMILES IDX 73 46 67 47 66 48 37 50 59 51 44 52 58 53 45 54 48 55 57 56
REMARK SMILES IDX 71 57 46 58 47 59 56 61 72 62 49 63 38 64 39 65 43 66 40 67
REMARK SMILES IDX 42 68 41 69 60 70 61 71 65 72 62 73 64 74 63 75 50 76 51 77
REMARK SMILES IDX 55 78 52 79 54 80 53 81
REMARK H PARENT 22 6 26 30 70 49 48 60
REMARK Flexibility Score: inf
ROOT
ATOM      1  C   UNL A   1      37.642  19.670  25.015  1.00  0.00     0.042 C 
ENDROOT
BRANCH   1   2
ATOM      2  C   UNL A   1      36.451  20.621  24.977  1.00  0.00     0.118 C 
BRANCH   2   3
ATOM      3  N   UNL A   1      36.632  21.656  23.972  1.00  0.00    -0.352 N 
ATOM      4  C   UNL A   1      36.013  22.800  23.600  1.00  0.00     0.251 C 
ATOM      5  O   UNL A   1      36.555  23.408  22.671  1.00  0.00    -0.270 OA
ATOM      6  H   UNL A   1      37.418  21.475  23.407  1.00  0.00     0.163 HD
BRANCH   4   7
ATOM      7  C   UNL A   1      34.771  23.351  24.217  1.00  0.00     0.067 C 
ATOM      8  C   UNL A   1      30.262  24.248  26.512  1.00  0.00     0.048 C 
ATOM      9  C   UNL A   1      31.412  25.096  26.043  1.00  0.00    -0.005 A 
ATOM     10  C   UNL A   1      31.323  26.494  26.116  1.00  0.00     0.054 A 
ATOM     11  C   UNL A   1      32.550  24.515  25.470  1.00  0.00     0.131 A 
ATOM     12  C   UNL A   1      32.367  27.301  25.655  1.00  0.00     0.130 A 
ATOM     13  C   UNL A   1      33.599  25.309  25.005  1.00  0.00     0.021 A 
ATOM     14  O   UNL A   1      32.600  23.152  25.432  1.00  0.00    -0.475 OA
ATOM     15  C   UNL A   1      33.502  26.700  25.101  1.00  0.00     0.058 A 
ATOM     16  C   UNL A   1      34.790  24.675  24.456  1.00  0.00     0.025 C 
ATOM     17  C   UNL A   1      33.528  22.553  24.491  1.00  0.00     0.314 C 
BRANCH  12  18
ATOM     18  O   UNL A   1      32.406  28.667  25.687  1.00  0.00    -0.406 OA
BRANCH  18  19
ATOM     19  C   UNL A   1      32.771  29.287  26.907  1.00  0.00     0.573 C 
ATOM     20  F   UNL A   1      31.679  29.675  27.600  1.00  0.00    -0.132 F 
ATOM     21  F   UNL A   1      33.519  28.461  27.672  1.00  0.00    -0.132 F 
ATOM     22  F   UNL A   1      33.507  30.386  26.634  1.00  0.00    -0.132 F 
ENDBRANCH  18  19
ENDBRANCH  12  18
BRANCH  17  23
ATOM     23  C   UNL A   1      32.774  22.118  23.223  1.00  0.00     0.429 C 
ATOM     24  F   UNL A   1      31.468  22.465  23.242  1.00  0.00    -0.167 F 
ATOM     25  F   UNL A   1      33.303  22.639  22.092  1.00  0.00    -0.167 F 
ATOM     26  F   UNL A   1      32.826  20.768  23.091  1.00  0.00    -0.167 F 
ENDBRANCH  17  23
ENDBRANCH   4   7
ENDBRANCH   2   3
ENDBRANCH   1   2
BRANCH   1  27
ATOM     27  C   UNL A   1      38.888  20.337  25.588  1.00  0.00     0.118 C 
BRANCH  27  28
ATOM     28  N   UNL A   1      39.962  19.370  25.780  1.00  0.00    -0.352 N 
ATOM     29  C   UNL A   1      41.285  19.591  26.068  1.00  0.00     0.251 C 
ATOM     30  H   UNL A   1      39.700  18.425  25.692  1.00  0.00     0.163 HD
ATOM     31  O   UNL A   1      42.109  18.697  25.899  1.00  0.00    -0.269 OA
BRANCH  29  32
ATOM     32  C   UNL A   1      41.718  20.907  26.581  1.00  0.00     0.039 A 
ATOM     33  C   UNL A   1      41.613  21.176  27.948  1.00  0.00     0.014 A 
ATOM     34  C   UNL A   1      42.180  21.889  25.701  1.00  0.00     0.014 A 
ATOM     35  C   UNL A   1      42.011  22.422  28.436  1.00  0.00     0.010 A 
ATOM     36  C   UNL A   1      42.648  23.100  26.196  1.00  0.00     0.010 A 
ATOM     37  C   UNL A   1      42.542  23.385  27.565  1.00  0.00    -0.014 A 
BRANCH  37  38
ATOM     38  C   UNL A   1      42.923  24.730  28.053  1.00  0.00     0.031 A 
ATOM     39  C   UNL A   1      41.861  25.775  28.249  1.00  0.00     0.074 A 
ATOM     40  C   UNL A   1      44.216  25.019  28.293  1.00  0.00     0.049 A 
ATOM     41  N   UNL A   1      41.990  27.012  28.652  1.00  0.00    -0.248 NA
ATOM     42  C   UNL A   1      40.475  25.386  27.937  1.00  0.00     0.031 C 
ATOM     43  C   UNL A   1      45.337  24.094  28.118  1.00  0.00     0.029 A 
ATOM     44  N   UNL A   1      44.802  26.175  28.742  1.00  0.00    -0.354 N 
ATOM     45  C   UNL A   1      40.708  27.544  28.638  1.00  0.00     0.074 A 
ATOM     46  C   UNL A   1      39.821  26.521  28.137  1.00  0.00     0.031 C 
ATOM     47  C   UNL A   1      46.472  24.709  28.489  1.00  0.00     0.029 A 
ATOM     48  C   UNL A   1      46.163  26.078  28.899  1.00  0.00     0.049 A 
ATOM     49  H   UNL A   1      44.296  26.998  28.933  1.00  0.00     0.167 HD
ATOM     50  C   UNL A   1      40.301  28.770  29.040  1.00  0.00     0.031 A 
ATOM     51  C   UNL A   1      47.060  26.985  29.330  1.00  0.00     0.031 A 
ATOM     52  C   UNL A   1      41.177  29.778  29.562  1.00  0.00     0.049 A 
ATOM     53  C   UNL A   1      46.589  28.351  29.738  1.00  0.00     0.074 A 
ATOM     54  C   UNL A   1      40.848  31.031  30.045  1.00  0.00     0.029 A 
ATOM     55  N   UNL A   1      42.551  29.646  29.676  1.00  0.00    -0.354 N 
ATOM     56  N   UNL A   1      45.366  28.823  29.767  1.00  0.00    -0.248 NA
ATOM     57  C   UNL A   1      47.614  29.310  30.176  1.00  0.00     0.031 C 
ATOM     58  C   UNL A   1      42.031  31.677  30.410  1.00  0.00     0.029 A 
ATOM     59  C   UNL A   1      43.088  30.807  30.197  1.00  0.00     0.049 A 
ATOM     60  H   UNL A   1      43.066  28.846  29.424  1.00  0.00     0.167 HD
ATOM     61  C   UNL A   1      45.472  30.125  30.238  1.00  0.00     0.074 A 
ATOM     62  C   UNL A   1      46.877  30.368  30.491  1.00  0.00     0.031 C 
ATOM     63  C   UNL A   1      44.488  31.032  30.443  1.00  0.00     0.031 A 
BRANCH  50  64
ATOM     64  C   UNL A   1      38.837  29.084  28.956  1.00  0.00    -0.014 A 
ATOM     65  C   UNL A   1      38.006  28.926  30.076  1.00  0.00     0.009 A 
ATOM     66  C   UNL A   1      38.303  29.627  27.779  1.00  0.00     0.009 A 
ATOM     67  C   UNL A   1      36.661  29.296  30.013  1.00  0.00     0.001 A 
ATOM     68  C   UNL A   1      36.964  30.017  27.726  1.00  0.00     0.001 A 
ATOM     69  C   UNL A   1      36.145  29.849  28.842  1.00  0.00     0.000 A 
ENDBRANCH  50  64
BRANCH  51  70
ATOM     70  C   UNL A   1      48.491  26.602  29.430  1.00  0.00    -0.014 A 
ATOM     71  C   UNL A   1      49.368  26.865  28.368  1.00  0.00     0.009 A 
ATOM     72  C   UNL A   1      48.998  26.028  30.607  1.00  0.00     0.009 A 
ATOM     73  C   UNL A   1      50.727  26.561  28.483  1.00  0.00     0.001 A 
ATOM     74  C   UNL A   1      50.360  25.743  30.725  1.00  0.00     0.001 A 
ATOM     75  C   UNL A   1      51.222  26.007  29.662  1.00  0.00     0.000 A 
ENDBRANCH  51  70
BRANCH  63  76
ATOM     76  C   UNL A   1      44.868  32.385  30.967  1.00  0.00    -0.014 A 
ATOM     77  C   UNL A   1      45.173  33.431  30.084  1.00  0.00     0.009 A 
ATOM     78  C   UNL A   1      44.759  32.655  32.341  1.00  0.00     0.009 A 
ATOM     79  C   UNL A   1      45.353  34.728  30.569  1.00  0.00     0.001 A 
ATOM     80  C   UNL A   1      44.921  33.955  32.819  1.00  0.00     0.001 A 
ATOM     81  C   UNL A   1      45.215  34.990  31.932  1.00  0.00     0.000 A 
ENDBRANCH  63  76
ENDBRANCH  37  38
ENDBRANCH  29  32
ENDBRANCH  27  28
ENDBRANCH   1  27
TORSDOF 13
ENDMDL
