MODEL 1
REMARK VINA RESULT:     -11.4      0.000      0.000
REMARK SMILES Cc1cc(C)c2c(C(=O)NCCCNC(=O)c3ccc(-c4c5nc(c(-c6ccccc6)c6ccc([nH]6)c(-c6ccccc6)c6nc(c(-c7ccccc7)c7ccc4[nH]7)C=C6)C=C5)cc3)cc(-c3ccco3)nc2c1
REMARK SMILES IDX 12 1 11 2 10 3 8 4 9 5 7 7 1 8 2 9 3 10 74 11 4 12 73 13
REMARK SMILES IDX 5 14 6 15 72 16 66 17 65 18 67 19 68 20 71 21 69 22 70 23
REMARK SMILES IDX 13 24 14 25 15 26 16 28 17 29 18 30 64 31 19 32 63 33 20 34
REMARK SMILES IDX 21 35 22 36 57 37 23 38 62 39 56 40 58 41 24 42 61 43 55 44
REMARK SMILES IDX 54 45 25 47 47 48 32 49 46 50 33 51 36 52 45 53 59 54 34 55
REMARK SMILES IDX 35 56 44 58 60 59 37 60 26 61 27 62 31 63 28 64 30 65 29 66
REMARK SMILES IDX 48 67 49 68 53 69 50 70 52 71 51 72 38 73 39 74 43 75 40 76
REMARK SMILES IDX 42 77 41 78
REMARK H PARENT 10 6 14 27 58 46 36 57
REMARK Flexibility Score: inf
ROOT
ATOM      1  C   UNL A   1      33.890  28.513  25.856  1.00  0.00     0.042 C 
ENDROOT
BRANCH   1   2
ATOM      2  C   UNL A   1      32.936  27.601  25.094  1.00  0.00     0.118 C 
BRANCH   2   3
ATOM      3  N   UNL A   1      33.400  27.230  23.764  1.00  0.00    -0.352 N 
ATOM      4  C   UNL A   1      33.718  26.006  23.224  1.00  0.00     0.252 C 
ATOM      5  O   UNL A   1      34.024  25.961  22.033  1.00  0.00    -0.269 OA
ATOM      6  H   UNL A   1      33.504  27.987  23.143  1.00  0.00     0.163 HD
BRANCH   4   7
ATOM      7  C   UNL A   1      33.820  24.775  24.045  1.00  0.00     0.051 A 
ATOM      8  C   UNL A   1      29.707  22.794  27.421  1.00  0.00     0.044 C 
ATOM      9  C   UNL A   1      30.735  23.117  26.380  1.00  0.00    -0.049 A 
ATOM     10  C   UNL A   1      30.368  23.706  25.175  1.00  0.00     0.007 A 
ATOM     11  C   UNL A   1      32.089  22.854  26.605  1.00  0.00     0.032 A 
ATOM     12  C   UNL A   1      31.346  24.147  24.272  1.00  0.00    -0.041 A 
ATOM     13  C   UNL A   1      33.081  23.280  25.735  1.00  0.00     0.072 A 
ATOM     14  C   UNL A   1      30.880  24.498  22.878  1.00  0.00     0.045 C 
ATOM     15  C   UNL A   1      32.728  24.094  24.643  1.00  0.00     0.016 A 
ATOM     16  N   UNL A   1      34.342  22.898  25.993  1.00  0.00    -0.244 NA
ATOM     17  C   UNL A   1      35.335  23.365  25.209  1.00  0.00     0.107 A 
ATOM     18  C   UNL A   1      35.135  24.369  24.293  1.00  0.00     0.046 A 
BRANCH  17  19
ATOM     19  C   UNL A   1      36.628  22.722  25.357  1.00  0.00     0.152 A 
ATOM     20  C   UNL A   1      37.130  21.467  25.075  1.00  0.00     0.052 A 
ATOM     21  O   UNL A   1      37.574  23.456  26.017  1.00  0.00    -0.463 OA
ATOM     22  C   UNL A   1      38.452  21.437  25.589  1.00  0.00     0.043 A 
ATOM     23  C   UNL A   1      38.670  22.668  26.159  1.00  0.00     0.196 A 
ENDBRANCH  17  19
ENDBRANCH   4   7
ENDBRANCH   2   3
ENDBRANCH   1   2
BRANCH   1  24
ATOM     24  C   UNL A   1      33.513  28.732  27.319  1.00  0.00     0.118 C 
BRANCH  24  25
ATOM     25  N   UNL A   1      33.619  30.116  27.766  1.00  0.00    -0.352 N 
ATOM     26  C   UNL A   1      34.664  30.816  28.325  1.00  0.00     0.251 C 
ATOM     27  H   UNL A   1      32.797  30.643  27.648  1.00  0.00     0.163 HD
ATOM     28  O   UNL A   1      34.488  31.958  28.730  1.00  0.00    -0.269 OA
BRANCH  26  29
ATOM     29  C   UNL A   1      35.990  30.180  28.490  1.00  0.00     0.039 A 
ATOM     30  C   UNL A   1      36.885  30.194  27.416  1.00  0.00     0.014 A 
ATOM     31  C   UNL A   1      36.353  29.566  29.687  1.00  0.00     0.014 A 
ATOM     32  C   UNL A   1      38.179  29.693  27.583  1.00  0.00     0.010 A 
ATOM     33  C   UNL A   1      37.668  29.166  29.888  1.00  0.00     0.010 A 
ATOM     34  C   UNL A   1      38.595  29.225  28.838  1.00  0.00    -0.014 A 
BRANCH  34  35
ATOM     35  C   UNL A   1      39.984  28.766  29.086  1.00  0.00     0.031 A 
ATOM     36  C   UNL A   1      40.973  29.698  29.730  1.00  0.00     0.074 A 
ATOM     37  C   UNL A   1      40.380  27.551  28.661  1.00  0.00     0.049 A 
ATOM     38  N   UNL A   1      42.260  29.544  29.901  1.00  0.00    -0.248 NA
ATOM     39  C   UNL A   1      40.451  30.986  30.218  1.00  0.00     0.031 C 
ATOM     40  C   UNL A   1      39.528  26.561  27.997  1.00  0.00     0.029 A 
ATOM     41  N   UNL A   1      41.609  26.941  28.720  1.00  0.00    -0.354 N 
ATOM     42  C   UNL A   1      42.702  30.722  30.487  1.00  0.00     0.074 A 
ATOM     43  C   UNL A   1      41.560  31.600  30.600  1.00  0.00     0.031 C 
ATOM     44  C   UNL A   1      40.249  25.455  27.750  1.00  0.00     0.029 A 
ATOM     45  C   UNL A   1      41.622  25.673  28.194  1.00  0.00     0.049 A 
ATOM     46  H   UNL A   1      42.406  27.373  29.105  1.00  0.00     0.167 HD
ATOM     47  C   UNL A   1      43.945  31.037  30.920  1.00  0.00     0.031 A 
ATOM     48  C   UNL A   1      42.626  24.784  28.081  1.00  0.00     0.031 A 
ATOM     49  C   UNL A   1      45.072  30.151  30.850  1.00  0.00     0.049 A 
ATOM     50  C   UNL A   1      43.997  25.153  28.567  1.00  0.00     0.074 A 
ATOM     51  C   UNL A   1      46.362  30.365  31.303  1.00  0.00     0.029 A 
ATOM     52  N   UNL A   1      45.038  28.875  30.310  1.00  0.00    -0.354 N 
ATOM     53  N   UNL A   1      44.398  26.271  29.124  1.00  0.00    -0.248 NA
ATOM     54  C   UNL A   1      45.055  24.143  28.413  1.00  0.00     0.031 C 
ATOM     55  C   UNL A   1      47.116  29.224  31.017  1.00  0.00     0.029 A 
ATOM     56  C   UNL A   1      46.285  28.289  30.419  1.00  0.00     0.049 A 
ATOM     57  H   UNL A   1      44.244  28.451  29.911  1.00  0.00     0.167 HD
ATOM     58  C   UNL A   1      45.746  26.093  29.402  1.00  0.00     0.074 A 
ATOM     59  C   UNL A   1      46.096  24.759  28.959  1.00  0.00     0.031 C 
ATOM     60  C   UNL A   1      46.613  26.960  29.976  1.00  0.00     0.031 A 
BRANCH  47  61
ATOM     61  C   UNL A   1      44.142  32.391  31.533  1.00  0.00    -0.014 A 
ATOM     62  C   UNL A   1      43.991  32.579  32.917  1.00  0.00     0.009 A 
ATOM     63  C   UNL A   1      44.532  33.476  30.735  1.00  0.00     0.009 A 
ATOM     64  C   UNL A   1      44.203  33.836  33.484  1.00  0.00     0.001 A 
ATOM     65  C   UNL A   1      44.767  34.726  31.310  1.00  0.00     0.001 A 
ATOM     66  C   UNL A   1      44.597  34.906  32.682  1.00  0.00     0.000 A 
ENDBRANCH  47  61
BRANCH  48  67
ATOM     67  C   UNL A   1      42.351  23.439  27.517  1.00  0.00    -0.014 A 
ATOM     68  C   UNL A   1      42.627  23.178  26.166  1.00  0.00     0.009 A 
ATOM     69  C   UNL A   1      41.862  22.401  28.326  1.00  0.00     0.009 A 
ATOM     70  C   UNL A   1      42.416  21.904  25.635  1.00  0.00     0.001 A 
ATOM     71  C   UNL A   1      41.668  21.124  27.795  1.00  0.00     0.001 A 
ATOM     72  C   UNL A   1      41.944  20.877  26.450  1.00  0.00     0.000 A 
ENDBRANCH  48  67
BRANCH  60  73
ATOM     73  C   UNL A   1      48.026  26.505  30.184  1.00  0.00    -0.014 A 
ATOM     74  C   UNL A   1      48.395  25.822  31.352  1.00  0.00     0.009 A 
ATOM     75  C   UNL A   1      48.961  26.646  29.146  1.00  0.00     0.009 A 
ATOM     76  C   UNL A   1      49.679  25.290  31.477  1.00  0.00     0.001 A 
ATOM     77  C   UNL A   1      50.237  26.097  29.269  1.00  0.00     0.001 A 
ATOM     78  C   UNL A   1      50.595  25.419  30.433  1.00  0.00     0.000 A 
ENDBRANCH  60  73
ENDBRANCH  34  35
ENDBRANCH  26  29
ENDBRANCH  24  25
ENDBRANCH   1  24
TORSDOF 11
ENDMDL
MODEL 2
REMARK VINA RESULT:     -11.3      2.271      7.814
REMARK SMILES Cc1cc(C)c2c(C(=O)NCCCNC(=O)c3ccc(-c4c5nc(c(-c6ccccc6)c6ccc([nH]6)c(-c6ccccc6)c6nc(c(-c7ccccc7)c7ccc4[nH]7)C=C6)C=C5)cc3)cc(-c3ccco3)nc2c1
REMARK SMILES IDX 12 1 11 2 10 3 8 4 9 5 7 7 1 8 2 9 3 10 74 11 4 12 73 13
REMARK SMILES IDX 5 14 6 15 72 16 66 17 65 18 67 19 68 20 71 21 69 22 70 23
REMARK SMILES IDX 13 24 14 25 15 26 16 28 17 29 18 30 64 31 19 32 63 33 20 34
REMARK SMILES IDX 21 35 22 36 57 37 23 38 62 39 56 40 58 41 24 42 61 43 55 44
REMARK SMILES IDX 54 45 25 47 47 48 32 49 46 50 33 51 36 52 45 53 59 54 34 55
REMARK SMILES IDX 35 56 44 58 60 59 37 60 26 61 27 62 31 63 28 64 30 65 29 66
REMARK SMILES IDX 48 67 49 68 53 69 50 70 52 71 51 72 38 73 39 74 43 75 40 76
REMARK SMILES IDX 42 77 41 78
REMARK H PARENT 10 6 14 27 58 46 36 57
REMARK Flexibility Score: inf
ROOT
ATOM      1  C   UNL A   1      36.079  23.513  26.038  1.00  0.00     0.042 C 
ENDROOT
BRANCH   1   2
ATOM      2  C   UNL A   1      34.746  23.068  25.449  1.00  0.00     0.118 C 
BRANCH   2   3
ATOM      3  N   UNL A   1      33.617  23.203  26.360  1.00  0.00    -0.352 N 
ATOM      4  C   UNL A   1      32.619  24.146  26.433  1.00  0.00     0.252 C 
ATOM      5  O   UNL A   1      31.731  23.986  27.270  1.00  0.00    -0.269 OA
ATOM      6  H   UNL A   1      33.558  22.496  27.043  1.00  0.00     0.163 HD
BRANCH   4   7
ATOM      7  C   UNL A   1      32.640  25.392  25.629  1.00  0.00     0.051 A 
ATOM      8  C   UNL A   1      32.780  25.577  19.956  1.00  0.00     0.044 C 
ATOM      9  C   UNL A   1      32.502  25.610  21.427  1.00  0.00    -0.049 A 
ATOM     10  C   UNL A   1      31.751  24.607  22.033  1.00  0.00     0.007 A 
ATOM     11  C   UNL A   1      33.007  26.637  22.229  1.00  0.00     0.032 A 
ATOM     12  C   UNL A   1      31.624  24.559  23.429  1.00  0.00    -0.041 A 
ATOM     13  C   UNL A   1      32.903  26.616  23.612  1.00  0.00     0.072 A 
ATOM     14  C   UNL A   1      30.568  23.634  23.987  1.00  0.00     0.045 C 
ATOM     15  C   UNL A   1      32.364  25.478  24.239  1.00  0.00     0.016 A 
ATOM     16  N   UNL A   1      33.340  27.693  24.285  1.00  0.00    -0.244 NA
ATOM     17  C   UNL A   1      33.323  27.666  25.633  1.00  0.00     0.107 A 
ATOM     18  C   UNL A   1      33.074  26.515  26.340  1.00  0.00     0.046 A 
BRANCH  17  19
ATOM     19  C   UNL A   1      33.547  28.934  26.305  1.00  0.00     0.152 A 
ATOM     20  C   UNL A   1      34.505  29.423  27.171  1.00  0.00     0.052 A 
ATOM     21  O   UNL A   1      32.548  29.857  26.158  1.00  0.00    -0.463 OA
ATOM     22  C   UNL A   1      34.067  30.712  27.569  1.00  0.00     0.043 A 
ATOM     23  C   UNL A   1      32.868  30.925  26.932  1.00  0.00     0.196 A 
ENDBRANCH  17  19
ENDBRANCH   4   7
ENDBRANCH   2   3
ENDBRANCH   1   2
BRANCH   1  24
ATOM     24  C   UNL A   1      37.233  23.524  25.038  1.00  0.00     0.118 C 
BRANCH  24  25
ATOM     25  N   UNL A   1      38.377  22.711  25.432  1.00  0.00    -0.352 N 
ATOM     26  C   UNL A   1      39.486  23.005  26.193  1.00  0.00     0.251 C 
ATOM     27  H   UNL A   1      38.353  21.787  25.094  1.00  0.00     0.163 HD
ATOM     28  O   UNL A   1      40.387  22.184  26.302  1.00  0.00    -0.269 OA
BRANCH  26  29
ATOM     29  C   UNL A   1      39.622  24.329  26.838  1.00  0.00     0.039 A 
ATOM     30  C   UNL A   1      39.100  24.513  28.123  1.00  0.00     0.014 A 
ATOM     31  C   UNL A   1      40.253  25.388  26.188  1.00  0.00     0.014 A 
ATOM     32  C   UNL A   1      39.310  25.721  28.792  1.00  0.00     0.010 A 
ATOM     33  C   UNL A   1      40.554  26.549  26.890  1.00  0.00     0.010 A 
ATOM     34  C   UNL A   1      40.086  26.728  28.199  1.00  0.00    -0.014 A 
BRANCH  34  35
ATOM     35  C   UNL A   1      40.409  27.991  28.906  1.00  0.00     0.031 A 
ATOM     36  C   UNL A   1      41.747  28.150  29.576  1.00  0.00     0.074 A 
ATOM     37  C   UNL A   1      39.480  28.960  29.019  1.00  0.00     0.049 A 
ATOM     38  N   UNL A   1      42.167  29.107  30.360  1.00  0.00    -0.248 NA
ATOM     39  C   UNL A   1      42.729  27.073  29.359  1.00  0.00     0.031 C 
ATOM     40  C   UNL A   1      38.135  28.921  28.440  1.00  0.00     0.029 A 
ATOM     41  N   UNL A   1      39.525  30.170  29.667  1.00  0.00    -0.354 N 
ATOM     42  C   UNL A   1      43.447  28.734  30.752  1.00  0.00     0.074 A 
ATOM     43  C   UNL A   1      43.716  27.444  30.159  1.00  0.00     0.031 C 
ATOM     44  C   UNL A   1      37.500  30.070  28.723  1.00  0.00     0.029 A 
ATOM     45  C   UNL A   1      38.374  30.906  29.542  1.00  0.00     0.049 A 
ATOM     46  H   UNL A   1      40.310  30.479  30.173  1.00  0.00     0.167 HD
ATOM     47  C   UNL A   1      44.330  29.418  31.514  1.00  0.00     0.031 A 
ATOM     48  C   UNL A   1      38.054  32.120  30.029  1.00  0.00     0.031 A 
ATOM     49  C   UNL A   1      44.082  30.719  32.067  1.00  0.00     0.049 A 
ATOM     50  C   UNL A   1      39.050  32.861  30.872  1.00  0.00     0.074 A 
ATOM     51  C   UNL A   1      44.935  31.510  32.817  1.00  0.00     0.029 A 
ATOM     52  N   UNL A   1      42.902  31.428  31.912  1.00  0.00    -0.354 N 
ATOM     53  N   UNL A   1      40.258  32.496  31.230  1.00  0.00    -0.248 NA
ATOM     54  C   UNL A   1      38.644  34.180  31.381  1.00  0.00     0.031 C 
ATOM     55  C   UNL A   1      44.261  32.691  33.135  1.00  0.00     0.029 A 
ATOM     56  C   UNL A   1      43.003  32.648  32.553  1.00  0.00     0.049 A 
ATOM     57  H   UNL A   1      42.111  31.109  31.419  1.00  0.00     0.167 HD
ATOM     58  C   UNL A   1      40.761  33.544  31.987  1.00  0.00     0.074 A 
ATOM     59  C   UNL A   1      39.732  34.563  32.036  1.00  0.00     0.031 C 
ATOM     60  C   UNL A   1      41.971  33.650  32.586  1.00  0.00     0.031 A 
BRANCH  47  61
ATOM     61  C   UNL A   1      45.662  28.778  31.771  1.00  0.00    -0.014 A 
ATOM     62  C   UNL A   1      45.841  27.908  32.859  1.00  0.00     0.009 A 
ATOM     63  C   UNL A   1      46.733  29.003  30.893  1.00  0.00     0.009 A 
ATOM     64  C   UNL A   1      47.075  27.295  33.076  1.00  0.00     0.001 A 
ATOM     65  C   UNL A   1      47.959  28.369  31.101  1.00  0.00     0.001 A 
ATOM     66  C   UNL A   1      48.131  27.521  32.194  1.00  0.00     0.000 A 
ENDBRANCH  47  61
BRANCH  48  67
ATOM     67  C   UNL A   1      36.742  32.722  29.688  1.00  0.00    -0.014 A 
ATOM     68  C   UNL A   1      35.683  32.655  30.606  1.00  0.00     0.009 A 
ATOM     69  C   UNL A   1      36.552  33.405  28.477  1.00  0.00     0.009 A 
ATOM     70  C   UNL A   1      34.456  33.257  30.317  1.00  0.00     0.001 A 
ATOM     71  C   UNL A   1      35.329  34.021  28.198  1.00  0.00     0.001 A 
ATOM     72  C   UNL A   1      34.282  33.945  29.117  1.00  0.00     0.000 A 
ENDBRANCH  48  67
BRANCH  60  73
ATOM     73  C   UNL A   1      42.275  34.912  33.336  1.00  0.00    -0.014 A 
ATOM     74  C   UNL A   1      41.896  35.059  34.677  1.00  0.00     0.009 A 
ATOM     75  C   UNL A   1      43.061  35.906  32.731  1.00  0.00     0.009 A 
ATOM     76  C   UNL A   1      42.298  36.182  35.401  1.00  0.00     0.001 A 
ATOM     77  C   UNL A   1      43.475  37.019  33.463  1.00  0.00     0.001 A 
ATOM     78  C   UNL A   1      43.094  37.155  34.797  1.00  0.00     0.000 A 
ENDBRANCH  60  73
ENDBRANCH  34  35
ENDBRANCH  26  29
ENDBRANCH  24  25
ENDBRANCH   1  24
TORSDOF 11
ENDMDL
MODEL 3
REMARK VINA RESULT:     -11.2      2.846      7.331
REMARK SMILES Cc1cc(C)c2c(C(=O)NCCCNC(=O)c3ccc(-c4c5nc(c(-c6ccccc6)c6ccc([nH]6)c(-c6ccccc6)c6nc(c(-c7ccccc7)c7ccc4[nH]7)C=C6)C=C5)cc3)cc(-c3ccco3)nc2c1
REMARK SMILES IDX 12 1 11 2 10 3 8 4 9 5 7 7 1 8 2 9 3 10 74 11 4 12 73 13
REMARK SMILES IDX 5 14 6 15 72 16 66 17 65 18 67 19 68 20 71 21 69 22 70 23
REMARK SMILES IDX 13 24 14 25 15 26 16 28 17 29 18 30 64 31 19 32 63 33 20 34
REMARK SMILES IDX 21 35 22 36 57 37 23 38 62 39 56 40 58 41 24 42 61 43 55 44
REMARK SMILES IDX 54 45 25 47 47 48 32 49 46 50 33 51 36 52 45 53 59 54 34 55
REMARK SMILES IDX 35 56 44 58 60 59 37 60 26 61 27 62 31 63 28 64 30 65 29 66
REMARK SMILES IDX 48 67 49 68 53 69 50 70 52 71 51 72 38 73 39 74 43 75 40 76
REMARK SMILES IDX 42 77 41 78
REMARK H PARENT 10 6 14 27 58 46 36 57
REMARK Flexibility Score: inf
ROOT
ATOM      1  C   UNL A   1      31.573  31.135  26.411  1.00  0.00     0.042 C 
ENDROOT
BRANCH   1   2
ATOM      2  C   UNL A   1      31.911  29.732  25.921  1.00  0.00     0.118 C 
BRANCH   2   3
ATOM      3  N   UNL A   1      32.799  29.702  24.766  1.00  0.00    -0.352 N 
ATOM      4  C   UNL A   1      32.801  28.903  23.647  1.00  0.00     0.252 C 
ATOM      5  O   UNL A   1      33.635  29.134  22.773  1.00  0.00    -0.269 OA
ATOM      6  H   UNL A   1      33.522  30.368  24.791  1.00  0.00     0.163 HD
BRANCH   4   7
ATOM      7  C   UNL A   1      31.923  27.715  23.513  1.00  0.00     0.051 A 
ATOM      8  C   UNL A   1      26.258  27.827  23.893  1.00  0.00     0.044 C 
ATOM      9  C   UNL A   1      27.713  27.756  23.543  1.00  0.00    -0.049 A 
ATOM     10  C   UNL A   1      28.351  28.829  22.929  1.00  0.00     0.007 A 
ATOM     11  C   UNL A   1      28.468  26.620  23.845  1.00  0.00     0.032 A 
ATOM     12  C   UNL A   1      29.741  28.819  22.745  1.00  0.00    -0.041 A 
ATOM     13  C   UNL A   1      29.845  26.579  23.679  1.00  0.00     0.072 A 
ATOM     14  C   UNL A   1      30.315  29.866  21.819  1.00  0.00     0.045 C 
ATOM     15  C   UNL A   1      30.521  27.751  23.294  1.00  0.00     0.016 A 
ATOM     16  N   UNL A   1      30.466  25.411  23.911  1.00  0.00    -0.244 NA
ATOM     17  C   UNL A   1      31.811  25.366  23.835  1.00  0.00     0.107 A 
ATOM     18  C   UNL A   1      32.578  26.500  23.733  1.00  0.00     0.046 A 
BRANCH  17  19
ATOM     19  C   UNL A   1      32.411  24.043  23.828  1.00  0.00     0.152 A 
ATOM     20  C   UNL A   1      32.040  22.808  23.336  1.00  0.00     0.052 A 
ATOM     21  O   UNL A   1      33.563  23.920  24.553  1.00  0.00    -0.463 OA
ATOM     22  C   UNL A   1      33.020  21.885  23.783  1.00  0.00     0.043 A 
ATOM     23  C   UNL A   1      33.920  22.611  24.526  1.00  0.00     0.196 A 
ENDBRANCH  17  19
ENDBRANCH   4   7
ENDBRANCH   2   3
ENDBRANCH   1   2
BRANCH   1  24
ATOM     24  C   UNL A   1      32.746  31.876  27.048  1.00  0.00     0.118 C 
BRANCH  24  25
ATOM     25  N   UNL A   1      32.428  33.222  27.509  1.00  0.00    -0.352 N 
ATOM     26  C   UNL A   1      33.095  34.078  28.356  1.00  0.00     0.251 C 
ATOM     27  H   UNL A   1      31.586  33.583  27.150  1.00  0.00     0.163 HD
ATOM     28  O   UNL A   1      32.575  35.134  28.691  1.00  0.00    -0.269 OA
BRANCH  26  29
ATOM     29  C   UNL A   1      34.415  33.706  28.909  1.00  0.00     0.039 A 
ATOM     30  C   UNL A   1      34.468  32.931  30.073  1.00  0.00     0.014 A 
ATOM     31  C   UNL A   1      35.597  34.117  28.297  1.00  0.00     0.014 A 
ATOM     32  C   UNL A   1      35.699  32.481  30.553  1.00  0.00     0.010 A 
ATOM     33  C   UNL A   1      36.812  33.583  28.710  1.00  0.00     0.010 A 
ATOM     34  C   UNL A   1      36.877  32.760  29.842  1.00  0.00    -0.014 A 
BRANCH  34  35
ATOM     35  C   UNL A   1      38.195  32.229  30.264  1.00  0.00     0.031 A 
ATOM     36  C   UNL A   1      38.686  30.921  29.706  1.00  0.00     0.074 A 
ATOM     37  C   UNL A   1      38.914  32.872  31.205  1.00  0.00     0.049 A 
ATOM     38  N   UNL A   1      39.734  30.219  30.051  1.00  0.00    -0.248 NA
ATOM     39  C   UNL A   1      37.874  30.307  28.641  1.00  0.00     0.031 C 
ATOM     40  C   UNL A   1      38.538  34.134  31.848  1.00  0.00     0.029 A 
ATOM     41  N   UNL A   1      40.112  32.547  31.791  1.00  0.00    -0.354 N 
ATOM     42  C   UNL A   1      39.689  29.073  29.269  1.00  0.00     0.074 A 
ATOM     43  C   UNL A   1      38.489  29.148  28.467  1.00  0.00     0.031 C 
ATOM     44  C   UNL A   1      39.506  34.496  32.705  1.00  0.00     0.029 A 
ATOM     45  C   UNL A   1      40.546  33.472  32.709  1.00  0.00     0.049 A 
ATOM     46  H   UNL A   1      40.613  31.729  31.573  1.00  0.00     0.167 HD
ATOM     47  C   UNL A   1      40.582  28.059  29.203  1.00  0.00     0.031 A 
ATOM     48  C   UNL A   1      41.657  33.494  33.468  1.00  0.00     0.031 A 
ATOM     49  C   UNL A   1      41.796  28.002  29.966  1.00  0.00     0.049 A 
ATOM     50  C   UNL A   1      42.635  32.359  33.379  1.00  0.00     0.074 A 
ATOM     51  C   UNL A   1      42.786  27.036  29.934  1.00  0.00     0.029 A 
ATOM     52  N   UNL A   1      42.196  28.962  30.881  1.00  0.00    -0.354 N 
ATOM     53  N   UNL A   1      42.580  31.284  32.630  1.00  0.00    -0.248 NA
ATOM     54  C   UNL A   1      43.828  32.437  34.236  1.00  0.00     0.031 C 
ATOM     55  C   UNL A   1      43.776  27.400  30.849  1.00  0.00     0.029 A 
ATOM     56  C   UNL A   1      43.418  28.611  31.422  1.00  0.00     0.049 A 
ATOM     57  H   UNL A   1      41.685  29.772  31.111  1.00  0.00     0.167 HD
ATOM     58  C   UNL A   1      43.735  30.568  32.911  1.00  0.00     0.074 A 
ATOM     59  C   UNL A   1      44.476  31.330  33.895  1.00  0.00     0.031 C 
ATOM     60  C   UNL A   1      44.142  29.384  32.396  1.00  0.00     0.031 A 
BRANCH  47  61
ATOM     61  C   UNL A   1      40.288  26.939  28.250  1.00  0.00    -0.014 A 
ATOM     62  C   UNL A   1      40.852  26.925  26.964  1.00  0.00     0.009 A 
ATOM     63  C   UNL A   1      39.484  25.862  28.655  1.00  0.00     0.009 A 
ATOM     64  C   UNL A   1      40.597  25.866  26.093  1.00  0.00     0.001 A 
ATOM     65  C   UNL A   1      39.250  24.793  27.788  1.00  0.00     0.001 A 
ATOM     66  C   UNL A   1      39.801  24.798  26.508  1.00  0.00     0.000 A 
ENDBRANCH  47  61
BRANCH  48  67
ATOM     67  C   UNL A   1      41.918  34.661  34.347  1.00  0.00    -0.014 A 
ATOM     68  C   UNL A   1      41.528  34.621  35.695  1.00  0.00     0.009 A 
ATOM     69  C   UNL A   1      42.594  35.793  33.867  1.00  0.00     0.009 A 
ATOM     70  C   UNL A   1      41.808  35.693  36.545  1.00  0.00     0.001 A 
ATOM     71  C   UNL A   1      42.888  36.857  34.723  1.00  0.00     0.001 A 
ATOM     72  C   UNL A   1      42.493  36.807  36.060  1.00  0.00     0.000 A 
ENDBRANCH  48  67
BRANCH  60  73
ATOM     73  C   UNL A   1      45.457  28.832  32.859  1.00  0.00    -0.014 A 
ATOM     74  C   UNL A   1      45.518  27.932  33.932  1.00  0.00     0.009 A 
ATOM     75  C   UNL A   1      46.624  29.115  32.132  1.00  0.00     0.009 A 
ATOM     76  C   UNL A   1      46.729  27.325  34.270  1.00  0.00     0.001 A 
ATOM     77  C   UNL A   1      47.828  28.493  32.462  1.00  0.00     0.001 A 
ATOM     78  C   UNL A   1      47.879  27.598  33.530  1.00  0.00     0.000 A 
ENDBRANCH  60  73
ENDBRANCH  34  35
ENDBRANCH  26  29
ENDBRANCH  24  25
ENDBRANCH   1  24
TORSDOF 11
ENDMDL
