MODEL 1
REMARK VINA RESULT:     -10.7      0.000      0.000
REMARK SMILES CC(=O)Oc1ccccc1C(=O)NCCCNC(=O)c1ccc(-c2c3nc(c(-c4ccccc4)c4ccc([nH]4)c(-c4ccccc4)c4nc(c(-c5ccccc5)c5ccc2[nH]5)C=C4)C=C3)cc1
REMARK SMILES IDX 15 1 14 2 13 3 11 4 12 5 10 7 5 8 6 9 7 10 9 11 8 12 4 13
REMARK SMILES IDX 2 14 1 15 3 16 16 17 17 18 18 19 19 21 20 22 21 23 67 24
REMARK SMILES IDX 22 25 66 26 23 27 24 28 25 29 60 30 26 31 65 32 59 33 61 34
REMARK SMILES IDX 27 35 64 36 58 37 57 38 28 40 50 41 35 42 49 43 36 44 39 45
REMARK SMILES IDX 48 46 62 47 37 48 38 49 47 51 63 52 40 53 29 54 30 55 34 56
REMARK SMILES IDX 31 57 33 58 32 59 51 60 52 61 56 62 53 63 55 64 54 65 41 66
REMARK SMILES IDX 42 67 46 68 43 69 45 70 44 71
REMARK H PARENT 13 6 17 20 61 39 39 50
REMARK Flexibility Score: inf
ROOT
ATOM      1  C   UNL A   1      37.603  19.860  24.901  1.00  0.00     0.042 C 
ENDROOT
BRANCH   1   2
ATOM      2  C   UNL A   1      36.499  20.877  24.734  1.00  0.00     0.118 C 
BRANCH   2   3
ATOM      3  N   UNL A   1      35.600  21.026  25.848  1.00  0.00    -0.352 N 
ATOM      4  C   UNL A   1      34.226  20.986  25.862  1.00  0.00     0.255 C 
ATOM      5  O   UNL A   1      33.670  21.057  26.959  1.00  0.00    -0.269 OA
ATOM      6  H   UNL A   1      36.028  21.179  26.722  1.00  0.00     0.163 HD
BRANCH   4   7
ATOM      7  C   UNL A   1      33.397  20.995  24.624  1.00  0.00     0.082 A 
ATOM      8  C   UNL A   1      32.771  19.913  23.989  1.00  0.00     0.143 A 
ATOM      9  C   UNL A   1      32.121  20.083  22.757  1.00  0.00     0.048 A 
ATOM     10  C   UNL A   1      32.040  21.343  22.169  1.00  0.00     0.004 A 
ATOM     11  C   UNL A   1      33.268  22.267  24.029  1.00  0.00     0.018 A 
ATOM     12  C   UNL A   1      32.600  22.440  22.813  1.00  0.00     0.001 A 
BRANCH   8  13
ATOM     13  O   UNL A   1      32.833  18.572  24.406  1.00  0.00    -0.426 OA
BRANCH  13  14
ATOM     14  C   UNL A   1      33.594  17.666  23.672  1.00  0.00     0.308 C 
ATOM     15  C   UNL A   1      34.904  17.454  24.390  1.00  0.00     0.139 C 
ATOM     16  O   UNL A   1      33.277  17.140  22.618  1.00  0.00    -0.252 OA
ENDBRANCH  13  14
ENDBRANCH   8  13
ENDBRANCH   4   7
ENDBRANCH   2   3
ENDBRANCH   1   2
BRANCH   1  17
ATOM     17  C   UNL A   1      38.779  20.334  25.742  1.00  0.00     0.118 C 
BRANCH  17  18
ATOM     18  N   UNL A   1      39.920  19.420  25.767  1.00  0.00    -0.352 N 
ATOM     19  C   UNL A   1      41.247  19.593  26.090  1.00  0.00     0.251 C 
ATOM     20  H   UNL A   1      39.695  18.500  25.501  1.00  0.00     0.163 HD
ATOM     21  O   UNL A   1      42.032  18.664  25.910  1.00  0.00    -0.269 OA
BRANCH  19  22
ATOM     22  C   UNL A   1      41.757  20.887  26.601  1.00  0.00     0.039 A 
ATOM     23  C   UNL A   1      42.266  21.830  25.701  1.00  0.00     0.014 A 
ATOM     24  C   UNL A   1      41.738  21.186  27.959  1.00  0.00     0.014 A 
ATOM     25  C   UNL A   1      42.641  23.099  26.159  1.00  0.00     0.010 A 
ATOM     26  C   UNL A   1      41.955  22.488  28.387  1.00  0.00     0.010 A 
ATOM     27  C   UNL A   1      42.427  23.461  27.497  1.00  0.00    -0.014 A 
BRANCH  27  28
ATOM     28  C   UNL A   1      42.705  24.831  28.007  1.00  0.00     0.031 A 
ATOM     29  C   UNL A   1      44.103  25.208  28.430  1.00  0.00     0.074 A 
ATOM     30  C   UNL A   1      41.691  25.701  28.184  1.00  0.00     0.049 A 
ATOM     31  N   UNL A   1      44.525  26.307  29.005  1.00  0.00    -0.248 NA
ATOM     32  C   UNL A   1      45.160  24.202  28.224  1.00  0.00     0.031 C 
ATOM     33  C   UNL A   1      40.280  25.442  27.883  1.00  0.00     0.029 A 
ATOM     34  N   UNL A   1      41.692  26.984  28.672  1.00  0.00    -0.354 N 
ATOM     35  C   UNL A   1      45.876  26.102  29.263  1.00  0.00     0.074 A 
ATOM     36  C   UNL A   1      46.188  24.754  28.847  1.00  0.00     0.031 C 
ATOM     37  C   UNL A   1      39.562  26.545  28.150  1.00  0.00     0.029 A 
ATOM     38  C   UNL A   1      40.449  27.570  28.686  1.00  0.00     0.049 A 
ATOM     39  H   UNL A   1      42.506  27.441  28.983  1.00  0.00     0.167 HD
ATOM     40  C   UNL A   1      46.787  26.965  29.770  1.00  0.00     0.031 A 
ATOM     41  C   UNL A   1      40.064  28.797  29.087  1.00  0.00     0.031 A 
ATOM     42  C   UNL A   1      46.489  28.321  30.141  1.00  0.00     0.049 A 
ATOM     43  C   UNL A   1      41.099  29.750  29.617  1.00  0.00     0.074 A 
ATOM     44  C   UNL A   1      47.355  29.304  30.585  1.00  0.00     0.029 A 
ATOM     45  N   UNL A   1      45.224  28.886  30.102  1.00  0.00    -0.354 N 
ATOM     46  N   UNL A   1      42.386  29.565  29.780  1.00  0.00    -0.248 NA
ATOM     47  C   UNL A   1      40.628  31.086  30.006  1.00  0.00     0.031 C 
ATOM     48  C   UNL A   1      46.605  30.451  30.861  1.00  0.00     0.029 A 
ATOM     49  C   UNL A   1      45.281  30.199  30.535  1.00  0.00     0.049 A 
ATOM     50  H   UNL A   1      44.406  28.422  29.811  1.00  0.00     0.167 HD
ATOM     51  C   UNL A   1      42.883  30.768  30.265  1.00  0.00     0.074 A 
ATOM     52  C   UNL A   1      41.761  31.680  30.348  1.00  0.00     0.031 C 
ATOM     53  C   UNL A   1      44.154  31.090  30.612  1.00  0.00     0.031 A 
BRANCH  40  54
ATOM     54  C   UNL A   1      48.197  26.464  29.942  1.00  0.00    -0.014 A 
ATOM     55  C   UNL A   1      48.613  25.848  31.135  1.00  0.00     0.009 A 
ATOM     56  C   UNL A   1      49.116  26.589  28.890  1.00  0.00     0.009 A 
ATOM     57  C   UNL A   1      49.930  25.412  31.285  1.00  0.00     0.001 A 
ATOM     58  C   UNL A   1      50.424  26.121  29.031  1.00  0.00     0.001 A 
ATOM     59  C   UNL A   1      50.833  25.545  30.232  1.00  0.00     0.000 A 
ENDBRANCH  40  54
BRANCH  41  60
ATOM     60  C   UNL A   1      38.639  29.209  28.975  1.00  0.00    -0.014 A 
ATOM     61  C   UNL A   1      37.791  29.139  30.092  1.00  0.00     0.009 A 
ATOM     62  C   UNL A   1      38.117  29.663  27.755  1.00  0.00     0.009 A 
ATOM     63  C   UNL A   1      36.442  29.488  29.981  1.00  0.00     0.001 A 
ATOM     64  C   UNL A   1      36.775  30.040  27.655  1.00  0.00     0.001 A 
ATOM     65  C   UNL A   1      35.937  29.942  28.764  1.00  0.00     0.000 A 
ENDBRANCH  41  60
BRANCH  53  66
ATOM     66  C   UNL A   1      44.400  32.495  31.082  1.00  0.00    -0.014 A 
ATOM     67  C   UNL A   1      44.333  32.831  32.443  1.00  0.00     0.009 A 
ATOM     68  C   UNL A   1      44.737  33.489  30.151  1.00  0.00     0.009 A 
ATOM     69  C   UNL A   1      44.563  34.144  32.857  1.00  0.00     0.001 A 
ATOM     70  C   UNL A   1      44.999  34.793  30.570  1.00  0.00     0.001 A 
ATOM     71  C   UNL A   1      44.900  35.122  31.921  1.00  0.00     0.000 A 
ENDBRANCH  53  66
ENDBRANCH  27  28
ENDBRANCH  19  22
ENDBRANCH  17  18
ENDBRANCH   1  17
TORSDOF 12
ENDMDL
MODEL 2
REMARK VINA RESULT:     -10.5      1.443      6.382
REMARK SMILES CC(=O)Oc1ccccc1C(=O)NCCCNC(=O)c1ccc(-c2c3nc(c(-c4ccccc4)c4ccc([nH]4)c(-c4ccccc4)c4nc(c(-c5ccccc5)c5ccc2[nH]5)C=C4)C=C3)cc1
REMARK SMILES IDX 15 1 14 2 13 3 11 4 12 5 10 7 5 8 6 9 7 10 9 11 8 12 4 13
REMARK SMILES IDX 2 14 1 15 3 16 16 17 17 18 18 19 19 21 20 22 21 23 67 24
REMARK SMILES IDX 22 25 66 26 23 27 24 28 25 29 60 30 26 31 65 32 59 33 61 34
REMARK SMILES IDX 27 35 64 36 58 37 57 38 28 40 50 41 35 42 49 43 36 44 39 45
REMARK SMILES IDX 48 46 62 47 37 48 38 49 47 51 63 52 40 53 29 54 30 55 34 56
REMARK SMILES IDX 31 57 33 58 32 59 51 60 52 61 56 62 53 63 55 64 54 65 41 66
REMARK SMILES IDX 42 67 46 68 43 69 45 70 44 71
REMARK H PARENT 13 6 17 20 61 39 39 50
REMARK Flexibility Score: inf
ROOT
ATOM      1  C   UNL A   1      37.679  19.902  24.908  1.00  0.00     0.042 C 
ENDROOT
BRANCH   1   2
ATOM      2  C   UNL A   1      36.624  20.981  24.831  1.00  0.00     0.118 C 
BRANCH   2   3
ATOM      3  N   UNL A   1      35.734  21.080  25.958  1.00  0.00    -0.352 N 
ATOM      4  C   UNL A   1      34.360  21.050  25.980  1.00  0.00     0.255 C 
ATOM      5  O   UNL A   1      33.812  21.070  27.083  1.00  0.00    -0.269 OA
ATOM      6  H   UNL A   1      36.169  21.184  26.835  1.00  0.00     0.163 HD
BRANCH   4   7
ATOM      7  C   UNL A   1      33.522  21.130  24.750  1.00  0.00     0.082 A 
ATOM      8  C   UNL A   1      32.842  20.095  24.093  1.00  0.00     0.143 A 
ATOM      9  C   UNL A   1      32.191  20.326  22.872  1.00  0.00     0.048 A 
ATOM     10  C   UNL A   1      32.163  21.604  22.318  1.00  0.00     0.004 A 
ATOM     11  C   UNL A   1      33.447  22.422  24.189  1.00  0.00     0.018 A 
ATOM     12  C   UNL A   1      32.779  22.657  22.984  1.00  0.00     0.001 A 
BRANCH   8  13
ATOM     13  O   UNL A   1      32.845  18.742  24.475  1.00  0.00    -0.426 OA
BRANCH  13  14
ATOM     14  C   UNL A   1      33.534  17.816  23.695  1.00  0.00     0.308 C 
ATOM     15  C   UNL A   1      34.858  17.528  24.359  1.00  0.00     0.139 C 
ATOM     16  O   UNL A   1      33.153  17.328  22.644  1.00  0.00    -0.252 OA
ENDBRANCH  13  14
ENDBRANCH   8  13
ENDBRANCH   4   7
ENDBRANCH   2   3
ENDBRANCH   1   2
BRANCH   1  17
ATOM     17  C   UNL A   1      38.912  20.279  25.716  1.00  0.00     0.118 C 
BRANCH  17  18
ATOM     18  N   UNL A   1      39.927  19.230  25.804  1.00  0.00    -0.352 N 
ATOM     19  C   UNL A   1      41.279  19.261  26.067  1.00  0.00     0.251 C 
ATOM     20  H   UNL A   1      39.576  18.325  25.645  1.00  0.00     0.163 HD
ATOM     21  O   UNL A   1      41.930  18.223  25.964  1.00  0.00    -0.269 OA
BRANCH  19  22
ATOM     22  C   UNL A   1      41.970  20.522  26.420  1.00  0.00     0.039 A 
ATOM     23  C   UNL A   1      42.455  21.351  25.402  1.00  0.00     0.014 A 
ATOM     24  C   UNL A   1      42.146  20.903  27.746  1.00  0.00     0.014 A 
ATOM     25  C   UNL A   1      43.005  22.598  25.720  1.00  0.00     0.010 A 
ATOM     26  C   UNL A   1      42.540  22.199  28.051  1.00  0.00     0.010 A 
ATOM     27  C   UNL A   1      42.992  23.061  27.044  1.00  0.00    -0.014 A 
BRANCH  27  28
ATOM     28  C   UNL A   1      43.462  24.422  27.418  1.00  0.00     0.031 A 
ATOM     29  C   UNL A   1      42.467  25.472  27.846  1.00  0.00     0.074 A 
ATOM     30  C   UNL A   1      44.763  24.746  27.279  1.00  0.00     0.049 A 
ATOM     31  N   UNL A   1      42.661  26.743  28.098  1.00  0.00    -0.248 NA
ATOM     32  C   UNL A   1      41.059  25.053  27.959  1.00  0.00     0.031 C 
ATOM     33  C   UNL A   1      45.821  23.848  26.808  1.00  0.00     0.029 A 
ATOM     34  N   UNL A   1      45.417  25.930  27.514  1.00  0.00    -0.354 N 
ATOM     35  C   UNL A   1      41.402  27.273  28.357  1.00  0.00     0.074 A 
ATOM     36  C   UNL A   1      40.445  26.207  28.163  1.00  0.00     0.031 C 
ATOM     37  C   UNL A   1      46.996  24.499  26.832  1.00  0.00     0.029 A 
ATOM     38  C   UNL A   1      46.769  25.871  27.271  1.00  0.00     0.049 A 
ATOM     39  H   UNL A   1      44.962  26.744  27.826  1.00  0.00     0.167 HD
ATOM     40  C   UNL A   1      41.069  28.524  28.751  1.00  0.00     0.031 A 
ATOM     41  C   UNL A   1      47.721  26.817  27.388  1.00  0.00     0.031 A 
ATOM     42  C   UNL A   1      42.024  29.571  28.988  1.00  0.00     0.049 A 
ATOM     43  C   UNL A   1      47.332  28.190  27.858  1.00  0.00     0.074 A 
ATOM     44  C   UNL A   1      41.800  30.849  29.470  1.00  0.00     0.029 A 
ATOM     45  N   UNL A   1      43.387  29.457  28.767  1.00  0.00    -0.354 N 
ATOM     46  N   UNL A   1      46.146  28.651  28.173  1.00  0.00    -0.248 NA
ATOM     47  C   UNL A   1      48.417  29.170  28.001  1.00  0.00     0.031 C 
ATOM     48  C   UNL A   1      43.024  31.524  29.495  1.00  0.00     0.029 A 
ATOM     49  C   UNL A   1      44.016  30.648  29.083  1.00  0.00     0.049 A 
ATOM     50  H   UNL A   1      43.840  28.649  28.435  1.00  0.00     0.167 HD
ATOM     51  C   UNL A   1      46.345  29.964  28.577  1.00  0.00     0.074 A 
ATOM     52  C   UNL A   1      47.768  30.219  28.486  1.00  0.00     0.031 C 
ATOM     53  C   UNL A   1      45.433  30.881  28.984  1.00  0.00     0.031 A 
BRANCH  40  54
ATOM     54  C   UNL A   1      39.608  28.820  28.958  1.00  0.00    -0.014 A 
ATOM     55  C   UNL A   1      38.810  29.329  27.919  1.00  0.00     0.009 A 
ATOM     56  C   UNL A   1      39.013  28.566  30.203  1.00  0.00     0.009 A 
ATOM     57  C   UNL A   1      37.462  29.620  28.137  1.00  0.00     0.001 A 
ATOM     58  C   UNL A   1      37.656  28.826  30.408  1.00  0.00     0.001 A 
ATOM     59  C   UNL A   1      36.886  29.365  29.379  1.00  0.00     0.000 A 
ENDBRANCH  40  54
BRANCH  41  60
ATOM     60  C   UNL A   1      49.140  26.491  27.085  1.00  0.00    -0.014 A 
ATOM     61  C   UNL A   1      49.665  26.729  25.804  1.00  0.00     0.009 A 
ATOM     62  C   UNL A   1      49.974  25.933  28.065  1.00  0.00     0.009 A 
ATOM     63  C   UNL A   1      50.987  26.389  25.505  1.00  0.00     0.001 A 
ATOM     64  C   UNL A   1      51.304  25.622  27.771  1.00  0.00     0.001 A 
ATOM     65  C   UNL A   1      51.806  25.840  26.490  1.00  0.00     0.000 A 
ENDBRANCH  41  60
BRANCH  53  66
ATOM     66  C   UNL A   1      45.953  32.231  29.393  1.00  0.00    -0.014 A 
ATOM     67  C   UNL A   1      46.364  32.484  30.710  1.00  0.00     0.009 A 
ATOM     68  C   UNL A   1      46.063  33.250  28.435  1.00  0.00     0.009 A 
ATOM     69  C   UNL A   1      46.841  33.747  31.068  1.00  0.00     0.001 A 
ATOM     70  C   UNL A   1      46.571  34.500  28.787  1.00  0.00     0.001 A 
ATOM     71  C   UNL A   1      46.949  34.751  30.106  1.00  0.00     0.000 A 
ENDBRANCH  53  66
ENDBRANCH  27  28
ENDBRANCH  19  22
ENDBRANCH  17  18
ENDBRANCH   1  17
TORSDOF 12
ENDMDL
MODEL 3
REMARK VINA RESULT:     -10.4      5.716     10.010
REMARK SMILES CC(=O)Oc1ccccc1C(=O)NCCCNC(=O)c1ccc(-c2c3nc(c(-c4ccccc4)c4ccc([nH]4)c(-c4ccccc4)c4nc(c(-c5ccccc5)c5ccc2[nH]5)C=C4)C=C3)cc1
REMARK SMILES IDX 15 1 14 2 13 3 11 4 12 5 10 7 5 8 6 9 7 10 9 11 8 12 4 13
REMARK SMILES IDX 2 14 1 15 3 16 16 17 17 18 18 19 19 21 20 22 21 23 67 24
REMARK SMILES IDX 22 25 66 26 23 27 24 28 25 29 60 30 26 31 65 32 59 33 61 34
REMARK SMILES IDX 27 35 64 36 58 37 57 38 28 40 50 41 35 42 49 43 36 44 39 45
REMARK SMILES IDX 48 46 62 47 37 48 38 49 47 51 63 52 40 53 29 54 30 55 34 56
REMARK SMILES IDX 31 57 33 58 32 59 51 60 52 61 56 62 53 63 55 64 54 65 41 66
REMARK SMILES IDX 42 67 46 68 43 69 45 70 44 71
REMARK H PARENT 13 6 17 20 61 39 39 50
REMARK Flexibility Score: inf
ROOT
ATOM      1  C   UNL A   1      31.482  31.844  26.578  1.00  0.00     0.042 C 
ENDROOT
BRANCH   1   2
ATOM      2  C   UNL A   1      31.713  30.373  26.326  1.00  0.00     0.118 C 
BRANCH   2   3
ATOM      3  N   UNL A   1      32.652  30.047  25.284  1.00  0.00    -0.352 N 
ATOM      4  C   UNL A   1      32.506  29.180  24.228  1.00  0.00     0.255 C 
ATOM      5  O   UNL A   1      33.425  29.126  23.410  1.00  0.00    -0.269 OA
ATOM      6  H   UNL A   1      33.520  30.509  25.335  1.00  0.00     0.163 HD
BRANCH   4   7
ATOM      7  C   UNL A   1      31.368  28.225  24.108  1.00  0.00     0.082 A 
ATOM      8  C   UNL A   1      30.343  28.210  23.152  1.00  0.00     0.143 A 
ATOM      9  C   UNL A   1      29.277  27.303  23.256  1.00  0.00     0.048 A 
ATOM     10  C   UNL A   1      29.249  26.363  24.284  1.00  0.00     0.004 A 
ATOM     11  C   UNL A   1      31.336  27.240  25.117  1.00  0.00     0.018 A 
ATOM     12  C   UNL A   1      30.287  26.321  25.208  1.00  0.00     0.001 A 
BRANCH   8  13
ATOM     13  O   UNL A   1      30.183  29.139  22.109  1.00  0.00    -0.426 OA
BRANCH  13  14
ATOM     14  C   UNL A   1      29.043  29.938  22.079  1.00  0.00     0.308 C 
ATOM     15  C   UNL A   1      29.060  30.834  23.292  1.00  0.00     0.139 C 
ATOM     16  O   UNL A   1      28.165  29.917  21.233  1.00  0.00    -0.252 OA
ENDBRANCH  13  14
ENDBRANCH   8  13
ENDBRANCH   4   7
ENDBRANCH   2   3
ENDBRANCH   1   2
BRANCH   1  17
ATOM     17  C   UNL A   1      32.667  32.574  27.192  1.00  0.00     0.118 C 
BRANCH  17  18
ATOM     18  N   UNL A   1      32.396  33.957  27.583  1.00  0.00    -0.352 N 
ATOM     19  C   UNL A   1      32.996  34.806  28.487  1.00  0.00     0.251 C 
ATOM     20  H   UNL A   1      31.635  34.361  27.107  1.00  0.00     0.163 HD
ATOM     21  O   UNL A   1      32.485  35.901  28.707  1.00  0.00    -0.269 OA
BRANCH  19  22
ATOM     22  C   UNL A   1      34.213  34.408  29.231  1.00  0.00     0.039 A 
ATOM     23  C   UNL A   1      34.086  33.832  30.501  1.00  0.00     0.014 A 
ATOM     24  C   UNL A   1      35.483  34.592  28.695  1.00  0.00     0.014 A 
ATOM     25  C   UNL A   1      35.219  33.345  31.163  1.00  0.00     0.010 A 
ATOM     26  C   UNL A   1      36.579  33.970  29.274  1.00  0.00     0.010 A 
ATOM     27  C   UNL A   1      36.469  33.352  30.526  1.00  0.00    -0.014 A 
BRANCH  27  28
ATOM     28  C   UNL A   1      37.681  32.747  31.141  1.00  0.00     0.031 A 
ATOM     29  C   UNL A   1      38.328  31.542  30.505  1.00  0.00     0.074 A 
ATOM     30  C   UNL A   1      38.141  33.215  32.319  1.00  0.00     0.049 A 
ATOM     31  N   UNL A   1      39.315  30.803  30.947  1.00  0.00    -0.248 NA
ATOM     32  C   UNL A   1      37.761  31.073  29.228  1.00  0.00     0.031 C 
ATOM     33  C   UNL A   1      37.569  34.330  33.078  1.00  0.00     0.029 A 
ATOM     34  N   UNL A   1      39.199  32.800  33.091  1.00  0.00    -0.354 N 
ATOM     35  C   UNL A   1      39.454  29.770  30.027  1.00  0.00     0.074 A 
ATOM     36  C   UNL A   1      38.410  29.936  29.042  1.00  0.00     0.031 C 
ATOM     37  C   UNL A   1      38.307  34.538  34.181  1.00  0.00     0.029 A 
ATOM     38  C   UNL A   1      39.372  33.544  34.234  1.00  0.00     0.049 A 
ATOM     39  H   UNL A   1      39.777  32.042  32.849  1.00  0.00     0.167 HD
ATOM     40  C   UNL A   1      40.385  28.788  29.982  1.00  0.00     0.031 A 
ATOM     41  C   UNL A   1      40.287  33.438  35.216  1.00  0.00     0.031 A 
ATOM     42  C   UNL A   1      41.452  28.650  30.935  1.00  0.00     0.049 A 
ATOM     43  C   UNL A   1      41.331  32.360  35.128  1.00  0.00     0.074 A 
ATOM     44  C   UNL A   1      42.496  27.742  30.935  1.00  0.00     0.029 A 
ATOM     45  N   UNL A   1      41.613  29.449  32.056  1.00  0.00    -0.354 N 
ATOM     46  N   UNL A   1      41.494  31.440  34.209  1.00  0.00    -0.248 NA
ATOM     47  C   UNL A   1      42.324  32.315  36.210  1.00  0.00     0.031 C 
ATOM     48  C   UNL A   1      43.263  27.962  32.083  1.00  0.00     0.029 A 
ATOM     49  C   UNL A   1      42.728  29.043  32.766  1.00  0.00     0.049 A 
ATOM     50  H   UNL A   1      41.022  30.194  32.309  1.00  0.00     0.167 HD
ATOM     51  C   UNL A   1      42.623  30.724  34.585  1.00  0.00     0.074 A 
ATOM     52  C   UNL A   1      43.115  31.331  35.806  1.00  0.00     0.031 C 
ATOM     53  C   UNL A   1      43.201  29.658  33.979  1.00  0.00     0.031 A 
BRANCH  40  54
ATOM     54  C   UNL A   1      40.290  27.793  28.856  1.00  0.00    -0.014 A 
ATOM     55  C   UNL A   1      39.561  26.600  28.995  1.00  0.00     0.009 A 
ATOM     56  C   UNL A   1      40.920  28.062  27.632  1.00  0.00     0.009 A 
ATOM     57  C   UNL A   1      39.505  25.678  27.948  1.00  0.00     0.001 A 
ATOM     58  C   UNL A   1      40.833  27.154  26.575  1.00  0.00     0.001 A 
ATOM     59  C   UNL A   1      40.137  25.958  26.738  1.00  0.00     0.000 A 
ENDBRANCH  40  54
BRANCH  41  60
ATOM     60  C   UNL A   1      40.280  34.398  36.352  1.00  0.00    -0.014 A 
ATOM     61  C   UNL A   1      39.527  34.125  37.506  1.00  0.00     0.009 A 
ATOM     62  C   UNL A   1      41.013  35.592  36.289  1.00  0.00     0.009 A 
ATOM     63  C   UNL A   1      39.487  35.042  38.560  1.00  0.00     0.001 A 
ATOM     64  C   UNL A   1      40.995  36.492  37.357  1.00  0.00     0.001 A 
ATOM     65  C   UNL A   1      40.224  36.222  38.486  1.00  0.00     0.000 A 
ENDBRANCH  41  60
BRANCH  53  66
ATOM     66  C   UNL A   1      44.447  29.103  34.609  1.00  0.00    -0.014 A 
ATOM     67  C   UNL A   1      45.715  29.597  34.271  1.00  0.00     0.009 A 
ATOM     68  C   UNL A   1      44.343  28.095  35.580  1.00  0.00     0.009 A 
ATOM     69  C   UNL A   1      46.860  29.065  34.868  1.00  0.00     0.001 A 
ATOM     70  C   UNL A   1      45.486  27.588  36.198  1.00  0.00     0.001 A 
ATOM     71  C   UNL A   1      46.744  28.065  35.833  1.00  0.00     0.000 A 
ENDBRANCH  53  66
ENDBRANCH  27  28
ENDBRANCH  19  22
ENDBRANCH  17  18
ENDBRANCH   1  17
TORSDOF 12
ENDMDL
