MODEL 1
REMARK VINA RESULT:     -11.8      0.000      0.000
REMARK SMILES COc1ccc(/C=C(\NC(=O)c2ccccc2Br)C(=O)NCCCNC(=O)c2ccc(-c3c4nc(c(-c5ccccc5)c5ccc([nH]5)c(-c5ccccc5)c5nc(c(-c6ccccc6)c6ccc3[nH]6)C=C5)C=C4)cc2)cc1
REMARK SMILES IDX 23 1 22 2 21 3 19 4 20 5 8 7 7 8 6 9 3 10 4 11 77 12 5 13
REMARK SMILES IDX 76 14 2 15 1 16 9 17 10 18 11 20 12 21 13 22 17 23 14 24
REMARK SMILES IDX 16 25 18 26 15 27 24 28 25 29 26 30 27 32 28 33 29 34 75 35
REMARK SMILES IDX 30 36 74 37 31 38 32 39 33 40 68 41 34 42 73 43 67 44 69 45
REMARK SMILES IDX 35 46 72 47 66 48 65 49 36 51 58 52 43 53 57 54 44 55 47 56
REMARK SMILES IDX 56 57 70 58 45 59 46 60 55 62 71 63 48 64 37 65 38 66 42 67
REMARK SMILES IDX 39 68 41 69 40 70 59 71 60 72 64 73 61 74 63 75 62 76 49 77
REMARK SMILES IDX 50 78 54 79 51 80 53 81 52 82
REMARK H PARENT 21 6 9 19 25 31 69 50 47 61
REMARK Flexibility Score: inf
ROOT
ATOM      1  C   UNL A   1      32.971  28.843  27.314  1.00  0.00     0.042 C 
ENDROOT
BRANCH   1   2
ATOM      2  C   UNL A   1      31.844  28.366  26.411  1.00  0.00     0.118 C 
BRANCH   2   3
ATOM      3  N   UNL A   1      32.174  28.186  25.026  1.00  0.00    -0.351 N 
ATOM      4  C   UNL A   1      32.361  27.005  24.369  1.00  0.00     0.267 C 
ATOM      5  O   UNL A   1      32.179  26.985  23.152  1.00  0.00    -0.268 OA
ATOM      6  H   UNL A   1      32.277  29.006  24.490  1.00  0.00     0.163 HD
BRANCH   4   7
ATOM      7  C   UNL A   1      32.991  25.834  25.079  1.00  0.00     0.107 C 
ATOM      8  C   UNL A   1      34.165  25.509  24.492  1.00  0.00     0.040 C 
BRANCH   8   9
ATOM      9  C   UNL A   1      35.163  24.440  24.714  1.00  0.00    -0.023 A 
ATOM     10  C   UNL A   1      37.158  22.445  24.839  1.00  0.00     0.118 A 
ATOM     11  C   UNL A   1      36.887  23.242  25.946  1.00  0.00     0.047 A 
ATOM     12  C   UNL A   1      36.408  22.600  23.679  1.00  0.00     0.047 A 
ATOM     13  C   UNL A   1      35.923  24.255  25.873  1.00  0.00     0.012 A 
ATOM     14  C   UNL A   1      35.420  23.588  23.622  1.00  0.00     0.012 A 
BRANCH  10  15
ATOM     15  O   UNL A   1      38.160  21.525  24.976  1.00  0.00    -0.497 OA
ATOM     16  C   UNL A   1      37.681  20.180  24.956  1.00  0.00     0.278 C 
ENDBRANCH  10  15
ENDBRANCH   8   9
BRANCH   7  17
ATOM     17  N   UNL A   1      32.478  25.168  26.168  1.00  0.00    -0.317 N 
ATOM     18  C   UNL A   1      32.081  23.886  26.454  1.00  0.00     0.256 C 
ATOM     19  H   UNL A   1      32.366  25.766  26.943  1.00  0.00     0.170 HD
ATOM     20  O   UNL A   1      31.392  23.705  27.460  1.00  0.00    -0.269 OA
BRANCH  18  21
ATOM     21  C   UNL A   1      32.405  22.718  25.619  1.00  0.00     0.054 A 
ATOM     22  C   UNL A   1      33.406  21.860  26.110  1.00  0.00     0.015 A 
ATOM     23  C   UNL A   1      31.857  22.476  24.359  1.00  0.00     0.030 A 
ATOM     24  C   UNL A   1      33.748  20.697  25.422  1.00  0.00     0.001 A 
ATOM     25  C   UNL A   1      32.196  21.304  23.673  1.00  0.00     0.016 A 
ATOM     26  Br  UNL A   1      30.784  23.742  23.432  1.00  0.00    -0.050 Br
ATOM     27  C   UNL A   1      33.122  20.407  24.215  1.00  0.00     0.001 A 
ENDBRANCH  18  21
ENDBRANCH   7  17
ENDBRANCH   4   7
ENDBRANCH   2   3
ENDBRANCH   1   2
BRANCH   1  28
ATOM     28  C   UNL A   1      33.445  30.241  26.913  1.00  0.00     0.118 C 
BRANCH  28  29
ATOM     29  N   UNL A   1      33.688  31.150  28.030  1.00  0.00    -0.352 N 
ATOM     30  C   UNL A   1      34.817  31.348  28.788  1.00  0.00     0.251 C 
ATOM     31  H   UNL A   1      32.918  31.710  28.281  1.00  0.00     0.163 HD
ATOM     32  O   UNL A   1      34.862  32.285  29.579  1.00  0.00    -0.269 OA
BRANCH  30  33
ATOM     33  C   UNL A   1      35.897  30.342  28.767  1.00  0.00     0.039 A 
ATOM     34  C   UNL A   1      36.703  30.306  27.625  1.00  0.00     0.014 A 
ATOM     35  C   UNL A   1      36.234  29.588  29.888  1.00  0.00     0.014 A 
ATOM     36  C   UNL A   1      37.930  29.655  27.673  1.00  0.00     0.010 A 
ATOM     37  C   UNL A   1      37.503  29.037  29.977  1.00  0.00     0.010 A 
ATOM     38  C   UNL A   1      38.379  29.109  28.885  1.00  0.00    -0.014 A 
BRANCH  38  39
ATOM     39  C   UNL A   1      39.792  28.710  29.057  1.00  0.00     0.031 A 
ATOM     40  C   UNL A   1      40.791  29.668  29.628  1.00  0.00     0.074 A 
ATOM     41  C   UNL A   1      40.181  27.504  28.597  1.00  0.00     0.049 A 
ATOM     42  N   UNL A   1      42.074  29.502  29.813  1.00  0.00    -0.248 NA
ATOM     43  C   UNL A   1      40.292  31.001  30.003  1.00  0.00     0.031 C 
ATOM     44  C   UNL A   1      39.313  26.524  27.933  1.00  0.00     0.029 A 
ATOM     45  N   UNL A   1      41.406  26.890  28.624  1.00  0.00    -0.354 N 
ATOM     46  C   UNL A   1      42.540  30.716  30.299  1.00  0.00     0.074 A 
ATOM     47  C   UNL A   1      41.414  31.623  30.331  1.00  0.00     0.031 C 
ATOM     48  C   UNL A   1      40.019  25.413  27.672  1.00  0.00     0.029 A 
ATOM     49  C   UNL A   1      41.391  25.612  28.118  1.00  0.00     0.049 A 
ATOM     50  H   UNL A   1      42.219  27.323  28.970  1.00  0.00     0.167 HD
ATOM     51  C   UNL A   1      43.790  31.038  30.704  1.00  0.00     0.031 A 
ATOM     52  C   UNL A   1      42.371  24.696  28.046  1.00  0.00     0.031 A 
ATOM     53  C   UNL A   1      44.899  30.124  30.692  1.00  0.00     0.049 A 
ATOM     54  C   UNL A   1      43.728  25.049  28.577  1.00  0.00     0.074 A 
ATOM     55  C   UNL A   1      46.197  30.329  31.124  1.00  0.00     0.029 A 
ATOM     56  N   UNL A   1      44.829  28.818  30.231  1.00  0.00    -0.354 N 
ATOM     57  N   UNL A   1      44.140  26.180  29.097  1.00  0.00    -0.248 NA
ATOM     58  C   UNL A   1      44.750  23.995  28.531  1.00  0.00     0.031 C 
ATOM     59  C   UNL A   1      46.918  29.148  30.909  1.00  0.00     0.029 A 
ATOM     60  C   UNL A   1      46.059  28.201  30.371  1.00  0.00     0.049 A 
ATOM     61  H   UNL A   1      44.023  28.392  29.859  1.00  0.00     0.167 HD
ATOM     62  C   UNL A   1      45.462  25.969  29.458  1.00  0.00     0.074 A 
ATOM     63  C   UNL A   1      45.776  24.596  29.113  1.00  0.00     0.031 C 
ATOM     64  C   UNL A   1      46.340  26.834  30.021  1.00  0.00     0.031 A 
BRANCH  51  65
ATOM     65  C   UNL A   1      43.999  32.442  31.196  1.00  0.00    -0.014 A 
ATOM     66  C   UNL A   1      43.660  32.803  32.512  1.00  0.00     0.009 A 
ATOM     67  C   UNL A   1      44.507  33.422  30.332  1.00  0.00     0.009 A 
ATOM     68  C   UNL A   1      43.780  34.127  32.935  1.00  0.00     0.001 A 
ATOM     69  C   UNL A   1      44.651  34.740  30.767  1.00  0.00     0.001 A 
ATOM     70  C   UNL A   1      44.276  35.094  32.064  1.00  0.00     0.000 A 
ENDBRANCH  51  65
BRANCH  52  71
ATOM     71  C   UNL A   1      42.086  23.339  27.514  1.00  0.00    -0.014 A 
ATOM     72  C   UNL A   1      42.388  23.031  26.178  1.00  0.00     0.009 A 
ATOM     73  C   UNL A   1      41.527  22.346  28.332  1.00  0.00     0.009 A 
ATOM     74  C   UNL A   1      42.115  21.762  25.666  1.00  0.00     0.001 A 
ATOM     75  C   UNL A   1      41.274  21.071  27.821  1.00  0.00     0.001 A 
ATOM     76  C   UNL A   1      41.560  20.782  26.488  1.00  0.00     0.000 A 
ENDBRANCH  52  71
BRANCH  64  77
ATOM     77  C   UNL A   1      47.708  26.300  30.320  1.00  0.00    -0.014 A 
ATOM     78  C   UNL A   1      48.040  25.840  31.603  1.00  0.00     0.009 A 
ATOM     79  C   UNL A   1      48.669  26.241  29.299  1.00  0.00     0.009 A 
ATOM     80  C   UNL A   1      49.323  25.359  31.865  1.00  0.00     0.001 A 
ATOM     81  C   UNL A   1      49.943  25.741  29.560  1.00  0.00     0.001 A 
ATOM     82  C   UNL A   1      50.272  25.307  30.844  1.00  0.00     0.000 A 
ENDBRANCH  64  77
ENDBRANCH  38  39
ENDBRANCH  30  33
ENDBRANCH  28  29
ENDBRANCH   1  28
TORSDOF 14
ENDMDL
MODEL 2
REMARK VINA RESULT:     -11.7      1.629      7.568
REMARK SMILES COc1ccc(/C=C(\NC(=O)c2ccccc2Br)C(=O)NCCCNC(=O)c2ccc(-c3c4nc(c(-c5ccccc5)c5ccc([nH]5)c(-c5ccccc5)c5nc(c(-c6ccccc6)c6ccc3[nH]6)C=C5)C=C4)cc2)cc1
REMARK SMILES IDX 23 1 22 2 21 3 19 4 20 5 8 7 7 8 6 9 3 10 4 11 77 12 5 13
REMARK SMILES IDX 76 14 2 15 1 16 9 17 10 18 11 20 12 21 13 22 17 23 14 24
REMARK SMILES IDX 16 25 18 26 15 27 24 28 25 29 26 30 27 32 28 33 29 34 75 35
REMARK SMILES IDX 30 36 74 37 31 38 32 39 33 40 68 41 34 42 73 43 67 44 69 45
REMARK SMILES IDX 35 46 72 47 66 48 65 49 36 51 58 52 43 53 57 54 44 55 47 56
REMARK SMILES IDX 56 57 70 58 45 59 46 60 55 62 71 63 48 64 37 65 38 66 42 67
REMARK SMILES IDX 39 68 41 69 40 70 59 71 60 72 64 73 61 74 63 75 62 76 49 77
REMARK SMILES IDX 50 78 54 79 51 80 53 81 52 82
REMARK H PARENT 21 6 9 19 25 31 69 50 47 61
REMARK Flexibility Score: inf
ROOT
ATOM      1  C   UNL A   1      37.331  22.172  24.761  1.00  0.00     0.042 C 
ENDROOT
BRANCH   1   2
ATOM      2  C   UNL A   1      36.483  23.350  25.215  1.00  0.00     0.118 C 
BRANCH   2   3
ATOM      3  N   UNL A   1      35.214  23.029  25.802  1.00  0.00    -0.351 N 
ATOM      4  C   UNL A   1      33.996  23.546  25.468  1.00  0.00     0.267 C 
ATOM      5  O   UNL A   1      32.995  22.871  25.712  1.00  0.00    -0.268 OA
ATOM      6  H   UNL A   1      35.223  22.363  26.527  1.00  0.00     0.163 HD
BRANCH   4   7
ATOM      7  C   UNL A   1      33.875  24.983  25.031  1.00  0.00     0.107 C 
ATOM      8  C   UNL A   1      33.550  25.765  26.084  1.00  0.00     0.040 C 
BRANCH   8   9
ATOM      9  C   UNL A   1      33.249  27.205  26.241  1.00  0.00    -0.023 A 
ATOM     10  C   UNL A   1      32.536  29.877  26.811  1.00  0.00     0.118 A 
ATOM     11  C   UNL A   1      33.742  29.588  26.181  1.00  0.00     0.047 A 
ATOM     12  C   UNL A   1      31.656  28.847  27.118  1.00  0.00     0.047 A 
ATOM     13  C   UNL A   1      34.113  28.262  25.931  1.00  0.00     0.012 A 
ATOM     14  C   UNL A   1      32.012  27.526  26.833  1.00  0.00     0.012 A 
BRANCH  10  15
ATOM     15  O   UNL A   1      32.284  31.195  27.076  1.00  0.00    -0.497 OA
ATOM     16  C   UNL A   1      31.208  31.718  26.298  1.00  0.00     0.278 C 
ENDBRANCH  10  15
ENDBRANCH   8   9
BRANCH   7  17
ATOM     17  N   UNL A   1      34.063  25.467  23.757  1.00  0.00    -0.317 N 
ATOM     18  C   UNL A   1      33.295  26.093  22.807  1.00  0.00     0.256 C 
ATOM     19  H   UNL A   1      34.987  25.327  23.445  1.00  0.00     0.170 HD
ATOM     20  O   UNL A   1      33.720  26.126  21.650  1.00  0.00    -0.269 OA
BRANCH  18  21
ATOM     21  C   UNL A   1      31.983  26.703  23.079  1.00  0.00     0.054 A 
ATOM     22  C   UNL A   1      31.968  28.101  23.240  1.00  0.00     0.015 A 
ATOM     23  C   UNL A   1      30.806  25.980  23.277  1.00  0.00     0.030 A 
ATOM     24  C   UNL A   1      30.769  28.781  23.447  1.00  0.00     0.001 A 
ATOM     25  C   UNL A   1      29.603  26.666  23.477  1.00  0.00     0.016 A 
ATOM     26  Br  UNL A   1      30.764  24.089  23.454  1.00  0.00    -0.050 Br
ATOM     27  C   UNL A   1      29.582  28.062  23.539  1.00  0.00     0.001 A 
ENDBRANCH  18  21
ENDBRANCH   7  17
ENDBRANCH   4   7
ENDBRANCH   2   3
ENDBRANCH   1   2
BRANCH   1  28
ATOM     28  C   UNL A   1      38.413  21.841  25.789  1.00  0.00     0.118 C 
BRANCH  28  29
ATOM     29  N   UNL A   1      39.151  20.608  25.528  1.00  0.00    -0.352 N 
ATOM     30  C   UNL A   1      40.368  20.182  26.001  1.00  0.00     0.251 C 
ATOM     31  H   UNL A   1      38.704  19.982  24.913  1.00  0.00     0.163 HD
ATOM     32  O   UNL A   1      40.736  19.031  25.786  1.00  0.00    -0.269 OA
BRANCH  30  33
ATOM     33  C   UNL A   1      41.293  21.152  26.618  1.00  0.00     0.039 A 
ATOM     34  C   UNL A   1      41.944  22.041  25.755  1.00  0.00     0.014 A 
ATOM     35  C   UNL A   1      41.387  21.318  27.997  1.00  0.00     0.014 A 
ATOM     36  C   UNL A   1      42.535  23.188  26.272  1.00  0.00     0.010 A 
ATOM     37  C   UNL A   1      41.874  22.514  28.503  1.00  0.00     0.010 A 
ATOM     38  C   UNL A   1      42.409  23.478  27.638  1.00  0.00    -0.014 A 
BRANCH  38  39
ATOM     39  C   UNL A   1      42.730  24.825  28.157  1.00  0.00     0.031 A 
ATOM     40  C   UNL A   1      44.140  25.192  28.505  1.00  0.00     0.074 A 
ATOM     41  C   UNL A   1      41.716  25.678  28.405  1.00  0.00     0.049 A 
ATOM     42  N   UNL A   1      44.596  26.310  29.006  1.00  0.00    -0.248 NA
ATOM     43  C   UNL A   1      45.165  24.157  28.300  1.00  0.00     0.031 C 
ATOM     44  C   UNL A   1      40.291  25.392  28.197  1.00  0.00     0.029 A 
ATOM     45  N   UNL A   1      41.726  26.963  28.879  1.00  0.00    -0.354 N 
ATOM     46  C   UNL A   1      45.955  26.102  29.202  1.00  0.00     0.074 A 
ATOM     47  C   UNL A   1      46.237  24.737  28.815  1.00  0.00     0.031 C 
ATOM     48  C   UNL A   1      39.574  26.489  28.483  1.00  0.00     0.029 A 
ATOM     49  C   UNL A   1      40.479  27.541  28.925  1.00  0.00     0.049 A 
ATOM     50  H   UNL A   1      42.546  27.428  29.162  1.00  0.00     0.167 HD
ATOM     51  C   UNL A   1      46.887  26.978  29.644  1.00  0.00     0.031 A 
ATOM     52  C   UNL A   1      40.113  28.789  29.264  1.00  0.00     0.031 A 
ATOM     53  C   UNL A   1      46.602  28.339  30.004  1.00  0.00     0.049 A 
ATOM     54  C   UNL A   1      41.175  29.766  29.671  1.00  0.00     0.074 A 
ATOM     55  C   UNL A   1      47.476  29.328  30.419  1.00  0.00     0.029 A 
ATOM     56  N   UNL A   1      45.337  28.906  29.978  1.00  0.00    -0.354 N 
ATOM     57  N   UNL A   1      42.467  29.576  29.789  1.00  0.00    -0.248 NA
ATOM     58  C   UNL A   1      40.732  31.134  29.973  1.00  0.00     0.031 C 
ATOM     59  C   UNL A   1      46.735  30.491  30.659  1.00  0.00     0.029 A 
ATOM     60  C   UNL A   1      45.405  30.232  30.363  1.00  0.00     0.049 A 
ATOM     61  H   UNL A   1      44.511  28.434  29.722  1.00  0.00     0.167 HD
ATOM     62  C   UNL A   1      42.996  30.803  30.159  1.00  0.00     0.074 A 
ATOM     63  C   UNL A   1      41.885  31.733  30.229  1.00  0.00     0.031 C 
ATOM     64  C   UNL A   1      44.284  31.132  30.422  1.00  0.00     0.031 A 
BRANCH  51  65
ATOM     65  C   UNL A   1      48.295  26.467  29.748  1.00  0.00    -0.014 A 
ATOM     66  C   UNL A   1      48.742  25.815  30.911  1.00  0.00     0.009 A 
ATOM     67  C   UNL A   1      49.195  26.665  28.691  1.00  0.00     0.009 A 
ATOM     68  C   UNL A   1      50.074  25.417  31.031  1.00  0.00     0.001 A 
ATOM     69  C   UNL A   1      50.521  26.241  28.805  1.00  0.00     0.001 A 
ATOM     70  C   UNL A   1      50.962  25.630  29.978  1.00  0.00     0.000 A 
ENDBRANCH  51  65
BRANCH  52  71
ATOM     71  C   UNL A   1      38.690  29.201  29.163  1.00  0.00    -0.014 A 
ATOM     72  C   UNL A   1      38.185  29.688  27.947  1.00  0.00     0.009 A 
ATOM     73  C   UNL A   1      37.829  29.101  30.265  1.00  0.00     0.009 A 
ATOM     74  C   UNL A   1      36.851  30.087  27.844  1.00  0.00     0.001 A 
ATOM     75  C   UNL A   1      36.491  29.482  30.153  1.00  0.00     0.001 A 
ATOM     76  C   UNL A   1      36.004  29.982  28.946  1.00  0.00     0.000 A 
ENDBRANCH  52  71
BRANCH  64  77
ATOM     77  C   UNL A   1      44.550  32.563  30.778  1.00  0.00    -0.014 A 
ATOM     78  C   UNL A   1      44.523  32.992  32.114  1.00  0.00     0.009 A 
ATOM     79  C   UNL A   1      44.851  33.487  29.765  1.00  0.00     0.009 A 
ATOM     80  C   UNL A   1      44.761  34.331  32.425  1.00  0.00     0.001 A 
ATOM     81  C   UNL A   1      45.108  34.820  30.083  1.00  0.00     0.001 A 
ATOM     82  C   UNL A   1      45.056  35.242  31.411  1.00  0.00     0.000 A 
ENDBRANCH  64  77
ENDBRANCH  38  39
ENDBRANCH  30  33
ENDBRANCH  28  29
ENDBRANCH   1  28
TORSDOF 14
ENDMDL
MODEL 3
REMARK VINA RESULT:     -11.7      3.410      5.165
REMARK SMILES COc1ccc(/C=C(\NC(=O)c2ccccc2Br)C(=O)NCCCNC(=O)c2ccc(-c3c4nc(c(-c5ccccc5)c5ccc([nH]5)c(-c5ccccc5)c5nc(c(-c6ccccc6)c6ccc3[nH]6)C=C5)C=C4)cc2)cc1
REMARK SMILES IDX 23 1 22 2 21 3 19 4 20 5 8 7 7 8 6 9 3 10 4 11 77 12 5 13
REMARK SMILES IDX 76 14 2 15 1 16 9 17 10 18 11 20 12 21 13 22 17 23 14 24
REMARK SMILES IDX 16 25 18 26 15 27 24 28 25 29 26 30 27 32 28 33 29 34 75 35
REMARK SMILES IDX 30 36 74 37 31 38 32 39 33 40 68 41 34 42 73 43 67 44 69 45
REMARK SMILES IDX 35 46 72 47 66 48 65 49 36 51 58 52 43 53 57 54 44 55 47 56
REMARK SMILES IDX 56 57 70 58 45 59 46 60 55 62 71 63 48 64 37 65 38 66 42 67
REMARK SMILES IDX 39 68 41 69 40 70 59 71 60 72 64 73 61 74 63 75 62 76 49 77
REMARK SMILES IDX 50 78 54 79 51 80 53 81 52 82
REMARK H PARENT 21 6 9 19 25 31 69 50 47 61
REMARK Flexibility Score: inf
ROOT
ATOM      1  C   UNL A   1      30.673  31.926  25.316  1.00  0.00     0.042 C 
ENDROOT
BRANCH   1   2
ATOM      2  C   UNL A   1      30.375  30.585  24.662  1.00  0.00     0.118 C 
BRANCH   2   3
ATOM      3  N   UNL A   1      29.981  30.625  23.283  1.00  0.00    -0.351 N 
ATOM      4  C   UNL A   1      29.758  29.562  22.458  1.00  0.00     0.267 C 
ATOM      5  O   UNL A   1      29.008  29.726  21.495  1.00  0.00    -0.268 OA
ATOM      6  H   UNL A   1      29.860  31.519  22.888  1.00  0.00     0.163 HD
BRANCH   4   7
ATOM      7  C   UNL A   1      30.582  28.308  22.595  1.00  0.00     0.107 C 
ATOM      8  C   UNL A   1      29.941  27.413  23.379  1.00  0.00     0.040 C 
BRANCH   8   9
ATOM      9  C   UNL A   1      30.285  26.070  23.899  1.00  0.00    -0.023 A 
ATOM     10  C   UNL A   1      30.749  23.572  25.131  1.00  0.00     0.118 A 
ATOM     11  C   UNL A   1      30.699  23.677  23.745  1.00  0.00     0.047 A 
ATOM     12  C   UNL A   1      30.616  24.713  25.912  1.00  0.00     0.047 A 
ATOM     13  C   UNL A   1      30.434  24.908  23.134  1.00  0.00     0.012 A 
ATOM     14  C   UNL A   1      30.388  25.949  25.298  1.00  0.00     0.012 A 
BRANCH  10  15
ATOM     15  O   UNL A   1      30.947  22.321  25.644  1.00  0.00    -0.497 OA
ATOM     16  C   UNL A   1      32.305  22.085  26.013  1.00  0.00     0.278 C 
ENDBRANCH  10  15
ENDBRANCH   8   9
BRANCH   7  17
ATOM     17  N   UNL A   1      31.809  28.071  22.020  1.00  0.00    -0.317 N 
ATOM     18  C   UNL A   1      33.099  27.906  22.461  1.00  0.00     0.256 C 
ATOM     19  H   UNL A   1      31.747  28.003  21.040  1.00  0.00     0.170 HD
ATOM     20  O   UNL A   1      34.008  27.999  21.633  1.00  0.00    -0.269 OA
BRANCH  18  21
ATOM     21  C   UNL A   1      33.464  27.654  23.864  1.00  0.00     0.054 A 
ATOM     22  C   UNL A   1      33.539  28.784  24.700  1.00  0.00     0.015 A 
ATOM     23  C   UNL A   1      33.823  26.404  24.371  1.00  0.00     0.030 A 
ATOM     24  C   UNL A   1      33.824  28.647  26.057  1.00  0.00     0.001 A 
ATOM     25  C   UNL A   1      34.101  26.270  25.736  1.00  0.00     0.016 A 
ATOM     26  Br  UNL A   1      34.120  24.883  23.272  1.00  0.00    -0.050 Br
ATOM     27  C   UNL A   1      34.079  27.384  26.579  1.00  0.00     0.001 A 
ENDBRANCH  18  21
ENDBRANCH   7  17
ENDBRANCH   4   7
ENDBRANCH   2   3
ENDBRANCH   1   2
BRANCH   1  28
ATOM     28  C   UNL A   1      31.706  31.777  26.434  1.00  0.00     0.118 C 
BRANCH  28  29
ATOM     29  N   UNL A   1      31.826  32.937  27.315  1.00  0.00    -0.352 N 
ATOM     30  C   UNL A   1      32.936  33.502  27.895  1.00  0.00     0.251 C 
ATOM     31  H   UNL A   1      30.975  33.384  27.528  1.00  0.00     0.163 HD
ATOM     32  O   UNL A   1      32.838  34.581  28.473  1.00  0.00    -0.269 OA
BRANCH  30  33
ATOM     33  C   UNL A   1      34.196  32.737  27.962  1.00  0.00     0.039 A 
ATOM     34  C   UNL A   1      35.384  33.475  27.968  1.00  0.00     0.014 A 
ATOM     35  C   UNL A   1      34.222  31.365  28.198  1.00  0.00     0.014 A 
ATOM     36  C   UNL A   1      36.565  32.870  28.383  1.00  0.00     0.010 A 
ATOM     37  C   UNL A   1      35.371  30.789  28.720  1.00  0.00     0.010 A 
ATOM     38  C   UNL A   1      36.538  31.551  28.861  1.00  0.00    -0.014 A 
BRANCH  38  39
ATOM     39  C   UNL A   1      37.686  30.994  29.606  1.00  0.00     0.031 A 
ATOM     40  C   UNL A   1      37.929  31.380  31.033  1.00  0.00     0.074 A 
ATOM     41  C   UNL A   1      38.565  30.213  28.947  1.00  0.00     0.049 A 
ATOM     42  N   UNL A   1      38.904  31.021  31.826  1.00  0.00    -0.248 NA
ATOM     43  C   UNL A   1      36.974  32.324  31.637  1.00  0.00     0.031 C 
ATOM     44  C   UNL A   1      38.483  29.849  27.527  1.00  0.00     0.029 A 
ATOM     45  N   UNL A   1      39.697  29.576  29.383  1.00  0.00    -0.354 N 
ATOM     46  C   UNL A   1      38.696  31.715  33.010  1.00  0.00     0.074 A 
ATOM     47  C   UNL A   1      37.534  32.554  32.814  1.00  0.00     0.031 C 
ATOM     48  C   UNL A   1      39.484  29.006  27.228  1.00  0.00     0.029 A 
ATOM     49  C   UNL A   1      40.294  28.797  28.420  1.00  0.00     0.049 A 
ATOM     50  H   UNL A   1      40.049  29.668  30.297  1.00  0.00     0.167 HD
ATOM     51  C   UNL A   1      39.398  31.642  34.164  1.00  0.00     0.031 A 
ATOM     52  C   UNL A   1      41.363  27.987  28.500  1.00  0.00     0.031 A 
ATOM     53  C   UNL A   1      40.537  30.788  34.359  1.00  0.00     0.049 A 
ATOM     54  C   UNL A   1      42.075  27.860  29.814  1.00  0.00     0.074 A 
ATOM     55  C   UNL A   1      41.294  30.598  35.501  1.00  0.00     0.029 A 
ATOM     56  N   UNL A   1      41.074  29.967  33.379  1.00  0.00    -0.354 N 
ATOM     57  N   UNL A   1      41.828  28.472  30.946  1.00  0.00    -0.248 NA
ATOM     58  C   UNL A   1      43.200  26.917  29.866  1.00  0.00     0.031 C 
ATOM     59  C   UNL A   1      42.302  29.672  35.206  1.00  0.00     0.029 A 
ATOM     60  C   UNL A   1      42.151  29.264  33.889  1.00  0.00     0.049 A 
ATOM     61  H   UNL A   1      40.739  29.895  32.456  1.00  0.00     0.167 HD
ATOM     62  C   UNL A   1      42.752  27.975  31.852  1.00  0.00     0.074 A 
ATOM     63  C   UNL A   1      43.553  26.998  31.140  1.00  0.00     0.031 C 
ATOM     64  C   UNL A   1      42.926  28.298  33.157  1.00  0.00     0.031 A 
BRANCH  51  65
ATOM     65  C   UNL A   1      38.930  32.514  35.294  1.00  0.00    -0.014 A 
ATOM     66  C   UNL A   1      39.522  33.766  35.531  1.00  0.00     0.009 A 
ATOM     67  C   UNL A   1      37.911  32.071  36.149  1.00  0.00     0.009 A 
ATOM     68  C   UNL A   1      39.137  34.534  36.631  1.00  0.00     0.001 A 
ATOM     69  C   UNL A   1      37.509  32.854  37.233  1.00  0.00     0.001 A 
ATOM     70  C   UNL A   1      38.131  34.078  37.481  1.00  0.00     0.000 A 
ENDBRANCH  51  65
BRANCH  52  71
ATOM     71  C   UNL A   1      41.779  27.183  27.323  1.00  0.00    -0.014 A 
ATOM     72  C   UNL A   1      42.698  27.710  26.402  1.00  0.00     0.009 A 
ATOM     73  C   UNL A   1      41.275  25.890  27.117  1.00  0.00     0.009 A 
ATOM     74  C   UNL A   1      43.088  26.966  25.287  1.00  0.00     0.001 A 
ATOM     75  C   UNL A   1      41.683  25.141  26.011  1.00  0.00     0.001 A 
ATOM     76  C   UNL A   1      42.582  25.682  25.093  1.00  0.00     0.000 A 
ENDBRANCH  52  71
BRANCH  64  77
ATOM     77  C   UNL A   1      44.007  27.564  33.891  1.00  0.00    -0.014 A 
ATOM     78  C   UNL A   1      43.745  26.342  34.528  1.00  0.00     0.009 A 
ATOM     79  C   UNL A   1      45.305  28.095  33.927  1.00  0.00     0.009 A 
ATOM     80  C   UNL A   1      44.761  25.679  35.218  1.00  0.00     0.001 A 
ATOM     81  C   UNL A   1      46.322  27.419  34.600  1.00  0.00     0.001 A 
ATOM     82  C   UNL A   1      46.048  26.216  35.251  1.00  0.00     0.000 A 
ENDBRANCH  64  77
ENDBRANCH  38  39
ENDBRANCH  30  33
ENDBRANCH  28  29
ENDBRANCH   1  28
TORSDOF 14
ENDMDL
