MODEL 1
REMARK VINA RESULT:     -11.3      0.000      0.000
REMARK SMILES Nc1c(N2CCCC2)ncnc1N1CCC(C(=O)NCCCNC(=O)c2ccc(-c3c4nc(c(-c5ccccc5)c5ccc([nH]5)c(-c5ccccc5)c5nc(c(-c6ccccc6)c6ccc3[nH]6)C=C5)C=C4)cc2)CC1
REMARK SMILES IDX 21 1 20 2 19 3 17 4 18 5 16 7 13 8 14 9 75 10 15 11 74 12
REMARK SMILES IDX 12 13 2 14 3 15 9 16 11 17 10 18 1 19 4 22 5 23 8 24 6 25
REMARK SMILES IDX 7 26 22 27 23 28 24 29 25 31 26 32 27 33 73 34 28 35 72 36
REMARK SMILES IDX 29 37 30 38 31 39 66 40 32 41 71 42 65 43 67 44 33 45 70 46
REMARK SMILES IDX 64 47 63 48 34 50 56 51 41 52 55 53 42 54 45 55 54 56 68 57
REMARK SMILES IDX 43 58 44 59 53 61 69 62 46 63 35 64 36 65 40 66 37 67 39 68
REMARK SMILES IDX 38 69 57 70 58 71 62 72 59 73 61 74 60 75 47 76 48 77 52 78
REMARK SMILES IDX 49 79 51 80 50 81
REMARK H PARENT 19 6 1 20 1 21 23 30 67 49 45 60
REMARK Flexibility Score: inf
ROOT
ATOM      1  C   UNL A   1      36.958  23.735  24.580  1.00  0.00     0.042 C 
ENDROOT
BRANCH   1   2
ATOM      2  C   UNL A   1      36.387  22.881  23.456  1.00  0.00     0.117 C 
BRANCH   2   3
ATOM      3  N   UNL A   1      35.039  22.409  23.752  1.00  0.00    -0.356 N 
ATOM      4  C   UNL A   1      33.833  23.040  23.702  1.00  0.00     0.223 C 
ATOM      5  O   UNL A   1      32.836  22.401  24.044  1.00  0.00    -0.275 OA
ATOM      6  H   UNL A   1      34.993  21.469  24.038  1.00  0.00     0.163 HD
BRANCH   4   7
ATOM      7  C   UNL A   1      33.703  24.477  23.225  1.00  0.00     0.082 C 
ATOM      8  N   UNL A   1      31.882  26.607  22.916  1.00  0.00    -0.355 N 
ATOM      9  C   UNL A   1      32.315  25.975  21.691  1.00  0.00     0.119 C 
ATOM     10  C   UNL A   1      32.842  26.760  23.994  1.00  0.00     0.119 C 
ATOM     11  C   UNL A   1      32.790  24.566  21.993  1.00  0.00     0.035 C 
ATOM     12  C   UNL A   1      33.359  25.393  24.411  1.00  0.00     0.035 C 
BRANCH   8  13
ATOM     13  C   UNL A   1      30.626  27.180  22.977  1.00  0.00     0.157 A 
ATOM     14  C   UNL A   1      30.414  28.506  22.573  1.00  0.00     0.118 A 
ATOM     15  C   UNL A   1      29.127  29.031  22.780  1.00  0.00     0.157 A 
ATOM     16  N   UNL A   1      28.141  28.305  23.333  1.00  0.00    -0.217 NA
ATOM     17  N   UNL A   1      29.625  26.419  23.456  1.00  0.00    -0.217 NA
ATOM     18  C   UNL A   1      28.442  27.031  23.623  1.00  0.00     0.226 A 
BRANCH  14  19
ATOM     19  N   UNL A   1      31.458  29.318  22.091  1.00  0.00    -0.393 N 
ATOM     20  H   UNL A   1      32.303  28.909  21.793  1.00  0.00     0.156 HD
ATOM     21  H   UNL A   1      31.344  30.295  22.051  1.00  0.00     0.156 HD
ENDBRANCH  14  19
BRANCH  15  22
ATOM     22  N   UNL A   1      28.869  30.333  22.407  1.00  0.00    -0.355 N 
ATOM     23  C   UNL A   1      28.092  30.641  21.224  1.00  0.00     0.118 C 
ATOM     24  C   UNL A   1      28.784  31.405  23.380  1.00  0.00     0.118 C 
ATOM     25  C   UNL A   1      28.381  32.129  21.085  1.00  0.00     0.023 C 
ATOM     26  C   UNL A   1      28.370  32.621  22.534  1.00  0.00     0.023 C 
ENDBRANCH  15  22
ENDBRANCH   8  13
ENDBRANCH   4   7
ENDBRANCH   2   3
ENDBRANCH   1   2
BRANCH   1  27
ATOM     27  C   UNL A   1      37.039  23.009  25.914  1.00  0.00     0.118 C 
BRANCH  27  28
ATOM     28  N   UNL A   1      38.235  22.189  26.032  1.00  0.00    -0.352 N 
ATOM     29  C   UNL A   1      39.523  22.547  26.348  1.00  0.00     0.251 C 
ATOM     30  H   UNL A   1      38.101  21.228  25.860  1.00  0.00     0.163 HD
ATOM     31  O   UNL A   1      40.438  21.741  26.204  1.00  0.00    -0.269 OA
BRANCH  29  32
ATOM     32  C   UNL A   1      39.816  23.910  26.836  1.00  0.00     0.039 A 
ATOM     33  C   UNL A   1      39.669  24.188  28.197  1.00  0.00     0.014 A 
ATOM     34  C   UNL A   1      40.223  24.916  25.956  1.00  0.00     0.014 A 
ATOM     35  C   UNL A   1      40.000  25.455  28.683  1.00  0.00     0.010 A 
ATOM     36  C   UNL A   1      40.639  26.147  26.452  1.00  0.00     0.010 A 
ATOM     37  C   UNL A   1      40.522  26.432  27.820  1.00  0.00    -0.014 A 
BRANCH  37  38
ATOM     38  C   UNL A   1      40.932  27.763  28.330  1.00  0.00     0.031 A 
ATOM     39  C   UNL A   1      42.389  28.090  28.502  1.00  0.00     0.074 A 
ATOM     40  C   UNL A   1      39.992  28.666  28.671  1.00  0.00     0.049 A 
ATOM     41  N   UNL A   1      42.938  29.195  28.938  1.00  0.00    -0.248 NA
ATOM     42  C   UNL A   1      43.355  27.033  28.161  1.00  0.00     0.031 C 
ATOM     43  C   UNL A   1      38.544  28.457  28.585  1.00  0.00     0.029 A 
ATOM     44  N   UNL A   1      40.114  29.947  29.149  1.00  0.00    -0.354 N 
ATOM     45  C   UNL A   1      44.307  28.963  28.929  1.00  0.00     0.074 A 
ATOM     46  C   UNL A   1      44.504  27.595  28.505  1.00  0.00     0.031 C 
ATOM     47  C   UNL A   1      37.916  29.586  28.949  1.00  0.00     0.029 A 
ATOM     48  C   UNL A   1      38.910  30.584  29.330  1.00  0.00     0.049 A 
ATOM     49  H   UNL A   1      40.982  30.368  29.346  1.00  0.00     0.167 HD
ATOM     50  C   UNL A   1      45.315  29.820  29.217  1.00  0.00     0.031 A 
ATOM     51  C   UNL A   1      38.638  31.835  29.746  1.00  0.00     0.031 A 
ATOM     52  C   UNL A   1      45.121  31.184  29.625  1.00  0.00     0.049 A 
ATOM     53  C   UNL A   1      39.772  32.759  30.091  1.00  0.00     0.074 A 
ATOM     54  C   UNL A   1      46.081  32.145  29.893  1.00  0.00     0.029 A 
ATOM     55  N   UNL A   1      43.887  31.779  29.825  1.00  0.00    -0.354 N 
ATOM     56  N   UNL A   1      41.062  32.542  30.020  1.00  0.00    -0.248 NA
ATOM     57  C   UNL A   1      39.412  34.102  30.570  1.00  0.00     0.031 C 
ATOM     58  C   UNL A   1      45.425  33.311  30.298  1.00  0.00     0.029 A 
ATOM     59  C   UNL A   1      44.058  33.089  30.237  1.00  0.00     0.049 A 
ATOM     60  H   UNL A   1      43.017  31.336  29.693  1.00  0.00     0.167 HD
ATOM     61  C   UNL A   1      41.668  33.722  30.428  1.00  0.00     0.074 A 
ATOM     62  C   UNL A   1      40.605  34.658  30.732  1.00  0.00     0.031 C 
ATOM     63  C   UNL A   1      42.988  34.003  30.540  1.00  0.00     0.031 A 
BRANCH  50  64
ATOM     64  C   UNL A   1      46.718  29.303  29.088  1.00  0.00    -0.014 A 
ATOM     65  C   UNL A   1      47.426  29.430  27.881  1.00  0.00     0.009 A 
ATOM     66  C   UNL A   1      47.357  28.718  30.191  1.00  0.00     0.009 A 
ATOM     67  C   UNL A   1      48.732  28.951  27.773  1.00  0.00     0.001 A 
ATOM     68  C   UNL A   1      48.674  28.264  30.088  1.00  0.00     0.001 A 
ATOM     69  C   UNL A   1      49.357  28.373  28.877  1.00  0.00     0.000 A 
ENDBRANCH  50  64
BRANCH  51  70
ATOM     70  C   UNL A   1      37.228  32.297  29.816  1.00  0.00    -0.014 A 
ATOM     71  C   UNL A   1      36.479  32.095  30.985  1.00  0.00     0.009 A 
ATOM     72  C   UNL A   1      36.635  32.966  28.735  1.00  0.00     0.009 A 
ATOM     73  C   UNL A   1      35.159  32.545  31.065  1.00  0.00     0.001 A 
ATOM     74  C   UNL A   1      35.322  33.435  28.826  1.00  0.00     0.001 A 
ATOM     75  C   UNL A   1      34.584  33.219  29.989  1.00  0.00     0.000 A 
ENDBRANCH  51  70
BRANCH  63  76
ATOM     76  C   UNL A   1      43.369  35.379  31.004  1.00  0.00    -0.014 A 
ATOM     77  C   UNL A   1      43.622  36.406  30.083  1.00  0.00     0.009 A 
ATOM     78  C   UNL A   1      43.384  35.674  32.376  1.00  0.00     0.009 A 
ATOM     79  C   UNL A   1      43.893  37.701  30.528  1.00  0.00     0.001 A 
ATOM     80  C   UNL A   1      43.632  36.975  32.818  1.00  0.00     0.001 A 
ATOM     81  C   UNL A   1      43.889  37.986  31.893  1.00  0.00     0.000 A 
ENDBRANCH  63  76
ENDBRANCH  37  38
ENDBRANCH  29  32
ENDBRANCH  27  28
ENDBRANCH   1  27
TORSDOF 13
ENDMDL
MODEL 2
REMARK VINA RESULT:     -11.2      2.507      3.754
REMARK SMILES Nc1c(N2CCCC2)ncnc1N1CCC(C(=O)NCCCNC(=O)c2ccc(-c3c4nc(c(-c5ccccc5)c5ccc([nH]5)c(-c5ccccc5)c5nc(c(-c6ccccc6)c6ccc3[nH]6)C=C5)C=C4)cc2)CC1
REMARK SMILES IDX 21 1 20 2 19 3 17 4 18 5 16 7 13 8 14 9 75 10 15 11 74 12
REMARK SMILES IDX 12 13 2 14 3 15 9 16 11 17 10 18 1 19 4 22 5 23 8 24 6 25
REMARK SMILES IDX 7 26 22 27 23 28 24 29 25 31 26 32 27 33 73 34 28 35 72 36
REMARK SMILES IDX 29 37 30 38 31 39 66 40 32 41 71 42 65 43 67 44 33 45 70 46
REMARK SMILES IDX 64 47 63 48 34 50 56 51 41 52 55 53 42 54 45 55 54 56 68 57
REMARK SMILES IDX 43 58 44 59 53 61 69 62 46 63 35 64 36 65 40 66 37 67 39 68
REMARK SMILES IDX 38 69 57 70 58 71 62 72 59 73 61 74 60 75 47 76 48 77 52 78
REMARK SMILES IDX 49 79 51 80 50 81
REMARK H PARENT 19 6 1 20 1 21 23 30 67 49 45 60
REMARK Flexibility Score: inf
ROOT
ATOM      1  C   UNL A   1      37.775  19.629  25.001  1.00  0.00     0.042 C 
ENDROOT
BRANCH   1   2
ATOM      2  C   UNL A   1      36.684  20.647  24.693  1.00  0.00     0.117 C 
BRANCH   2   3
ATOM      3  N   UNL A   1      35.666  20.697  25.737  1.00  0.00    -0.356 N 
ATOM      4  C   UNL A   1      34.381  21.145  25.720  1.00  0.00     0.223 C 
ATOM      5  O   UNL A   1      33.742  21.100  26.773  1.00  0.00    -0.275 OA
ATOM      6  H   UNL A   1      35.961  20.343  26.607  1.00  0.00     0.163 HD
BRANCH   4   7
ATOM      7  C   UNL A   1      33.735  21.671  24.448  1.00  0.00     0.082 C 
ATOM      8  N   UNL A   1      32.642  23.973  23.245  1.00  0.00    -0.355 N 
ATOM      9  C   UNL A   1      31.690  22.947  23.604  1.00  0.00     0.119 C 
ATOM     10  C   UNL A   1      33.943  23.568  22.746  1.00  0.00     0.119 C 
ATOM     11  C   UNL A   1      32.276  22.080  24.702  1.00  0.00     0.035 C 
ATOM     12  C   UNL A   1      34.647  22.720  23.792  1.00  0.00     0.035 C 
BRANCH   8  13
ATOM     13  C   UNL A   1      32.243  25.297  23.240  1.00  0.00     0.157 A 
ATOM     14  C   UNL A   1      32.575  26.158  24.295  1.00  0.00     0.118 A 
ATOM     15  C   UNL A   1      32.027  27.451  24.251  1.00  0.00     0.157 A 
ATOM     16  N   UNL A   1      31.226  27.853  23.250  1.00  0.00    -0.217 NA
ATOM     17  N   UNL A   1      31.509  25.715  22.192  1.00  0.00    -0.217 NA
ATOM     18  C   UNL A   1      31.028  26.965  22.266  1.00  0.00     0.226 A 
BRANCH  14  19
ATOM     19  N   UNL A   1      33.324  25.726  25.407  1.00  0.00    -0.393 N 
ATOM     20  H   UNL A   1      32.929  25.755  26.308  1.00  0.00     0.156 HD
ATOM     21  H   UNL A   1      34.243  25.394  25.282  1.00  0.00     0.156 HD
ENDBRANCH  14  19
BRANCH  15  22
ATOM     22  N   UNL A   1      32.318  28.334  25.271  1.00  0.00    -0.355 N 
ATOM     23  C   UNL A   1      32.960  29.606  25.008  1.00  0.00     0.118 C 
ATOM     24  C   UNL A   1      31.524  28.390  26.483  1.00  0.00     0.118 C 
ATOM     25  C   UNL A   1      33.343  30.017  26.423  1.00  0.00     0.023 C 
ATOM     26  C   UNL A   1      32.134  29.575  27.251  1.00  0.00     0.023 C 
ENDBRANCH  15  22
ENDBRANCH   8  13
ENDBRANCH   4   7
ENDBRANCH   2   3
ENDBRANCH   1   2
BRANCH   1  27
ATOM     27  C   UNL A   1      38.960  20.216  25.751  1.00  0.00     0.118 C 
BRANCH  27  28
ATOM     28  N   UNL A   1      40.081  19.292  25.835  1.00  0.00    -0.352 N 
ATOM     29  C   UNL A   1      41.403  19.532  26.116  1.00  0.00     0.251 C 
ATOM     30  H   UNL A   1      39.857  18.348  25.666  1.00  0.00     0.163 HD
ATOM     31  O   UNL A   1      42.239  18.648  25.946  1.00  0.00    -0.269 OA
BRANCH  29  32
ATOM     32  C   UNL A   1      41.832  20.862  26.596  1.00  0.00     0.039 A 
ATOM     33  C   UNL A   1      42.230  21.823  25.664  1.00  0.00     0.014 A 
ATOM     34  C   UNL A   1      41.854  21.159  27.962  1.00  0.00     0.014 A 
ATOM     35  C   UNL A   1      42.580  23.103  26.098  1.00  0.00     0.010 A 
ATOM     36  C   UNL A   1      42.113  22.459  28.385  1.00  0.00     0.010 A 
ATOM     37  C   UNL A   1      42.489  23.441  27.458  1.00  0.00    -0.014 A 
BRANCH  37  38
ATOM     38  C   UNL A   1      42.802  24.813  27.928  1.00  0.00     0.031 A 
ATOM     39  C   UNL A   1      44.231  25.233  28.132  1.00  0.00     0.074 A 
ATOM     40  C   UNL A   1      41.800  25.669  28.206  1.00  0.00     0.049 A 
ATOM     41  N   UNL A   1      44.699  26.385  28.541  1.00  0.00    -0.248 NA
ATOM     42  C   UNL A   1      45.269  24.225  27.861  1.00  0.00     0.031 C 
ATOM     43  C   UNL A   1      40.371  25.369  28.084  1.00  0.00     0.029 A 
ATOM     44  N   UNL A   1      41.830  26.971  28.638  1.00  0.00    -0.354 N 
ATOM     45  C   UNL A   1      46.079  26.236  28.582  1.00  0.00     0.074 A 
ATOM     46  C   UNL A   1      46.371  24.868  28.217  1.00  0.00     0.031 C 
ATOM     47  C   UNL A   1      39.665  26.471  28.386  1.00  0.00     0.029 A 
ATOM     48  C   UNL A   1      40.586  27.540  28.758  1.00  0.00     0.049 A 
ATOM     49  H   UNL A   1      42.665  27.450  28.844  1.00  0.00     0.167 HD
ATOM     50  C   UNL A   1      47.024  27.163  28.867  1.00  0.00     0.031 A 
ATOM     51  C   UNL A   1      40.226  28.787  29.117  1.00  0.00     0.031 A 
ATOM     52  C   UNL A   1      46.737  28.526  29.216  1.00  0.00     0.049 A 
ATOM     53  C   UNL A   1      41.291  29.790  29.461  1.00  0.00     0.074 A 
ATOM     54  C   UNL A   1      47.628  29.553  29.475  1.00  0.00     0.029 A 
ATOM     55  N   UNL A   1      45.464  29.052  29.356  1.00  0.00    -0.354 N 
ATOM     56  N   UNL A   1      42.594  29.649  29.437  1.00  0.00    -0.248 NA
ATOM     57  C   UNL A   1      40.836  31.125  29.876  1.00  0.00     0.031 C 
ATOM     58  C   UNL A   1      46.891  30.690  29.816  1.00  0.00     0.029 A 
ATOM     59  C   UNL A   1      45.543  30.384  29.722  1.00  0.00     0.049 A 
ATOM     60  H   UNL A   1      44.627  28.552  29.215  1.00  0.00     0.167 HD
ATOM     61  C   UNL A   1      43.115  30.878  29.817  1.00  0.00     0.074 A 
ATOM     62  C   UNL A   1      41.989  31.758  30.052  1.00  0.00     0.031 C 
ATOM     63  C   UNL A   1      44.411  31.243  29.958  1.00  0.00     0.031 A 
BRANCH  50  64
ATOM     64  C   UNL A   1      48.460  26.728  28.800  1.00  0.00    -0.014 A 
ATOM     65  C   UNL A   1      49.205  26.878  27.619  1.00  0.00     0.009 A 
ATOM     66  C   UNL A   1      49.088  26.197  29.936  1.00  0.00     0.009 A 
ATOM     67  C   UNL A   1      50.540  26.476  27.568  1.00  0.00     0.001 A 
ATOM     68  C   UNL A   1      50.432  25.820  29.891  1.00  0.00     0.001 A 
ATOM     69  C   UNL A   1      51.154  25.951  28.705  1.00  0.00     0.000 A 
ENDBRANCH  50  64
BRANCH  51  70
ATOM     70  C   UNL A   1      38.789  29.164  29.127  1.00  0.00    -0.014 A 
ATOM     71  C   UNL A   1      38.181  29.652  27.961  1.00  0.00     0.009 A 
ATOM     72  C   UNL A   1      38.014  29.011  30.287  1.00  0.00     0.009 A 
ATOM     73  C   UNL A   1      36.826  29.990  27.959  1.00  0.00     0.001 A 
ATOM     74  C   UNL A   1      36.653  29.328  30.275  1.00  0.00     0.001 A 
ATOM     75  C   UNL A   1      36.062  29.822  29.113  1.00  0.00     0.000 A 
ENDBRANCH  51  70
BRANCH  63  76
ATOM     76  C   UNL A   1      44.695  32.655  30.380  1.00  0.00    -0.014 A 
ATOM     77  C   UNL A   1      44.870  32.982  31.732  1.00  0.00     0.009 A 
ATOM     78  C   UNL A   1      44.881  33.650  29.406  1.00  0.00     0.009 A 
ATOM     79  C   UNL A   1      45.215  34.283  32.103  1.00  0.00     0.001 A 
ATOM     80  C   UNL A   1      45.250  34.943  29.779  1.00  0.00     0.001 A 
ATOM     81  C   UNL A   1      45.413  35.259  31.127  1.00  0.00     0.000 A 
ENDBRANCH  63  76
ENDBRANCH  37  38
ENDBRANCH  29  32
ENDBRANCH  27  28
ENDBRANCH   1  27
TORSDOF 13
ENDMDL
MODEL 3
REMARK VINA RESULT:     -11.2      3.339      8.578
REMARK SMILES Nc1c(N2CCCC2)ncnc1N1CCC(C(=O)NCCCNC(=O)c2ccc(-c3c4nc(c(-c5ccccc5)c5ccc([nH]5)c(-c5ccccc5)c5nc(c(-c6ccccc6)c6ccc3[nH]6)C=C5)C=C4)cc2)CC1
REMARK SMILES IDX 21 1 20 2 19 3 17 4 18 5 16 7 13 8 14 9 75 10 15 11 74 12
REMARK SMILES IDX 12 13 2 14 3 15 9 16 11 17 10 18 1 19 4 22 5 23 8 24 6 25
REMARK SMILES IDX 7 26 22 27 23 28 24 29 25 31 26 32 27 33 73 34 28 35 72 36
REMARK SMILES IDX 29 37 30 38 31 39 66 40 32 41 71 42 65 43 67 44 33 45 70 46
REMARK SMILES IDX 64 47 63 48 34 50 56 51 41 52 55 53 42 54 45 55 54 56 68 57
REMARK SMILES IDX 43 58 44 59 53 61 69 62 46 63 35 64 36 65 40 66 37 67 39 68
REMARK SMILES IDX 38 69 57 70 58 71 62 72 59 73 61 74 60 75 47 76 48 77 52 78
REMARK SMILES IDX 49 79 51 80 50 81
REMARK H PARENT 19 6 1 20 1 21 23 30 67 49 45 60
REMARK Flexibility Score: inf
ROOT
ATOM      1  C   UNL A   1      33.696  27.701  25.473  1.00  0.00     0.042 C 
ENDROOT
BRANCH   1   2
ATOM      2  C   UNL A   1      32.428  26.957  25.074  1.00  0.00     0.117 C 
BRANCH   2   3
ATOM      3  N   UNL A   1      31.705  27.634  24.003  1.00  0.00    -0.356 N 
ATOM      4  C   UNL A   1      31.201  27.172  22.825  1.00  0.00     0.223 C 
ATOM      5  O   UNL A   1      30.655  27.984  22.076  1.00  0.00    -0.275 OA
ATOM      6  H   UNL A   1      31.555  28.594  24.159  1.00  0.00     0.163 HD
BRANCH   4   7
ATOM      7  C   UNL A   1      31.287  25.704  22.441  1.00  0.00     0.082 C 
ATOM      8  N   UNL A   1      32.227  23.188  23.295  1.00  0.00    -0.355 N 
ATOM      9  C   UNL A   1      32.946  23.779  22.189  1.00  0.00     0.119 C 
ATOM     10  C   UNL A   1      30.789  23.372  23.365  1.00  0.00     0.119 C 
ATOM     11  C   UNL A   1      32.745  25.282  22.205  1.00  0.00     0.035 C 
ATOM     12  C   UNL A   1      30.469  24.856  23.428  1.00  0.00     0.035 C 
BRANCH   8  13
ATOM     13  C   UNL A   1      32.893  22.346  24.165  1.00  0.00     0.157 A 
ATOM     14  C   UNL A   1      32.878  20.956  23.982  1.00  0.00     0.118 A 
ATOM     15  C   UNL A   1      33.489  20.180  24.983  1.00  0.00     0.157 A 
ATOM     16  N   UNL A   1      34.066  20.735  26.062  1.00  0.00    -0.217 NA
ATOM     17  N   UNL A   1      33.538  22.915  25.200  1.00  0.00    -0.217 NA
ATOM     18  C   UNL A   1      34.073  22.075  26.099  1.00  0.00     0.226 A 
BRANCH  14  19
ATOM     19  N   UNL A   1      32.188  20.348  22.915  1.00  0.00    -0.393 N 
ATOM     20  H   UNL A   1      31.216  20.206  22.975  1.00  0.00     0.156 HD
ATOM     21  H   UNL A   1      32.679  20.065  22.110  1.00  0.00     0.156 HD
ENDBRANCH  14  19
BRANCH  15  22
ATOM     22  N   UNL A   1      33.494  18.807  24.853  1.00  0.00    -0.355 N 
ATOM     23  C   UNL A   1      34.672  18.095  24.405  1.00  0.00     0.118 C 
ATOM     24  C   UNL A   1      32.653  17.959  25.676  1.00  0.00     0.118 C 
ATOM     25  C   UNL A   1      34.073  16.724  24.123  1.00  0.00     0.023 C 
ATOM     26  C   UNL A   1      33.079  16.538  25.271  1.00  0.00     0.023 C 
ENDBRANCH  15  22
ENDBRANCH   8  13
ENDBRANCH   4   7
ENDBRANCH   2   3
ENDBRANCH   1   2
BRANCH   1  27
ATOM     27  C   UNL A   1      33.707  28.149  26.926  1.00  0.00     0.118 C 
BRANCH  27  28
ATOM     28  N   UNL A   1      33.540  29.588  27.068  1.00  0.00    -0.352 N 
ATOM     29  C   UNL A   1      34.353  30.514  27.673  1.00  0.00     0.251 C 
ATOM     30  H   UNL A   1      32.719  29.954  26.668  1.00  0.00     0.163 HD
ATOM     31  O   UNL A   1      33.947  31.657  27.865  1.00  0.00    -0.269 OA
BRANCH  29  32
ATOM     32  C   UNL A   1      35.709  30.134  28.121  1.00  0.00     0.039 A 
ATOM     33  C   UNL A   1      35.886  29.668  29.426  1.00  0.00     0.014 A 
ATOM     34  C   UNL A   1      36.807  30.247  27.263  1.00  0.00     0.014 A 
ATOM     35  C   UNL A   1      37.150  29.249  29.845  1.00  0.00     0.010 A 
ATOM     36  C   UNL A   1      38.044  29.744  27.650  1.00  0.00     0.010 A 
ATOM     37  C   UNL A   1      38.230  29.249  28.948  1.00  0.00    -0.014 A 
BRANCH  37  38
ATOM     38  C   UNL A   1      39.567  28.753  29.360  1.00  0.00     0.031 A 
ATOM     39  C   UNL A   1      40.424  29.571  30.285  1.00  0.00     0.074 A 
ATOM     40  C   UNL A   1      40.024  27.583  28.874  1.00  0.00     0.049 A 
ATOM     41  N   UNL A   1      41.618  29.306  30.750  1.00  0.00    -0.248 NA
ATOM     42  C   UNL A   1      39.880  30.865  30.729  1.00  0.00     0.031 C 
ATOM     43  C   UNL A   1      39.303  26.713  27.941  1.00  0.00     0.029 A 
ATOM     44  N   UNL A   1      41.201  26.916  29.106  1.00  0.00    -0.354 N 
ATOM     45  C   UNL A   1      41.968  30.399  31.532  1.00  0.00     0.074 A 
ATOM     46  C   UNL A   1      40.889  31.356  31.432  1.00  0.00     0.031 C 
ATOM     47  C   UNL A   1      40.032  25.607  27.720  1.00  0.00     0.029 A 
ATOM     48  C   UNL A   1      41.284  25.706  28.463  1.00  0.00     0.049 A 
ATOM     49  H   UNL A   1      41.918  27.274  29.679  1.00  0.00     0.167 HD
ATOM     50  C   UNL A   1      43.073  30.577  32.294  1.00  0.00     0.031 A 
ATOM     51  C   UNL A   1      42.256  24.773  28.479  1.00  0.00     0.031 A 
ATOM     52  C   UNL A   1      44.138  29.621  32.407  1.00  0.00     0.049 A 
ATOM     53  C   UNL A   1      43.488  25.008  29.306  1.00  0.00     0.074 A 
ATOM     54  C   UNL A   1      45.277  29.690  33.191  1.00  0.00     0.029 A 
ATOM     55  N   UNL A   1      44.197  28.422  31.716  1.00  0.00    -0.354 N 
ATOM     56  N   UNL A   1      43.775  26.021  30.086  1.00  0.00    -0.248 NA
ATOM     57  C   UNL A   1      44.528  23.970  29.256  1.00  0.00     0.031 C 
ATOM     58  C   UNL A   1      46.046  28.552  32.939  1.00  0.00     0.029 A 
ATOM     59  C   UNL A   1      45.365  27.752  32.035  1.00  0.00     0.049 A 
ATOM     60  H   UNL A   1      43.510  28.096  31.090  1.00  0.00     0.167 HD
ATOM     61  C   UNL A   1      45.018  25.735  30.634  1.00  0.00     0.074 A 
ATOM     62  C   UNL A   1      45.425  24.449  30.108  1.00  0.00     0.031 C 
ATOM     63  C   UNL A   1      45.756  26.475  31.497  1.00  0.00     0.031 A 
BRANCH  50  64
ATOM     64  C   UNL A   1      43.174  31.857  33.074  1.00  0.00    -0.014 A 
ATOM     65  C   UNL A   1      42.609  31.967  34.355  1.00  0.00     0.009 A 
ATOM     66  C   UNL A   1      43.871  32.951  32.543  1.00  0.00     0.009 A 
ATOM     67  C   UNL A   1      42.712  33.158  35.074  1.00  0.00     0.001 A 
ATOM     68  C   UNL A   1      43.997  34.134  33.276  1.00  0.00     0.001 A 
ATOM     69  C   UNL A   1      43.410  34.239  34.536  1.00  0.00     0.000 A 
ENDBRANCH  50  64
BRANCH  51  70
ATOM     70  C   UNL A   1      42.078  23.512  27.714  1.00  0.00    -0.014 A 
ATOM     71  C   UNL A   1      41.423  22.420  28.301  1.00  0.00     0.009 A 
ATOM     72  C   UNL A   1      42.530  23.404  26.390  1.00  0.00     0.009 A 
ATOM     73  C   UNL A   1      41.234  21.238  27.580  1.00  0.00     0.001 A 
ATOM     74  C   UNL A   1      42.320  22.229  25.664  1.00  0.00     0.001 A 
ATOM     75  C   UNL A   1      41.677  21.146  26.262  1.00  0.00     0.000 A 
ENDBRANCH  51  70
BRANCH  63  76
ATOM     76  C   UNL A   1      47.077  25.917  31.938  1.00  0.00    -0.014 A 
ATOM     77  C   UNL A   1      48.242  26.147  31.192  1.00  0.00     0.009 A 
ATOM     78  C   UNL A   1      47.173  25.234  33.161  1.00  0.00     0.009 A 
ATOM     79  C   UNL A   1      49.478  25.694  31.658  1.00  0.00     0.001 A 
ATOM     80  C   UNL A   1      48.413  24.803  33.636  1.00  0.00     0.001 A 
ATOM     81  C   UNL A   1      49.563  25.031  32.881  1.00  0.00     0.000 A 
ENDBRANCH  63  76
ENDBRANCH  37  38
ENDBRANCH  29  32
ENDBRANCH  27  28
ENDBRANCH   1  27
TORSDOF 13
ENDMDL
