MODEL 1
REMARK VINA RESULT:     -10.3      0.000      0.000
REMARK SMILES CCNC(=S)N/N=C\c1ccc(-c2ccc(C(=O)NCCCNC(=O)c3ccc(-c4c5nc(c(-c6ccccc6)c6ccc([nH]6)c(-c6ccccc6)c6nc(c(-c7ccccc7)c7ccc4[nH]7)C=C6)C=C5)cc3)c(Cl)c2)o1
REMARK SMILES IDX 17 1 18 2 19 3 16 5 13 6 14 7 76 8 15 9 74 10 75 11 12 12
REMARK SMILES IDX 9 13 10 14 77 15 11 16 8 17 7 18 6 19 4 21 5 22 3 23 2 25
REMARK SMILES IDX 1 26 20 27 21 28 22 29 23 30 24 31 25 33 26 34 27 35 73 36
REMARK SMILES IDX 28 37 72 38 29 39 30 40 31 41 66 42 32 43 71 44 65 45 67 46
REMARK SMILES IDX 33 47 70 48 64 49 63 50 34 52 56 53 41 54 55 55 42 56 45 57
REMARK SMILES IDX 54 58 68 59 43 60 44 61 53 63 69 64 46 65 35 66 36 67 40 68
REMARK SMILES IDX 37 69 39 70 38 71 57 72 58 73 62 74 59 75 61 76 60 77 47 78
REMARK SMILES IDX 48 79 52 80 49 81 51 82 50 83
REMARK H PARENT 19 4 6 20 3 24 23 32 67 51 45 62
REMARK Flexibility Score: inf
ROOT
ATOM      1  C   UNL A   1      32.696  21.079  25.493  1.00  0.00     0.252 C 
ATOM      2  O   UNL A   1      32.255  19.928  25.376  1.00  0.00    -0.269 OA
ATOM      3  N   UNL A   1      33.919  21.153  26.095  1.00  0.00    -0.352 N 
ATOM      4  H   UNL A   1      34.270  20.265  26.332  1.00  0.00     0.163 HD
ENDROOT
BRANCH   1   5
ATOM      5  C   UNL A   1      31.871  22.185  24.914  1.00  0.00     0.058 A 
ATOM      6  C   UNL A   1      30.494  24.597  24.273  1.00  0.00     0.019 A 
ATOM      7  C   UNL A   1      30.609  24.206  25.596  1.00  0.00     0.013 A 
ATOM      8  C   UNL A   1      31.027  23.775  23.279  1.00  0.00     0.033 A 
ATOM      9  C   UNL A   1      31.276  23.011  25.905  1.00  0.00     0.016 A 
ATOM     10  C   UNL A   1      31.735  22.599  23.584  1.00  0.00     0.054 A 
ATOM     11  Cl  UNL A   1      32.485  21.900  22.206  1.00  0.00    -0.083 Cl
BRANCH   6  12
ATOM     12  C   UNL A   1      29.923  25.869  23.886  1.00  0.00     0.134 A 
ATOM     13  C   UNL A   1      30.059  28.043  23.690  1.00  0.00     0.147 A 
ATOM     14  C   UNL A   1      28.715  27.732  23.642  1.00  0.00     0.053 A 
ATOM     15  O   UNL A   1      30.802  26.899  23.768  1.00  0.00    -0.455 OA
ATOM     16  C   UNL A   1      28.629  26.323  23.757  1.00  0.00     0.051 A 
BRANCH  13  17
ATOM     17  C   UNL A   1      30.764  29.290  23.763  1.00  0.00     0.180 C 
ATOM     18  N   UNL A   1      31.420  29.765  24.786  1.00  0.00    -0.178 NA
BRANCH  18  19
ATOM     19  N   UNL A   1      31.544  28.991  25.905  1.00  0.00    -0.254 N 
ATOM     20  H   UNL A   1      30.746  28.948  26.480  1.00  0.00     0.193 HD
BRANCH  19  21
ATOM     21  C   UNL A   1      32.613  28.273  26.336  1.00  0.00     0.186 C 
ATOM     22  S   UNL A   1      33.847  29.067  27.144  1.00  0.00    -0.039 S 
BRANCH  21  23
ATOM     23  N   UNL A   1      32.755  26.948  26.118  1.00  0.00    -0.362 N 
ATOM     24  H   UNL A   1      31.938  26.414  26.247  1.00  0.00     0.162 HD
BRANCH  23  25
ATOM     25  C   UNL A   1      33.931  26.189  25.721  1.00  0.00     0.112 C 
ATOM     26  C   UNL A   1      33.986  26.015  24.213  1.00  0.00     0.027 C 
ENDBRANCH  23  25
ENDBRANCH  21  23
ENDBRANCH  19  21
ENDBRANCH  18  19
ENDBRANCH  13  17
ENDBRANCH   6  12
ENDBRANCH   1   5
BRANCH   3  27
ATOM     27  C   UNL A   1      34.831  22.217  26.469  1.00  0.00     0.118 C 
BRANCH  27  28
ATOM     28  C   UNL A   1      35.360  22.940  25.225  1.00  0.00     0.042 C 
BRANCH  28  29
ATOM     29  C   UNL A   1      36.733  23.585  25.394  1.00  0.00     0.118 C 
BRANCH  29  30
ATOM     30  N   UNL A   1      37.775  22.605  25.651  1.00  0.00    -0.352 N 
ATOM     31  C   UNL A   1      39.034  22.769  26.170  1.00  0.00     0.251 C 
ATOM     32  H   UNL A   1      37.541  21.678  25.415  1.00  0.00     0.163 HD
ATOM     33  O   UNL A   1      39.838  21.836  26.101  1.00  0.00    -0.269 OA
BRANCH  31  34
ATOM     34  C   UNL A   1      39.452  24.040  26.803  1.00  0.00     0.039 A 
ATOM     35  C   UNL A   1      40.174  24.965  26.040  1.00  0.00     0.014 A 
ATOM     36  C   UNL A   1      39.200  24.307  28.152  1.00  0.00     0.014 A 
ATOM     37  C   UNL A   1      40.595  26.171  26.611  1.00  0.00     0.010 A 
ATOM     38  C   UNL A   1      39.558  25.538  28.702  1.00  0.00     0.010 A 
ATOM     39  C   UNL A   1      40.266  26.480  27.940  1.00  0.00    -0.014 A 
BRANCH  39  40
ATOM     40  C   UNL A   1      40.655  27.779  28.549  1.00  0.00     0.031 A 
ATOM     41  C   UNL A   1      42.054  27.991  29.061  1.00  0.00     0.074 A 
ATOM     42  C   UNL A   1      39.731  28.747  28.701  1.00  0.00     0.049 A 
ATOM     43  N   UNL A   1      42.557  29.027  29.685  1.00  0.00    -0.248 NA
ATOM     44  C   UNL A   1      43.006  26.886  28.868  1.00  0.00     0.031 C 
ATOM     45  C   UNL A   1      38.331  28.656  28.280  1.00  0.00     0.029 A 
ATOM     46  N   UNL A   1      39.828  29.996  29.262  1.00  0.00    -0.354 N 
ATOM     47  C   UNL A   1      43.873  28.689  29.979  1.00  0.00     0.074 A 
ATOM     48  C   UNL A   1      44.078  27.339  29.502  1.00  0.00     0.031 C 
ATOM     49  C   UNL A   1      37.707  29.808  28.577  1.00  0.00     0.029 A 
ATOM     50  C   UNL A   1      38.648  30.701  29.245  1.00  0.00     0.049 A 
ATOM     51  H   UNL A   1      40.664  30.353  29.640  1.00  0.00     0.167 HD
ATOM     52  C   UNL A   1      44.830  29.440  30.578  1.00  0.00     0.031 A 
ATOM     53  C   UNL A   1      38.353  31.924  29.722  1.00  0.00     0.031 A 
ATOM     54  C   UNL A   1      44.630  30.788  31.040  1.00  0.00     0.049 A 
ATOM     55  C   UNL A   1      39.429  32.735  30.389  1.00  0.00     0.074 A 
ATOM     56  C   UNL A   1      45.554  31.650  31.605  1.00  0.00     0.029 A 
ATOM     57  N   UNL A   1      43.424  31.468  30.991  1.00  0.00    -0.354 N 
ATOM     58  N   UNL A   1      40.684  32.424  30.600  1.00  0.00    -0.248 NA
ATOM     59  C   UNL A   1      39.049  34.071  30.870  1.00  0.00     0.031 C 
ATOM     60  C   UNL A   1      44.894  32.837  31.943  1.00  0.00     0.029 A 
ATOM     61  C   UNL A   1      43.573  32.732  31.537  1.00  0.00     0.049 A 
ATOM     62  H   UNL A   1      42.585  31.107  30.623  1.00  0.00     0.167 HD
ATOM     63  C   UNL A   1      41.250  33.535  31.214  1.00  0.00     0.074 A 
ATOM     64  C   UNL A   1      40.205  34.531  31.326  1.00  0.00     0.031 C 
ATOM     65  C   UNL A   1      42.524  33.713  31.642  1.00  0.00     0.031 A 
BRANCH  52  66
ATOM     66  C   UNL A   1      46.181  28.809  30.776  1.00  0.00    -0.014 A 
ATOM     67  C   UNL A   1      47.188  28.923  29.805  1.00  0.00     0.009 A 
ATOM     68  C   UNL A   1      46.462  28.120  31.966  1.00  0.00     0.009 A 
ATOM     69  C   UNL A   1      48.434  28.325  30.003  1.00  0.00     0.001 A 
ATOM     70  C   UNL A   1      47.719  27.549  32.175  1.00  0.00     0.001 A 
ATOM     71  C   UNL A   1      48.700  27.643  31.189  1.00  0.00     0.000 A 
ENDBRANCH  52  66
BRANCH  53  72
ATOM     72  C   UNL A   1      36.977  32.467  29.573  1.00  0.00    -0.014 A 
ATOM     73  C   UNL A   1      36.020  32.261  30.577  1.00  0.00     0.009 A 
ATOM     74  C   UNL A   1      36.616  33.196  28.429  1.00  0.00     0.009 A 
ATOM     75  C   UNL A   1      34.720  32.752  30.428  1.00  0.00     0.001 A 
ATOM     76  C   UNL A   1      35.325  33.711  28.295  1.00  0.00     0.001 A 
ATOM     77  C   UNL A   1      34.375  33.480  29.290  1.00  0.00     0.000 A 
ENDBRANCH  53  72
BRANCH  65  78
ATOM     78  C   UNL A   1      42.868  35.048  32.238  1.00  0.00    -0.014 A 
ATOM     79  C   UNL A   1      43.462  36.061  31.470  1.00  0.00     0.009 A 
ATOM     80  C   UNL A   1      42.550  35.310  33.581  1.00  0.00     0.009 A 
ATOM     81  C   UNL A   1      43.761  37.298  32.043  1.00  0.00     0.001 A 
ATOM     82  C   UNL A   1      42.824  36.557  34.143  1.00  0.00     0.001 A 
ATOM     83  C   UNL A   1      43.437  37.547  33.377  1.00  0.00     0.000 A 
ENDBRANCH  65  78
ENDBRANCH  39  40
ENDBRANCH  31  34
ENDBRANCH  29  30
ENDBRANCH  28  29
ENDBRANCH  27  28
ENDBRANCH   3  27
TORSDOF 16
ENDMDL
MODEL 2
REMARK VINA RESULT:     -10.2      2.708      7.833
REMARK SMILES CCNC(=S)N/N=C\c1ccc(-c2ccc(C(=O)NCCCNC(=O)c3ccc(-c4c5nc(c(-c6ccccc6)c6ccc([nH]6)c(-c6ccccc6)c6nc(c(-c7ccccc7)c7ccc4[nH]7)C=C6)C=C5)cc3)c(Cl)c2)o1
REMARK SMILES IDX 17 1 18 2 19 3 16 5 13 6 14 7 76 8 15 9 74 10 75 11 12 12
REMARK SMILES IDX 9 13 10 14 77 15 11 16 8 17 7 18 6 19 4 21 5 22 3 23 2 25
REMARK SMILES IDX 1 26 20 27 21 28 22 29 23 30 24 31 25 33 26 34 27 35 73 36
REMARK SMILES IDX 28 37 72 38 29 39 30 40 31 41 66 42 32 43 71 44 65 45 67 46
REMARK SMILES IDX 33 47 70 48 64 49 63 50 34 52 56 53 41 54 55 55 42 56 45 57
REMARK SMILES IDX 54 58 68 59 43 60 44 61 53 63 69 64 46 65 35 66 36 67 40 68
REMARK SMILES IDX 37 69 39 70 38 71 57 72 58 73 62 74 59 75 61 76 60 77 47 78
REMARK SMILES IDX 48 79 52 80 49 81 51 82 50 83
REMARK H PARENT 19 4 6 20 3 24 23 32 67 51 45 62
REMARK Flexibility Score: inf
ROOT
ATOM      1  C   UNL A   1      30.405  29.410  23.595  1.00  0.00     0.252 C 
ATOM      2  O   UNL A   1      29.589  29.775  22.739  1.00  0.00    -0.269 OA
ATOM      3  N   UNL A   1      30.638  30.330  24.577  1.00  0.00    -0.352 N 
ATOM      4  H   UNL A   1      30.101  31.145  24.455  1.00  0.00     0.163 HD
ENDROOT
BRANCH   1   5
ATOM      5  C   UNL A   1      30.954  28.024  23.465  1.00  0.00     0.058 A 
ATOM      6  C   UNL A   1      32.456  25.601  23.515  1.00  0.00     0.019 A 
ATOM      7  C   UNL A   1      33.111  26.810  23.353  1.00  0.00     0.013 A 
ATOM      8  C   UNL A   1      31.063  25.599  23.613  1.00  0.00     0.033 A 
ATOM      9  C   UNL A   1      32.366  27.998  23.316  1.00  0.00     0.016 A 
ATOM     10  C   UNL A   1      30.314  26.790  23.620  1.00  0.00     0.054 A 
ATOM     11  Cl  UNL A   1      28.657  26.527  23.987  1.00  0.00    -0.083 Cl
BRANCH   6  12
ATOM     12  C   UNL A   1      33.162  24.349  23.678  1.00  0.00     0.134 A 
ATOM     13  C   UNL A   1      34.055  22.812  24.952  1.00  0.00     0.147 A 
ATOM     14  C   UNL A   1      34.617  22.656  23.701  1.00  0.00     0.053 A 
ATOM     15  O   UNL A   1      33.114  23.802  24.921  1.00  0.00    -0.455 OA
ATOM     16  C   UNL A   1      34.030  23.643  22.874  1.00  0.00     0.051 A 
BRANCH  13  17
ATOM     17  C   UNL A   1      34.339  22.216  26.225  1.00  0.00     0.180 C 
ATOM     18  N   UNL A   1      33.709  21.221  26.788  1.00  0.00    -0.178 NA
BRANCH  18  19
ATOM     19  N   UNL A   1      32.712  20.598  26.094  1.00  0.00    -0.254 N 
ATOM     20  H   UNL A   1      31.853  21.078  26.063  1.00  0.00     0.193 HD
BRANCH  19  21
ATOM     21  C   UNL A   1      32.738  19.406  25.441  1.00  0.00     0.186 C 
ATOM     22  S   UNL A   1      32.499  19.388  23.784  1.00  0.00    -0.039 S 
BRANCH  21  23
ATOM     23  N   UNL A   1      32.914  18.221  26.065  1.00  0.00    -0.362 N 
ATOM     24  H   UNL A   1      32.809  18.245  27.043  1.00  0.00     0.162 HD
BRANCH  23  25
ATOM     25  C   UNL A   1      33.232  16.915  25.510  1.00  0.00     0.112 C 
ATOM     26  C   UNL A   1      32.207  15.877  25.933  1.00  0.00     0.027 C 
ENDBRANCH  23  25
ENDBRANCH  21  23
ENDBRANCH  19  21
ENDBRANCH  18  19
ENDBRANCH  13  17
ENDBRANCH   6  12
ENDBRANCH   1   5
BRANCH   3  27
ATOM     27  C   UNL A   1      31.479  30.402  25.756  1.00  0.00     0.118 C 
BRANCH  27  28
ATOM     28  C   UNL A   1      31.321  31.759  26.452  1.00  0.00     0.042 C 
BRANCH  28  29
ATOM     29  C   UNL A   1      32.585  32.281  27.131  1.00  0.00     0.118 C 
BRANCH  29  30
ATOM     30  N   UNL A   1      32.432  33.646  27.606  1.00  0.00    -0.352 N 
ATOM     31  C   UNL A   1      33.178  34.355  28.512  1.00  0.00     0.251 C 
ATOM     32  H   UNL A   1      31.674  34.140  27.217  1.00  0.00     0.163 HD
ATOM     33  O   UNL A   1      32.746  35.429  28.936  1.00  0.00    -0.269 OA
BRANCH  31  34
ATOM     34  C   UNL A   1      34.485  33.857  28.999  1.00  0.00     0.039 A 
ATOM     35  C   UNL A   1      34.513  33.054  30.145  1.00  0.00     0.014 A 
ATOM     36  C   UNL A   1      35.685  34.221  28.383  1.00  0.00     0.014 A 
ATOM     37  C   UNL A   1      35.732  32.577  30.639  1.00  0.00     0.010 A 
ATOM     38  C   UNL A   1      36.894  33.688  28.834  1.00  0.00     0.010 A 
ATOM     39  C   UNL A   1      36.931  32.867  29.971  1.00  0.00    -0.014 A 
BRANCH  39  40
ATOM     40  C   UNL A   1      38.230  32.324  30.446  1.00  0.00     0.031 A 
ATOM     41  C   UNL A   1      38.782  31.050  29.865  1.00  0.00     0.074 A 
ATOM     42  C   UNL A   1      38.885  32.944  31.447  1.00  0.00     0.049 A 
ATOM     43  N   UNL A   1      39.861  30.387  30.202  1.00  0.00    -0.248 NA
ATOM     44  C   UNL A   1      38.008  30.425  28.781  1.00  0.00     0.031 C 
ATOM     45  C   UNL A   1      38.443  34.167  32.121  1.00  0.00     0.029 A 
ATOM     46  N   UNL A   1      40.060  32.623  32.081  1.00  0.00    -0.354 N 
ATOM     47  C   UNL A   1      39.881  29.260  29.389  1.00  0.00     0.074 A 
ATOM     48  C   UNL A   1      38.687  29.307  28.574  1.00  0.00     0.031 C 
ATOM     49  C   UNL A   1      39.345  34.504  33.056  1.00  0.00     0.029 A 
ATOM     50  C   UNL A   1      40.406  33.502  33.078  1.00  0.00     0.049 A 
ATOM     51  H   UNL A   1      40.604  31.837  31.842  1.00  0.00     0.167 HD
ATOM     52  C   UNL A   1      40.816  28.281  29.317  1.00  0.00     0.031 A 
ATOM     53  C   UNL A   1      41.453  33.499  33.924  1.00  0.00     0.031 A 
ATOM     54  C   UNL A   1      42.011  28.241  30.118  1.00  0.00     0.049 A 
ATOM     55  C   UNL A   1      42.473  32.399  33.829  1.00  0.00     0.074 A 
ATOM     56  C   UNL A   1      43.046  27.324  30.077  1.00  0.00     0.029 A 
ATOM     57  N   UNL A   1      42.328  29.159  31.107  1.00  0.00    -0.354 N 
ATOM     58  N   UNL A   1      42.509  31.375  33.012  1.00  0.00    -0.248 NA
ATOM     59  C   UNL A   1      43.604  32.463  34.766  1.00  0.00     0.031 C 
ATOM     60  C   UNL A   1      43.968  27.659  31.075  1.00  0.00     0.029 A 
ATOM     61  C   UNL A   1      43.533  28.817  31.699  1.00  0.00     0.049 A 
ATOM     62  H   UNL A   1      41.779  29.938  31.353  1.00  0.00     0.167 HD
ATOM     63  C   UNL A   1      43.678  30.689  33.317  1.00  0.00     0.074 A 
ATOM     64  C   UNL A   1      44.329  31.422  34.384  1.00  0.00     0.031 C 
ATOM     65  C   UNL A   1      44.168  29.555  32.759  1.00  0.00     0.031 A 
BRANCH  52  66
ATOM     66  C   UNL A   1      40.574  27.163  28.340  1.00  0.00    -0.014 A 
ATOM     67  C   UNL A   1      41.055  27.230  27.023  1.00  0.00     0.009 A 
ATOM     68  C   UNL A   1      39.885  26.012  28.753  1.00  0.00     0.009 A 
ATOM     69  C   UNL A   1      40.815  26.186  26.127  1.00  0.00     0.001 A 
ATOM     70  C   UNL A   1      39.672  24.956  27.864  1.00  0.00     0.001 A 
ATOM     71  C   UNL A   1      40.128  25.049  26.549  1.00  0.00     0.000 A 
ENDBRANCH  52  66
BRANCH  53  72
ATOM     72  C   UNL A   1      41.600  34.585  34.928  1.00  0.00    -0.014 A 
ATOM     73  C   UNL A   1      42.221  35.794  34.580  1.00  0.00     0.009 A 
ATOM     74  C   UNL A   1      41.119  34.421  36.236  1.00  0.00     0.009 A 
ATOM     75  C   UNL A   1      42.379  36.807  35.529  1.00  0.00     0.001 A 
ATOM     76  C   UNL A   1      41.252  35.446  37.175  1.00  0.00     0.001 A 
ATOM     77  C   UNL A   1      41.891  36.634  36.824  1.00  0.00     0.000 A 
ENDBRANCH  53  72
BRANCH  65  78
ATOM     78  C   UNL A   1      45.492  29.057  33.267  1.00  0.00    -0.014 A 
ATOM     79  C   UNL A   1      45.569  28.130  34.318  1.00  0.00     0.009 A 
ATOM     80  C   UNL A   1      46.678  29.492  32.654  1.00  0.00     0.009 A 
ATOM     81  C   UNL A   1      46.810  27.673  34.764  1.00  0.00     0.001 A 
ATOM     82  C   UNL A   1      47.914  29.012  33.084  1.00  0.00     0.001 A 
ATOM     83  C   UNL A   1      47.980  28.110  34.145  1.00  0.00     0.000 A 
ENDBRANCH  65  78
ENDBRANCH  39  40
ENDBRANCH  31  34
ENDBRANCH  29  30
ENDBRANCH  28  29
ENDBRANCH  27  28
ENDBRANCH   3  27
TORSDOF 16
ENDMDL
MODEL 3
REMARK VINA RESULT:     -10.2      0.475      5.881
REMARK SMILES CCNC(=S)N/N=C\c1ccc(-c2ccc(C(=O)NCCCNC(=O)c3ccc(-c4c5nc(c(-c6ccccc6)c6ccc([nH]6)c(-c6ccccc6)c6nc(c(-c7ccccc7)c7ccc4[nH]7)C=C6)C=C5)cc3)c(Cl)c2)o1
REMARK SMILES IDX 17 1 18 2 19 3 16 5 13 6 14 7 76 8 15 9 74 10 75 11 12 12
REMARK SMILES IDX 9 13 10 14 77 15 11 16 8 17 7 18 6 19 4 21 5 22 3 23 2 25
REMARK SMILES IDX 1 26 20 27 21 28 22 29 23 30 24 31 25 33 26 34 27 35 73 36
REMARK SMILES IDX 28 37 72 38 29 39 30 40 31 41 66 42 32 43 71 44 65 45 67 46
REMARK SMILES IDX 33 47 70 48 64 49 63 50 34 52 56 53 41 54 55 55 42 56 45 57
REMARK SMILES IDX 54 58 68 59 43 60 44 61 53 63 69 64 46 65 35 66 36 67 40 68
REMARK SMILES IDX 37 69 39 70 38 71 57 72 58 73 62 74 59 75 61 76 60 77 47 78
REMARK SMILES IDX 48 79 52 80 49 81 51 82 50 83
REMARK H PARENT 19 4 6 20 3 24 23 32 67 51 45 62
REMARK Flexibility Score: inf
ROOT
ATOM      1  C   UNL A   1      32.785  21.112  25.623  1.00  0.00     0.252 C 
ATOM      2  O   UNL A   1      32.343  19.959  25.551  1.00  0.00    -0.269 OA
ATOM      3  N   UNL A   1      34.023  21.205  26.191  1.00  0.00    -0.352 N 
ATOM      4  H   UNL A   1      34.380  20.324  26.446  1.00  0.00     0.163 HD
ENDROOT
BRANCH   1   5
ATOM      5  C   UNL A   1      31.946  22.201  25.031  1.00  0.00     0.058 A 
ATOM      6  C   UNL A   1      30.546  24.591  24.357  1.00  0.00     0.019 A 
ATOM      7  C   UNL A   1      30.684  24.230  25.687  1.00  0.00     0.013 A 
ATOM      8  C   UNL A   1      31.068  23.750  23.374  1.00  0.00     0.033 A 
ATOM      9  C   UNL A   1      31.362  23.047  26.012  1.00  0.00     0.016 A 
ATOM     10  C   UNL A   1      31.787  22.584  23.695  1.00  0.00     0.054 A 
ATOM     11  Cl  UNL A   1      32.519  21.858  22.322  1.00  0.00    -0.083 Cl
BRANCH   6  12
ATOM     12  C   UNL A   1      29.963  25.851  23.950  1.00  0.00     0.134 A 
ATOM     13  C   UNL A   1      30.066  28.026  23.744  1.00  0.00     0.147 A 
ATOM     14  C   UNL A   1      28.729  27.691  23.669  1.00  0.00     0.053 A 
ATOM     15  O   UNL A   1      30.826  26.895  23.846  1.00  0.00    -0.455 OA
ATOM     16  C   UNL A   1      28.664  26.282  23.789  1.00  0.00     0.051 A 
BRANCH  13  17
ATOM     17  C   UNL A   1      30.748  29.285  23.826  1.00  0.00     0.180 C 
ATOM     18  N   UNL A   1      31.398  29.764  24.851  1.00  0.00    -0.178 NA
BRANCH  18  19
ATOM     19  N   UNL A   1      31.539  28.984  25.964  1.00  0.00    -0.254 N 
ATOM     20  H   UNL A   1      30.743  28.920  26.539  1.00  0.00     0.193 HD
BRANCH  19  21
ATOM     21  C   UNL A   1      32.623  28.284  26.388  1.00  0.00     0.186 C 
ATOM     22  S   UNL A   1      33.879  29.109  27.126  1.00  0.00    -0.039 S 
BRANCH  21  23
ATOM     23  N   UNL A   1      32.762  26.952  26.215  1.00  0.00    -0.362 N 
ATOM     24  H   UNL A   1      31.957  26.420  26.412  1.00  0.00     0.162 HD
BRANCH  23  25
ATOM     25  C   UNL A   1      33.918  26.183  25.780  1.00  0.00     0.112 C 
ATOM     26  C   UNL A   1      33.937  26.032  24.269  1.00  0.00     0.027 C 
ENDBRANCH  23  25
ENDBRANCH  21  23
ENDBRANCH  19  21
ENDBRANCH  18  19
ENDBRANCH  13  17
ENDBRANCH   6  12
ENDBRANCH   1   5
BRANCH   3  27
ATOM     27  C   UNL A   1      34.943  22.279  26.510  1.00  0.00     0.118 C 
BRANCH  27  28
ATOM     28  C   UNL A   1      35.458  22.950  25.231  1.00  0.00     0.042 C 
BRANCH  28  29
ATOM     29  C   UNL A   1      36.849  23.566  25.346  1.00  0.00     0.118 C 
BRANCH  29  30
ATOM     30  N   UNL A   1      37.871  22.573  25.632  1.00  0.00    -0.352 N 
ATOM     31  C   UNL A   1      39.124  22.722  26.169  1.00  0.00     0.251 C 
ATOM     32  H   UNL A   1      37.626  21.646  25.404  1.00  0.00     0.163 HD
ATOM     33  O   UNL A   1      39.913  21.776  26.125  1.00  0.00    -0.269 OA
BRANCH  31  34
ATOM     34  C   UNL A   1      39.553  23.995  26.793  1.00  0.00     0.039 A 
ATOM     35  C   UNL A   1      40.321  24.888  26.037  1.00  0.00     0.014 A 
ATOM     36  C   UNL A   1      39.265  24.292  28.128  1.00  0.00     0.014 A 
ATOM     37  C   UNL A   1      40.753  26.094  26.600  1.00  0.00     0.010 A 
ATOM     38  C   UNL A   1      39.636  25.525  28.667  1.00  0.00     0.010 A 
ATOM     39  C   UNL A   1      40.390  26.436  27.912  1.00  0.00    -0.014 A 
BRANCH  39  40
ATOM     40  C   UNL A   1      40.791  27.735  28.510  1.00  0.00     0.031 A 
ATOM     41  C   UNL A   1      39.772  28.822  28.725  1.00  0.00     0.074 A 
ATOM     42  C   UNL A   1      42.086  27.964  28.802  1.00  0.00     0.049 A 
ATOM     43  N   UNL A   1      39.946  30.042  29.167  1.00  0.00    -0.248 NA
ATOM     44  C   UNL A   1      38.378  28.503  28.376  1.00  0.00     0.031 C 
ATOM     45  C   UNL A   1      43.180  27.008  28.609  1.00  0.00     0.029 A 
ATOM     46  N   UNL A   1      42.705  29.077  29.313  1.00  0.00    -0.354 N 
ATOM     47  C   UNL A   1      38.693  30.642  29.126  1.00  0.00     0.074 A 
ATOM     48  C   UNL A   1      37.777  29.666  28.578  1.00  0.00     0.031 C 
ATOM     49  C   UNL A   1      44.329  27.569  29.018  1.00  0.00     0.029 A 
ATOM     50  C   UNL A   1      44.064  28.933  29.461  1.00  0.00     0.049 A 
ATOM     51  H   UNL A   1      42.221  29.901  29.551  1.00  0.00     0.167 HD
ATOM     52  C   UNL A   1      38.333  31.887  29.522  1.00  0.00     0.031 A 
ATOM     53  C   UNL A   1      44.994  29.804  29.895  1.00  0.00     0.031 A 
ATOM     54  C   UNL A   1      39.241  32.854  30.080  1.00  0.00     0.049 A 
ATOM     55  C   UNL A   1      44.572  31.181  30.323  1.00  0.00     0.074 A 
ATOM     56  C   UNL A   1      38.961  34.120  30.565  1.00  0.00     0.029 A 
ATOM     57  N   UNL A   1      40.606  32.662  30.225  1.00  0.00    -0.354 N 
ATOM     58  N   UNL A   1      43.372  31.709  30.337  1.00  0.00    -0.248 NA
ATOM     59  C   UNL A   1      45.631  32.078  30.806  1.00  0.00     0.031 C 
ATOM     60  C   UNL A   1      40.165  34.713  30.959  1.00  0.00     0.029 A 
ATOM     61  C   UNL A   1      41.186  33.795  30.771  1.00  0.00     0.049 A 
ATOM     62  H   UNL A   1      41.091  31.842  29.976  1.00  0.00     0.167 HD
ATOM     63  C   UNL A   1      43.528  32.989  30.855  1.00  0.00     0.074 A 
ATOM     64  C   UNL A   1      44.936  33.151  31.156  1.00  0.00     0.031 C 
ATOM     65  C   UNL A   1      42.587  33.941  31.066  1.00  0.00     0.031 A 
BRANCH  52  66
ATOM     66  C   UNL A   1      36.890  32.277  29.354  1.00  0.00    -0.014 A 
ATOM     67  C   UNL A   1      35.964  32.113  30.396  1.00  0.00     0.009 A 
ATOM     68  C   UNL A   1      36.457  32.849  28.147  1.00  0.00     0.009 A 
ATOM     69  C   UNL A   1      34.627  32.474  30.220  1.00  0.00     0.001 A 
ATOM     70  C   UNL A   1      35.125  33.237  27.983  1.00  0.00     0.001 A 
ATOM     71  C   UNL A   1      34.210  33.039  29.016  1.00  0.00     0.000 A 
ENDBRANCH  52  66
BRANCH  53  72
ATOM     72  C   UNL A   1      46.421  29.393  29.964  1.00  0.00    -0.014 A 
ATOM     73  C   UNL A   1      47.270  29.589  28.864  1.00  0.00     0.009 A 
ATOM     74  C   UNL A   1      46.942  28.807  31.128  1.00  0.00     0.009 A 
ATOM     75  C   UNL A   1      48.605  29.183  28.919  1.00  0.00     0.001 A 
ATOM     76  C   UNL A   1      48.285  28.428  31.190  1.00  0.00     0.001 A 
ATOM     77  C   UNL A   1      49.113  28.608  30.083  1.00  0.00     0.000 A 
ENDBRANCH  53  72
BRANCH  65  78
ATOM     78  C   UNL A   1      43.044  35.232  31.685  1.00  0.00    -0.014 A 
ATOM     79  C   UNL A   1      43.028  35.422  33.075  1.00  0.00     0.009 A 
ATOM     80  C   UNL A   1      43.538  36.258  30.863  1.00  0.00     0.009 A 
ATOM     81  C   UNL A   1      43.469  36.626  33.627  1.00  0.00     0.001 A 
ATOM     82  C   UNL A   1      44.005  37.448  31.420  1.00  0.00     0.001 A 
ATOM     83  C   UNL A   1      43.962  37.635  32.801  1.00  0.00     0.000 A 
ENDBRANCH  65  78
ENDBRANCH  39  40
ENDBRANCH  31  34
ENDBRANCH  29  30
ENDBRANCH  28  29
ENDBRANCH  27  28
ENDBRANCH   3  27
TORSDOF 16
ENDMDL
