MODEL 1
REMARK VINA RESULT:     -11.8      0.000      0.000
REMARK SMILES O=C(NCCCNC(=O)c1cc(Br)ccc1OC(=O)c1ccc(F)cc1)c1ccc(-c2c3nc(c(-c4ccccc4)c4ccc([nH]4)c(-c4ccccc4)c4nc(c(-c5ccccc5)c5ccc2[nH]5)C=C4)C=C3)cc1
REMARK SMILES IDX 5 1 4 2 3 3 1 4 2 5 27 7 28 8 74 9 29 10 73 11 30 12 31 13
REMARK SMILES IDX 32 14 67 15 33 16 72 17 66 18 68 19 34 20 71 21 65 22 64 23
REMARK SMILES IDX 35 25 57 26 42 27 56 28 43 29 46 30 55 31 69 32 44 33 45 34
REMARK SMILES IDX 54 36 70 37 47 38 36 39 37 40 41 41 38 42 40 43 39 44 58 45
REMARK SMILES IDX 59 46 63 47 60 48 62 49 61 50 48 51 49 52 53 53 50 54 52 55
REMARK SMILES IDX 51 56 6 57 7 58 8 59 9 61 10 62 11 63 16 64 12 65 15 66
REMARK SMILES IDX 13 67 14 68 17 69 18 70 19 71 20 72 21 73 26 74 22 75 25 76
REMARK SMILES IDX 23 77 24 78
REMARK H PARENT 3 6 68 24 46 35 7 60
REMARK Flexibility Score: inf
ROOT
ATOM      1  C   UNL A   1      37.007  19.987  24.699  1.00  0.00     0.042 C 
ENDROOT
BRANCH   1   2
ATOM      2  C   UNL A   1      38.233  20.577  25.379  1.00  0.00     0.118 C 
BRANCH   2   3
ATOM      3  N   UNL A   1      39.305  19.600  25.544  1.00  0.00    -0.352 N 
ATOM      4  O   UNL A   1      41.390  18.806  25.791  1.00  0.00    -0.269 OA
ATOM      5  C   UNL A   1      40.613  19.748  25.931  1.00  0.00     0.251 C 
ATOM      6  H   UNL A   1      39.044  18.673  25.341  1.00  0.00     0.163 HD
BRANCH   5   7
ATOM      7  C   UNL A   1      41.105  21.018  26.511  1.00  0.00     0.039 A 
ATOM      8  C   UNL A   1      41.614  22.034  25.704  1.00  0.00     0.014 A 
ATOM      9  C   UNL A   1      40.975  21.230  27.890  1.00  0.00     0.014 A 
ATOM     10  C   UNL A   1      42.116  23.197  26.279  1.00  0.00     0.010 A 
ATOM     11  C   UNL A   1      41.392  22.437  28.457  1.00  0.00     0.010 A 
ATOM     12  C   UNL A   1      41.984  23.424  27.658  1.00  0.00    -0.014 A 
BRANCH  12  13
ATOM     13  C   UNL A   1      42.381  24.743  28.210  1.00  0.00     0.031 A 
ATOM     14  C   UNL A   1      43.812  25.056  28.545  1.00  0.00     0.074 A 
ATOM     15  C   UNL A   1      41.425  25.679  28.378  1.00  0.00     0.049 A 
ATOM     16  N   UNL A   1      44.321  26.177  28.993  1.00  0.00    -0.248 NA
ATOM     17  C   UNL A   1      44.796  23.978  28.364  1.00  0.00     0.031 C 
ATOM     18  C   UNL A   1      39.998  25.486  28.102  1.00  0.00     0.029 A 
ATOM     19  N   UNL A   1      41.507  26.982  28.797  1.00  0.00    -0.354 N 
ATOM     20  C   UNL A   1      45.677  25.936  29.164  1.00  0.00     0.074 A 
ATOM     21  C   UNL A   1      45.912  24.557  28.789  1.00  0.00     0.031 C 
ATOM     22  C   UNL A   1      39.349  26.641  28.311  1.00  0.00     0.029 A 
ATOM     23  C   UNL A   1      40.299  27.635  28.792  1.00  0.00     0.049 A 
ATOM     24  H   UNL A   1      42.350  27.407  29.075  1.00  0.00     0.167 HD
ATOM     25  C   UNL A   1      46.638  26.790  29.591  1.00  0.00     0.031 A 
ATOM     26  C   UNL A   1      39.982  28.893  29.150  1.00  0.00     0.031 A 
ATOM     27  C   UNL A   1      46.404  28.163  29.954  1.00  0.00     0.049 A 
ATOM     28  C   UNL A   1      41.067  29.806  29.639  1.00  0.00     0.074 A 
ATOM     29  C   UNL A   1      47.326  29.117  30.352  1.00  0.00     0.029 A 
ATOM     30  N   UNL A   1      45.162  28.776  29.970  1.00  0.00    -0.354 N 
ATOM     31  N   UNL A   1      42.353  29.575  29.743  1.00  0.00    -0.248 NA
ATOM     32  C   UNL A   1      40.656  31.150  30.062  1.00  0.00     0.031 C 
ATOM     33  C   UNL A   1      46.634  30.294  30.657  1.00  0.00     0.029 A 
ATOM     34  C   UNL A   1      45.288  30.087  30.401  1.00  0.00     0.049 A 
ATOM     35  H   UNL A   1      44.315  28.345  29.713  1.00  0.00     0.167 HD
ATOM     36  C   UNL A   1      42.906  30.747  30.236  1.00  0.00     0.074 A 
ATOM     37  C   UNL A   1      41.821  31.695  30.382  1.00  0.00     0.031 C 
ATOM     38  C   UNL A   1      44.197  31.012  30.549  1.00  0.00     0.031 A 
BRANCH  25  39
ATOM     39  C   UNL A   1      48.041  26.265  29.716  1.00  0.00    -0.014 A 
ATOM     40  C   UNL A   1      48.950  26.355  28.650  1.00  0.00     0.009 A 
ATOM     41  C   UNL A   1      48.482  25.748  30.944  1.00  0.00     0.009 A 
ATOM     42  C   UNL A   1      50.269  25.926  28.810  1.00  0.00     0.001 A 
ATOM     43  C   UNL A   1      49.807  25.339  31.107  1.00  0.00     0.001 A 
ATOM     44  C   UNL A   1      50.698  25.424  30.039  1.00  0.00     0.000 A 
ENDBRANCH  25  39
BRANCH  26  45
ATOM     45  C   UNL A   1      38.571  29.351  29.085  1.00  0.00    -0.014 A 
ATOM     46  C   UNL A   1      38.036  29.863  27.895  1.00  0.00     0.009 A 
ATOM     47  C   UNL A   1      37.753  29.281  30.224  1.00  0.00     0.009 A 
ATOM     48  C   UNL A   1      36.716  30.317  27.852  1.00  0.00     0.001 A 
ATOM     49  C   UNL A   1      36.425  29.707  30.171  1.00  0.00     0.001 A 
ATOM     50  C   UNL A   1      35.911  30.236  28.988  1.00  0.00     0.000 A 
ENDBRANCH  26  45
BRANCH  38  51
ATOM     51  C   UNL A   1      44.499  32.389  31.065  1.00  0.00    -0.014 A 
ATOM     52  C   UNL A   1      44.899  33.414  30.195  1.00  0.00     0.009 A 
ATOM     53  C   UNL A   1      44.363  32.666  32.433  1.00  0.00     0.009 A 
ATOM     54  C   UNL A   1      45.192  34.686  30.692  1.00  0.00     0.001 A 
ATOM     55  C   UNL A   1      44.630  33.945  32.923  1.00  0.00     0.001 A 
ATOM     56  C   UNL A   1      45.054  34.950  32.055  1.00  0.00     0.000 A 
ENDBRANCH  38  51
ENDBRANCH  12  13
ENDBRANCH   5   7
ENDBRANCH   2   3
ENDBRANCH   1   2
BRANCH   1  57
ATOM     57  C   UNL A   1      35.758  20.849  24.821  1.00  0.00     0.118 C 
BRANCH  57  58
ATOM     58  N   UNL A   1      35.137  20.781  26.138  1.00  0.00    -0.352 N 
ATOM     59  C   UNL A   1      34.106  21.523  26.668  1.00  0.00     0.255 C 
ATOM     60  H   UNL A   1      35.513  20.100  26.742  1.00  0.00     0.163 HD
ATOM     61  O   UNL A   1      33.811  21.413  27.853  1.00  0.00    -0.269 OA
BRANCH  59  62
ATOM     62  C   UNL A   1      33.356  22.452  25.802  1.00  0.00     0.083 A 
ATOM     63  C   UNL A   1      33.801  23.777  25.686  1.00  0.00     0.033 A 
ATOM     64  C   UNL A   1      32.244  22.038  25.059  1.00  0.00     0.144 A 
ATOM     65  C   UNL A   1      33.070  24.694  24.935  1.00  0.00     0.019 A 
ATOM     66  C   UNL A   1      31.529  22.957  24.285  1.00  0.00     0.049 A 
ATOM     67  Br  UNL A   1      33.633  26.497  24.863  1.00  0.00    -0.051 Br
ATOM     68  C   UNL A   1      31.926  24.294  24.247  1.00  0.00     0.019 A 
BRANCH  64  69
ATOM     69  O   UNL A   1      31.864  20.693  24.913  1.00  0.00    -0.422 OA
BRANCH  69  70
ATOM     70  C   UNL A   1      32.245  20.019  23.770  1.00  0.00     0.343 C 
ATOM     71  O   UNL A   1      32.196  20.435  22.619  1.00  0.00    -0.246 OA
BRANCH  70  72
ATOM     72  C   UNL A   1      32.758  18.673  24.151  1.00  0.00     0.060 A 
ATOM     73  C   UNL A   1      33.385  17.823  23.225  1.00  0.00     0.019 A 
ATOM     74  C   UNL A   1      32.576  18.238  25.473  1.00  0.00     0.019 A 
ATOM     75  C   UNL A   1      33.823  16.555  23.618  1.00  0.00     0.040 A 
ATOM     76  C   UNL A   1      33.020  16.971  25.863  1.00  0.00     0.040 A 
ATOM     77  C   UNL A   1      33.636  16.141  24.931  1.00  0.00     0.123 A 
ATOM     78  F   UNL A   1      34.051  14.924  25.304  1.00  0.00    -0.207 F 
ENDBRANCH  70  72
ENDBRANCH  69  70
ENDBRANCH  64  69
ENDBRANCH  59  62
ENDBRANCH  57  58
ENDBRANCH   1  57
TORSDOF 13
ENDMDL
MODEL 2
REMARK VINA RESULT:     -11.7      3.333      7.632
REMARK SMILES O=C(NCCCNC(=O)c1cc(Br)ccc1OC(=O)c1ccc(F)cc1)c1ccc(-c2c3nc(c(-c4ccccc4)c4ccc([nH]4)c(-c4ccccc4)c4nc(c(-c5ccccc5)c5ccc2[nH]5)C=C4)C=C3)cc1
REMARK SMILES IDX 5 1 4 2 3 3 1 4 2 5 27 7 28 8 74 9 29 10 73 11 30 12 31 13
REMARK SMILES IDX 32 14 67 15 33 16 72 17 66 18 68 19 34 20 71 21 65 22 64 23
REMARK SMILES IDX 35 25 57 26 42 27 56 28 43 29 46 30 55 31 69 32 44 33 45 34
REMARK SMILES IDX 54 36 70 37 47 38 36 39 37 40 41 41 38 42 40 43 39 44 58 45
REMARK SMILES IDX 59 46 63 47 60 48 62 49 61 50 48 51 49 52 53 53 50 54 52 55
REMARK SMILES IDX 51 56 6 57 7 58 8 59 9 61 10 62 11 63 16 64 12 65 15 66
REMARK SMILES IDX 13 67 14 68 17 69 18 70 19 71 20 72 21 73 26 74 22 75 25 76
REMARK SMILES IDX 23 77 24 78
REMARK H PARENT 3 6 68 24 46 35 7 60
REMARK Flexibility Score: inf
ROOT
ATOM      1  C   UNL A   1      33.678  28.543  25.742  1.00  0.00     0.042 C 
ENDROOT
BRANCH   1   2
ATOM      2  C   UNL A   1      33.578  28.679  27.254  1.00  0.00     0.118 C 
BRANCH   2   3
ATOM      3  N   UNL A   1      33.639  30.067  27.695  1.00  0.00    -0.352 N 
ATOM      4  O   UNL A   1      34.362  31.876  28.811  1.00  0.00    -0.269 OA
ATOM      5  C   UNL A   1      34.621  30.766  28.352  1.00  0.00     0.251 C 
ATOM      6  H   UNL A   1      32.835  30.596  27.487  1.00  0.00     0.163 HD
BRANCH   5   7
ATOM      7  C   UNL A   1      35.982  30.209  28.518  1.00  0.00     0.039 A 
ATOM      8  C   UNL A   1      36.930  30.297  27.498  1.00  0.00     0.014 A 
ATOM      9  C   UNL A   1      36.345  29.659  29.753  1.00  0.00     0.014 A 
ATOM     10  C   UNL A   1      38.185  29.720  27.661  1.00  0.00     0.010 A 
ATOM     11  C   UNL A   1      37.638  29.164  29.950  1.00  0.00     0.010 A 
ATOM     12  C   UNL A   1      38.563  29.174  28.898  1.00  0.00    -0.014 A 
BRANCH  12  13
ATOM     13  C   UNL A   1      39.963  28.718  29.084  1.00  0.00     0.031 A 
ATOM     14  C   UNL A   1      40.409  27.352  28.645  1.00  0.00     0.074 A 
ATOM     15  C   UNL A   1      40.847  29.575  29.634  1.00  0.00     0.049 A 
ATOM     16  N   UNL A   1      41.607  26.826  28.699  1.00  0.00    -0.248 NA
ATOM     17  C   UNL A   1      39.386  26.459  28.080  1.00  0.00     0.031 C 
ATOM     18  C   UNL A   1      40.527  30.923  30.115  1.00  0.00     0.029 A 
ATOM     19  N   UNL A   1      42.193  29.454  29.862  1.00  0.00    -0.354 N 
ATOM     20  C   UNL A   1      41.480  25.539  28.194  1.00  0.00     0.074 A 
ATOM     21  C   UNL A   1      40.085  25.354  27.854  1.00  0.00     0.031 C 
ATOM     22  C   UNL A   1      41.652  31.521  30.532  1.00  0.00     0.029 A 
ATOM     23  C   UNL A   1      42.759  30.581  30.407  1.00  0.00     0.049 A 
ATOM     24  H   UNL A   1      42.704  28.639  29.655  1.00  0.00     0.167 HD
ATOM     25  C   UNL A   1      42.442  24.599  28.028  1.00  0.00     0.031 A 
ATOM     26  C   UNL A   1      44.027  30.830  30.782  1.00  0.00     0.031 A 
ATOM     27  C   UNL A   1      43.830  24.788  28.358  1.00  0.00     0.049 A 
ATOM     28  C   UNL A   1      45.062  29.761  30.603  1.00  0.00     0.074 A 
ATOM     29  C   UNL A   1      44.885  23.909  28.178  1.00  0.00     0.029 A 
ATOM     30  N   UNL A   1      44.357  25.929  28.941  1.00  0.00    -0.354 N 
ATOM     31  N   UNL A   1      44.932  28.568  30.075  1.00  0.00    -0.248 NA
ATOM     32  C   UNL A   1      46.418  30.070  31.075  1.00  0.00     0.031 C 
ATOM     33  C   UNL A   1      46.042  24.500  28.698  1.00  0.00     0.029 A 
ATOM     34  C   UNL A   1      45.715  25.766  29.157  1.00  0.00     0.049 A 
ATOM     35  H   UNL A   1      43.842  26.737  29.168  1.00  0.00     0.167 HD
ATOM     36  C   UNL A   1      46.190  27.988  30.144  1.00  0.00     0.074 A 
ATOM     37  C   UNL A   1      47.074  28.970  30.737  1.00  0.00     0.031 C 
ATOM     38  C   UNL A   1      46.577  26.749  29.756  1.00  0.00     0.031 A 
BRANCH  25  39
ATOM     39  C   UNL A   1      42.031  23.262  27.480  1.00  0.00    -0.014 A 
ATOM     40  C   UNL A   1      42.239  22.931  26.133  1.00  0.00     0.009 A 
ATOM     41  C   UNL A   1      41.505  22.289  28.346  1.00  0.00     0.009 A 
ATOM     42  C   UNL A   1      41.914  21.657  25.660  1.00  0.00     0.001 A 
ATOM     43  C   UNL A   1      41.201  21.010  27.876  1.00  0.00     0.001 A 
ATOM     44  C   UNL A   1      41.402  20.697  26.533  1.00  0.00     0.000 A 
ENDBRANCH  25  39
BRANCH  26  45
ATOM     45  C   UNL A   1      44.378  32.138  31.390  1.00  0.00    -0.014 A 
ATOM     46  C   UNL A   1      44.291  32.334  32.776  1.00  0.00     0.009 A 
ATOM     47  C   UNL A   1      44.799  33.204  30.578  1.00  0.00     0.009 A 
ATOM     48  C   UNL A   1      44.595  33.577  33.334  1.00  0.00     0.001 A 
ATOM     49  C   UNL A   1      45.133  34.437  31.142  1.00  0.00     0.001 A 
ATOM     50  C   UNL A   1      45.020  34.625  32.518  1.00  0.00     0.000 A 
ENDBRANCH  26  45
BRANCH  38  51
ATOM     51  C   UNL A   1      48.023  26.399  29.954  1.00  0.00    -0.014 A 
ATOM     52  C   UNL A   1      48.972  26.660  28.954  1.00  0.00     0.009 A 
ATOM     53  C   UNL A   1      48.442  25.820  31.161  1.00  0.00     0.009 A 
ATOM     54  C   UNL A   1      50.311  26.315  29.147  1.00  0.00     0.001 A 
ATOM     55  C   UNL A   1      49.785  25.500  31.361  1.00  0.00     0.001 A 
ATOM     56  C   UNL A   1      50.716  25.739  30.351  1.00  0.00     0.000 A 
ENDBRANCH  38  51
ENDBRANCH  12  13
ENDBRANCH   5   7
ENDBRANCH   2   3
ENDBRANCH   1   2
BRANCH   1  57
ATOM     57  C   UNL A   1      33.978  27.128  25.267  1.00  0.00     0.118 C 
BRANCH  57  58
ATOM     58  N   UNL A   1      33.219  26.107  25.980  1.00  0.00    -0.352 N 
ATOM     59  C   UNL A   1      33.301  24.736  25.909  1.00  0.00     0.255 C 
ATOM     60  H   UNL A   1      32.545  26.452  26.609  1.00  0.00     0.163 HD
ATOM     61  O   UNL A   1      32.477  24.036  26.488  1.00  0.00    -0.269 OA
BRANCH  59  62
ATOM     62  C   UNL A   1      34.387  24.109  25.131  1.00  0.00     0.083 A 
ATOM     63  C   UNL A   1      35.552  23.704  25.799  1.00  0.00     0.033 A 
ATOM     64  C   UNL A   1      34.268  23.866  23.758  1.00  0.00     0.144 A 
ATOM     65  C   UNL A   1      36.621  23.178  25.077  1.00  0.00     0.019 A 
ATOM     66  C   UNL A   1      35.334  23.312  23.042  1.00  0.00     0.049 A 
ATOM     67  Br  UNL A   1      38.217  22.722  25.980  1.00  0.00    -0.051 Br
ATOM     68  C   UNL A   1      36.524  22.996  23.700  1.00  0.00     0.019 A 
BRANCH  64  69
ATOM     69  O   UNL A   1      33.065  24.006  23.045  1.00  0.00    -0.422 OA
BRANCH  69  70
ATOM     70  C   UNL A   1      32.874  25.144  22.288  1.00  0.00     0.343 C 
ATOM     71  O   UNL A   1      33.593  25.560  21.389  1.00  0.00    -0.246 OA
BRANCH  70  72
ATOM     72  C   UNL A   1      31.614  25.810  22.726  1.00  0.00     0.060 A 
ATOM     73  C   UNL A   1      30.645  25.142  23.493  1.00  0.00     0.019 A 
ATOM     74  C   UNL A   1      31.386  27.137  22.330  1.00  0.00     0.019 A 
ATOM     75  C   UNL A   1      29.463  25.795  23.856  1.00  0.00     0.040 A 
ATOM     76  C   UNL A   1      30.205  27.787  22.700  1.00  0.00     0.040 A 
ATOM     77  C   UNL A   1      29.255  27.109  23.455  1.00  0.00     0.123 A 
ATOM     78  F   UNL A   1      28.119  27.731  23.800  1.00  0.00    -0.207 F 
ENDBRANCH  70  72
ENDBRANCH  69  70
ENDBRANCH  64  69
ENDBRANCH  59  62
ENDBRANCH  57  58
ENDBRANCH   1  57
TORSDOF 13
ENDMDL
MODEL 3
REMARK VINA RESULT:     -11.7      3.351      7.777
REMARK SMILES O=C(NCCCNC(=O)c1cc(Br)ccc1OC(=O)c1ccc(F)cc1)c1ccc(-c2c3nc(c(-c4ccccc4)c4ccc([nH]4)c(-c4ccccc4)c4nc(c(-c5ccccc5)c5ccc2[nH]5)C=C4)C=C3)cc1
REMARK SMILES IDX 5 1 4 2 3 3 1 4 2 5 27 7 28 8 74 9 29 10 73 11 30 12 31 13
REMARK SMILES IDX 32 14 67 15 33 16 72 17 66 18 68 19 34 20 71 21 65 22 64 23
REMARK SMILES IDX 35 25 57 26 42 27 56 28 43 29 46 30 55 31 69 32 44 33 45 34
REMARK SMILES IDX 54 36 70 37 47 38 36 39 37 40 41 41 38 42 40 43 39 44 58 45
REMARK SMILES IDX 59 46 63 47 60 48 62 49 61 50 48 51 49 52 53 53 50 54 52 55
REMARK SMILES IDX 51 56 6 57 7 58 8 59 9 61 10 62 11 63 16 64 12 65 15 66
REMARK SMILES IDX 13 67 14 68 17 69 18 70 19 71 20 72 21 73 26 74 22 75 25 76
REMARK SMILES IDX 23 77 24 78
REMARK H PARENT 3 6 68 24 46 35 7 60
REMARK Flexibility Score: inf
ROOT
ATOM      1  C   UNL A   1      33.685  28.558  25.702  1.00  0.00     0.042 C 
ENDROOT
BRANCH   1   2
ATOM      2  C   UNL A   1      33.565  28.685  27.213  1.00  0.00     0.118 C 
BRANCH   2   3
ATOM      3  N   UNL A   1      33.584  30.073  27.661  1.00  0.00    -0.352 N 
ATOM      4  O   UNL A   1      34.244  31.897  28.791  1.00  0.00    -0.269 OA
ATOM      5  C   UNL A   1      34.539  30.796  28.330  1.00  0.00     0.251 C 
ATOM      6  H   UNL A   1      32.768  30.581  27.446  1.00  0.00     0.163 HD
BRANCH   5   7
ATOM      7  C   UNL A   1      35.913  30.276  28.508  1.00  0.00     0.039 A 
ATOM      8  C   UNL A   1      36.872  30.406  27.504  1.00  0.00     0.014 A 
ATOM      9  C   UNL A   1      36.274  29.720  29.741  1.00  0.00     0.014 A 
ATOM     10  C   UNL A   1      38.141  29.864  27.676  1.00  0.00     0.010 A 
ATOM     11  C   UNL A   1      37.578  29.260  29.950  1.00  0.00     0.010 A 
ATOM     12  C   UNL A   1      38.518  29.311  28.911  1.00  0.00    -0.014 A 
BRANCH  12  13
ATOM     13  C   UNL A   1      39.927  28.893  29.111  1.00  0.00     0.031 A 
ATOM     14  C   UNL A   1      40.928  29.798  29.770  1.00  0.00     0.074 A 
ATOM     15  C   UNL A   1      40.290  27.657  28.711  1.00  0.00     0.049 A 
ATOM     16  N   UNL A   1      42.185  29.559  30.056  1.00  0.00    -0.248 NA
ATOM     17  C   UNL A   1      40.471  31.142  30.154  1.00  0.00     0.031 C 
ATOM     18  C   UNL A   1      39.409  26.694  28.043  1.00  0.00     0.029 A 
ATOM     19  N   UNL A   1      41.482  26.989  28.826  1.00  0.00    -0.354 N 
ATOM     20  C   UNL A   1      42.672  30.723  30.634  1.00  0.00     0.074 A 
ATOM     21  C   UNL A   1      41.582  31.677  30.644  1.00  0.00     0.031 C 
ATOM     22  C   UNL A   1      40.075  25.545  27.855  1.00  0.00     0.029 A 
ATOM     23  C   UNL A   1      41.443  25.709  28.330  1.00  0.00     0.049 A 
ATOM     24  H   UNL A   1      42.288  27.389  29.226  1.00  0.00     0.167 HD
ATOM     25  C   UNL A   1      43.913  30.971  31.114  1.00  0.00     0.031 A 
ATOM     26  C   UNL A   1      42.403  24.771  28.249  1.00  0.00     0.031 A 
ATOM     27  C   UNL A   1      44.992  30.018  31.112  1.00  0.00     0.049 A 
ATOM     28  C   UNL A   1      43.773  25.086  28.772  1.00  0.00     0.074 A 
ATOM     29  C   UNL A   1      46.271  30.164  31.622  1.00  0.00     0.029 A 
ATOM     30  N   UNL A   1      44.923  28.746  30.568  1.00  0.00    -0.354 N 
ATOM     31  N   UNL A   1      44.199  26.175  29.363  1.00  0.00    -0.248 NA
ATOM     32  C   UNL A   1      44.795  24.043  28.613  1.00  0.00     0.031 C 
ATOM     33  C   UNL A   1      46.991  28.998  31.342  1.00  0.00     0.029 A 
ATOM     34  C   UNL A   1      46.145  28.107  30.702  1.00  0.00     0.049 A 
ATOM     35  H   UNL A   1      44.123  28.353  30.149  1.00  0.00     0.167 HD
ATOM     36  C   UNL A   1      45.536  25.946  29.654  1.00  0.00     0.074 A 
ATOM     37  C   UNL A   1      45.841  24.605  29.201  1.00  0.00     0.031 C 
ATOM     38  C   UNL A   1      46.433  26.777  30.238  1.00  0.00     0.031 A 
BRANCH  25  39
ATOM     39  C   UNL A   1      44.193  32.339  31.669  1.00  0.00    -0.014 A 
ATOM     40  C   UNL A   1      44.082  32.604  33.043  1.00  0.00     0.009 A 
ATOM     41  C   UNL A   1      44.653  33.354  30.816  1.00  0.00     0.009 A 
ATOM     42  C   UNL A   1      44.414  33.863  33.548  1.00  0.00     0.001 A 
ATOM     43  C   UNL A   1      45.004  34.605  31.326  1.00  0.00     0.001 A 
ATOM     44  C   UNL A   1      44.880  34.860  32.691  1.00  0.00     0.000 A 
ENDBRANCH  25  39
BRANCH  26  45
ATOM     45  C   UNL A   1      42.108  23.457  27.624  1.00  0.00    -0.014 A 
ATOM     46  C   UNL A   1      41.505  22.430  28.362  1.00  0.00     0.009 A 
ATOM     47  C   UNL A   1      42.437  23.226  26.278  1.00  0.00     0.009 A 
ATOM     48  C   UNL A   1      41.258  21.188  27.772  1.00  0.00     0.001 A 
ATOM     49  C   UNL A   1      42.162  21.994  25.682  1.00  0.00     0.001 A 
ATOM     50  C   UNL A   1      41.583  20.972  26.433  1.00  0.00     0.000 A 
ENDBRANCH  26  45
BRANCH  38  51
ATOM     51  C   UNL A   1      47.823  26.245  30.427  1.00  0.00    -0.014 A 
ATOM     52  C   UNL A   1      48.225  25.697  31.655  1.00  0.00     0.009 A 
ATOM     53  C   UNL A   1      48.733  26.274  29.361  1.00  0.00     0.009 A 
ATOM     54  C   UNL A   1      49.527  25.219  31.821  1.00  0.00     0.001 A 
ATOM     55  C   UNL A   1      50.025  25.772  29.522  1.00  0.00     0.001 A 
ATOM     56  C   UNL A   1      50.424  25.255  30.753  1.00  0.00     0.000 A 
ENDBRANCH  38  51
ENDBRANCH  12  13
ENDBRANCH   5   7
ENDBRANCH   2   3
ENDBRANCH   1   2
BRANCH   1  57
ATOM     57  C   UNL A   1      33.926  27.135  25.219  1.00  0.00     0.118 C 
BRANCH  57  58
ATOM     58  N   UNL A   1      33.193  26.134  25.985  1.00  0.00    -0.352 N 
ATOM     59  C   UNL A   1      33.285  24.762  25.960  1.00  0.00     0.255 C 
ATOM     60  H   UNL A   1      32.531  26.496  26.617  1.00  0.00     0.163 HD
ATOM     61  O   UNL A   1      32.480  24.076  26.583  1.00  0.00    -0.269 OA
BRANCH  59  62
ATOM     62  C   UNL A   1      34.357  24.116  25.178  1.00  0.00     0.083 A 
ATOM     63  C   UNL A   1      35.536  23.735  25.834  1.00  0.00     0.033 A 
ATOM     64  C   UNL A   1      34.210  23.833  23.816  1.00  0.00     0.144 A 
ATOM     65  C   UNL A   1      36.592  23.192  25.106  1.00  0.00     0.019 A 
ATOM     66  C   UNL A   1      35.264  23.262  23.094  1.00  0.00     0.049 A 
ATOM     67  Br  UNL A   1      38.209  22.768  25.988  1.00  0.00    -0.051 Br
ATOM     68  C   UNL A   1      36.468  22.969  23.736  1.00  0.00     0.019 A 
BRANCH  64  69
ATOM     69  O   UNL A   1      32.993  23.948  23.124  1.00  0.00    -0.422 OA
BRANCH  69  70
ATOM     70  C   UNL A   1      32.802  25.038  22.298  1.00  0.00     0.343 C 
ATOM     71  O   UNL A   1      33.501  25.375  21.351  1.00  0.00    -0.246 OA
BRANCH  70  72
ATOM     72  C   UNL A   1      31.572  25.761  22.728  1.00  0.00     0.060 A 
ATOM     73  C   UNL A   1      30.597  25.157  23.539  1.00  0.00     0.019 A 
ATOM     74  C   UNL A   1      31.377  27.075  22.278  1.00  0.00     0.019 A 
ATOM     75  C   UNL A   1      29.442  25.861  23.893  1.00  0.00     0.040 A 
ATOM     76  C   UNL A   1      30.223  27.778  22.638  1.00  0.00     0.040 A 
ATOM     77  C   UNL A   1      29.266  27.163  23.439  1.00  0.00     0.123 A 
ATOM     78  F   UNL A   1      28.157  27.834  23.775  1.00  0.00    -0.207 F 
ENDBRANCH  70  72
ENDBRANCH  69  70
ENDBRANCH  64  69
ENDBRANCH  59  62
ENDBRANCH  57  58
ENDBRANCH   1  57
TORSDOF 13
ENDMDL
