MODEL 1
REMARK VINA RESULT:     -11.3      0.000      0.000
REMARK SMILES CC[C@](C)(NC(=O)N(C)Cc1cccc(C)c1)C(=O)NCCCNC(=O)c1ccc(-c2c3nc(c(-c4ccccc4)c4ccc([nH]4)c(-c4ccccc4)c4nc(c(-c5ccccc5)c5ccc2[nH]5)C=C4)C=C3)cc1
REMARK SMILES IDX 21 1 20 2 18 3 19 4 3 6 4 7 2 8 1 9 5 10 6 11 7 13 8 14 9 15
REMARK SMILES IDX 10 16 11 17 12 18 17 19 13 20 15 21 14 22 16 23 22 24 23 25
REMARK SMILES IDX 24 26 25 27 26 29 27 30 28 31 74 32 29 33 73 34 30 35 31 36
REMARK SMILES IDX 32 37 67 38 33 39 72 40 66 41 68 42 34 43 71 44 65 45 64 46
REMARK SMILES IDX 35 48 57 49 42 50 56 51 43 52 46 53 55 54 69 55 44 56 45 57
REMARK SMILES IDX 54 59 70 60 47 61 36 62 37 63 41 64 38 65 40 66 39 67 58 68
REMARK SMILES IDX 59 69 63 70 60 71 62 72 61 73 48 74 49 75 53 76 50 77 52 78
REMARK SMILES IDX 51 79
REMARK H PARENT 20 5 5 12 24 28 68 47 46 58
REMARK Flexibility Score: inf
ROOT
ATOM      1  C   UNL A   1      31.951  29.812  26.313  1.00  0.00     0.117 C 
ENDROOT
BRANCH   1   2
ATOM      2  N   UNL A   1      31.744  29.833  24.871  1.00  0.00    -0.354 N 
ATOM      3  C   UNL A   1      31.659  28.871  23.908  1.00  0.00     0.245 C 
ATOM      4  O   UNL A   1      31.143  29.245  22.844  1.00  0.00    -0.272 OA
ATOM      5  H   UNL A   1      31.643  30.744  24.512  1.00  0.00     0.163 HD
BRANCH   3   6
ATOM      6  C   UNL A   1      32.105  27.381  24.078  1.00  0.00     0.117 C 
ATOM      7  C   UNL A   1      33.643  27.244  23.949  1.00  0.00     0.045 C 
BRANCH   6   8
ATOM      8  C   UNL A   1      31.476  26.509  22.949  1.00  0.00     0.035 C 
ATOM      9  C   UNL A   1      32.448  26.043  21.868  1.00  0.00     0.007 C 
ENDBRANCH   6   8
BRANCH   6  10
ATOM     10  N   UNL A   1      31.721  26.786  25.384  1.00  0.00    -0.324 N 
ATOM     11  C   UNL A   1      31.103  25.602  25.665  1.00  0.00     0.318 C 
ATOM     12  H   UNL A   1      31.947  27.333  26.170  1.00  0.00     0.166 HD
ATOM     13  O   UNL A   1      30.093  25.661  26.368  1.00  0.00    -0.249 OA
BRANCH  11  14
ATOM     14  N   UNL A   1      31.777  24.427  25.425  1.00  0.00    -0.324 N 
ATOM     15  C   UNL A   1      31.028  23.210  25.146  1.00  0.00     0.149 C 
BRANCH  14  16
ATOM     16  C   UNL A   1      33.027  24.177  26.155  1.00  0.00     0.156 C 
BRANCH  16  17
ATOM     17  C   UNL A   1      34.337  23.954  25.413  1.00  0.00    -0.028 A 
ATOM     18  C   UNL A   1      34.252  23.643  24.041  1.00  0.00     0.005 A 
ATOM     19  C   UNL A   1      35.601  23.882  26.012  1.00  0.00     0.009 A 
ATOM     20  C   UNL A   1      35.382  23.280  23.305  1.00  0.00     0.001 A 
ATOM     21  C   UNL A   1      36.740  23.490  25.290  1.00  0.00    -0.051 A 
ATOM     22  C   UNL A   1      36.621  23.191  23.931  1.00  0.00     0.003 A 
ATOM     23  C   UNL A   1      38.054  23.294  25.990  1.00  0.00     0.044 C 
ENDBRANCH  16  17
ENDBRANCH  14  16
ENDBRANCH  11  14
ENDBRANCH   6  10
ENDBRANCH   3   6
ENDBRANCH   1   2
BRANCH   1  24
ATOM     24  C   UNL A   1      32.941  30.831  26.858  1.00  0.00     0.042 C 
BRANCH  24  25
ATOM     25  C   UNL A   1      34.059  30.215  27.693  1.00  0.00     0.118 C 
BRANCH  25  26
ATOM     26  N   UNL A   1      34.677  31.156  28.634  1.00  0.00    -0.352 N 
ATOM     27  C   UNL A   1      35.937  31.115  29.218  1.00  0.00     0.251 C 
ATOM     28  H   UNL A   1      34.119  31.927  28.887  1.00  0.00     0.163 HD
ATOM     29  O   UNL A   1      36.339  32.026  29.906  1.00  0.00    -0.269 OA
BRANCH  27  30
ATOM     30  C   UNL A   1      36.832  29.986  28.869  1.00  0.00     0.039 A 
ATOM     31  C   UNL A   1      37.101  29.033  29.856  1.00  0.00     0.014 A 
ATOM     32  C   UNL A   1      37.567  30.015  27.689  1.00  0.00     0.014 A 
ATOM     33  C   UNL A   1      38.280  28.299  29.778  1.00  0.00     0.010 A 
ATOM     34  C   UNL A   1      38.780  29.358  27.652  1.00  0.00     0.010 A 
ATOM     35  C   UNL A   1      39.171  28.566  28.736  1.00  0.00    -0.014 A 
BRANCH  35  36
ATOM     36  C   UNL A   1      40.577  28.185  28.793  1.00  0.00     0.031 A 
ATOM     37  C   UNL A   1      41.027  26.893  28.247  1.00  0.00     0.074 A 
ATOM     38  C   UNL A   1      41.479  29.015  29.364  1.00  0.00     0.049 A 
ATOM     39  N   UNL A   1      41.987  26.191  28.752  1.00  0.00    -0.248 NA
ATOM     40  C   UNL A   1      40.389  26.273  27.092  1.00  0.00     0.031 C 
ATOM     41  C   UNL A   1      42.933  28.878  29.354  1.00  0.00     0.029 A 
ATOM     42  N   UNL A   1      41.243  30.041  30.279  1.00  0.00    -0.354 N 
ATOM     43  C   UNL A   1      42.282  25.206  27.840  1.00  0.00     0.074 A 
ATOM     44  C   UNL A   1      41.208  25.241  26.872  1.00  0.00     0.031 C 
ATOM     45  C   UNL A   1      43.430  29.532  30.416  1.00  0.00     0.029 A 
ATOM     46  C   UNL A   1      42.302  30.011  31.199  1.00  0.00     0.049 A 
ATOM     47  H   UNL A   1      40.481  30.666  30.279  1.00  0.00     0.167 HD
ATOM     48  C   UNL A   1      43.482  24.564  27.884  1.00  0.00     0.031 A 
ATOM     49  C   UNL A   1      42.136  29.846  32.543  1.00  0.00     0.031 A 
ATOM     50  C   UNL A   1      44.326  25.030  28.978  1.00  0.00     0.049 A 
ATOM     51  C   UNL A   1      42.869  28.638  33.083  1.00  0.00     0.074 A 
ATOM     52  C   UNL A   1      45.361  25.950  29.028  1.00  0.00     0.029 A 
ATOM     53  N   UNL A   1      43.958  24.776  30.292  1.00  0.00    -0.354 N 
ATOM     54  N   UNL A   1      43.343  27.686  32.329  1.00  0.00    -0.248 NA
ATOM     55  C   UNL A   1      43.053  28.364  34.507  1.00  0.00     0.031 C 
ATOM     56  C   UNL A   1      45.558  26.313  30.383  1.00  0.00     0.029 A 
ATOM     57  C   UNL A   1      44.664  25.594  31.154  1.00  0.00     0.049 A 
ATOM     58  H   UNL A   1      43.289  24.108  30.570  1.00  0.00     0.167 HD
ATOM     59  C   UNL A   1      43.867  26.698  33.117  1.00  0.00     0.074 A 
ATOM     60  C   UNL A   1      43.669  27.169  34.474  1.00  0.00     0.031 C 
ATOM     61  C   UNL A   1      44.407  25.564  32.585  1.00  0.00     0.031 A 
BRANCH  48  62
ATOM     62  C   UNL A   1      43.987  23.769  26.708  1.00  0.00    -0.014 A 
ATOM     63  C   UNL A   1      44.798  24.388  25.739  1.00  0.00     0.009 A 
ATOM     64  C   UNL A   1      43.641  22.427  26.473  1.00  0.00     0.009 A 
ATOM     65  C   UNL A   1      45.152  23.740  24.550  1.00  0.00     0.001 A 
ATOM     66  C   UNL A   1      43.957  21.788  25.266  1.00  0.00     0.001 A 
ATOM     67  C   UNL A   1      44.703  22.450  24.299  1.00  0.00     0.000 A 
ENDBRANCH  48  62
BRANCH  49  68
ATOM     68  C   UNL A   1      40.827  30.329  33.056  1.00  0.00    -0.014 A 
ATOM     69  C   UNL A   1      40.568  31.713  33.007  1.00  0.00     0.009 A 
ATOM     70  C   UNL A   1      39.747  29.446  33.193  1.00  0.00     0.009 A 
ATOM     71  C   UNL A   1      39.257  32.192  32.960  1.00  0.00     0.001 A 
ATOM     72  C   UNL A   1      38.435  29.934  33.158  1.00  0.00     0.001 A 
ATOM     73  C   UNL A   1      38.191  31.298  33.001  1.00  0.00     0.000 A 
ENDBRANCH  49  68
BRANCH  61  74
ATOM     74  C   UNL A   1      44.831  24.357  33.374  1.00  0.00    -0.014 A 
ATOM     75  C   UNL A   1      46.104  24.205  33.940  1.00  0.00     0.009 A 
ATOM     76  C   UNL A   1      43.870  23.371  33.681  1.00  0.00     0.009 A 
ATOM     77  C   UNL A   1      46.417  23.091  34.731  1.00  0.00     0.001 A 
ATOM     78  C   UNL A   1      44.167  22.280  34.499  1.00  0.00     0.001 A 
ATOM     79  C   UNL A   1      45.448  22.133  35.014  1.00  0.00     0.000 A 
ENDBRANCH  61  74
ENDBRANCH  35  36
ENDBRANCH  27  30
ENDBRANCH  25  26
ENDBRANCH  24  25
ENDBRANCH   1  24
TORSDOF 15
ENDMDL
MODEL 2
REMARK VINA RESULT:     -11.2      3.865      8.333
REMARK SMILES CC[C@](C)(NC(=O)N(C)Cc1cccc(C)c1)C(=O)NCCCNC(=O)c1ccc(-c2c3nc(c(-c4ccccc4)c4ccc([nH]4)c(-c4ccccc4)c4nc(c(-c5ccccc5)c5ccc2[nH]5)C=C4)C=C3)cc1
REMARK SMILES IDX 21 1 20 2 18 3 19 4 3 6 4 7 2 8 1 9 5 10 6 11 7 13 8 14 9 15
REMARK SMILES IDX 10 16 11 17 12 18 17 19 13 20 15 21 14 22 16 23 22 24 23 25
REMARK SMILES IDX 24 26 25 27 26 29 27 30 28 31 74 32 29 33 73 34 30 35 31 36
REMARK SMILES IDX 32 37 67 38 33 39 72 40 66 41 68 42 34 43 71 44 65 45 64 46
REMARK SMILES IDX 35 48 57 49 42 50 56 51 43 52 46 53 55 54 69 55 44 56 45 57
REMARK SMILES IDX 54 59 70 60 47 61 36 62 37 63 41 64 38 65 40 66 39 67 58 68
REMARK SMILES IDX 59 69 63 70 60 71 62 72 61 73 48 74 49 75 53 76 50 77 52 78
REMARK SMILES IDX 51 79
REMARK H PARENT 20 5 5 12 24 28 68 47 46 58
REMARK Flexibility Score: inf
ROOT
ATOM      1  C   UNL A   1      38.151  22.512  25.983  1.00  0.00     0.117 C 
ENDROOT
BRANCH   1   2
ATOM      2  N   UNL A   1      37.823  22.537  24.564  1.00  0.00    -0.354 N 
ATOM      3  C   UNL A   1      36.697  22.832  23.852  1.00  0.00     0.245 C 
ATOM      4  O   UNL A   1      36.890  23.069  22.651  1.00  0.00    -0.272 OA
ATOM      5  H   UNL A   1      38.583  22.286  23.991  1.00  0.00     0.163 HD
BRANCH   3   6
ATOM      6  C   UNL A   1      35.254  22.934  24.447  1.00  0.00     0.117 C 
ATOM      7  C   UNL A   1      34.194  23.016  23.320  1.00  0.00     0.045 C 
BRANCH   6   8
ATOM      8  C   UNL A   1      35.122  24.240  25.289  1.00  0.00     0.035 C 
ATOM      9  C   UNL A   1      34.117  25.259  24.756  1.00  0.00     0.007 C 
ENDBRANCH   6   8
BRANCH   6  10
ATOM     10  N   UNL A   1      34.882  21.789  25.316  1.00  0.00    -0.324 N 
ATOM     11  C   UNL A   1      33.761  21.580  26.067  1.00  0.00     0.318 C 
ATOM     12  H   UNL A   1      35.549  21.066  25.358  1.00  0.00     0.166 HD
ATOM     13  O   UNL A   1      33.937  21.317  27.257  1.00  0.00    -0.249 OA
BRANCH  11  14
ATOM     14  N   UNL A   1      32.561  21.373  25.426  1.00  0.00    -0.324 N 
ATOM     15  C   UNL A   1      31.508  22.375  25.528  1.00  0.00     0.149 C 
BRANCH  14  16
ATOM     16  C   UNL A   1      32.042  20.002  25.338  1.00  0.00     0.156 C 
BRANCH  16  17
ATOM     17  C   UNL A   1      32.814  18.919  24.597  1.00  0.00    -0.028 A 
ATOM     18  C   UNL A   1      32.462  18.686  23.253  1.00  0.00     0.005 A 
ATOM     19  C   UNL A   1      33.733  18.040  25.183  1.00  0.00     0.009 A 
ATOM     20  C   UNL A   1      33.006  17.621  22.531  1.00  0.00     0.001 A 
ATOM     21  C   UNL A   1      34.266  16.949  24.477  1.00  0.00    -0.051 A 
ATOM     22  C   UNL A   1      33.897  16.748  23.146  1.00  0.00     0.003 A 
ATOM     23  C   UNL A   1      35.145  15.949  25.173  1.00  0.00     0.044 C 
ENDBRANCH  16  17
ENDBRANCH  14  16
ENDBRANCH  11  14
ENDBRANCH   6  10
ENDBRANCH   3   6
ENDBRANCH   1   2
BRANCH   1  24
ATOM     24  C   UNL A   1      39.634  22.534  26.324  1.00  0.00     0.042 C 
BRANCH  24  25
ATOM     25  C   UNL A   1      40.148  21.222  26.909  1.00  0.00     0.118 C 
BRANCH  25  26
ATOM     26  N   UNL A   1      41.108  20.529  26.043  1.00  0.00    -0.352 N 
ATOM     27  C   UNL A   1      42.481  20.713  25.931  1.00  0.00     0.251 C 
ATOM     28  H   UNL A   1      40.726  19.836  25.458  1.00  0.00     0.163 HD
ATOM     29  O   UNL A   1      43.156  19.990  25.232  1.00  0.00    -0.269 OA
BRANCH  27  30
ATOM     30  C   UNL A   1      43.122  21.736  26.793  1.00  0.00     0.039 A 
ATOM     31  C   UNL A   1      42.959  21.623  28.176  1.00  0.00     0.014 A 
ATOM     32  C   UNL A   1      43.651  22.891  26.230  1.00  0.00     0.014 A 
ATOM     33  C   UNL A   1      43.062  22.768  28.960  1.00  0.00     0.010 A 
ATOM     34  C   UNL A   1      43.665  24.046  26.987  1.00  0.00     0.010 A 
ATOM     35  C   UNL A   1      43.290  23.994  28.332  1.00  0.00    -0.014 A 
BRANCH  35  36
ATOM     36  C   UNL A   1      42.996  25.268  28.977  1.00  0.00     0.031 A 
ATOM     37  C   UNL A   1      41.800  26.043  28.600  1.00  0.00     0.074 A 
ATOM     38  C   UNL A   1      43.832  25.757  29.920  1.00  0.00     0.049 A 
ATOM     39  N   UNL A   1      41.752  27.334  28.580  1.00  0.00    -0.248 NA
ATOM     40  C   UNL A   1      40.562  25.400  28.175  1.00  0.00     0.031 C 
ATOM     41  C   UNL A   1      43.608  26.913  30.783  1.00  0.00     0.029 A 
ATOM     42  N   UNL A   1      45.173  25.434  30.129  1.00  0.00    -0.354 N 
ATOM     43  C   UNL A   1      40.430  27.681  28.437  1.00  0.00     0.074 A 
ATOM     44  C   UNL A   1      39.742  26.454  28.099  1.00  0.00     0.031 C 
ATOM     45  C   UNL A   1      44.801  27.393  31.171  1.00  0.00     0.029 A 
ATOM     46  C   UNL A   1      45.824  26.628  30.477  1.00  0.00     0.049 A 
ATOM     47  H   UNL A   1      45.583  24.542  30.048  1.00  0.00     0.167 HD
ATOM     48  C   UNL A   1      40.005  28.928  28.777  1.00  0.00     0.031 A 
ATOM     49  C   UNL A   1      46.877  27.149  29.784  1.00  0.00     0.031 A 
ATOM     50  C   UNL A   1      41.089  29.778  29.255  1.00  0.00     0.049 A 
ATOM     51  C   UNL A   1      46.609  28.543  29.265  1.00  0.00     0.074 A 
ATOM     52  C   UNL A   1      41.525  30.102  30.529  1.00  0.00     0.029 A 
ATOM     53  N   UNL A   1      42.089  30.180  28.380  1.00  0.00    -0.354 N 
ATOM     54  N   UNL A   1      45.420  29.073  29.205  1.00  0.00    -0.248 NA
ATOM     55  C   UNL A   1      47.637  29.416  28.700  1.00  0.00     0.031 C 
ATOM     56  C   UNL A   1      42.836  30.629  30.424  1.00  0.00     0.029 A 
ATOM     57  C   UNL A   1      43.182  30.649  29.085  1.00  0.00     0.049 A 
ATOM     58  H   UNL A   1      42.029  30.138  27.398  1.00  0.00     0.167 HD
ATOM     59  C   UNL A   1      45.497  30.303  28.609  1.00  0.00     0.074 A 
ATOM     60  C   UNL A   1      46.906  30.478  28.316  1.00  0.00     0.031 C 
ATOM     61  C   UNL A   1      44.390  31.069  28.392  1.00  0.00     0.031 A 
BRANCH  48  62
ATOM     62  C   UNL A   1      38.543  29.225  28.991  1.00  0.00    -0.014 A 
ATOM     63  C   UNL A   1      37.764  29.711  27.925  1.00  0.00     0.009 A 
ATOM     64  C   UNL A   1      37.900  29.106  30.234  1.00  0.00     0.009 A 
ATOM     65  C   UNL A   1      36.450  30.157  28.114  1.00  0.00     0.001 A 
ATOM     66  C   UNL A   1      36.600  29.588  30.439  1.00  0.00     0.001 A 
ATOM     67  C   UNL A   1      35.880  30.126  29.379  1.00  0.00     0.000 A 
ENDBRANCH  48  62
BRANCH  49  68
ATOM     68  C   UNL A   1      47.694  26.133  29.069  1.00  0.00    -0.014 A 
ATOM     69  C   UNL A   1      47.449  25.935  27.696  1.00  0.00     0.009 A 
ATOM     70  C   UNL A   1      48.913  25.693  29.606  1.00  0.00     0.009 A 
ATOM     71  C   UNL A   1      48.448  25.434  26.858  1.00  0.00     0.001 A 
ATOM     72  C   UNL A   1      49.905  25.180  28.763  1.00  0.00     0.001 A 
ATOM     73  C   UNL A   1      49.689  25.090  27.388  1.00  0.00     0.000 A 
ENDBRANCH  49  68
BRANCH  61  74
ATOM     74  C   UNL A   1      44.360  32.335  27.584  1.00  0.00    -0.014 A 
ATOM     75  C   UNL A   1      44.494  33.616  28.139  1.00  0.00     0.009 A 
ATOM     76  C   UNL A   1      44.326  32.246  26.176  1.00  0.00     0.009 A 
ATOM     77  C   UNL A   1      44.536  34.756  27.326  1.00  0.00     0.001 A 
ATOM     78  C   UNL A   1      44.406  33.376  25.362  1.00  0.00     0.001 A 
ATOM     79  C   UNL A   1      44.498  34.636  25.940  1.00  0.00     0.000 A 
ENDBRANCH  61  74
ENDBRANCH  35  36
ENDBRANCH  27  30
ENDBRANCH  25  26
ENDBRANCH  24  25
ENDBRANCH   1  24
TORSDOF 15
ENDMDL
MODEL 3
REMARK VINA RESULT:     -11.1      3.454      8.782
REMARK SMILES CC[C@](C)(NC(=O)N(C)Cc1cccc(C)c1)C(=O)NCCCNC(=O)c1ccc(-c2c3nc(c(-c4ccccc4)c4ccc([nH]4)c(-c4ccccc4)c4nc(c(-c5ccccc5)c5ccc2[nH]5)C=C4)C=C3)cc1
REMARK SMILES IDX 21 1 20 2 18 3 19 4 3 6 4 7 2 8 1 9 5 10 6 11 7 13 8 14 9 15
REMARK SMILES IDX 10 16 11 17 12 18 17 19 13 20 15 21 14 22 16 23 22 24 23 25
REMARK SMILES IDX 24 26 25 27 26 29 27 30 28 31 74 32 29 33 73 34 30 35 31 36
REMARK SMILES IDX 32 37 67 38 33 39 72 40 66 41 68 42 34 43 71 44 65 45 64 46
REMARK SMILES IDX 35 48 57 49 42 50 56 51 43 52 46 53 55 54 69 55 44 56 45 57
REMARK SMILES IDX 54 59 70 60 47 61 36 62 37 63 41 64 38 65 40 66 39 67 58 68
REMARK SMILES IDX 59 69 63 70 60 71 62 72 61 73 48 74 49 75 53 76 50 77 52 78
REMARK SMILES IDX 51 79
REMARK H PARENT 20 5 5 12 24 28 68 47 46 58
REMARK Flexibility Score: inf
ROOT
ATOM      1  C   UNL A   1      36.584  21.462  25.225  1.00  0.00     0.117 C 
ENDROOT
BRANCH   1   2
ATOM      2  N   UNL A   1      35.822  21.522  26.464  1.00  0.00    -0.354 N 
ATOM      3  C   UNL A   1      34.565  21.942  26.789  1.00  0.00     0.245 C 
ATOM      4  O   UNL A   1      34.146  21.529  27.881  1.00  0.00    -0.272 OA
ATOM      5  H   UNL A   1      36.325  21.183  27.240  1.00  0.00     0.163 HD
BRANCH   3   6
ATOM      6  C   UNL A   1      33.647  22.828  25.885  1.00  0.00     0.117 C 
ATOM      7  C   UNL A   1      32.811  23.815  26.739  1.00  0.00     0.045 C 
BRANCH   6   8
ATOM      8  C   UNL A   1      32.635  21.926  25.115  1.00  0.00     0.035 C 
ATOM      9  C   UNL A   1      31.162  22.224  25.384  1.00  0.00     0.007 C 
ENDBRANCH   6   8
BRANCH   6  10
ATOM     10  N   UNL A   1      34.392  23.637  24.886  1.00  0.00    -0.324 N 
ATOM     11  C   UNL A   1      34.017  24.072  23.647  1.00  0.00     0.318 C 
ATOM     12  H   UNL A   1      35.299  23.901  25.160  1.00  0.00     0.166 HD
ATOM     13  O   UNL A   1      34.772  23.795  22.715  1.00  0.00    -0.249 OA
BRANCH  11  14
ATOM     14  N   UNL A   1      33.024  25.020  23.548  1.00  0.00    -0.324 N 
ATOM     15  C   UNL A   1      31.967  24.855  22.559  1.00  0.00     0.149 C 
BRANCH  14  16
ATOM     16  C   UNL A   1      33.374  26.426  23.786  1.00  0.00     0.156 C 
BRANCH  16  17
ATOM     17  C   UNL A   1      33.062  27.097  25.116  1.00  0.00    -0.028 A 
ATOM     18  C   UNL A   1      31.750  26.959  25.611  1.00  0.00     0.005 A 
ATOM     19  C   UNL A   1      33.923  27.960  25.806  1.00  0.00     0.009 A 
ATOM     20  C   UNL A   1      31.322  27.654  26.746  1.00  0.00     0.001 A 
ATOM     21  C   UNL A   1      33.497  28.686  26.930  1.00  0.00    -0.051 A 
ATOM     22  C   UNL A   1      32.190  28.525  27.395  1.00  0.00     0.003 A 
ATOM     23  C   UNL A   1      34.401  29.702  27.566  1.00  0.00     0.044 C 
ENDBRANCH  16  17
ENDBRANCH  14  16
ENDBRANCH  11  14
ENDBRANCH   6  10
ENDBRANCH   3   6
ENDBRANCH   1   2
BRANCH   1  24
ATOM     24  C   UNL A   1      38.097  21.532  25.370  1.00  0.00     0.042 C 
BRANCH  24  25
ATOM     25  C   UNL A   1      38.585  22.767  26.122  1.00  0.00     0.118 C 
BRANCH  25  26
ATOM     26  N   UNL A   1      40.046  22.856  26.218  1.00  0.00    -0.352 N 
ATOM     27  C   UNL A   1      40.834  23.902  26.683  1.00  0.00     0.251 C 
ATOM     28  H   UNL A   1      40.539  22.061  25.911  1.00  0.00     0.163 HD
ATOM     29  O   UNL A   1      42.034  23.785  26.790  1.00  0.00    -0.269 OA
BRANCH  27  30
ATOM     30  C   UNL A   1      40.153  25.126  27.172  1.00  0.00     0.039 A 
ATOM     31  C   UNL A   1      40.403  26.327  26.503  1.00  0.00     0.014 A 
ATOM     32  C   UNL A   1      39.493  25.116  28.395  1.00  0.00     0.014 A 
ATOM     33  C   UNL A   1      40.242  27.526  27.190  1.00  0.00     0.010 A 
ATOM     34  C   UNL A   1      39.418  26.293  29.112  1.00  0.00     0.010 A 
ATOM     35  C   UNL A   1      39.871  27.483  28.536  1.00  0.00    -0.014 A 
BRANCH  35  36
ATOM     36  C   UNL A   1      40.085  28.606  29.441  1.00  0.00     0.031 A 
ATOM     37  C   UNL A   1      39.046  29.634  29.623  1.00  0.00     0.074 A 
ATOM     38  C   UNL A   1      41.254  28.719  30.112  1.00  0.00     0.049 A 
ATOM     39  N   UNL A   1      39.294  30.884  29.831  1.00  0.00    -0.248 NA
ATOM     40  C   UNL A   1      37.624  29.321  29.544  1.00  0.00     0.031 C 
ATOM     41  C   UNL A   1      41.572  29.668  31.175  1.00  0.00     0.029 A 
ATOM     42  N   UNL A   1      42.483  28.138  29.799  1.00  0.00    -0.354 N 
ATOM     43  C   UNL A   1      38.108  31.470  30.202  1.00  0.00     0.074 A 
ATOM     44  C   UNL A   1      37.086  30.485  29.922  1.00  0.00     0.031 C 
ATOM     45  C   UNL A   1      42.904  29.841  31.209  1.00  0.00     0.029 A 
ATOM     46  C   UNL A   1      43.467  29.095  30.095  1.00  0.00     0.049 A 
ATOM     47  H   UNL A   1      42.632  27.234  29.440  1.00  0.00     0.167 HD
ATOM     48  C   UNL A   1      38.105  32.660  30.865  1.00  0.00     0.031 A 
ATOM     49  C   UNL A   1      44.356  29.578  29.181  1.00  0.00     0.031 A 
ATOM     50  C   UNL A   1      39.448  33.185  31.078  1.00  0.00     0.049 A 
ATOM     51  C   UNL A   1      44.277  31.079  29.018  1.00  0.00     0.074 A 
ATOM     52  C   UNL A   1      40.306  33.131  32.165  1.00  0.00     0.029 A 
ATOM     53  N   UNL A   1      40.207  33.604  29.994  1.00  0.00    -0.354 N 
ATOM     54  N   UNL A   1      43.281  31.800  29.451  1.00  0.00    -0.248 NA
ATOM     55  C   UNL A   1      45.263  31.875  28.289  1.00  0.00     0.031 C 
ATOM     56  C   UNL A   1      41.610  33.442  31.708  1.00  0.00     0.029 A 
ATOM     57  C   UNL A   1      41.538  33.710  30.353  1.00  0.00     0.049 A 
ATOM     58  H   UNL A   1      39.849  33.799  29.098  1.00  0.00     0.167 HD
ATOM     59  C   UNL A   1      43.460  33.102  29.073  1.00  0.00     0.074 A 
ATOM     60  C   UNL A   1      44.718  33.103  28.352  1.00  0.00     0.031 C 
ATOM     61  C   UNL A   1      42.547  34.071  29.371  1.00  0.00     0.031 A 
BRANCH  48  62
ATOM     62  C   UNL A   1      36.884  33.138  31.605  1.00  0.00    -0.014 A 
ATOM     63  C   UNL A   1      36.725  32.831  32.969  1.00  0.00     0.009 A 
ATOM     64  C   UNL A   1      35.830  33.839  30.994  1.00  0.00     0.009 A 
ATOM     65  C   UNL A   1      35.537  33.108  33.655  1.00  0.00     0.001 A 
ATOM     66  C   UNL A   1      34.623  34.082  31.664  1.00  0.00     0.001 A 
ATOM     67  C   UNL A   1      34.473  33.705  32.993  1.00  0.00     0.000 A 
ENDBRANCH  48  62
BRANCH  49  68
ATOM     68  C   UNL A   1      44.665  28.632  28.077  1.00  0.00    -0.014 A 
ATOM     69  C   UNL A   1      45.527  27.552  28.353  1.00  0.00     0.009 A 
ATOM     70  C   UNL A   1      43.836  28.560  26.948  1.00  0.00     0.009 A 
ATOM     71  C   UNL A   1      45.463  26.378  27.600  1.00  0.00     0.001 A 
ATOM     72  C   UNL A   1      43.786  27.385  26.189  1.00  0.00     0.001 A 
ATOM     73  C   UNL A   1      44.567  26.283  26.539  1.00  0.00     0.000 A 
ENDBRANCH  49  68
BRANCH  61  74
ATOM     74  C   UNL A   1      42.573  35.475  28.838  1.00  0.00    -0.014 A 
ATOM     75  C   UNL A   1      43.128  36.561  29.531  1.00  0.00     0.009 A 
ATOM     76  C   UNL A   1      42.136  35.713  27.518  1.00  0.00     0.009 A 
ATOM     77  C   UNL A   1      43.192  37.834  28.950  1.00  0.00     0.001 A 
ATOM     78  C   UNL A   1      42.233  36.971  26.922  1.00  0.00     0.001 A 
ATOM     79  C   UNL A   1      42.750  38.037  27.646  1.00  0.00     0.000 A 
ENDBRANCH  61  74
ENDBRANCH  35  36
ENDBRANCH  27  30
ENDBRANCH  25  26
ENDBRANCH  24  25
ENDBRANCH   1  24
TORSDOF 15
ENDMDL
