MODEL 1
REMARK VINA RESULT:     -12.4      0.000      0.000
REMARK SMILES Cc1ccc([C@@H](CC(=O)NCCCNC(=O)c2ccc(-c3c4nc(c(-c5ccccc5)c5ccc([nH]5)c(-c5ccccc5)c5nc(c(-c6ccccc6)c6ccc3[nH]6)C=C5)C=C4)cc2)NC(=O)c2ccc(OC(F)F)cc2)cc1
REMARK SMILES IDX 8 1 9 2 10 3 7 5 6 6 5 7 1 8 2 9 3 10 79 11 4 12 78 13 65 14
REMARK SMILES IDX 66 15 67 17 68 18 69 19 77 20 70 21 76 22 71 23 72 24 73 25
REMARK SMILES IDX 74 26 75 27 11 28 12 29 13 30 14 31 15 32 16 34 17 35 18 36
REMARK SMILES IDX 64 37 19 38 63 39 20 40 21 41 22 42 57 43 23 44 62 45 56 46
REMARK SMILES IDX 58 47 24 48 61 49 55 50 54 51 25 53 47 54 32 55 46 56 33 57
REMARK SMILES IDX 36 58 45 59 59 60 34 61 35 62 44 64 60 65 37 66 26 67 27 68
REMARK SMILES IDX 31 69 28 70 30 71 29 72 48 73 49 74 53 75 50 76 52 77 51 78
REMARK SMILES IDX 38 79 39 80 43 81 40 82 42 83 41 84
REMARK H PARENT 10 4 65 16 14 33 58 52 36 63
REMARK Flexibility Score: inf
ROOT
ATOM      1  C   UNL A   1      32.169  28.006  27.345  1.00  0.00     0.222 C 
ATOM      2  O   UNL A   1      31.168  27.677  27.983  1.00  0.00    -0.275 OA
ATOM      3  N   UNL A   1      32.858  29.101  27.768  1.00  0.00    -0.356 N 
ATOM      4  H   UNL A   1      32.761  29.315  28.724  1.00  0.00     0.163 HD
ENDROOT
BRANCH   1   5
ATOM      5  C   UNL A   1      32.708  27.147  26.225  1.00  0.00     0.129 C 
BRANCH   5   6
ATOM      6  C   UNL A   1      31.788  26.048  25.647  1.00  0.00     0.122 C 
BRANCH   6   7
ATOM      7  C   UNL A   1      30.820  26.688  24.652  1.00  0.00    -0.025 A 
ATOM      8  C   UNL A   1      27.877  29.110  22.626  1.00  0.00     0.044 C 
ATOM      9  C   UNL A   1      28.928  28.214  23.211  1.00  0.00    -0.051 A 
ATOM     10  C   UNL A   1      28.575  26.984  23.766  1.00  0.00     0.004 A 
ATOM     11  C   UNL A   1      30.257  28.637  23.298  1.00  0.00     0.004 A 
ATOM     12  C   UNL A   1      29.518  26.216  24.452  1.00  0.00     0.006 A 
ATOM     13  C   UNL A   1      31.193  27.882  24.010  1.00  0.00     0.006 A 
ENDBRANCH   6   7
BRANCH   6  14
ATOM     14  N   UNL A   1      31.103  25.197  26.618  1.00  0.00    -0.345 N 
ATOM     15  C   UNL A   1      31.121  23.834  26.758  1.00  0.00     0.251 C 
ATOM     16  H   UNL A   1      30.542  25.676  27.271  1.00  0.00     0.164 HD
ATOM     17  O   UNL A   1      30.196  23.270  27.346  1.00  0.00    -0.269 OA
BRANCH  15  18
ATOM     18  C   UNL A   1      32.241  23.030  26.229  1.00  0.00     0.040 A 
ATOM     19  C   UNL A   1      33.390  22.843  27.000  1.00  0.00     0.017 A 
ATOM     20  C   UNL A   1      32.207  22.552  24.919  1.00  0.00     0.017 A 
ATOM     21  C   UNL A   1      34.467  22.119  26.475  1.00  0.00     0.047 A 
ATOM     22  C   UNL A   1      33.270  21.805  24.409  1.00  0.00     0.047 A 
ATOM     23  C   UNL A   1      34.404  21.578  25.185  1.00  0.00     0.126 A 
BRANCH  23  24
ATOM     24  O   UNL A   1      35.513  20.882  24.796  1.00  0.00    -0.435 OA
BRANCH  24  25
ATOM     25  C   UNL A   1      36.743  21.591  24.700  1.00  0.00     0.542 C 
ATOM     26  F   UNL A   1      37.732  20.751  24.311  1.00  0.00    -0.167 F 
ATOM     27  F   UNL A   1      36.642  22.582  23.782  1.00  0.00    -0.167 F 
ENDBRANCH  24  25
ENDBRANCH  23  24
ENDBRANCH  15  18
ENDBRANCH   6  14
ENDBRANCH   5   6
ENDBRANCH   1   5
BRANCH   3  28
ATOM     28  C   UNL A   1      33.717  30.003  27.015  1.00  0.00     0.117 C 
BRANCH  28  29
ATOM     29  C   UNL A   1      33.565  31.380  27.626  1.00  0.00     0.042 C 
BRANCH  29  30
ATOM     30  C   UNL A   1      34.808  32.243  27.686  1.00  0.00     0.118 C 
BRANCH  30  31
ATOM     31  N   UNL A   1      35.382  32.548  28.997  1.00  0.00    -0.352 N 
ATOM     32  C   UNL A   1      36.361  31.835  29.687  1.00  0.00     0.251 C 
ATOM     33  H   UNL A   1      35.036  33.353  29.446  1.00  0.00     0.163 HD
ATOM     34  O   UNL A   1      36.974  32.340  30.632  1.00  0.00    -0.269 OA
BRANCH  32  35
ATOM     35  C   UNL A   1      36.733  30.487  29.208  1.00  0.00     0.039 A 
ATOM     36  C   UNL A   1      36.705  29.456  30.157  1.00  0.00     0.014 A 
ATOM     37  C   UNL A   1      37.576  30.434  28.108  1.00  0.00     0.014 A 
ATOM     38  C   UNL A   1      37.801  28.609  30.240  1.00  0.00     0.010 A 
ATOM     39  C   UNL A   1      38.716  29.677  28.265  1.00  0.00     0.010 A 
ATOM     40  C   UNL A   1      38.873  28.863  29.400  1.00  0.00    -0.014 A 
BRANCH  40  41
ATOM     41  C   UNL A   1      40.235  28.409  29.640  1.00  0.00     0.031 A 
ATOM     42  C   UNL A   1      40.614  27.111  29.061  1.00  0.00     0.074 A 
ATOM     43  C   UNL A   1      41.164  29.230  30.189  1.00  0.00     0.049 A 
ATOM     44  N   UNL A   1      41.714  26.504  29.320  1.00  0.00    -0.248 NA
ATOM     45  C   UNL A   1      39.737  26.349  28.173  1.00  0.00     0.031 C 
ATOM     46  C   UNL A   1      42.621  29.127  30.084  1.00  0.00     0.029 A 
ATOM     47  N   UNL A   1      40.973  30.241  31.133  1.00  0.00    -0.354 N 
ATOM     48  C   UNL A   1      41.832  25.472  28.425  1.00  0.00     0.074 A 
ATOM     49  C   UNL A   1      40.540  25.352  27.802  1.00  0.00     0.031 C 
ATOM     50  C   UNL A   1      43.191  29.838  31.070  1.00  0.00     0.029 A 
ATOM     51  C   UNL A   1      42.128  30.274  31.953  1.00  0.00     0.049 A 
ATOM     52  H   UNL A   1      40.183  30.823  31.214  1.00  0.00     0.167 HD
ATOM     53  C   UNL A   1      43.062  24.926  28.241  1.00  0.00     0.031 A 
ATOM     54  C   UNL A   1      42.054  29.979  33.287  1.00  0.00     0.031 A 
ATOM     55  C   UNL A   1      44.015  25.441  29.223  1.00  0.00     0.049 A 
ATOM     56  C   UNL A   1      42.822  28.731  33.691  1.00  0.00     0.074 A 
ATOM     57  C   UNL A   1      45.039  26.372  29.196  1.00  0.00     0.029 A 
ATOM     58  N   UNL A   1      43.737  25.218  30.559  1.00  0.00    -0.354 N 
ATOM     59  N   UNL A   1      43.404  27.927  32.843  1.00  0.00    -0.248 NA
ATOM     60  C   UNL A   1      42.921  28.237  35.065  1.00  0.00     0.031 C 
ATOM     61  C   UNL A   1      45.374  26.691  30.546  1.00  0.00     0.029 A 
ATOM     62  C   UNL A   1      44.582  25.927  31.382  1.00  0.00     0.049 A 
ATOM     63  H   UNL A   1      43.021  24.624  30.883  1.00  0.00     0.167 HD
ATOM     64  C   UNL A   1      43.870  26.816  33.494  1.00  0.00     0.074 A 
ATOM     65  C   UNL A   1      43.546  27.058  34.889  1.00  0.00     0.031 C 
ATOM     66  C   UNL A   1      44.435  25.770  32.822  1.00  0.00     0.031 A 
BRANCH  53  67
ATOM     67  C   UNL A   1      43.460  24.058  27.079  1.00  0.00    -0.014 A 
ATOM     68  C   UNL A   1      43.658  24.663  25.826  1.00  0.00     0.009 A 
ATOM     69  C   UNL A   1      43.589  22.659  27.114  1.00  0.00     0.009 A 
ATOM     70  C   UNL A   1      43.919  23.914  24.672  1.00  0.00     0.001 A 
ATOM     71  C   UNL A   1      43.848  21.902  25.965  1.00  0.00     0.001 A 
ATOM     72  C   UNL A   1      44.003  22.529  24.740  1.00  0.00     0.000 A 
ENDBRANCH  53  67
BRANCH  54  73
ATOM     73  C   UNL A   1      40.756  30.426  33.877  1.00  0.00    -0.014 A 
ATOM     74  C   UNL A   1      40.588  31.810  34.097  1.00  0.00     0.009 A 
ATOM     75  C   UNL A   1      39.615  29.626  33.721  1.00  0.00     0.009 A 
ATOM     76  C   UNL A   1      39.330  32.402  33.954  1.00  0.00     0.001 A 
ATOM     77  C   UNL A   1      38.354  30.225  33.608  1.00  0.00     0.001 A 
ATOM     78  C   UNL A   1      38.223  31.612  33.660  1.00  0.00     0.000 A 
ENDBRANCH  54  73
BRANCH  66  79
ATOM     79  C   UNL A   1      44.858  24.462  33.446  1.00  0.00    -0.014 A 
ATOM     80  C   UNL A   1      43.973  23.414  33.715  1.00  0.00     0.009 A 
ATOM     81  C   UNL A   1      46.192  24.288  33.887  1.00  0.00     0.009 A 
ATOM     82  C   UNL A   1      44.415  22.231  34.329  1.00  0.00     0.001 A 
ATOM     83  C   UNL A   1      46.633  23.124  34.517  1.00  0.00     0.001 A 
ATOM     84  C   UNL A   1      45.743  22.085  34.725  1.00  0.00     0.000 A 
ENDBRANCH  66  79
ENDBRANCH  40  41
ENDBRANCH  32  35
ENDBRANCH  30  31
ENDBRANCH  29  30
ENDBRANCH  28  29
ENDBRANCH   3  28
TORSDOF 16
ENDMDL
MODEL 2
REMARK VINA RESULT:     -12.1      4.356      7.679
REMARK SMILES Cc1ccc([C@@H](CC(=O)NCCCNC(=O)c2ccc(-c3c4nc(c(-c5ccccc5)c5ccc([nH]5)c(-c5ccccc5)c5nc(c(-c6ccccc6)c6ccc3[nH]6)C=C5)C=C4)cc2)NC(=O)c2ccc(OC(F)F)cc2)cc1
REMARK SMILES IDX 8 1 9 2 10 3 7 5 6 6 5 7 1 8 2 9 3 10 79 11 4 12 78 13 65 14
REMARK SMILES IDX 66 15 67 17 68 18 69 19 77 20 70 21 76 22 71 23 72 24 73 25
REMARK SMILES IDX 74 26 75 27 11 28 12 29 13 30 14 31 15 32 16 34 17 35 18 36
REMARK SMILES IDX 64 37 19 38 63 39 20 40 21 41 22 42 57 43 23 44 62 45 56 46
REMARK SMILES IDX 58 47 24 48 61 49 55 50 54 51 25 53 47 54 32 55 46 56 33 57
REMARK SMILES IDX 36 58 45 59 59 60 34 61 35 62 44 64 60 65 37 66 26 67 27 68
REMARK SMILES IDX 31 69 28 70 30 71 29 72 48 73 49 74 53 75 50 76 52 77 51 78
REMARK SMILES IDX 38 79 39 80 43 81 40 82 42 83 41 84
REMARK H PARENT 10 4 65 16 14 33 58 52 36 63
REMARK Flexibility Score: inf
ROOT
ATOM      1  C   UNL A   1      36.351  23.162  23.716  1.00  0.00     0.222 C 
ATOM      2  O   UNL A   1      36.364  23.125  22.485  1.00  0.00    -0.275 OA
ATOM      3  N   UNL A   1      37.456  22.716  24.374  1.00  0.00    -0.356 N 
ATOM      4  H   UNL A   1      38.296  22.763  23.864  1.00  0.00     0.163 HD
ENDROOT
BRANCH   1   5
ATOM      5  C   UNL A   1      35.220  23.817  24.475  1.00  0.00     0.129 C 
BRANCH   5   6
ATOM      6  C   UNL A   1      33.867  23.993  23.749  1.00  0.00     0.122 C 
BRANCH   6   7
ATOM      7  C   UNL A   1      33.180  22.631  23.649  1.00  0.00    -0.025 A 
ATOM      8  C   UNL A   1      32.154  18.483  23.035  1.00  0.00     0.044 C 
ATOM      9  C   UNL A   1      32.392  19.938  23.309  1.00  0.00    -0.051 A 
ATOM     10  C   UNL A   1      32.088  20.895  22.341  1.00  0.00     0.004 A 
ATOM     11  C   UNL A   1      33.011  20.348  24.493  1.00  0.00     0.004 A 
ATOM     12  C   UNL A   1      32.451  22.231  22.523  1.00  0.00     0.006 A 
ATOM     13  C   UNL A   1      33.399  21.680  24.661  1.00  0.00     0.006 A 
ENDBRANCH   6   7
BRANCH   6  14
ATOM     14  N   UNL A   1      33.904  24.691  22.465  1.00  0.00    -0.345 N 
ATOM     15  C   UNL A   1      33.309  25.865  22.087  1.00  0.00     0.251 C 
ATOM     16  H   UNL A   1      34.438  24.249  21.764  1.00  0.00     0.164 HD
ATOM     17  O   UNL A   1      33.111  26.090  20.891  1.00  0.00    -0.269 OA
BRANCH  15  18
ATOM     18  C   UNL A   1      32.914  26.875  23.090  1.00  0.00     0.040 A 
ATOM     19  C   UNL A   1      31.590  26.946  23.524  1.00  0.00     0.017 A 
ATOM     20  C   UNL A   1      33.832  27.834  23.520  1.00  0.00     0.017 A 
ATOM     21  C   UNL A   1      31.213  27.936  24.440  1.00  0.00     0.047 A 
ATOM     22  C   UNL A   1      33.461  28.801  24.457  1.00  0.00     0.047 A 
ATOM     23  C   UNL A   1      32.151  28.855  24.928  1.00  0.00     0.126 A 
BRANCH  23  24
ATOM     24  O   UNL A   1      31.661  29.760  25.825  1.00  0.00    -0.435 OA
BRANCH  24  25
ATOM     25  C   UNL A   1      31.785  29.456  27.210  1.00  0.00     0.542 C 
ATOM     26  F   UNL A   1      31.134  28.301  27.491  1.00  0.00    -0.167 F 
ATOM     27  F   UNL A   1      33.089  29.299  27.540  1.00  0.00    -0.167 F 
ENDBRANCH  24  25
ENDBRANCH  23  24
ENDBRANCH  15  18
ENDBRANCH   6  14
ENDBRANCH   5   6
ENDBRANCH   1   5
BRANCH   3  28
ATOM     28  C   UNL A   1      37.578  22.177  25.720  1.00  0.00     0.117 C 
BRANCH  28  29
ATOM     29  C   UNL A   1      38.873  22.706  26.299  1.00  0.00     0.042 C 
BRANCH  29  30
ATOM     30  C   UNL A   1      40.018  21.723  26.426  1.00  0.00     0.118 C 
BRANCH  30  31
ATOM     31  N   UNL A   1      41.193  21.907  25.573  1.00  0.00    -0.352 N 
ATOM     32  C   UNL A   1      42.355  22.619  25.863  1.00  0.00     0.251 C 
ATOM     33  H   UNL A   1      41.158  21.478  24.688  1.00  0.00     0.163 HD
ATOM     34  O   UNL A   1      43.385  22.460  25.201  1.00  0.00    -0.269 OA
BRANCH  32  35
ATOM     35  C   UNL A   1      42.374  23.503  27.047  1.00  0.00     0.039 A 
ATOM     36  C   UNL A   1      42.489  24.878  26.799  1.00  0.00     0.014 A 
ATOM     37  C   UNL A   1      42.831  22.942  28.230  1.00  0.00     0.014 A 
ATOM     38  C   UNL A   1      43.429  25.600  27.520  1.00  0.00     0.010 A 
ATOM     39  C   UNL A   1      43.848  23.624  28.860  1.00  0.00     0.010 A 
ATOM     40  C   UNL A   1      44.224  24.904  28.416  1.00  0.00    -0.014 A 
BRANCH  40  41
ATOM     41  C   UNL A   1      45.517  25.361  28.901  1.00  0.00     0.031 A 
ATOM     42  C   UNL A   1      46.691  25.023  28.084  1.00  0.00     0.074 A 
ATOM     43  C   UNL A   1      45.612  26.228  29.940  1.00  0.00     0.049 A 
ATOM     44  N   UNL A   1      47.904  25.210  28.459  1.00  0.00    -0.248 NA
ATOM     45  C   UNL A   1      46.592  24.377  26.776  1.00  0.00     0.031 C 
ATOM     46  C   UNL A   1      46.726  27.123  30.258  1.00  0.00     0.029 A 
ATOM     47  N   UNL A   1      44.773  26.339  31.052  1.00  0.00    -0.354 N 
ATOM     48  C   UNL A   1      48.705  25.018  27.363  1.00  0.00     0.074 A 
ATOM     49  C   UNL A   1      47.861  24.405  26.371  1.00  0.00     0.031 C 
ATOM     50  C   UNL A   1      46.642  27.501  31.544  1.00  0.00     0.029 A 
ATOM     51  C   UNL A   1      45.580  26.723  32.150  1.00  0.00     0.049 A 
ATOM     52  H   UNL A   1      43.801  26.181  31.068  1.00  0.00     0.167 HD
ATOM     53  C   UNL A   1      49.966  25.521  27.399  1.00  0.00     0.031 A 
ATOM     54  C   UNL A   1      45.739  25.898  33.231  1.00  0.00     0.031 A 
ATOM     55  C   UNL A   1      50.293  26.016  28.736  1.00  0.00     0.049 A 
ATOM     56  C   UNL A   1      47.162  25.402  33.430  1.00  0.00     0.074 A 
ATOM     57  C   UNL A   1      50.376  27.267  29.321  1.00  0.00     0.029 A 
ATOM     58  N   UNL A   1      50.256  25.108  29.779  1.00  0.00    -0.354 N 
ATOM     59  N   UNL A   1      48.136  25.626  32.590  1.00  0.00    -0.248 NA
ATOM     60  C   UNL A   1      47.584  24.540  34.535  1.00  0.00     0.031 C 
ATOM     61  C   UNL A   1      50.399  27.086  30.737  1.00  0.00     0.029 A 
ATOM     62  C   UNL A   1      50.370  25.729  31.001  1.00  0.00     0.049 A 
ATOM     63  H   UNL A   1      50.160  24.135  29.660  1.00  0.00     0.167 HD
ATOM     64  C   UNL A   1      49.248  24.919  32.962  1.00  0.00     0.074 A 
ATOM     65  C   UNL A   1      48.854  24.254  34.191  1.00  0.00     0.031 C 
ATOM     66  C   UNL A   1      50.380  24.900  32.197  1.00  0.00     0.031 A 
BRANCH  53  67
ATOM     67  C   UNL A   1      50.851  25.728  26.202  1.00  0.00    -0.014 A 
ATOM     68  C   UNL A   1      52.093  25.070  26.162  1.00  0.00     0.009 A 
ATOM     69  C   UNL A   1      50.577  26.589  25.125  1.00  0.00     0.009 A 
ATOM     70  C   UNL A   1      53.022  25.297  25.139  1.00  0.00     0.001 A 
ATOM     71  C   UNL A   1      51.501  26.824  24.099  1.00  0.00     0.001 A 
ATOM     72  C   UNL A   1      52.730  26.184  24.112  1.00  0.00     0.000 A 
ENDBRANCH  53  67
BRANCH  54  73
ATOM     73  C   UNL A   1      44.500  25.109  33.505  1.00  0.00    -0.014 A 
ATOM     74  C   UNL A   1      44.521  23.737  33.175  1.00  0.00     0.009 A 
ATOM     75  C   UNL A   1      43.605  25.551  34.490  1.00  0.00     0.009 A 
ATOM     76  C   UNL A   1      43.820  22.811  33.952  1.00  0.00     0.001 A 
ATOM     77  C   UNL A   1      42.883  24.617  35.245  1.00  0.00     0.001 A 
ATOM     78  C   UNL A   1      43.041  23.250  35.018  1.00  0.00     0.000 A 
ENDBRANCH  54  73
BRANCH  66  79
ATOM     79  C   UNL A   1      51.599  24.051  32.469  1.00  0.00    -0.014 A 
ATOM     80  C   UNL A   1      51.548  22.668  32.660  1.00  0.00     0.009 A 
ATOM     81  C   UNL A   1      52.863  24.665  32.646  1.00  0.00     0.009 A 
ATOM     82  C   UNL A   1      52.709  21.932  32.944  1.00  0.00     0.001 A 
ATOM     83  C   UNL A   1      54.017  23.942  32.950  1.00  0.00     0.001 A 
ATOM     84  C   UNL A   1      53.941  22.567  33.084  1.00  0.00     0.000 A 
ENDBRANCH  66  79
ENDBRANCH  40  41
ENDBRANCH  32  35
ENDBRANCH  30  31
ENDBRANCH  29  30
ENDBRANCH  28  29
ENDBRANCH   3  28
TORSDOF 16
ENDMDL
MODEL 3
REMARK VINA RESULT:     -12.0      2.057      3.392
REMARK SMILES Cc1ccc([C@@H](CC(=O)NCCCNC(=O)c2ccc(-c3c4nc(c(-c5ccccc5)c5ccc([nH]5)c(-c5ccccc5)c5nc(c(-c6ccccc6)c6ccc3[nH]6)C=C5)C=C4)cc2)NC(=O)c2ccc(OC(F)F)cc2)cc1
REMARK SMILES IDX 8 1 9 2 10 3 7 5 6 6 5 7 1 8 2 9 3 10 79 11 4 12 78 13 65 14
REMARK SMILES IDX 66 15 67 17 68 18 69 19 77 20 70 21 76 22 71 23 72 24 73 25
REMARK SMILES IDX 74 26 75 27 11 28 12 29 13 30 14 31 15 32 16 34 17 35 18 36
REMARK SMILES IDX 64 37 19 38 63 39 20 40 21 41 22 42 57 43 23 44 62 45 56 46
REMARK SMILES IDX 58 47 24 48 61 49 55 50 54 51 25 53 47 54 32 55 46 56 33 57
REMARK SMILES IDX 36 58 45 59 59 60 34 61 35 62 44 64 60 65 37 66 26 67 27 68
REMARK SMILES IDX 31 69 28 70 30 71 29 72 48 73 49 74 53 75 50 76 52 77 51 78
REMARK SMILES IDX 38 79 39 80 43 81 40 82 42 83 41 84
REMARK H PARENT 10 4 65 16 14 33 58 52 36 63
REMARK Flexibility Score: inf
ROOT
ATOM      1  C   UNL A   1      32.141  28.127  27.316  1.00  0.00     0.222 C 
ATOM      2  O   UNL A   1      31.171  27.801  28.003  1.00  0.00    -0.275 OA
ATOM      3  N   UNL A   1      32.771  29.293  27.623  1.00  0.00    -0.356 N 
ATOM      4  H   UNL A   1      32.677  29.588  28.557  1.00  0.00     0.163 HD
ENDROOT
BRANCH   1   5
ATOM      5  C   UNL A   1      32.712  27.200  26.268  1.00  0.00     0.129 C 
BRANCH   5   6
ATOM      6  C   UNL A   1      31.772  26.141  25.647  1.00  0.00     0.122 C 
BRANCH   6   7
ATOM      7  C   UNL A   1      30.870  26.824  24.620  1.00  0.00    -0.025 A 
ATOM      8  C   UNL A   1      28.039  29.315  22.518  1.00  0.00     0.044 C 
ATOM      9  C   UNL A   1      29.061  28.403  23.129  1.00  0.00    -0.051 A 
ATOM     10  C   UNL A   1      28.692  27.137  23.584  1.00  0.00     0.004 A 
ATOM     11  C   UNL A   1      30.371  28.841  23.342  1.00  0.00     0.004 A 
ATOM     12  C   UNL A   1      29.596  26.345  24.294  1.00  0.00     0.006 A 
ATOM     13  C   UNL A   1      31.265  28.059  24.078  1.00  0.00     0.006 A 
ENDBRANCH   6   7
BRANCH   6  14
ATOM     14  N   UNL A   1      31.017  25.313  26.586  1.00  0.00    -0.345 N 
ATOM     15  C   UNL A   1      31.109  23.970  26.841  1.00  0.00     0.251 C 
ATOM     16  H   UNL A   1      30.339  25.793  27.115  1.00  0.00     0.164 HD
ATOM     17  O   UNL A   1      30.151  23.379  27.345  1.00  0.00    -0.269 OA
BRANCH  15  18
ATOM     18  C   UNL A   1      32.345  23.220  26.538  1.00  0.00     0.040 A 
ATOM     19  C   UNL A   1      32.685  22.943  25.213  1.00  0.00     0.017 A 
ATOM     20  C   UNL A   1      33.116  22.688  27.571  1.00  0.00     0.017 A 
ATOM     21  C   UNL A   1      33.833  22.192  24.934  1.00  0.00     0.047 A 
ATOM     22  C   UNL A   1      34.277  21.966  27.291  1.00  0.00     0.047 A 
ATOM     23  C   UNL A   1      34.647  21.718  25.971  1.00  0.00     0.126 A 
BRANCH  23  24
ATOM     24  O   UNL A   1      35.744  21.012  25.567  1.00  0.00    -0.435 OA
BRANCH  24  25
ATOM     25  C   UNL A   1      36.864  21.743  25.081  1.00  0.00     0.542 C 
ATOM     26  F   UNL A   1      37.733  21.983  26.094  1.00  0.00    -0.167 F 
ATOM     27  F   UNL A   1      37.510  21.033  24.126  1.00  0.00    -0.167 F 
ENDBRANCH  24  25
ENDBRANCH  23  24
ENDBRANCH  15  18
ENDBRANCH   6  14
ENDBRANCH   5   6
ENDBRANCH   1   5
BRANCH   3  28
ATOM     28  C   UNL A   1      33.562  30.170  26.773  1.00  0.00     0.117 C 
BRANCH  28  29
ATOM     29  C   UNL A   1      34.936  30.281  27.399  1.00  0.00     0.042 C 
BRANCH  29  30
ATOM     30  C   UNL A   1      35.254  31.569  28.130  1.00  0.00     0.118 C 
BRANCH  30  31
ATOM     31  N   UNL A   1      34.165  32.268  28.814  1.00  0.00    -0.352 N 
ATOM     32  C   UNL A   1      34.224  33.484  29.492  1.00  0.00     0.251 C 
ATOM     33  H   UNL A   1      33.285  31.827  28.792  1.00  0.00     0.163 HD
ATOM     34  O   UNL A   1      33.199  34.114  29.767  1.00  0.00    -0.269 OA
BRANCH  32  35
ATOM     35  C   UNL A   1      35.548  34.069  29.794  1.00  0.00     0.039 A 
ATOM     36  C   UNL A   1      36.428  34.215  28.714  1.00  0.00     0.014 A 
ATOM     37  C   UNL A   1      36.015  33.902  31.090  1.00  0.00     0.014 A 
ATOM     38  C   UNL A   1      37.733  33.766  28.863  1.00  0.00     0.010 A 
ATOM     39  C   UNL A   1      37.268  33.344  31.205  1.00  0.00     0.010 A 
ATOM     40  C   UNL A   1      38.071  33.164  30.064  1.00  0.00    -0.014 A 
BRANCH  40  41
ATOM     41  C   UNL A   1      39.190  32.253  30.245  1.00  0.00     0.031 A 
ATOM     42  C   UNL A   1      38.969  30.847  29.873  1.00  0.00     0.074 A 
ATOM     43  C   UNL A   1      40.431  32.712  30.544  1.00  0.00     0.049 A 
ATOM     44  N   UNL A   1      39.796  29.899  30.127  1.00  0.00    -0.248 NA
ATOM     45  C   UNL A   1      37.744  30.378  29.227  1.00  0.00     0.031 C 
ATOM     46  C   UNL A   1      41.711  32.040  30.316  1.00  0.00     0.029 A 
ATOM     47  N   UNL A   1      40.777  33.830  31.306  1.00  0.00    -0.354 N 
ATOM     48  C   UNL A   1      39.383  28.797  29.424  1.00  0.00     0.074 A 
ATOM     49  C   UNL A   1      38.055  29.109  28.963  1.00  0.00     0.031 C 
ATOM     50  C   UNL A   1      42.652  32.595  31.097  1.00  0.00     0.029 A 
ATOM     51  C   UNL A   1      41.978  33.518  31.988  1.00  0.00     0.049 A 
ATOM     52  H   UNL A   1      40.279  34.678  31.359  1.00  0.00     0.167 HD
ATOM     53  C   UNL A   1      40.280  27.799  29.219  1.00  0.00     0.031 A 
ATOM     54  C   UNL A   1      42.015  33.447  33.355  1.00  0.00     0.031 A 
ATOM     55  C   UNL A   1      41.500  28.025  29.994  1.00  0.00     0.049 A 
ATOM     56  C   UNL A   1      42.326  32.062  33.897  1.00  0.00     0.074 A 
ATOM     57  C   UNL A   1      42.775  28.475  29.700  1.00  0.00     0.029 A 
ATOM     58  N   UNL A   1      41.377  28.100  31.370  1.00  0.00    -0.354 N 
ATOM     59  N   UNL A   1      42.429  30.994  33.154  1.00  0.00    -0.248 NA
ATOM     60  C   UNL A   1      42.455  31.748  35.321  1.00  0.00     0.031 C 
ATOM     61  C   UNL A   1      43.415  28.809  30.931  1.00  0.00     0.029 A 
ATOM     62  C   UNL A   1      42.543  28.524  31.965  1.00  0.00     0.049 A 
ATOM     63  H   UNL A   1      40.554  27.876  31.864  1.00  0.00     0.167 HD
ATOM     64  C   UNL A   1      42.553  29.882  33.943  1.00  0.00     0.074 A 
ATOM     65  C   UNL A   1      42.567  30.406  35.298  1.00  0.00     0.031 C 
ATOM     66  C   UNL A   1      42.580  28.622  33.416  1.00  0.00     0.031 A 
BRANCH  53  67
ATOM     67  C   UNL A   1      40.141  26.704  28.198  1.00  0.00    -0.014 A 
ATOM     68  C   UNL A   1      39.365  25.578  28.522  1.00  0.00     0.009 A 
ATOM     69  C   UNL A   1      40.784  26.670  26.948  1.00  0.00     0.009 A 
ATOM     70  C   UNL A   1      39.277  24.468  27.673  1.00  0.00     0.001 A 
ATOM     71  C   UNL A   1      40.703  25.563  26.094  1.00  0.00     0.001 A 
ATOM     72  C   UNL A   1      39.957  24.455  26.462  1.00  0.00     0.000 A 
ENDBRANCH  53  67
BRANCH  54  73
ATOM     73  C   UNL A   1      41.084  34.433  33.980  1.00  0.00    -0.014 A 
ATOM     74  C   UNL A   1      39.862  33.938  34.486  1.00  0.00     0.009 A 
ATOM     75  C   UNL A   1      41.594  35.629  34.506  1.00  0.00     0.009 A 
ATOM     76  C   UNL A   1      39.284  34.508  35.624  1.00  0.00     0.001 A 
ATOM     77  C   UNL A   1      40.991  36.210  35.629  1.00  0.00     0.001 A 
ATOM     78  C   UNL A   1      39.879  35.614  36.223  1.00  0.00     0.000 A 
ENDBRANCH  54  73
BRANCH  66  79
ATOM     79  C   UNL A   1      42.587  27.344  34.220  1.00  0.00    -0.014 A 
ATOM     80  C   UNL A   1      41.587  27.001  35.133  1.00  0.00     0.009 A 
ATOM     81  C   UNL A   1      43.698  26.469  34.146  1.00  0.00     0.009 A 
ATOM     82  C   UNL A   1      41.662  25.814  35.879  1.00  0.00     0.001 A 
ATOM     83  C   UNL A   1      43.789  25.299  34.900  1.00  0.00     0.001 A 
ATOM     84  C   UNL A   1      42.758  24.963  35.760  1.00  0.00     0.000 A 
ENDBRANCH  66  79
ENDBRANCH  40  41
ENDBRANCH  32  35
ENDBRANCH  30  31
ENDBRANCH  29  30
ENDBRANCH  28  29
ENDBRANCH   3  28
TORSDOF 16
ENDMDL
