MODEL 1
REMARK VINA RESULT:     -10.7      0.000      0.000
REMARK SMILES COCCNC(=O)NC(=O)C[N@H+]1CC[C@H](C(=O)NCCCNC(=O)c2ccc(-c3c4nc(c(-c5ccccc5)c5ccc([nH]5)c(-c5ccccc5)c5nc(c(-c6ccccc6)c6ccc3[nH]6)C=C5)C=C4)cc2)[C@@H]1C
REMARK SMILES IDX 16 1 17 2 18 3 15 5 12 6 13 7 73 8 14 10 74 11 11 12 9 13
REMARK SMILES IDX 5 14 6 15 7 17 8 18 10 20 4 21 3 22 2 23 1 24 19 25 20 26
REMARK SMILES IDX 21 27 22 28 23 29 24 31 25 32 26 33 72 34 27 35 71 36 28 37
REMARK SMILES IDX 29 38 30 39 65 40 31 41 70 42 64 43 66 44 32 45 69 46 63 47
REMARK SMILES IDX 62 48 33 50 55 51 40 52 54 53 41 54 44 55 53 56 67 57 42 58
REMARK SMILES IDX 43 59 52 61 68 62 45 63 34 64 35 65 39 66 36 67 38 68 37 69
REMARK SMILES IDX 56 70 57 71 61 72 58 73 60 74 59 75 46 76 47 77 51 78 48 79
REMARK SMILES IDX 50 80 49 81
REMARK H PARENT 18 4 12 9 5 16 8 19 22 30 66 49 44 60
REMARK Flexibility Score: inf
ROOT
ATOM      1  C   UNL A   1      32.592  23.639  26.487  1.00  0.00     0.229 C 
ATOM      2  O   UNL A   1      31.705  23.862  27.309  1.00  0.00    -0.275 OA
ATOM      3  N   UNL A   1      33.826  23.283  26.947  1.00  0.00    -0.356 N 
ATOM      4  H   UNL A   1      33.924  23.297  27.927  1.00  0.00     0.163 HD
ENDROOT
BRANCH   1   5
ATOM      5  C   UNL A   1      32.380  23.798  24.992  1.00  0.00     0.142 C 
ATOM      6  N   UNL A   1      31.406  25.678  23.792  1.00  0.00    -0.324 N 
ATOM      7  C   UNL A   1      30.327  24.790  24.261  1.00  0.00     0.263 C 
ATOM      8  C   UNL A   1      32.636  25.230  24.486  1.00  0.00     0.194 C 
ATOM      9  H   UNL A   1      31.216  26.654  24.019  1.00  0.00     0.348 HD
ATOM     10  C   UNL A   1      30.960  23.454  24.563  1.00  0.00     0.081 C 
ATOM     11  C   UNL A   1      32.951  26.296  25.538  1.00  0.00     0.076 C 
BRANCH   6  12
ATOM     12  C   UNL A   1      31.518  25.672  22.330  1.00  0.00     0.364 C 
BRANCH  12  13
ATOM     13  C   UNL A   1      32.827  26.263  21.822  1.00  0.00     0.283 C 
ATOM     14  N   UNL A   1      31.820  29.213  23.035  1.00  0.00    -0.335 N 
ATOM     15  C   UNL A   1      33.008  28.712  22.702  1.00  0.00     0.321 C 
ATOM     16  H   UNL A   1      31.891  29.974  23.656  1.00  0.00     0.165 HD
ATOM     17  O   UNL A   1      34.005  29.354  23.051  1.00  0.00    -0.248 OA
ATOM     18  N   UNL A   1      33.216  27.583  21.967  1.00  0.00    -0.273 N 
ATOM     19  H   UNL A   1      33.899  27.781  21.285  1.00  0.00     0.175 HD
ATOM     20  O   UNL A   1      33.636  25.517  21.248  1.00  0.00    -0.268 OA
BRANCH  14  21
ATOM     21  C   UNL A   1      30.448  28.898  22.696  1.00  0.00     0.146 C 
BRANCH  21  22
ATOM     22  C   UNL A   1      29.822  30.003  21.842  1.00  0.00     0.181 C 
BRANCH  22  23
ATOM     23  O   UNL A   1      28.469  29.707  21.483  1.00  0.00    -0.383 OA
ATOM     24  C   UNL A   1      27.580  29.733  22.594  1.00  0.00     0.194 C 
ENDBRANCH  22  23
ENDBRANCH  21  22
ENDBRANCH  14  21
ENDBRANCH  12  13
ENDBRANCH   6  12
ENDBRANCH   1   5
BRANCH   3  25
ATOM     25  C   UNL A   1      35.019  22.888  26.216  1.00  0.00     0.117 C 
BRANCH  25  26
ATOM     26  C   UNL A   1      35.852  24.073  25.742  1.00  0.00     0.042 C 
BRANCH  26  27
ATOM     27  C   UNL A   1      37.005  23.699  24.818  1.00  0.00     0.118 C 
BRANCH  27  28
ATOM     28  N   UNL A   1      37.842  22.650  25.378  1.00  0.00    -0.352 N 
ATOM     29  C   UNL A   1      38.987  22.728  26.125  1.00  0.00     0.251 C 
ATOM     30  H   UNL A   1      37.535  21.733  25.191  1.00  0.00     0.163 HD
ATOM     31  O   UNL A   1      39.670  21.715  26.287  1.00  0.00    -0.269 OA
BRANCH  29  32
ATOM     32  C   UNL A   1      39.416  24.002  26.736  1.00  0.00     0.039 A 
ATOM     33  C   UNL A   1      38.987  24.301  28.033  1.00  0.00     0.014 A 
ATOM     34  C   UNL A   1      40.178  24.932  26.022  1.00  0.00     0.014 A 
ATOM     35  C   UNL A   1      39.354  25.511  28.624  1.00  0.00     0.010 A 
ATOM     36  C   UNL A   1      40.611  26.102  26.641  1.00  0.00     0.010 A 
ATOM     37  C   UNL A   1      40.185  26.413  27.939  1.00  0.00    -0.014 A 
BRANCH  37  38
ATOM     38  C   UNL A   1      40.597  27.686  28.577  1.00  0.00     0.031 A 
ATOM     39  C   UNL A   1      42.011  27.886  29.047  1.00  0.00     0.074 A 
ATOM     40  C   UNL A   1      39.682  28.654  28.770  1.00  0.00     0.049 A 
ATOM     41  N   UNL A   1      42.563  28.953  29.570  1.00  0.00    -0.248 NA
ATOM     42  C   UNL A   1      42.917  26.732  28.946  1.00  0.00     0.031 C 
ATOM     43  C   UNL A   1      38.260  28.552  28.436  1.00  0.00     0.029 A 
ATOM     44  N   UNL A   1      39.815  29.916  29.290  1.00  0.00    -0.354 N 
ATOM     45  C   UNL A   1      43.868  28.591  29.878  1.00  0.00     0.074 A 
ATOM     46  C   UNL A   1      44.011  27.194  29.531  1.00  0.00     0.031 C 
ATOM     47  C   UNL A   1      37.659  29.717  28.727  1.00  0.00     0.029 A 
ATOM     48  C   UNL A   1      38.647  30.637  29.279  1.00  0.00     0.049 A 
ATOM     49  H   UNL A   1      40.666  30.270  29.636  1.00  0.00     0.167 HD
ATOM     50  C   UNL A   1      44.865  29.355  30.384  1.00  0.00     0.031 A 
ATOM     51  C   UNL A   1      38.403  31.907  29.652  1.00  0.00     0.031 A 
ATOM     52  C   UNL A   1      44.727  30.749  30.713  1.00  0.00     0.049 A 
ATOM     53  C   UNL A   1      39.536  32.762  30.139  1.00  0.00     0.074 A 
ATOM     54  C   UNL A   1      45.696  31.635  31.152  1.00  0.00     0.029 A 
ATOM     55  N   UNL A   1      43.538  31.459  30.641  1.00  0.00    -0.354 N 
ATOM     56  N   UNL A   1      40.794  32.437  30.321  1.00  0.00    -0.248 NA
ATOM     57  C   UNL A   1      39.222  34.163  30.443  1.00  0.00     0.031 C 
ATOM     58  C   UNL A   1      45.084  32.872  31.382  1.00  0.00     0.029 A 
ATOM     59  C   UNL A   1      43.744  32.768  31.044  1.00  0.00     0.049 A 
ATOM     60  H   UNL A   1      42.676  31.088  30.346  1.00  0.00     0.167 HD
ATOM     61  C   UNL A   1      41.426  33.597  30.745  1.00  0.00     0.074 A 
ATOM     62  C   UNL A   1      40.416  34.638  30.772  1.00  0.00     0.031 C 
ATOM     63  C   UNL A   1      42.726  33.786  31.079  1.00  0.00     0.031 A 
BRANCH  50  64
ATOM     64  C   UNL A   1      46.190  28.686  30.617  1.00  0.00    -0.014 A 
ATOM     65  C   UNL A   1      47.147  28.586  29.593  1.00  0.00     0.009 A 
ATOM     66  C   UNL A   1      46.489  28.146  31.878  1.00  0.00     0.009 A 
ATOM     67  C   UNL A   1      48.352  27.915  29.812  1.00  0.00     0.001 A 
ATOM     68  C   UNL A   1      47.707  27.502  32.102  1.00  0.00     0.001 A 
ATOM     69  C   UNL A   1      48.632  27.375  31.067  1.00  0.00     0.000 A 
ENDBRANCH  50  64
BRANCH  51  70
ATOM     70  C   UNL A   1      37.031  32.454  29.515  1.00  0.00    -0.014 A 
ATOM     71  C   UNL A   1      36.625  33.067  28.321  1.00  0.00     0.009 A 
ATOM     72  C   UNL A   1      36.105  32.324  30.563  1.00  0.00     0.009 A 
ATOM     73  C   UNL A   1      35.323  33.553  28.182  1.00  0.00     0.001 A 
ATOM     74  C   UNL A   1      34.798  32.791  30.413  1.00  0.00     0.001 A 
ATOM     75  C   UNL A   1      34.410  33.409  29.225  1.00  0.00     0.000 A 
ENDBRANCH  51  70
BRANCH  63  76
ATOM     76  C   UNL A   1      43.127  35.173  31.491  1.00  0.00    -0.014 A 
ATOM     77  C   UNL A   1      43.053  35.584  32.830  1.00  0.00     0.009 A 
ATOM     78  C   UNL A   1      43.608  36.073  30.527  1.00  0.00     0.009 A 
ATOM     79  C   UNL A   1      43.416  36.882  33.191  1.00  0.00     0.001 A 
ATOM     80  C   UNL A   1      43.995  37.362  30.894  1.00  0.00     0.001 A 
ATOM     81  C   UNL A   1      43.888  37.769  32.224  1.00  0.00     0.000 A 
ENDBRANCH  63  76
ENDBRANCH  37  38
ENDBRANCH  29  32
ENDBRANCH  27  28
ENDBRANCH  26  27
ENDBRANCH  25  26
ENDBRANCH   3  25
TORSDOF 15
ENDMDL
MODEL 2
REMARK VINA RESULT:     -10.5      0.639      5.995
REMARK SMILES COCCNC(=O)NC(=O)C[N@H+]1CC[C@H](C(=O)NCCCNC(=O)c2ccc(-c3c4nc(c(-c5ccccc5)c5ccc([nH]5)c(-c5ccccc5)c5nc(c(-c6ccccc6)c6ccc3[nH]6)C=C5)C=C4)cc2)[C@@H]1C
REMARK SMILES IDX 16 1 17 2 18 3 15 5 12 6 13 7 73 8 14 10 74 11 11 12 9 13
REMARK SMILES IDX 5 14 6 15 7 17 8 18 10 20 4 21 3 22 2 23 1 24 19 25 20 26
REMARK SMILES IDX 21 27 22 28 23 29 24 31 25 32 26 33 72 34 27 35 71 36 28 37
REMARK SMILES IDX 29 38 30 39 65 40 31 41 70 42 64 43 66 44 32 45 69 46 63 47
REMARK SMILES IDX 62 48 33 50 55 51 40 52 54 53 41 54 44 55 53 56 67 57 42 58
REMARK SMILES IDX 43 59 52 61 68 62 45 63 34 64 35 65 39 66 36 67 38 68 37 69
REMARK SMILES IDX 56 70 57 71 61 72 58 73 60 74 59 75 46 76 47 77 51 78 48 79
REMARK SMILES IDX 50 80 49 81
REMARK H PARENT 18 4 12 9 5 16 8 19 22 30 66 49 44 60
REMARK Flexibility Score: inf
ROOT
ATOM      1  C   UNL A   1      32.562  23.644  26.547  1.00  0.00     0.229 C 
ATOM      2  O   UNL A   1      31.746  23.844  27.446  1.00  0.00    -0.275 OA
ATOM      3  N   UNL A   1      33.830  23.279  26.894  1.00  0.00    -0.356 N 
ATOM      4  H   UNL A   1      34.008  23.267  27.863  1.00  0.00     0.163 HD
ENDROOT
BRANCH   1   5
ATOM      5  C   UNL A   1      32.226  23.842  25.080  1.00  0.00     0.142 C 
ATOM      6  N   UNL A   1      31.470  25.865  23.958  1.00  0.00    -0.324 N 
ATOM      7  C   UNL A   1      30.309  25.174  24.549  1.00  0.00     0.263 C 
ATOM      8  C   UNL A   1      32.670  25.211  24.529  1.00  0.00     0.194 C 
ATOM      9  H   UNL A   1      31.475  26.859  24.189  1.00  0.00     0.348 HD
ATOM     10  C   UNL A   1      30.732  23.749  24.804  1.00  0.00     0.081 C 
ATOM     11  C   UNL A   1      33.270  26.203  25.528  1.00  0.00     0.076 C 
BRANCH   6  12
ATOM     12  C   UNL A   1      31.428  25.845  22.492  1.00  0.00     0.364 C 
BRANCH  12  13
ATOM     13  C   UNL A   1      32.693  26.392  21.844  1.00  0.00     0.283 C 
ATOM     14  N   UNL A   1      32.046  29.314  23.337  1.00  0.00    -0.335 N 
ATOM     15  C   UNL A   1      33.145  28.768  22.820  1.00  0.00     0.321 C 
ATOM     16  H   UNL A   1      32.246  30.030  23.982  1.00  0.00     0.165 HD
ATOM     17  O   UNL A   1      34.218  29.331  23.064  1.00  0.00    -0.248 OA
ATOM     18  N   UNL A   1      33.182  27.676  22.005  1.00  0.00    -0.273 N 
ATOM     19  H   UNL A   1      33.780  27.876  21.248  1.00  0.00     0.175 HD
ATOM     20  O   UNL A   1      33.370  25.637  21.127  1.00  0.00    -0.268 OA
BRANCH  14  21
ATOM     21  C   UNL A   1      30.624  29.098  23.170  1.00  0.00     0.146 C 
BRANCH  21  22
ATOM     22  C   UNL A   1      30.094  29.827  21.933  1.00  0.00     0.181 C 
BRANCH  22  23
ATOM     23  O   UNL A   1      28.764  29.424  21.596  1.00  0.00    -0.383 OA
ATOM     24  C   UNL A   1      27.865  29.497  22.698  1.00  0.00     0.194 C 
ENDBRANCH  22  23
ENDBRANCH  21  22
ENDBRANCH  14  21
ENDBRANCH  12  13
ENDBRANCH   6  12
ENDBRANCH   1   5
BRANCH   3  25
ATOM     25  C   UNL A   1      34.958  22.906  26.057  1.00  0.00     0.117 C 
BRANCH  25  26
ATOM     26  C   UNL A   1      36.099  23.915  26.104  1.00  0.00     0.042 C 
BRANCH  26  27
ATOM     27  C   UNL A   1      37.181  23.687  25.054  1.00  0.00     0.118 C 
BRANCH  27  28
ATOM     28  N   UNL A   1      38.168  22.708  25.485  1.00  0.00    -0.352 N 
ATOM     29  C   UNL A   1      39.360  22.874  26.137  1.00  0.00     0.251 C 
ATOM     30  H   UNL A   1      37.942  21.773  25.272  1.00  0.00     0.163 HD
ATOM     31  O   UNL A   1      40.156  21.935  26.186  1.00  0.00    -0.269 OA
BRANCH  29  32
ATOM     32  C   UNL A   1      39.708  24.158  26.781  1.00  0.00     0.039 A 
ATOM     33  C   UNL A   1      40.431  25.101  26.046  1.00  0.00     0.014 A 
ATOM     34  C   UNL A   1      39.387  24.411  28.118  1.00  0.00     0.014 A 
ATOM     35  C   UNL A   1      40.797  26.310  26.638  1.00  0.00     0.010 A 
ATOM     36  C   UNL A   1      39.681  25.650  28.683  1.00  0.00     0.010 A 
ATOM     37  C   UNL A   1      40.408  26.603  27.956  1.00  0.00    -0.014 A 
BRANCH  37  38
ATOM     38  C   UNL A   1      40.774  27.899  28.577  1.00  0.00     0.031 A 
ATOM     39  C   UNL A   1      39.742  28.975  28.768  1.00  0.00     0.074 A 
ATOM     40  C   UNL A   1      42.052  28.121  28.936  1.00  0.00     0.049 A 
ATOM     41  N   UNL A   1      39.868  30.144  29.345  1.00  0.00    -0.248 NA
ATOM     42  C   UNL A   1      38.404  28.723  28.212  1.00  0.00     0.031 C 
ATOM     43  C   UNL A   1      43.163  27.191  28.727  1.00  0.00     0.029 A 
ATOM     44  N   UNL A   1      42.629  29.200  29.555  1.00  0.00    -0.354 N 
ATOM     45  C   UNL A   1      38.637  30.771  29.203  1.00  0.00     0.074 A 
ATOM     46  C   UNL A   1      37.794  29.875  28.442  1.00  0.00     0.031 C 
ATOM     47  C   UNL A   1      44.282  27.725  29.243  1.00  0.00     0.029 A 
ATOM     48  C   UNL A   1      43.969  29.035  29.802  1.00  0.00     0.049 A 
ATOM     49  H   UNL A   1      42.130  30.013  29.799  1.00  0.00     0.167 HD
ATOM     50  C   UNL A   1      38.235  31.973  29.680  1.00  0.00     0.031 A 
ATOM     51  C   UNL A   1      44.845  29.841  30.429  1.00  0.00     0.031 A 
ATOM     52  C   UNL A   1      39.068  32.855  30.452  1.00  0.00     0.049 A 
ATOM     53  C   UNL A   1      44.364  31.135  31.018  1.00  0.00     0.074 A 
ATOM     54  C   UNL A   1      38.734  34.056  31.054  1.00  0.00     0.029 A 
ATOM     55  N   UNL A   1      40.409  32.631  30.725  1.00  0.00    -0.354 N 
ATOM     56  N   UNL A   1      43.165  31.666  30.972  1.00  0.00    -0.248 NA
ATOM     57  C   UNL A   1      45.348  31.925  31.768  1.00  0.00     0.031 C 
ATOM     58  C   UNL A   1      39.883  34.577  31.658  1.00  0.00     0.029 A 
ATOM     59  C   UNL A   1      40.922  33.679  31.471  1.00  0.00     0.049 A 
ATOM     60  H   UNL A   1      40.920  31.843  30.432  1.00  0.00     0.167 HD
ATOM     61  C   UNL A   1      43.246  32.843  31.701  1.00  0.00     0.074 A 
ATOM     62  C   UNL A   1      44.606  32.938  32.195  1.00  0.00     0.031 C 
ATOM     63  C   UNL A   1      42.280  33.764  31.942  1.00  0.00     0.031 A 
BRANCH  50  64
ATOM     64  C   UNL A   1      36.827  32.398  29.367  1.00  0.00    -0.014 A 
ATOM     65  C   UNL A   1      36.521  33.089  28.183  1.00  0.00     0.009 A 
ATOM     66  C   UNL A   1      35.792  32.105  30.267  1.00  0.00     0.009 A 
ATOM     67  C   UNL A   1      35.217  33.521  27.931  1.00  0.00     0.001 A 
ATOM     68  C   UNL A   1      34.484  32.513  30.000  1.00  0.00     0.001 A 
ATOM     69  C   UNL A   1      34.199  33.231  28.839  1.00  0.00     0.000 A 
ENDBRANCH  50  64
BRANCH  51  70
ATOM     70  C   UNL A   1      46.255  29.405  30.580  1.00  0.00    -0.014 A 
ATOM     71  C   UNL A   1      47.217  29.768  29.626  1.00  0.00     0.009 A 
ATOM     72  C   UNL A   1      46.655  28.663  31.703  1.00  0.00     0.009 A 
ATOM     73  C   UNL A   1      48.551  29.385  29.785  1.00  0.00     0.001 A 
ATOM     74  C   UNL A   1      47.993  28.301  31.870  1.00  0.00     0.001 A 
ATOM     75  C   UNL A   1      48.938  28.658  30.909  1.00  0.00     0.000 A 
ENDBRANCH  51  70
BRANCH  63  76
ATOM     76  C   UNL A   1      42.662  34.944  32.788  1.00  0.00    -0.014 A 
ATOM     77  C   UNL A   1      43.289  36.067  32.227  1.00  0.00     0.009 A 
ATOM     78  C   UNL A   1      42.369  34.940  34.161  1.00  0.00     0.009 A 
ATOM     79  C   UNL A   1      43.651  37.148  33.033  1.00  0.00     0.001 A 
ATOM     80  C   UNL A   1      42.709  36.033  34.959  1.00  0.00     0.001 A 
ATOM     81  C   UNL A   1      43.359  37.132  34.396  1.00  0.00     0.000 A 
ENDBRANCH  63  76
ENDBRANCH  37  38
ENDBRANCH  29  32
ENDBRANCH  27  28
ENDBRANCH  26  27
ENDBRANCH  25  26
ENDBRANCH   3  25
TORSDOF 15
ENDMDL
MODEL 3
REMARK VINA RESULT:     -10.5      2.226      3.564
REMARK SMILES COCCNC(=O)NC(=O)C[N@H+]1CC[C@H](C(=O)NCCCNC(=O)c2ccc(-c3c4nc(c(-c5ccccc5)c5ccc([nH]5)c(-c5ccccc5)c5nc(c(-c6ccccc6)c6ccc3[nH]6)C=C5)C=C4)cc2)[C@@H]1C
REMARK SMILES IDX 16 1 17 2 18 3 15 5 12 6 13 7 73 8 14 10 74 11 11 12 9 13
REMARK SMILES IDX 5 14 6 15 7 17 8 18 10 20 4 21 3 22 2 23 1 24 19 25 20 26
REMARK SMILES IDX 21 27 22 28 23 29 24 31 25 32 26 33 72 34 27 35 71 36 28 37
REMARK SMILES IDX 29 38 30 39 65 40 31 41 70 42 64 43 66 44 32 45 69 46 63 47
REMARK SMILES IDX 62 48 33 50 55 51 40 52 54 53 41 54 44 55 53 56 67 57 42 58
REMARK SMILES IDX 43 59 52 61 68 62 45 63 34 64 35 65 39 66 36 67 38 68 37 69
REMARK SMILES IDX 56 70 57 71 61 72 58 73 60 74 59 75 46 76 47 77 51 78 48 79
REMARK SMILES IDX 50 80 49 81
REMARK H PARENT 18 4 12 9 5 16 8 19 22 30 66 49 44 60
REMARK Flexibility Score: inf
ROOT
ATOM      1  C   UNL A   1      34.683  21.552  24.749  1.00  0.00     0.229 C 
ATOM      2  O   UNL A   1      33.649  21.141  25.273  1.00  0.00    -0.275 OA
ATOM      3  N   UNL A   1      35.864  20.966  25.102  1.00  0.00    -0.356 N 
ATOM      4  H   UNL A   1      35.794  20.287  25.812  1.00  0.00     0.163 HD
ENDROOT
BRANCH   1   5
ATOM      5  C   UNL A   1      34.699  22.715  23.773  1.00  0.00     0.142 C 
ATOM      6  N   UNL A   1      33.379  24.759  23.830  1.00  0.00    -0.324 N 
ATOM      7  C   UNL A   1      32.597  23.694  23.177  1.00  0.00     0.263 C 
ATOM      8  C   UNL A   1      34.543  24.088  24.455  1.00  0.00     0.194 C 
ATOM      9  H   UNL A   1      32.834  25.242  24.545  1.00  0.00     0.348 HD
ATOM     10  C   UNL A   1      33.579  22.632  22.745  1.00  0.00     0.081 C 
ATOM     11  C   UNL A   1      34.288  24.092  25.964  1.00  0.00     0.076 C 
BRANCH   6  12
ATOM     12  C   UNL A   1      33.745  25.822  22.889  1.00  0.00     0.364 C 
BRANCH  12  13
ATOM     13  C   UNL A   1      32.765  25.969  21.732  1.00  0.00     0.283 C 
ATOM     14  N   UNL A   1      30.766  27.669  23.807  1.00  0.00    -0.335 N 
ATOM     15  C   UNL A   1      30.862  27.589  22.481  1.00  0.00     0.321 C 
ATOM     16  H   UNL A   1      30.306  28.487  24.104  1.00  0.00     0.165 HD
ATOM     17  O   UNL A   1      30.227  28.419  21.822  1.00  0.00    -0.248 OA
ATOM     18  N   UNL A   1      31.556  26.640  21.791  1.00  0.00    -0.273 N 
ATOM     19  H   UNL A   1      30.984  26.309  21.061  1.00  0.00     0.175 HD
ATOM     20  O   UNL A   1      33.062  25.476  20.633  1.00  0.00    -0.268 OA
BRANCH  14  21
ATOM     21  C   UNL A   1      31.181  26.831  24.912  1.00  0.00     0.146 C 
BRANCH  21  22
ATOM     22  C   UNL A   1      30.045  25.911  25.366  1.00  0.00     0.181 C 
BRANCH  22  23
ATOM     23  O   UNL A   1      30.353  25.235  26.589  1.00  0.00    -0.383 OA
ATOM     24  C   UNL A   1      30.576  23.840  26.412  1.00  0.00     0.194 C 
ENDBRANCH  22  23
ENDBRANCH  21  22
ENDBRANCH  14  21
ENDBRANCH  12  13
ENDBRANCH   6  12
ENDBRANCH   1   5
BRANCH   3  25
ATOM     25  C   UNL A   1      37.207  21.187  24.592  1.00  0.00     0.117 C 
BRANCH  25  26
ATOM     26  C   UNL A   1      38.103  19.961  24.715  1.00  0.00     0.042 C 
BRANCH  26  27
ATOM     27  C   UNL A   1      38.946  19.924  25.986  1.00  0.00     0.118 C 
BRANCH  27  28
ATOM     28  N   UNL A   1      40.221  19.255  25.781  1.00  0.00    -0.352 N 
ATOM     29  C   UNL A   1      41.501  19.733  25.868  1.00  0.00     0.251 C 
ATOM     30  H   UNL A   1      40.154  18.303  25.540  1.00  0.00     0.163 HD
ATOM     31  O   UNL A   1      42.427  19.060  25.414  1.00  0.00    -0.269 OA
BRANCH  29  32
ATOM     32  C   UNL A   1      41.788  21.040  26.495  1.00  0.00     0.039 A 
ATOM     33  C   UNL A   1      42.161  22.108  25.674  1.00  0.00     0.014 A 
ATOM     34  C   UNL A   1      41.759  21.204  27.883  1.00  0.00     0.014 A 
ATOM     35  C   UNL A   1      42.466  23.346  26.242  1.00  0.00     0.010 A 
ATOM     36  C   UNL A   1      41.984  22.459  28.442  1.00  0.00     0.010 A 
ATOM     37  C   UNL A   1      42.361  23.537  27.630  1.00  0.00    -0.014 A 
BRANCH  37  38
ATOM     38  C   UNL A   1      42.658  24.859  28.230  1.00  0.00     0.031 A 
ATOM     39  C   UNL A   1      44.054  25.208  28.666  1.00  0.00     0.074 A 
ATOM     40  C   UNL A   1      41.656  25.738  28.421  1.00  0.00     0.049 A 
ATOM     41  N   UNL A   1      44.508  26.335  29.153  1.00  0.00    -0.248 NA
ATOM     42  C   UNL A   1      45.067  24.145  28.571  1.00  0.00     0.031 C 
ATOM     43  C   UNL A   1      40.245  25.489  28.120  1.00  0.00     0.029 A 
ATOM     44  N   UNL A   1      41.674  27.019  28.910  1.00  0.00    -0.354 N 
ATOM     45  C   UNL A   1      45.848  26.110  29.442  1.00  0.00     0.074 A 
ATOM     46  C   UNL A   1      46.121  24.726  29.123  1.00  0.00     0.031 C 
ATOM     47  C   UNL A   1      39.538  26.596  28.397  1.00  0.00     0.029 A 
ATOM     48  C   UNL A   1      40.441  27.622  28.907  1.00  0.00     0.049 A 
ATOM     49  H   UNL A   1      42.492  27.462  29.230  1.00  0.00     0.167 HD
ATOM     50  C   UNL A   1      46.774  26.980  29.910  1.00  0.00     0.031 A 
ATOM     51  C   UNL A   1      40.081  28.870  29.257  1.00  0.00     0.031 A 
ATOM     52  C   UNL A   1      46.507  28.361  30.210  1.00  0.00     0.049 A 
ATOM     53  C   UNL A   1      41.134  29.843  29.701  1.00  0.00     0.074 A 
ATOM     54  C   UNL A   1      47.392  29.348  30.608  1.00  0.00     0.029 A 
ATOM     55  N   UNL A   1      45.253  28.950  30.148  1.00  0.00    -0.354 N 
ATOM     56  N   UNL A   1      42.420  29.647  29.864  1.00  0.00    -0.248 NA
ATOM     57  C   UNL A   1      40.690  31.214  29.980  1.00  0.00     0.031 C 
ATOM     58  C   UNL A   1      46.666  30.525  30.825  1.00  0.00     0.029 A 
ATOM     59  C   UNL A   1      45.337  30.282  30.517  1.00  0.00     0.049 A 
ATOM     60  H   UNL A   1      44.426  28.489  29.879  1.00  0.00     0.167 HD
ATOM     61  C   UNL A   1      42.943  30.874  30.248  1.00  0.00     0.074 A 
ATOM     62  C   UNL A   1      41.837  31.811  30.273  1.00  0.00     0.031 C 
ATOM     63  C   UNL A   1      44.225  31.196  30.551  1.00  0.00     0.031 A 
BRANCH  50  64
ATOM     64  C   UNL A   1      48.163  26.449  30.129  1.00  0.00    -0.014 A 
ATOM     65  C   UNL A   1      49.139  26.519  29.121  1.00  0.00     0.009 A 
ATOM     66  C   UNL A   1      48.503  25.869  31.361  1.00  0.00     0.009 A 
ATOM     67  C   UNL A   1      50.409  25.975  29.325  1.00  0.00     0.001 A 
ATOM     68  C   UNL A   1      49.782  25.351  31.572  1.00  0.00     0.001 A 
ATOM     69  C   UNL A   1      50.730  25.392  30.550  1.00  0.00     0.000 A 
ENDBRANCH  50  64
BRANCH  51  70
ATOM     70  C   UNL A   1      38.659  29.277  29.138  1.00  0.00    -0.014 A 
ATOM     71  C   UNL A   1      38.155  29.751  27.917  1.00  0.00     0.009 A 
ATOM     72  C   UNL A   1      37.788  29.151  30.231  1.00  0.00     0.009 A 
ATOM     73  C   UNL A   1      36.809  30.103  27.797  1.00  0.00     0.001 A 
ATOM     74  C   UNL A   1      36.439  29.483  30.102  1.00  0.00     0.001 A 
ATOM     75  C   UNL A   1      35.951  29.963  28.886  1.00  0.00     0.000 A 
ENDBRANCH  51  70
BRANCH  63  76
ATOM     76  C   UNL A   1      44.496  32.626  30.923  1.00  0.00    -0.014 A 
ATOM     77  C   UNL A   1      44.811  33.583  29.946  1.00  0.00     0.009 A 
ATOM     78  C   UNL A   1      44.414  33.023  32.266  1.00  0.00     0.009 A 
ATOM     79  C   UNL A   1      45.075  34.903  30.313  1.00  0.00     0.001 A 
ATOM     80  C   UNL A   1      44.653  34.349  32.627  1.00  0.00     0.001 A 
ATOM     81  C   UNL A   1      44.994  35.286  31.651  1.00  0.00     0.000 A 
ENDBRANCH  63  76
ENDBRANCH  37  38
ENDBRANCH  29  32
ENDBRANCH  27  28
ENDBRANCH  26  27
ENDBRANCH  25  26
ENDBRANCH   3  25
TORSDOF 15
ENDMDL
