MODEL 1
REMARK VINA RESULT:      -9.8      0.000      0.000
REMARK SMILES CCN(C(=O)C[NH2+][C@](C)(CC)C(=O)NCCCNC(=O)c1ccc(-c2c3nc(c(-c4ccccc4)c4ccc([nH]4)c(-c4ccccc4)c4nc(c(-c5ccccc5)c5ccc2[nH]5)C=C4)C=C3)cc1)C1CC1
REMARK SMILES IDX 12 1 13 2 14 3 8 5 9 6 7 7 6 10 4 11 5 12 3 13 2 14 1 15
REMARK SMILES IDX 69 16 70 17 71 18 10 19 11 20 15 21 16 22 17 23 18 24 19 25
REMARK SMILES IDX 20 27 21 28 22 29 68 30 23 31 67 32 24 33 25 34 26 35 61 36
REMARK SMILES IDX 27 37 66 38 60 39 62 40 28 41 65 42 59 43 58 44 29 46 51 47
REMARK SMILES IDX 36 48 50 49 37 50 40 51 49 52 63 53 38 54 39 55 48 57 64 58
REMARK SMILES IDX 41 59 30 60 31 61 35 62 32 63 34 64 33 65 52 66 53 67 57 68
REMARK SMILES IDX 54 69 56 70 55 71 42 72 43 73 47 74 44 75 46 76 45 77
REMARK H PARENT 14 4 7 8 7 9 18 26 62 45 40 56
REMARK Flexibility Score: inf
ROOT
ATOM      1  C   UNL A   1      33.403  29.099  26.406  1.00  0.00     0.281 C 
ATOM      2  O   UNL A   1      34.599  29.011  26.700  1.00  0.00    -0.268 OA
ATOM      3  N   UNL A   1      32.766  30.233  26.819  1.00  0.00    -0.351 N 
ATOM      4  H   UNL A   1      33.290  30.796  27.434  1.00  0.00     0.163 HD
ENDROOT
BRANCH   1   5
ATOM      5  C   UNL A   1      32.654  27.987  25.602  1.00  0.00     0.172 C 
ATOM      6  C   UNL A   1      33.611  27.297  24.597  1.00  0.00     0.090 C 
BRANCH   5   7
ATOM      7  N   UNL A   1      31.527  28.535  24.788  1.00  0.00    -0.326 N 
ATOM      8  H   UNL A   1      30.712  27.937  24.925  1.00  0.00     0.347 HD
ATOM      9  H   UNL A   1      31.375  29.492  25.108  1.00  0.00     0.347 HD
BRANCH   7  10
ATOM     10  C   UNL A   1      31.803  28.613  23.339  1.00  0.00     0.362 C 
BRANCH  10  11
ATOM     11  C   UNL A   1      30.641  27.992  22.565  1.00  0.00     0.277 C 
ATOM     12  O   UNL A   1      30.891  27.147  21.695  1.00  0.00    -0.268 OA
BRANCH  11  13
ATOM     13  N   UNL A   1      29.350  28.394  22.880  1.00  0.00    -0.335 N 
BRANCH  13  14
ATOM     14  C   UNL A   1      28.339  27.505  23.462  1.00  0.00     0.116 C 
ATOM     15  C   UNL A   1      28.978  26.328  24.180  1.00  0.00     0.027 C 
ENDBRANCH  13  14
BRANCH  13  16
ATOM     16  C   UNL A   1      29.045  29.808  22.884  1.00  0.00     0.085 C 
ATOM     17  C   UNL A   1      28.258  30.447  21.767  1.00  0.00     0.027 C 
ATOM     18  C   UNL A   1      27.642  30.303  23.122  1.00  0.00     0.027 C 
ENDBRANCH  13  16
ENDBRANCH  11  13
ENDBRANCH  10  11
ENDBRANCH   7  10
ENDBRANCH   5   7
BRANCH   5  19
ATOM     19  C   UNL A   1      32.112  26.908  26.587  1.00  0.00     0.075 C 
ATOM     20  C   UNL A   1      32.266  25.470  26.096  1.00  0.00     0.011 C 
ENDBRANCH   5  19
ENDBRANCH   1   5
BRANCH   3  21
ATOM     21  C   UNL A   1      31.445  30.749  26.505  1.00  0.00     0.118 C 
BRANCH  21  22
ATOM     22  C   UNL A   1      31.416  32.263  26.510  1.00  0.00     0.042 C 
BRANCH  22  23
ATOM     23  C   UNL A   1      32.602  32.871  27.238  1.00  0.00     0.118 C 
BRANCH  23  24
ATOM     24  N   UNL A   1      32.365  34.250  27.649  1.00  0.00    -0.352 N 
ATOM     25  C   UNL A   1      32.977  34.991  28.626  1.00  0.00     0.251 C 
ATOM     26  H   UNL A   1      31.659  34.720  27.148  1.00  0.00     0.163 HD
ATOM     27  O   UNL A   1      32.515  36.081  28.955  1.00  0.00    -0.269 OA
BRANCH  25  28
ATOM     28  C   UNL A   1      34.178  34.463  29.297  1.00  0.00     0.039 A 
ATOM     29  C   UNL A   1      34.029  33.755  30.490  1.00  0.00     0.014 A 
ATOM     30  C   UNL A   1      35.446  34.650  28.739  1.00  0.00     0.014 A 
ATOM     31  C   UNL A   1      35.148  33.177  31.086  1.00  0.00     0.010 A 
ATOM     32  C   UNL A   1      36.538  33.979  29.272  1.00  0.00     0.010 A 
ATOM     33  C   UNL A   1      36.404  33.247  30.458  1.00  0.00    -0.014 A 
BRANCH  33  34
ATOM     34  C   UNL A   1      37.581  32.556  31.033  1.00  0.00     0.031 A 
ATOM     35  C   UNL A   1      38.174  33.021  32.335  1.00  0.00     0.074 A 
ATOM     36  C   UNL A   1      38.140  31.533  30.357  1.00  0.00     0.049 A 
ATOM     37  N   UNL A   1      39.188  32.530  33.000  1.00  0.00    -0.248 NA
ATOM     38  C   UNL A   1      37.566  34.208  32.963  1.00  0.00     0.031 C 
ATOM     39  C   UNL A   1      37.692  31.031  29.054  1.00  0.00     0.029 A 
ATOM     40  N   UNL A   1      39.200  30.725  30.676  1.00  0.00    -0.354 N 
ATOM     41  C   UNL A   1      39.348  33.353  34.107  1.00  0.00     0.074 A 
ATOM     42  C   UNL A   1      38.368  34.409  33.998  1.00  0.00     0.031 C 
ATOM     43  C   UNL A   1      38.435  29.966  28.714  1.00  0.00     0.029 A 
ATOM     44  C   UNL A   1      39.436  29.738  29.749  1.00  0.00     0.049 A 
ATOM     45  H   UNL A   1      39.739  30.839  31.492  1.00  0.00     0.167 HD
ATOM     46  C   UNL A   1      40.218  33.227  35.136  1.00  0.00     0.031 A 
ATOM     47  C   UNL A   1      40.355  28.755  29.740  1.00  0.00     0.031 A 
ATOM     48  C   UNL A   1      41.182  32.166  35.249  1.00  0.00     0.049 A 
ATOM     49  C   UNL A   1      41.307  28.639  30.897  1.00  0.00     0.074 A 
ATOM     50  C   UNL A   1      42.062  31.907  36.286  1.00  0.00     0.029 A 
ATOM     51  N   UNL A   1      41.396  31.190  34.288  1.00  0.00    -0.354 N 
ATOM     52  N   UNL A   1      41.384  29.372  31.982  1.00  0.00    -0.248 NA
ATOM     53  C   UNL A   1      42.290  27.551  30.832  1.00  0.00     0.031 C 
ATOM     54  C   UNL A   1      42.850  30.811  35.924  1.00  0.00     0.029 A 
ATOM     55  C   UNL A   1      42.417  30.347  34.692  1.00  0.00     0.049 A 
ATOM     56  H   UNL A   1      40.896  31.109  33.444  1.00  0.00     0.167 HD
ATOM     57  C   UNL A   1      42.406  28.817  32.741  1.00  0.00     0.074 A 
ATOM     58  C   UNL A   1      42.897  27.670  32.004  1.00  0.00     0.031 C 
ATOM     59  C   UNL A   1      42.899  29.218  33.938  1.00  0.00     0.031 A 
BRANCH  46  60
ATOM     60  C   UNL A   1      40.168  34.268  36.222  1.00  0.00    -0.014 A 
ATOM     61  C   UNL A   1      40.839  35.495  36.089  1.00  0.00     0.009 A 
ATOM     62  C   UNL A   1      39.404  34.035  37.375  1.00  0.00     0.009 A 
ATOM     63  C   UNL A   1      40.771  36.452  37.104  1.00  0.00     0.001 A 
ATOM     64  C   UNL A   1      39.313  35.007  38.374  1.00  0.00     0.001 A 
ATOM     65  C   UNL A   1      40.004  36.210  38.242  1.00  0.00     0.000 A 
ENDBRANCH  46  60
BRANCH  47  66
ATOM     66  C   UNL A   1      40.407  27.784  28.615  1.00  0.00    -0.014 A 
ATOM     67  C   UNL A   1      39.693  26.577  28.682  1.00  0.00     0.009 A 
ATOM     68  C   UNL A   1      41.188  28.046  27.479  1.00  0.00     0.009 A 
ATOM     69  C   UNL A   1      39.789  25.638  27.652  1.00  0.00     0.001 A 
ATOM     70  C   UNL A   1      41.256  27.120  26.436  1.00  0.00     0.001 A 
ATOM     71  C   UNL A   1      40.567  25.912  26.529  1.00  0.00     0.000 A 
ENDBRANCH  47  66
BRANCH  59  72
ATOM     72  C   UNL A   1      44.005  28.391  34.530  1.00  0.00    -0.014 A 
ATOM     73  C   UNL A   1      45.353  28.695  34.287  1.00  0.00     0.009 A 
ATOM     74  C   UNL A   1      43.692  27.296  35.350  1.00  0.00     0.009 A 
ATOM     75  C   UNL A   1      46.365  27.888  34.812  1.00  0.00     0.001 A 
ATOM     76  C   UNL A   1      44.706  26.513  35.904  1.00  0.00     0.001 A 
ATOM     77  C   UNL A   1      46.040  26.801  35.623  1.00  0.00     0.000 A 
ENDBRANCH  59  72
ENDBRANCH  33  34
ENDBRANCH  25  28
ENDBRANCH  23  24
ENDBRANCH  22  23
ENDBRANCH  21  22
ENDBRANCH   3  21
TORSDOF 17
ENDMDL
MODEL 2
REMARK VINA RESULT:      -9.5      1.688      2.847
REMARK SMILES CCN(C(=O)C[NH2+][C@](C)(CC)C(=O)NCCCNC(=O)c1ccc(-c2c3nc(c(-c4ccccc4)c4ccc([nH]4)c(-c4ccccc4)c4nc(c(-c5ccccc5)c5ccc2[nH]5)C=C4)C=C3)cc1)C1CC1
REMARK SMILES IDX 12 1 13 2 14 3 8 5 9 6 7 7 6 10 4 11 5 12 3 13 2 14 1 15
REMARK SMILES IDX 69 16 70 17 71 18 10 19 11 20 15 21 16 22 17 23 18 24 19 25
REMARK SMILES IDX 20 27 21 28 22 29 68 30 23 31 67 32 24 33 25 34 26 35 61 36
REMARK SMILES IDX 27 37 66 38 60 39 62 40 28 41 65 42 59 43 58 44 29 46 51 47
REMARK SMILES IDX 36 48 50 49 37 50 40 51 49 52 63 53 38 54 39 55 48 57 64 58
REMARK SMILES IDX 41 59 30 60 31 61 35 62 32 63 34 64 33 65 52 66 53 67 57 68
REMARK SMILES IDX 54 69 56 70 55 71 42 72 43 73 47 74 44 75 46 76 45 77
REMARK H PARENT 14 4 7 8 7 9 18 26 62 45 40 56
REMARK Flexibility Score: inf
ROOT
ATOM      1  C   UNL A   1      33.615  28.961  26.632  1.00  0.00     0.281 C 
ATOM      2  O   UNL A   1      34.775  28.930  27.054  1.00  0.00    -0.268 OA
ATOM      3  N   UNL A   1      32.910  30.099  26.901  1.00  0.00    -0.351 N 
ATOM      4  H   UNL A   1      33.352  30.716  27.528  1.00  0.00     0.163 HD
ENDROOT
BRANCH   1   5
ATOM      5  C   UNL A   1      32.983  27.778  25.829  1.00  0.00     0.172 C 
ATOM      6  C   UNL A   1      31.687  27.279  26.516  1.00  0.00     0.090 C 
BRANCH   5   7
ATOM      7  N   UNL A   1      33.891  26.593  25.752  1.00  0.00    -0.326 N 
ATOM      8  H   UNL A   1      34.826  26.922  25.507  1.00  0.00     0.347 HD
ATOM      9  H   UNL A   1      33.857  26.140  26.666  1.00  0.00     0.347 HD
BRANCH   7  10
ATOM     10  C   UNL A   1      33.485  25.578  24.761  1.00  0.00     0.362 C 
BRANCH  10  11
ATOM     11  C   UNL A   1      33.376  24.214  25.442  1.00  0.00     0.277 C 
ATOM     12  O   UNL A   1      33.998  24.024  26.495  1.00  0.00    -0.268 OA
BRANCH  11  13
ATOM     13  N   UNL A   1      32.570  23.247  24.854  1.00  0.00    -0.335 N 
BRANCH  13  14
ATOM     14  C   UNL A   1      31.108  23.333  24.793  1.00  0.00     0.116 C 
ATOM     15  C   UNL A   1      30.640  23.985  23.502  1.00  0.00     0.027 C 
ENDBRANCH  13  14
BRANCH  13  16
ATOM     16  C   UNL A   1      33.192  22.231  24.036  1.00  0.00     0.085 C 
ATOM     17  C   UNL A   1      33.828  21.006  24.646  1.00  0.00     0.027 C 
ATOM     18  C   UNL A   1      32.560  20.873  23.863  1.00  0.00     0.027 C 
ENDBRANCH  13  16
ENDBRANCH  11  13
ENDBRANCH  10  11
ENDBRANCH   7  10
ENDBRANCH   5   7
BRANCH   5  19
ATOM     19  C   UNL A   1      32.625  28.258  24.391  1.00  0.00     0.075 C 
ATOM     20  C   UNL A   1      33.781  28.914  23.638  1.00  0.00     0.011 C 
ENDBRANCH   5  19
ENDBRANCH   1   5
BRANCH   3  21
ATOM     21  C   UNL A   1      31.617  30.552  26.418  1.00  0.00     0.118 C 
BRANCH  21  22
ATOM     22  C   UNL A   1      31.435  32.043  26.609  1.00  0.00     0.042 C 
BRANCH  22  23
ATOM     23  C   UNL A   1      32.657  32.711  27.216  1.00  0.00     0.118 C 
BRANCH  23  24
ATOM     24  N   UNL A   1      32.401  34.086  27.629  1.00  0.00    -0.352 N 
ATOM     25  C   UNL A   1      33.005  34.834  28.606  1.00  0.00     0.251 C 
ATOM     26  H   UNL A   1      31.689  34.546  27.131  1.00  0.00     0.163 HD
ATOM     27  O   UNL A   1      32.529  35.917  28.937  1.00  0.00    -0.269 OA
BRANCH  25  28
ATOM     28  C   UNL A   1      34.214  34.322  29.275  1.00  0.00     0.039 A 
ATOM     29  C   UNL A   1      34.073  33.553  30.431  1.00  0.00     0.014 A 
ATOM     30  C   UNL A   1      35.483  34.584  28.750  1.00  0.00     0.014 A 
ATOM     31  C   UNL A   1      35.204  32.991  31.020  1.00  0.00     0.010 A 
ATOM     32  C   UNL A   1      36.592  33.932  29.272  1.00  0.00     0.010 A 
ATOM     33  C   UNL A   1      36.466  33.140  30.420  1.00  0.00    -0.014 A 
BRANCH  33  34
ATOM     34  C   UNL A   1      37.660  32.469  30.985  1.00  0.00     0.031 A 
ATOM     35  C   UNL A   1      38.287  32.976  32.254  1.00  0.00     0.074 A 
ATOM     36  C   UNL A   1      38.201  31.425  30.327  1.00  0.00     0.049 A 
ATOM     37  N   UNL A   1      39.321  32.507  32.906  1.00  0.00    -0.248 NA
ATOM     38  C   UNL A   1      37.696  34.182  32.859  1.00  0.00     0.031 C 
ATOM     39  C   UNL A   1      37.719  30.880  29.053  1.00  0.00     0.029 A 
ATOM     40  N   UNL A   1      39.271  30.628  30.642  1.00  0.00    -0.354 N 
ATOM     41  C   UNL A   1      39.510  33.366  33.981  1.00  0.00     0.074 A 
ATOM     42  C   UNL A   1      38.525  34.417  33.865  1.00  0.00     0.031 C 
ATOM     43  C   UNL A   1      38.454  29.805  28.728  1.00  0.00     0.029 A 
ATOM     44  C   UNL A   1      39.483  29.612  29.742  1.00  0.00     0.049 A 
ATOM     45  H   UNL A   1      39.832  30.769  31.439  1.00  0.00     0.167 HD
ATOM     46  C   UNL A   1      40.408  33.274  34.990  1.00  0.00     0.031 A 
ATOM     47  C   UNL A   1      40.403  28.629  29.740  1.00  0.00     0.031 A 
ATOM     48  C   UNL A   1      41.376  32.218  35.111  1.00  0.00     0.049 A 
ATOM     49  C   UNL A   1      41.387  28.552  30.873  1.00  0.00     0.074 A 
ATOM     50  C   UNL A   1      42.285  31.993  36.130  1.00  0.00     0.029 A 
ATOM     51  N   UNL A   1      41.565  31.211  34.176  1.00  0.00    -0.354 N 
ATOM     52  N   UNL A   1      41.493  29.319  31.931  1.00  0.00    -0.248 NA
ATOM     53  C   UNL A   1      42.369  27.463  30.816  1.00  0.00     0.031 C 
ATOM     54  C   UNL A   1      43.065  30.886  35.782  1.00  0.00     0.029 A 
ATOM     55  C   UNL A   1      42.598  30.382  34.579  1.00  0.00     0.049 A 
ATOM     56  H   UNL A   1      41.042  31.103  33.349  1.00  0.00     0.167 HD
ATOM     57  C   UNL A   1      42.536  28.790  32.679  1.00  0.00     0.074 A 
ATOM     58  C   UNL A   1      43.008  27.620  31.967  1.00  0.00     0.031 C 
ATOM     59  C   UNL A   1      43.061  29.230  33.849  1.00  0.00     0.031 A 
BRANCH  46  60
ATOM     60  C   UNL A   1      40.386  34.350  36.042  1.00  0.00    -0.014 A 
ATOM     61  C   UNL A   1      39.569  34.244  37.179  1.00  0.00     0.009 A 
ATOM     62  C   UNL A   1      41.227  35.466  35.913  1.00  0.00     0.009 A 
ATOM     63  C   UNL A   1      39.572  35.249  38.149  1.00  0.00     0.001 A 
ATOM     64  C   UNL A   1      41.251  36.454  36.900  1.00  0.00     0.001 A 
ATOM     65  C   UNL A   1      40.416  36.350  38.011  1.00  0.00     0.000 A 
ENDBRANCH  46  60
BRANCH  47  66
ATOM     66  C   UNL A   1      40.426  27.622  28.646  1.00  0.00    -0.014 A 
ATOM     67  C   UNL A   1      41.178  27.851  27.482  1.00  0.00     0.009 A 
ATOM     68  C   UNL A   1      39.680  26.438  28.747  1.00  0.00     0.009 A 
ATOM     69  C   UNL A   1      41.153  26.934  26.429  1.00  0.00     0.001 A 
ATOM     70  C   UNL A   1      39.683  25.507  27.706  1.00  0.00     0.001 A 
ATOM     71  C   UNL A   1      40.408  25.762  26.543  1.00  0.00     0.000 A 
ENDBRANCH  47  66
BRANCH  59  72
ATOM     72  C   UNL A   1      44.184  28.423  34.437  1.00  0.00    -0.014 A 
ATOM     73  C   UNL A   1      45.525  28.717  34.142  1.00  0.00     0.009 A 
ATOM     74  C   UNL A   1      43.896  27.359  35.305  1.00  0.00     0.009 A 
ATOM     75  C   UNL A   1      46.551  27.928  34.665  1.00  0.00     0.001 A 
ATOM     76  C   UNL A   1      44.926  26.595  35.855  1.00  0.00     0.001 A 
ATOM     77  C   UNL A   1      46.251  26.871  35.524  1.00  0.00     0.000 A 
ENDBRANCH  59  72
ENDBRANCH  33  34
ENDBRANCH  25  28
ENDBRANCH  23  24
ENDBRANCH  22  23
ENDBRANCH  21  22
ENDBRANCH   3  21
TORSDOF 17
ENDMDL
MODEL 3
REMARK VINA RESULT:      -9.5      5.490      9.692
REMARK SMILES CCN(C(=O)C[NH2+][C@](C)(CC)C(=O)NCCCNC(=O)c1ccc(-c2c3nc(c(-c4ccccc4)c4ccc([nH]4)c(-c4ccccc4)c4nc(c(-c5ccccc5)c5ccc2[nH]5)C=C4)C=C3)cc1)C1CC1
REMARK SMILES IDX 12 1 13 2 14 3 8 5 9 6 7 7 6 10 4 11 5 12 3 13 2 14 1 15
REMARK SMILES IDX 69 16 70 17 71 18 10 19 11 20 15 21 16 22 17 23 18 24 19 25
REMARK SMILES IDX 20 27 21 28 22 29 68 30 23 31 67 32 24 33 25 34 26 35 61 36
REMARK SMILES IDX 27 37 66 38 60 39 62 40 28 41 65 42 59 43 58 44 29 46 51 47
REMARK SMILES IDX 36 48 50 49 37 50 40 51 49 52 63 53 38 54 39 55 48 57 64 58
REMARK SMILES IDX 41 59 30 60 31 61 35 62 32 63 34 64 33 65 52 66 53 67 57 68
REMARK SMILES IDX 54 69 56 70 55 71 42 72 43 73 47 74 44 75 46 76 45 77
REMARK H PARENT 14 4 7 8 7 9 18 26 62 45 40 56
REMARK Flexibility Score: inf
ROOT
ATOM      1  C   UNL A   1      34.479  19.593  24.880  1.00  0.00     0.281 C 
ATOM      2  O   UNL A   1      33.988  18.481  24.662  1.00  0.00    -0.268 OA
ATOM      3  N   UNL A   1      35.840  19.640  24.971  1.00  0.00    -0.351 N 
ATOM      4  H   UNL A   1      36.279  18.759  24.997  1.00  0.00     0.163 HD
ENDROOT
BRANCH   1   5
ATOM      5  C   UNL A   1      33.604  20.880  25.037  1.00  0.00     0.172 C 
ATOM      6  C   UNL A   1      32.118  20.574  24.726  1.00  0.00     0.090 C 
BRANCH   5   7
ATOM      7  N   UNL A   1      34.010  21.962  24.090  1.00  0.00    -0.326 N 
ATOM      8  H   UNL A   1      34.428  22.720  24.630  1.00  0.00     0.347 HD
ATOM      9  H   UNL A   1      34.662  21.541  23.428  1.00  0.00     0.347 HD
BRANCH   7  10
ATOM     10  C   UNL A   1      32.900  22.521  23.292  1.00  0.00     0.362 C 
BRANCH  10  11
ATOM     11  C   UNL A   1      33.250  23.944  22.859  1.00  0.00     0.277 C 
ATOM     12  O   UNL A   1      34.424  24.207  22.567  1.00  0.00    -0.268 OA
BRANCH  11  13
ATOM     13  N   UNL A   1      32.228  24.883  22.798  1.00  0.00    -0.335 N 
BRANCH  13  14
ATOM     14  C   UNL A   1      32.265  26.073  21.942  1.00  0.00     0.116 C 
ATOM     15  C   UNL A   1      32.916  27.250  22.649  1.00  0.00     0.027 C 
ENDBRANCH  13  14
BRANCH  13  16
ATOM     16  C   UNL A   1      30.955  24.562  23.403  1.00  0.00     0.085 C 
ATOM     17  C   UNL A   1      30.667  24.876  24.850  1.00  0.00     0.027 C 
ATOM     18  C   UNL A   1      29.970  25.643  23.771  1.00  0.00     0.027 C 
ENDBRANCH  13  16
ENDBRANCH  11  13
ENDBRANCH  10  11
ENDBRANCH   7  10
ENDBRANCH   5   7
BRANCH   5  19
ATOM     19  C   UNL A   1      33.704  21.401  26.502  1.00  0.00     0.075 C 
ATOM     20  C   UNL A   1      34.202  22.840  26.628  1.00  0.00     0.011 C 
ENDBRANCH   5  19
ENDBRANCH   1   5
BRANCH   3  21
ATOM     21  C   UNL A   1      36.750  20.771  25.035  1.00  0.00     0.118 C 
BRANCH  21  22
ATOM     22  C   UNL A   1      38.180  20.359  24.755  1.00  0.00     0.042 C 
BRANCH  22  23
ATOM     23  C   UNL A   1      39.057  20.401  25.994  1.00  0.00     0.118 C 
BRANCH  23  24
ATOM     24  N   UNL A   1      40.087  19.369  25.991  1.00  0.00    -0.352 N 
ATOM     25  C   UNL A   1      41.446  19.488  26.129  1.00  0.00     0.251 C 
ATOM     26  H   UNL A   1      39.758  18.450  25.873  1.00  0.00     0.163 HD
ATOM     27  O   UNL A   1      42.175  18.522  25.914  1.00  0.00    -0.269 OA
BRANCH  25  28
ATOM     28  C   UNL A   1      42.030  20.785  26.514  1.00  0.00     0.039 A 
ATOM     29  C   UNL A   1      42.415  21.676  25.511  1.00  0.00     0.014 A 
ATOM     30  C   UNL A   1      42.179  21.128  27.860  1.00  0.00     0.014 A 
ATOM     31  C   UNL A   1      42.886  22.939  25.864  1.00  0.00     0.010 A 
ATOM     32  C   UNL A   1      42.540  22.423  28.206  1.00  0.00     0.010 A 
ATOM     33  C   UNL A   1      42.911  23.338  27.212  1.00  0.00    -0.014 A 
BRANCH  33  34
ATOM     34  C   UNL A   1      43.320  24.710  27.592  1.00  0.00     0.031 A 
ATOM     35  C   UNL A   1      42.282  25.746  27.926  1.00  0.00     0.074 A 
ATOM     36  C   UNL A   1      44.628  25.030  27.593  1.00  0.00     0.049 A 
ATOM     37  N   UNL A   1      42.450  26.990  28.297  1.00  0.00    -0.248 NA
ATOM     38  C   UNL A   1      40.870  25.345  27.805  1.00  0.00     0.031 C 
ATOM     39  C   UNL A   1      45.725  24.128  27.227  1.00  0.00     0.029 A 
ATOM     40  N   UNL A   1      45.261  26.201  27.924  1.00  0.00    -0.354 N 
ATOM     41  C   UNL A   1      41.174  27.519  28.436  1.00  0.00     0.074 A 
ATOM     42  C   UNL A   1      40.240  26.484  28.054  1.00  0.00     0.031 C 
ATOM     43  C   UNL A   1      46.895  24.761  27.408  1.00  0.00     0.029 A 
ATOM     44  C   UNL A   1      46.631  26.122  27.859  1.00  0.00     0.049 A 
ATOM     45  H   UNL A   1      44.779  27.019  28.184  1.00  0.00     0.167 HD
ATOM     46  C   UNL A   1      40.809  28.749  28.867  1.00  0.00     0.031 A 
ATOM     47  C   UNL A   1      47.570  27.044  28.140  1.00  0.00     0.031 A 
ATOM     48  C   UNL A   1      41.741  29.771  29.262  1.00  0.00     0.049 A 
ATOM     49  C   UNL A   1      47.136  28.402  28.617  1.00  0.00     0.074 A 
ATOM     50  C   UNL A   1      41.475  31.027  29.779  1.00  0.00     0.029 A 
ATOM     51  N   UNL A   1      43.120  29.656  29.176  1.00  0.00    -0.354 N 
ATOM     52  N   UNL A   1      45.925  28.855  28.831  1.00  0.00    -0.248 NA
ATOM     53  C   UNL A   1      48.202  29.368  28.904  1.00  0.00     0.031 C 
ATOM     54  C   UNL A   1      42.692  31.694  29.949  1.00  0.00     0.029 A 
ATOM     55  C   UNL A   1      43.718  30.831  29.600  1.00  0.00     0.049 A 
ATOM     56  H   UNL A   1      43.602  28.858  28.860  1.00  0.00     0.167 HD
ATOM     57  C   UNL A   1      46.084  30.151  29.303  1.00  0.00     0.074 A 
ATOM     58  C   UNL A   1      47.510  30.397  29.371  1.00  0.00     0.031 C 
ATOM     59  C   UNL A   1      45.139  31.060  29.648  1.00  0.00     0.031 A 
BRANCH  46  60
ATOM     60  C   UNL A   1      39.338  29.057  28.930  1.00  0.00    -0.014 A 
ATOM     61  C   UNL A   1      38.650  29.568  27.818  1.00  0.00     0.009 A 
ATOM     62  C   UNL A   1      38.621  28.793  30.107  1.00  0.00     0.009 A 
ATOM     63  C   UNL A   1      37.282  29.838  27.894  1.00  0.00     0.001 A 
ATOM     64  C   UNL A   1      37.248  29.035  30.171  1.00  0.00     0.001 A 
ATOM     65  C   UNL A   1      36.581  29.566  29.068  1.00  0.00     0.000 A 
ENDBRANCH  46  60
BRANCH  47  66
ATOM     66  C   UNL A   1      49.014  26.714  28.004  1.00  0.00    -0.014 A 
ATOM     67  C   UNL A   1      49.666  26.866  26.770  1.00  0.00     0.009 A 
ATOM     68  C   UNL A   1      49.742  26.224  29.099  1.00  0.00     0.009 A 
ATOM     69  C   UNL A   1      51.006  26.500  26.627  1.00  0.00     0.001 A 
ATOM     70  C   UNL A   1      51.091  25.890  28.961  1.00  0.00     0.001 A 
ATOM     71  C   UNL A   1      51.718  26.015  27.722  1.00  0.00     0.000 A 
ENDBRANCH  47  66
BRANCH  59  72
ATOM     72  C   UNL A   1      45.626  32.389  30.154  1.00  0.00    -0.014 A 
ATOM     73  C   UNL A   1      45.789  33.483  29.289  1.00  0.00     0.009 A 
ATOM     74  C   UNL A   1      45.916  32.550  31.517  1.00  0.00     0.009 A 
ATOM     75  C   UNL A   1      46.283  34.696  29.772  1.00  0.00     0.001 A 
ATOM     76  C   UNL A   1      46.374  33.775  32.003  1.00  0.00     0.001 A 
ATOM     77  C   UNL A   1      46.572  34.842  31.129  1.00  0.00     0.000 A 
ENDBRANCH  59  72
ENDBRANCH  33  34
ENDBRANCH  25  28
ENDBRANCH  23  24
ENDBRANCH  22  23
ENDBRANCH  21  22
ENDBRANCH   3  21
TORSDOF 17
ENDMDL
