MODEL 1
REMARK VINA RESULT:     -11.5      0.000      0.000
REMARK SMILES CCc1cc(OC(F)(F)F)cc2c1O[C@H](C(F)(F)F)C(C(=O)NCCCNC(=O)c1ccc(-c3c4nc(c(-c5ccccc5)c5ccc([nH]5)c(-c5ccccc5)c5nc(c(-c6ccccc6)c6ccc3[nH]6)C=C5)C=C4)cc1)=C2
REMARK SMILES IDX 25 1 24 2 23 3 21 4 22 5 20 7 3 8 4 9 13 10 5 11 12 12 14 13
REMARK SMILES IDX 11 14 78 15 15 16 2 17 1 18 6 19 7 20 8 21 9 22 10 23 16 24
REMARK SMILES IDX 17 25 18 26 19 27 26 28 27 29 28 30 29 32 30 33 31 34 77 35
REMARK SMILES IDX 32 36 76 37 33 38 34 39 35 40 70 41 36 42 75 43 69 44 71 45
REMARK SMILES IDX 37 46 74 47 68 48 67 49 38 51 60 52 45 53 59 54 46 55 49 56
REMARK SMILES IDX 58 57 72 58 47 59 48 60 57 62 73 63 50 64 39 65 40 66 44 67
REMARK SMILES IDX 41 68 43 69 42 70 61 71 62 72 66 73 63 74 65 75 64 76 51 77
REMARK SMILES IDX 52 78 56 79 53 80 55 81 54 82
REMARK H PARENT 23 6 27 31 71 50 49 61
REMARK Flexibility Score: inf
ROOT
ATOM      1  C   UNL A   1      32.302  27.948  27.459  1.00  0.00     0.042 C 
ENDROOT
BRANCH   1   2
ATOM      2  C   UNL A   1      31.757  27.279  26.197  1.00  0.00     0.118 C 
BRANCH   2   3
ATOM      3  N   UNL A   1      30.600  26.458  26.499  1.00  0.00    -0.352 N 
ATOM      4  C   UNL A   1      30.369  25.123  26.423  1.00  0.00     0.251 C 
ATOM      5  O   UNL A   1      29.277  24.719  26.819  1.00  0.00    -0.270 OA
ATOM      6  H   UNL A   1      29.828  26.972  26.825  1.00  0.00     0.163 HD
BRANCH   4   7
ATOM      7  C   UNL A   1      31.396  24.136  25.990  1.00  0.00     0.067 C 
ATOM      8  C   UNL A   1      33.668  20.765  24.903  1.00  0.00    -0.002 A 
ATOM      9  C   UNL A   1      35.034  20.740  25.263  1.00  0.00     0.054 A 
ATOM     10  C   UNL A   1      32.904  21.880  25.279  1.00  0.00     0.131 A 
ATOM     11  C   UNL A   1      35.627  21.799  25.953  1.00  0.00     0.130 A 
ATOM     12  C   UNL A   1      33.496  22.958  25.952  1.00  0.00     0.021 A 
ATOM     13  O   UNL A   1      31.553  21.855  25.052  1.00  0.00    -0.475 OA
ATOM     14  C   UNL A   1      34.852  22.911  26.282  1.00  0.00     0.058 A 
ATOM     15  C   UNL A   1      32.672  24.081  26.395  1.00  0.00     0.025 C 
ATOM     16  C   UNL A   1      30.896  23.148  24.951  1.00  0.00     0.314 C 
BRANCH   8  17
ATOM     17  C   UNL A   1      33.111  19.546  24.194  1.00  0.00     0.036 C 
ATOM     18  C   UNL A   1      32.772  18.328  25.045  1.00  0.00     0.009 C 
ENDBRANCH   8  17
BRANCH  11  19
ATOM     19  O   UNL A   1      36.923  21.874  26.377  1.00  0.00    -0.406 OA
BRANCH  19  20
ATOM     20  C   UNL A   1      37.923  22.159  25.413  1.00  0.00     0.573 C 
ATOM     21  F   UNL A   1      38.494  21.025  24.952  1.00  0.00    -0.132 F 
ATOM     22  F   UNL A   1      37.415  22.863  24.381  1.00  0.00    -0.132 F 
ATOM     23  F   UNL A   1      38.886  22.904  26.000  1.00  0.00    -0.132 F 
ENDBRANCH  19  20
ENDBRANCH  11  19
BRANCH  16  24
ATOM     24  C   UNL A   1      30.996  23.688  23.509  1.00  0.00     0.429 C 
ATOM     25  F   UNL A   1      31.319  22.715  22.621  1.00  0.00    -0.167 F 
ATOM     26  F   UNL A   1      29.811  24.211  23.106  1.00  0.00    -0.167 F 
ATOM     27  F   UNL A   1      31.918  24.665  23.365  1.00  0.00    -0.167 F 
ENDBRANCH  16  24
ENDBRANCH   4   7
ENDBRANCH   2   3
ENDBRANCH   1   2
BRANCH   1  28
ATOM     28  C   UNL A   1      33.660  28.611  27.248  1.00  0.00     0.118 C 
BRANCH  28  29
ATOM     29  N   UNL A   1      33.628  30.026  27.587  1.00  0.00    -0.352 N 
ATOM     30  C   UNL A   1      34.550  30.794  28.252  1.00  0.00     0.251 C 
ATOM     31  H   UNL A   1      32.820  30.506  27.295  1.00  0.00     0.163 HD
ATOM     32  O   UNL A   1      34.232  31.912  28.646  1.00  0.00    -0.269 OA
BRANCH  30  33
ATOM     33  C   UNL A   1      35.918  30.290  28.502  1.00  0.00     0.039 A 
ATOM     34  C   UNL A   1      36.854  30.347  27.464  1.00  0.00     0.014 A 
ATOM     35  C   UNL A   1      36.264  29.707  29.724  1.00  0.00     0.014 A 
ATOM     36  C   UNL A   1      38.146  29.859  27.664  1.00  0.00     0.010 A 
ATOM     37  C   UNL A   1      37.572  29.280  29.944  1.00  0.00     0.010 A 
ATOM     38  C   UNL A   1      38.521  29.342  28.913  1.00  0.00    -0.014 A 
BRANCH  38  39
ATOM     39  C   UNL A   1      39.900  28.848  29.155  1.00  0.00     0.031 A 
ATOM     40  C   UNL A   1      40.935  29.756  29.758  1.00  0.00     0.074 A 
ATOM     41  C   UNL A   1      40.234  27.602  28.775  1.00  0.00     0.049 A 
ATOM     42  N   UNL A   1      42.203  29.525  29.987  1.00  0.00    -0.248 NA
ATOM     43  C   UNL A   1      40.493  31.111  30.127  1.00  0.00     0.031 C 
ATOM     44  C   UNL A   1      39.332  26.639  28.140  1.00  0.00     0.029 A 
ATOM     45  N   UNL A   1      41.431  26.936  28.856  1.00  0.00    -0.354 N 
ATOM     46  C   UNL A   1      42.713  30.707  30.510  1.00  0.00     0.074 A 
ATOM     47  C   UNL A   1      41.629  31.667  30.521  1.00  0.00     0.031 C 
ATOM     48  C   UNL A   1      40.004  25.501  27.902  1.00  0.00     0.029 A 
ATOM     49  C   UNL A   1      41.388  25.666  28.335  1.00  0.00     0.049 A 
ATOM     50  H   UNL A   1      42.242  27.330  29.248  1.00  0.00     0.167 HD
ATOM     51  C   UNL A   1      43.965  30.966  30.959  1.00  0.00     0.031 A 
ATOM     52  C   UNL A   1      42.356  24.739  28.213  1.00  0.00     0.031 A 
ATOM     53  C   UNL A   1      45.040  30.011  30.952  1.00  0.00     0.049 A 
ATOM     54  C   UNL A   1      43.736  25.046  28.719  1.00  0.00     0.074 A 
ATOM     55  C   UNL A   1      46.331  30.161  31.430  1.00  0.00     0.029 A 
ATOM     56  N   UNL A   1      44.950  28.726  30.439  1.00  0.00    -0.354 N 
ATOM     57  N   UNL A   1      44.186  26.147  29.270  1.00  0.00    -0.248 NA
ATOM     58  C   UNL A   1      44.736  23.977  28.600  1.00  0.00     0.031 C 
ATOM     59  C   UNL A   1      47.033  28.979  31.167  1.00  0.00     0.029 A 
ATOM     60  C   UNL A   1      46.165  28.077  30.570  1.00  0.00     0.049 A 
ATOM     61  H   UNL A   1      44.139  28.333  30.040  1.00  0.00     0.167 HD
ATOM     62  C   UNL A   1      45.516  25.899  29.580  1.00  0.00     0.074 A 
ATOM     63  C   UNL A   1      45.794  24.536  29.173  1.00  0.00     0.031 C 
ATOM     64  C   UNL A   1      46.427  26.725  30.152  1.00  0.00     0.031 A 
BRANCH  51  65
ATOM     65  C   UNL A   1      44.232  32.349  31.486  1.00  0.00    -0.014 A 
ATOM     66  C   UNL A   1      44.059  32.653  32.847  1.00  0.00     0.009 A 
ATOM     67  C   UNL A   1      44.671  33.358  30.616  1.00  0.00     0.009 A 
ATOM     68  C   UNL A   1      44.279  33.950  33.315  1.00  0.00     0.001 A 
ATOM     69  C   UNL A   1      44.918  34.647  31.092  1.00  0.00     0.001 A 
ATOM     70  C   UNL A   1      44.710  34.945  32.439  1.00  0.00     0.000 A 
ENDBRANCH  51  65
BRANCH  52  71
ATOM     71  C   UNL A   1      42.042  23.426  27.595  1.00  0.00    -0.014 A 
ATOM     72  C   UNL A   1      42.368  23.173  26.254  1.00  0.00     0.009 A 
ATOM     73  C   UNL A   1      41.438  22.410  28.351  1.00  0.00     0.009 A 
ATOM     74  C   UNL A   1      42.075  21.936  25.678  1.00  0.00     0.001 A 
ATOM     75  C   UNL A   1      41.170  21.164  27.779  1.00  0.00     0.001 A 
ATOM     76  C   UNL A   1      41.483  20.931  26.441  1.00  0.00     0.000 A 
ENDBRANCH  52  71
BRANCH  64  77
ATOM     77  C   UNL A   1      47.801  26.168  30.388  1.00  0.00    -0.014 A 
ATOM     78  C   UNL A   1      48.759  26.137  29.364  1.00  0.00     0.009 A 
ATOM     79  C   UNL A   1      48.151  25.698  31.664  1.00  0.00     0.009 A 
ATOM     80  C   UNL A   1      50.033  25.619  29.604  1.00  0.00     0.001 A 
ATOM     81  C   UNL A   1      49.433  25.205  31.908  1.00  0.00     0.001 A 
ATOM     82  C   UNL A   1      50.370  25.157  30.876  1.00  0.00     0.000 A 
ENDBRANCH  64  77
ENDBRANCH  38  39
ENDBRANCH  30  33
ENDBRANCH  28  29
ENDBRANCH   1  28
TORSDOF 14
ENDMDL
MODEL 2
REMARK VINA RESULT:     -11.2      2.858      7.865
REMARK SMILES CCc1cc(OC(F)(F)F)cc2c1O[C@H](C(F)(F)F)C(C(=O)NCCCNC(=O)c1ccc(-c3c4nc(c(-c5ccccc5)c5ccc([nH]5)c(-c5ccccc5)c5nc(c(-c6ccccc6)c6ccc3[nH]6)C=C5)C=C4)cc1)=C2
REMARK SMILES IDX 25 1 24 2 23 3 21 4 22 5 20 7 3 8 4 9 13 10 5 11 12 12 14 13
REMARK SMILES IDX 11 14 78 15 15 16 2 17 1 18 6 19 7 20 8 21 9 22 10 23 16 24
REMARK SMILES IDX 17 25 18 26 19 27 26 28 27 29 28 30 29 32 30 33 31 34 77 35
REMARK SMILES IDX 32 36 76 37 33 38 34 39 35 40 70 41 36 42 75 43 69 44 71 45
REMARK SMILES IDX 37 46 74 47 68 48 67 49 38 51 60 52 45 53 59 54 46 55 49 56
REMARK SMILES IDX 58 57 72 58 47 59 48 60 57 62 73 63 50 64 39 65 40 66 44 67
REMARK SMILES IDX 41 68 43 69 42 70 61 71 62 72 66 73 63 74 65 75 64 76 51 77
REMARK SMILES IDX 52 78 56 79 53 80 55 81 54 82
REMARK H PARENT 23 6 27 31 71 50 49 61
REMARK Flexibility Score: inf
ROOT
ATOM      1  C   UNL A   1      35.274  22.633  26.700  1.00  0.00     0.042 C 
ENDROOT
BRANCH   1   2
ATOM      2  C   UNL A   1      34.116  22.407  25.728  1.00  0.00     0.118 C 
BRANCH   2   3
ATOM      3  N   UNL A   1      34.566  22.489  24.351  1.00  0.00    -0.352 N 
ATOM      4  C   UNL A   1      34.376  23.407  23.371  1.00  0.00     0.251 C 
ATOM      5  O   UNL A   1      34.956  23.215  22.303  1.00  0.00    -0.270 OA
ATOM      6  H   UNL A   1      35.121  21.726  24.073  1.00  0.00     0.163 HD
BRANCH   4   7
ATOM      7  C   UNL A   1      33.601  24.663  23.561  1.00  0.00     0.067 C 
ATOM      8  C   UNL A   1      31.302  28.173  23.240  1.00  0.00    -0.002 A 
ATOM      9  C   UNL A   1      31.634  29.264  24.074  1.00  0.00     0.054 A 
ATOM     10  C   UNL A   1      32.078  27.008  23.333  1.00  0.00     0.131 A 
ATOM     11  C   UNL A   1      32.688  29.190  24.988  1.00  0.00     0.130 A 
ATOM     12  C   UNL A   1      33.122  26.916  24.263  1.00  0.00     0.021 A 
ATOM     13  O   UNL A   1      31.848  25.995  22.439  1.00  0.00    -0.475 OA
ATOM     14  C   UNL A   1      33.419  28.006  25.085  1.00  0.00     0.058 A 
ATOM     15  C   UNL A   1      33.963  25.720  24.300  1.00  0.00     0.025 C 
ATOM     16  C   UNL A   1      32.255  24.664  22.859  1.00  0.00     0.314 C 
BRANCH   8  17
ATOM     17  C   UNL A   1      30.169  28.371  22.252  1.00  0.00     0.036 C 
ATOM     18  C   UNL A   1      29.189  29.507  22.520  1.00  0.00     0.009 C 
ENDBRANCH   8  17
BRANCH  11  19
ATOM     19  O   UNL A   1      33.117  30.183  25.821  1.00  0.00    -0.406 OA
BRANCH  19  20
ATOM     20  C   UNL A   1      32.362  30.443  26.993  1.00  0.00     0.573 C 
ATOM     21  F   UNL A   1      31.558  31.515  26.828  1.00  0.00    -0.132 F 
ATOM     22  F   UNL A   1      31.623  29.369  27.339  1.00  0.00    -0.132 F 
ATOM     23  F   UNL A   1      33.217  30.711  28.005  1.00  0.00    -0.132 F 
ENDBRANCH  19  20
ENDBRANCH  11  19
BRANCH  16  24
ATOM     24  C   UNL A   1      31.138  24.003  23.694  1.00  0.00     0.429 C 
ATOM     25  F   UNL A   1      31.042  24.541  24.935  1.00  0.00    -0.167 F 
ATOM     26  F   UNL A   1      29.929  24.166  23.099  1.00  0.00    -0.167 F 
ATOM     27  F   UNL A   1      31.310  22.673  23.859  1.00  0.00    -0.167 F 
ENDBRANCH  16  24
ENDBRANCH   4   7
ENDBRANCH   2   3
ENDBRANCH   1   2
BRANCH   1  28
ATOM     28  C   UNL A   1      36.470  23.329  26.057  1.00  0.00     0.118 C 
BRANCH  28  29
ATOM     29  N   UNL A   1      37.637  22.461  26.009  1.00  0.00    -0.352 N 
ATOM     30  C   UNL A   1      38.961  22.752  26.222  1.00  0.00     0.251 C 
ATOM     31  H   UNL A   1      37.448  21.520  25.789  1.00  0.00     0.163 HD
ATOM     32  O   UNL A   1      39.817  21.932  25.902  1.00  0.00    -0.269 OA
BRANCH  30  33
ATOM     33  C   UNL A   1      39.367  24.039  26.826  1.00  0.00     0.039 A 
ATOM     34  C   UNL A   1      40.052  24.965  26.033  1.00  0.00     0.014 A 
ATOM     35  C   UNL A   1      39.133  24.312  28.177  1.00  0.00     0.014 A 
ATOM     36  C   UNL A   1      40.468  26.180  26.583  1.00  0.00     0.010 A 
ATOM     37  C   UNL A   1      39.490  25.551  28.707  1.00  0.00     0.010 A 
ATOM     38  C   UNL A   1      40.170  26.491  27.918  1.00  0.00    -0.014 A 
BRANCH  38  39
ATOM     39  C   UNL A   1      40.573  27.790  28.511  1.00  0.00     0.031 A 
ATOM     40  C   UNL A   1      41.974  27.989  29.017  1.00  0.00     0.074 A 
ATOM     41  C   UNL A   1      39.660  28.768  28.648  1.00  0.00     0.049 A 
ATOM     42  N   UNL A   1      42.494  29.029  29.620  1.00  0.00    -0.248 NA
ATOM     43  C   UNL A   1      42.907  26.863  28.847  1.00  0.00     0.031 C 
ATOM     44  C   UNL A   1      38.258  28.682  28.236  1.00  0.00     0.029 A 
ATOM     45  N   UNL A   1      39.773  30.024  29.187  1.00  0.00    -0.354 N 
ATOM     46  C   UNL A   1      43.805  28.677  29.916  1.00  0.00     0.074 A 
ATOM     47  C   UNL A   1      43.987  27.312  29.469  1.00  0.00     0.031 C 
ATOM     48  C   UNL A   1      37.644  29.841  28.525  1.00  0.00     0.029 A 
ATOM     49  C   UNL A   1      38.599  30.736  29.170  1.00  0.00     0.049 A 
ATOM     50  H   UNL A   1      40.614  30.381  29.552  1.00  0.00     0.167 HD
ATOM     51  C   UNL A   1      44.777  29.426  30.490  1.00  0.00     0.031 A 
ATOM     52  C   UNL A   1      38.319  31.970  29.629  1.00  0.00     0.031 A 
ATOM     53  C   UNL A   1      44.596  30.784  30.931  1.00  0.00     0.049 A 
ATOM     54  C   UNL A   1      39.411  32.785  30.261  1.00  0.00     0.074 A 
ATOM     55  C   UNL A   1      45.531  31.644  31.480  1.00  0.00     0.029 A 
ATOM     56  N   UNL A   1      43.398  31.478  30.873  1.00  0.00    -0.354 N 
ATOM     57  N   UNL A   1      40.663  32.460  30.476  1.00  0.00    -0.248 NA
ATOM     58  C   UNL A   1      39.055  34.141  30.699  1.00  0.00     0.031 C 
ATOM     59  C   UNL A   1      44.887  32.847  31.793  1.00  0.00     0.029 A 
ATOM     60  C   UNL A   1      43.562  32.750  31.394  1.00  0.00     0.049 A 
ATOM     61  H   UNL A   1      42.554  31.119  30.515  1.00  0.00     0.167 HD
ATOM     62  C   UNL A   1      41.249  33.576  31.057  1.00  0.00     0.074 A 
ATOM     63  C   UNL A   1      40.219  34.593  31.144  1.00  0.00     0.031 C 
ATOM     64  C   UNL A   1      42.525  33.745  31.481  1.00  0.00     0.031 A 
BRANCH  51  65
ATOM     65  C   UNL A   1      46.120  28.779  30.681  1.00  0.00    -0.014 A 
ATOM     66  C   UNL A   1      46.428  28.080  31.860  1.00  0.00     0.009 A 
ATOM     67  C   UNL A   1      47.087  28.858  29.667  1.00  0.00     0.009 A 
ATOM     68  C   UNL A   1      47.692  27.511  32.036  1.00  0.00     0.001 A 
ATOM     69  C   UNL A   1      48.339  28.264  29.834  1.00  0.00     0.001 A 
ATOM     70  C   UNL A   1      48.645  27.601  31.023  1.00  0.00     0.000 A 
ENDBRANCH  51  65
BRANCH  52  71
ATOM     71  C   UNL A   1      36.943  32.511  29.492  1.00  0.00    -0.014 A 
ATOM     72  C   UNL A   1      36.552  33.177  28.321  1.00  0.00     0.009 A 
ATOM     73  C   UNL A   1      36.007  32.342  30.524  1.00  0.00     0.009 A 
ATOM     74  C   UNL A   1      35.256  33.680  28.195  1.00  0.00     0.001 A 
ATOM     75  C   UNL A   1      34.703  32.824  30.384  1.00  0.00     0.001 A 
ATOM     76  C   UNL A   1      34.332  33.499  29.222  1.00  0.00     0.000 A 
ENDBRANCH  52  71
BRANCH  64  77
ATOM     77  C   UNL A   1      42.882  35.085  32.057  1.00  0.00    -0.014 A 
ATOM     78  C   UNL A   1      43.501  36.071  31.273  1.00  0.00     0.009 A 
ATOM     79  C   UNL A   1      42.564  35.376  33.392  1.00  0.00     0.009 A 
ATOM     80  C   UNL A   1      43.822  37.313  31.825  1.00  0.00     0.001 A 
ATOM     81  C   UNL A   1      42.862  36.627  33.934  1.00  0.00     0.001 A 
ATOM     82  C   UNL A   1      43.499  37.591  33.153  1.00  0.00     0.000 A 
ENDBRANCH  64  77
ENDBRANCH  38  39
ENDBRANCH  30  33
ENDBRANCH  28  29
ENDBRANCH   1  28
TORSDOF 14
ENDMDL
MODEL 3
REMARK VINA RESULT:     -11.2      2.340      7.522
REMARK SMILES CCc1cc(OC(F)(F)F)cc2c1O[C@H](C(F)(F)F)C(C(=O)NCCCNC(=O)c1ccc(-c3c4nc(c(-c5ccccc5)c5ccc([nH]5)c(-c5ccccc5)c5nc(c(-c6ccccc6)c6ccc3[nH]6)C=C5)C=C4)cc1)=C2
REMARK SMILES IDX 25 1 24 2 23 3 21 4 22 5 20 7 3 8 4 9 13 10 5 11 12 12 14 13
REMARK SMILES IDX 11 14 78 15 15 16 2 17 1 18 6 19 7 20 8 21 9 22 10 23 16 24
REMARK SMILES IDX 17 25 18 26 19 27 26 28 27 29 28 30 29 32 30 33 31 34 77 35
REMARK SMILES IDX 32 36 76 37 33 38 34 39 35 40 70 41 36 42 75 43 69 44 71 45
REMARK SMILES IDX 37 46 74 47 68 48 67 49 38 51 60 52 45 53 59 54 46 55 49 56
REMARK SMILES IDX 58 57 72 58 47 59 48 60 57 62 73 63 50 64 39 65 40 66 44 67
REMARK SMILES IDX 41 68 43 69 42 70 61 71 62 72 66 73 63 74 65 75 64 76 51 77
REMARK SMILES IDX 52 78 56 79 53 80 55 81 54 82
REMARK H PARENT 23 6 27 31 71 50 49 61
REMARK Flexibility Score: inf
ROOT
ATOM      1  C   UNL A   1      38.146  19.965  24.663  1.00  0.00     0.042 C 
ENDROOT
BRANCH   1   2
ATOM      2  C   UNL A   1      37.005  20.981  24.667  1.00  0.00     0.118 C 
BRANCH   2   3
ATOM      3  N   UNL A   1      35.789  20.401  25.206  1.00  0.00    -0.352 N 
ATOM      4  C   UNL A   1      34.545  20.895  25.420  1.00  0.00     0.251 C 
ATOM      5  O   UNL A   1      33.695  20.114  25.843  1.00  0.00    -0.270 OA
ATOM      6  H   UNL A   1      35.888  19.458  25.470  1.00  0.00     0.163 HD
BRANCH   4   7
ATOM      7  C   UNL A   1      34.143  22.286  25.070  1.00  0.00     0.067 C 
ATOM      8  C   UNL A   1      33.499  26.083  23.376  1.00  0.00    -0.002 A 
ATOM      9  C   UNL A   1      33.421  27.194  24.246  1.00  0.00     0.054 A 
ATOM     10  C   UNL A   1      33.731  24.819  23.937  1.00  0.00     0.131 A 
ATOM     11  C   UNL A   1      33.545  27.050  25.629  1.00  0.00     0.130 A 
ATOM     12  C   UNL A   1      33.834  24.660  25.326  1.00  0.00     0.021 A 
ATOM     13  O   UNL A   1      33.940  23.758  23.096  1.00  0.00    -0.475 OA
ATOM     14  C   UNL A   1      33.739  25.775  26.162  1.00  0.00     0.058 A 
ATOM     15  C   UNL A   1      34.143  23.346  25.888  1.00  0.00     0.025 C 
ATOM     16  C   UNL A   1      33.654  22.441  23.641  1.00  0.00     0.314 C 
BRANCH   8  17
ATOM     17  C   UNL A   1      33.395  26.355  21.888  1.00  0.00     0.036 C 
ATOM     18  C   UNL A   1      32.080  26.012  21.198  1.00  0.00     0.009 C 
ENDBRANCH   8  17
BRANCH  11  19
ATOM     19  O   UNL A   1      33.515  28.047  26.561  1.00  0.00    -0.406 OA
BRANCH  19  20
ATOM     20  C   UNL A   1      32.251  28.565  26.942  1.00  0.00     0.573 C 
ATOM     21  F   UNL A   1      32.333  29.878  27.246  1.00  0.00    -0.132 F 
ATOM     22  F   UNL A   1      31.339  28.381  25.965  1.00  0.00    -0.132 F 
ATOM     23  F   UNL A   1      31.830  27.905  28.043  1.00  0.00    -0.132 F 
ENDBRANCH  19  20
ENDBRANCH  11  19
BRANCH  16  24
ATOM     24  C   UNL A   1      32.157  22.107  23.477  1.00  0.00     0.429 C 
ATOM     25  F   UNL A   1      31.514  22.045  24.669  1.00  0.00    -0.167 F 
ATOM     26  F   UNL A   1      31.528  23.057  22.739  1.00  0.00    -0.167 F 
ATOM     27  F   UNL A   1      31.936  20.928  22.856  1.00  0.00    -0.167 F 
ENDBRANCH  16  24
ENDBRANCH   4   7
ENDBRANCH   2   3
ENDBRANCH   1   2
BRANCH   1  28
ATOM     28  C   UNL A   1      38.913  19.918  25.981  1.00  0.00     0.118 C 
BRANCH  28  29
ATOM     29  N   UNL A   1      40.166  19.190  25.851  1.00  0.00    -0.352 N 
ATOM     30  C   UNL A   1      41.459  19.634  25.958  1.00  0.00     0.251 C 
ATOM     31  H   UNL A   1      40.070  18.229  25.656  1.00  0.00     0.163 HD
ATOM     32  O   UNL A   1      42.378  18.912  25.581  1.00  0.00    -0.269 OA
BRANCH  30  33
ATOM     33  C   UNL A   1      41.758  20.969  26.517  1.00  0.00     0.039 A 
ATOM     34  C   UNL A   1      42.171  21.984  25.647  1.00  0.00     0.014 A 
ATOM     35  C   UNL A   1      41.695  21.212  27.892  1.00  0.00     0.014 A 
ATOM     36  C   UNL A   1      42.482  23.248  26.149  1.00  0.00     0.010 A 
ATOM     37  C   UNL A   1      41.942  22.492  28.385  1.00  0.00     0.010 A 
ATOM     38  C   UNL A   1      42.348  23.518  27.519  1.00  0.00    -0.014 A 
BRANCH  38  39
ATOM     39  C   UNL A   1      42.641  24.865  28.067  1.00  0.00     0.031 A 
ATOM     40  C   UNL A   1      44.028  25.209  28.534  1.00  0.00     0.074 A 
ATOM     41  C   UNL A   1      41.644  25.758  28.201  1.00  0.00     0.049 A 
ATOM     42  N   UNL A   1      44.461  26.309  29.096  1.00  0.00    -0.248 NA
ATOM     43  C   UNL A   1      45.058  24.170  28.372  1.00  0.00     0.031 C 
ATOM     44  C   UNL A   1      40.247  25.531  27.825  1.00  0.00     0.029 A 
ATOM     45  N   UNL A   1      41.650  27.035  28.703  1.00  0.00    -0.354 N 
ATOM     46  C   UNL A   1      45.806  26.089  29.370  1.00  0.00     0.074 A 
ATOM     47  C   UNL A   1      46.104  24.734  28.955  1.00  0.00     0.031 C 
ATOM     48  C   UNL A   1      39.534  26.636  28.097  1.00  0.00     0.029 A 
ATOM     49  C   UNL A   1      40.415  27.634  28.695  1.00  0.00     0.049 A 
ATOM     50  H   UNL A   1      42.463  27.478  29.037  1.00  0.00     0.167 HD
ATOM     51  C   UNL A   1      46.715  26.941  29.900  1.00  0.00     0.031 A 
ATOM     52  C   UNL A   1      40.031  28.849  29.128  1.00  0.00     0.031 A 
ATOM     53  C   UNL A   1      46.418  28.288  30.309  1.00  0.00     0.049 A 
ATOM     54  C   UNL A   1      41.056  29.779  29.711  1.00  0.00     0.074 A 
ATOM     55  C   UNL A   1      47.280  29.247  30.812  1.00  0.00     0.029 A 
ATOM     56  N   UNL A   1      45.160  28.867  30.262  1.00  0.00    -0.354 N 
ATOM     57  N   UNL A   1      42.337  29.578  29.905  1.00  0.00    -0.248 NA
ATOM     58  C   UNL A   1      40.584  31.109  30.122  1.00  0.00     0.031 C 
ATOM     59  C   UNL A   1      46.533  30.393  31.109  1.00  0.00     0.029 A 
ATOM     60  C   UNL A   1      45.215  30.162  30.744  1.00  0.00     0.049 A 
ATOM     61  H   UNL A   1      44.345  28.420  29.933  1.00  0.00     0.167 HD
ATOM     62  C   UNL A   1      42.829  30.761  30.442  1.00  0.00     0.074 A 
ATOM     63  C   UNL A   1      41.710  31.679  30.526  1.00  0.00     0.031 C 
ATOM     64  C   UNL A   1      44.092  31.059  30.830  1.00  0.00     0.031 A 
BRANCH  51  65
ATOM     65  C   UNL A   1      48.116  26.427  30.075  1.00  0.00    -0.014 A 
ATOM     66  C   UNL A   1      49.073  26.563  29.055  1.00  0.00     0.009 A 
ATOM     67  C   UNL A   1      48.491  25.807  31.277  1.00  0.00     0.009 A 
ATOM     68  C   UNL A   1      50.362  26.051  29.220  1.00  0.00     0.001 A 
ATOM     69  C   UNL A   1      49.788  25.321  31.450  1.00  0.00     0.001 A 
ATOM     70  C   UNL A   1      50.719  25.433  30.417  1.00  0.00     0.000 A 
ENDBRANCH  51  65
BRANCH  52  71
ATOM     71  C   UNL A   1      38.608  29.256  29.010  1.00  0.00    -0.014 A 
ATOM     72  C   UNL A   1      38.107  29.751  27.797  1.00  0.00     0.009 A 
ATOM     73  C   UNL A   1      37.739  29.128  30.104  1.00  0.00     0.009 A 
ATOM     74  C   UNL A   1      36.767  30.129  27.689  1.00  0.00     0.001 A 
ATOM     75  C   UNL A   1      36.393  29.482  29.986  1.00  0.00     0.001 A 
ATOM     76  C   UNL A   1      35.910  29.989  28.780  1.00  0.00     0.000 A 
ENDBRANCH  52  71
BRANCH  64  77
ATOM     77  C   UNL A   1      44.335  32.443  31.361  1.00  0.00    -0.014 A 
ATOM     78  C   UNL A   1      44.256  32.718  32.735  1.00  0.00     0.009 A 
ATOM     79  C   UNL A   1      44.680  33.477  30.477  1.00  0.00     0.009 A 
ATOM     80  C   UNL A   1      44.489  34.010  33.210  1.00  0.00     0.001 A 
ATOM     81  C   UNL A   1      44.938  34.761  30.957  1.00  0.00     0.001 A 
ATOM     82  C   UNL A   1      44.833  35.029  32.322  1.00  0.00     0.000 A 
ENDBRANCH  64  77
ENDBRANCH  38  39
ENDBRANCH  30  33
ENDBRANCH  28  29
ENDBRANCH   1  28
TORSDOF 14
ENDMDL
