MODEL 1
REMARK VINA RESULT:     -11.4      0.000      0.000
REMARK SMILES O=C(NCCCNC(=O)c1cn(C2C[NH+](CCC[C@@H]3CCCO3)C2)nn1)c1ccc(-c2c3nc(c(-c4ccccc4)c4ccc([nH]4)c(-c4ccccc4)c4nc(c(-c5ccccc5)c5ccc2[nH]5)C=C4)C=C3)cc1
REMARK SMILES IDX 7 1 8 2 9 3 6 5 5 6 4 7 3 8 1 9 2 10 27 12 28 13 74 14 29 15
REMARK SMILES IDX 73 16 30 17 31 18 32 19 67 20 33 21 72 22 66 23 68 24 34 25
REMARK SMILES IDX 71 26 65 27 64 28 35 30 57 31 42 32 56 33 43 34 46 35 55 36
REMARK SMILES IDX 69 37 44 38 45 39 54 41 70 42 47 43 36 44 37 45 41 46 38 47
REMARK SMILES IDX 40 48 39 49 58 50 59 51 63 52 60 53 62 54 61 55 48 56 49 57
REMARK SMILES IDX 53 58 50 59 52 60 51 61 10 62 11 63 26 64 12 65 25 66 13 67
REMARK SMILES IDX 14 68 24 69 15 70 16 72 17 73 18 74 19 75 20 76 23 77 21 78
REMARK SMILES IDX 22 79
REMARK H PARENT 7 4 3 11 68 29 46 40 15 71
REMARK Flexibility Score: inf
ROOT
ATOM      1  N   UNL A   1      31.688  29.298  23.791  1.00  0.00    -0.351 N 
ATOM      2  C   UNL A   1      31.387  28.456  22.744  1.00  0.00     0.273 C 
ATOM      3  O   UNL A   1      30.463  28.762  22.000  1.00  0.00    -0.267 OA
ATOM      4  H   UNL A   1      31.012  29.992  23.969  1.00  0.00     0.163 HD
ENDROOT
BRANCH   1   5
ATOM      5  C   UNL A   1      32.842  29.328  24.676  1.00  0.00     0.118 C 
BRANCH   5   6
ATOM      6  C   UNL A   1      32.549  30.039  25.999  1.00  0.00     0.042 C 
BRANCH   6   7
ATOM      7  C   UNL A   1      33.690  29.991  27.012  1.00  0.00     0.118 C 
BRANCH   7   8
ATOM      8  N   UNL A   1      33.706  31.087  27.958  1.00  0.00    -0.352 N 
ATOM      9  O   UNL A   1      34.332  32.743  29.274  1.00  0.00    -0.269 OA
ATOM     10  C   UNL A   1      34.672  31.708  28.696  1.00  0.00     0.251 C 
ATOM     11  H   UNL A   1      32.813  31.475  28.103  1.00  0.00     0.163 HD
BRANCH  10  12
ATOM     12  C   UNL A   1      36.047  31.189  28.920  1.00  0.00     0.039 A 
ATOM     13  C   UNL A   1      37.146  31.923  29.369  1.00  0.00     0.014 A 
ATOM     14  C   UNL A   1      36.225  29.825  28.618  1.00  0.00     0.014 A 
ATOM     15  C   UNL A   1      38.410  31.333  29.426  1.00  0.00     0.010 A 
ATOM     16  C   UNL A   1      37.478  29.231  28.677  1.00  0.00     0.010 A 
ATOM     17  C   UNL A   1      38.577  29.997  29.048  1.00  0.00    -0.014 A 
BRANCH  17  18
ATOM     18  C   UNL A   1      39.883  29.366  29.220  1.00  0.00     0.031 A 
ATOM     19  C   UNL A   1      40.259  29.107  30.640  1.00  0.00     0.074 A 
ATOM     20  C   UNL A   1      40.617  28.880  28.198  1.00  0.00     0.049 A 
ATOM     21  N   UNL A   1      41.274  29.575  31.290  1.00  0.00    -0.248 NA
ATOM     22  C   UNL A   1      39.336  28.310  31.465  1.00  0.00     0.031 C 
ATOM     23  C   UNL A   1      40.242  28.785  26.785  1.00  0.00     0.029 A 
ATOM     24  N   UNL A   1      41.828  28.249  28.232  1.00  0.00    -0.354 N 
ATOM     25  C   UNL A   1      41.217  29.003  32.560  1.00  0.00     0.074 A 
ATOM     26  C   UNL A   1      39.939  28.346  32.655  1.00  0.00     0.031 C 
ATOM     27  C   UNL A   1      41.085  27.933  26.154  1.00  0.00     0.029 A 
ATOM     28  C   UNL A   1      42.131  27.531  27.080  1.00  0.00     0.049 A 
ATOM     29  H   UNL A   1      42.433  28.297  29.006  1.00  0.00     0.167 HD
ATOM     30  C   UNL A   1      42.313  28.925  33.364  1.00  0.00     0.031 A 
ATOM     31  C   UNL A   1      43.133  26.628  26.919  1.00  0.00     0.031 A 
ATOM     32  C   UNL A   1      43.370  29.791  32.918  1.00  0.00     0.049 A 
ATOM     33  C   UNL A   1      44.121  26.855  27.996  1.00  0.00     0.074 A 
ATOM     34  C   UNL A   1      43.517  31.152  32.755  1.00  0.00     0.029 A 
ATOM     35  N   UNL A   1      44.389  29.210  32.204  1.00  0.00    -0.354 N 
ATOM     36  N   UNL A   1      44.873  27.914  28.067  1.00  0.00    -0.248 NA
ATOM     37  C   UNL A   1      43.965  26.112  29.235  1.00  0.00     0.031 C 
ATOM     38  C   UNL A   1      44.301  31.293  31.573  1.00  0.00     0.029 A 
ATOM     39  C   UNL A   1      44.640  30.015  31.126  1.00  0.00     0.049 A 
ATOM     40  H   UNL A   1      44.853  28.370  32.426  1.00  0.00     0.167 HD
ATOM     41  C   UNL A   1      44.902  28.228  29.417  1.00  0.00     0.074 A 
ATOM     42  C   UNL A   1      44.412  27.029  30.097  1.00  0.00     0.031 C 
ATOM     43  C   UNL A   1      45.048  29.520  29.833  1.00  0.00     0.031 A 
BRANCH  30  44
ATOM     44  C   UNL A   1      42.588  27.774  34.300  1.00  0.00    -0.014 A 
ATOM     45  C   UNL A   1      43.169  26.602  33.776  1.00  0.00     0.009 A 
ATOM     46  C   UNL A   1      42.025  27.680  35.586  1.00  0.00     0.009 A 
ATOM     47  C   UNL A   1      43.109  25.387  34.468  1.00  0.00     0.001 A 
ATOM     48  C   UNL A   1      42.000  26.477  36.297  1.00  0.00     0.001 A 
ATOM     49  C   UNL A   1      42.515  25.323  35.724  1.00  0.00     0.000 A 
ENDBRANCH  30  44
BRANCH  31  50
ATOM     50  C   UNL A   1      43.173  25.405  26.084  1.00  0.00    -0.014 A 
ATOM     51  C   UNL A   1      44.266  25.140  25.240  1.00  0.00     0.009 A 
ATOM     52  C   UNL A   1      42.275  24.352  26.334  1.00  0.00     0.009 A 
ATOM     53  C   UNL A   1      44.472  23.861  24.701  1.00  0.00     0.001 A 
ATOM     54  C   UNL A   1      42.478  23.077  25.796  1.00  0.00     0.001 A 
ATOM     55  C   UNL A   1      43.586  22.827  24.991  1.00  0.00     0.000 A 
ENDBRANCH  31  50
BRANCH  43  56
ATOM     56  C   UNL A   1      45.417  30.558  28.803  1.00  0.00    -0.014 A 
ATOM     57  C   UNL A   1      44.474  31.212  27.991  1.00  0.00     0.009 A 
ATOM     58  C   UNL A   1      46.749  30.998  28.764  1.00  0.00     0.009 A 
ATOM     59  C   UNL A   1      44.861  32.254  27.142  1.00  0.00     0.001 A 
ATOM     60  C   UNL A   1      47.130  32.053  27.934  1.00  0.00     0.001 A 
ATOM     61  C   UNL A   1      46.188  32.677  27.119  1.00  0.00     0.000 A 
ENDBRANCH  43  56
ENDBRANCH  17  18
ENDBRANCH  10  12
ENDBRANCH   7   8
ENDBRANCH   6   7
ENDBRANCH   5   6
ENDBRANCH   1   5
BRANCH   2  62
ATOM     62  C   UNL A   1      32.170  27.249  22.567  1.00  0.00     0.170 A 
ATOM     63  C   UNL A   1      32.052  26.039  23.224  1.00  0.00     0.145 A 
ATOM     64  N   UNL A   1      33.171  27.151  21.634  1.00  0.00    -0.125 NA
ATOM     65  N   UNL A   1      33.083  25.298  22.731  1.00  0.00    -0.237 N 
ATOM     66  N   UNL A   1      33.731  25.957  21.755  1.00  0.00    -0.066 NA
BRANCH  65  67
ATOM     67  C   UNL A   1      33.606  24.070  23.232  1.00  0.00     0.218 C 
ATOM     68  C   UNL A   1      33.259  23.820  24.727  1.00  0.00     0.295 C 
ATOM     69  C   UNL A   1      32.764  22.802  22.988  1.00  0.00     0.295 C 
ATOM     70  N   UNL A   1      32.971  22.417  24.402  1.00  0.00    -0.331 N 
ATOM     71  H   UNL A   1      32.255  21.904  24.915  1.00  0.00     0.348 HD
BRANCH  70  72
ATOM     72  C   UNL A   1      34.097  21.490  24.620  1.00  0.00     0.262 C 
BRANCH  72  73
ATOM     73  C   UNL A   1      33.924  19.977  24.885  1.00  0.00     0.064 C 
BRANCH  73  74
ATOM     74  C   UNL A   1      32.508  19.379  24.806  1.00  0.00     0.038 C 
BRANCH  74  75
ATOM     75  C   UNL A   1      32.469  17.889  24.486  1.00  0.00     0.118 C 
ATOM     76  C   UNL A   1      33.096  17.028  25.571  1.00  0.00     0.034 C 
ATOM     77  O   UNL A   1      33.200  17.624  23.280  1.00  0.00    -0.378 OA
ATOM     78  C   UNL A   1      33.525  15.820  24.779  1.00  0.00     0.031 C 
ATOM     79  C   UNL A   1      33.996  16.450  23.485  1.00  0.00     0.160 C 
ENDBRANCH  74  75
ENDBRANCH  73  74
ENDBRANCH  72  73
ENDBRANCH  70  72
ENDBRANCH  65  67
ENDBRANCH   2  62
TORSDOF 15
ENDMDL
MODEL 2
REMARK VINA RESULT:     -11.4      2.680      8.745
REMARK SMILES O=C(NCCCNC(=O)c1cn(C2C[NH+](CCC[C@@H]3CCCO3)C2)nn1)c1ccc(-c2c3nc(c(-c4ccccc4)c4ccc([nH]4)c(-c4ccccc4)c4nc(c(-c5ccccc5)c5ccc2[nH]5)C=C4)C=C3)cc1
REMARK SMILES IDX 7 1 8 2 9 3 6 5 5 6 4 7 3 8 1 9 2 10 27 12 28 13 74 14 29 15
REMARK SMILES IDX 73 16 30 17 31 18 32 19 67 20 33 21 72 22 66 23 68 24 34 25
REMARK SMILES IDX 71 26 65 27 64 28 35 30 57 31 42 32 56 33 43 34 46 35 55 36
REMARK SMILES IDX 69 37 44 38 45 39 54 41 70 42 47 43 36 44 37 45 41 46 38 47
REMARK SMILES IDX 40 48 39 49 58 50 59 51 63 52 60 53 62 54 61 55 48 56 49 57
REMARK SMILES IDX 53 58 50 59 52 60 51 61 10 62 11 63 26 64 12 65 25 66 13 67
REMARK SMILES IDX 14 68 24 69 15 70 16 72 17 73 18 74 19 75 20 76 23 77 21 78
REMARK SMILES IDX 22 79
REMARK H PARENT 7 4 3 11 68 29 46 40 15 71
REMARK Flexibility Score: inf
ROOT
ATOM      1  N   UNL A   1      35.743  19.888  25.000  1.00  0.00    -0.351 N 
ATOM      2  C   UNL A   1      34.451  19.561  24.659  1.00  0.00     0.273 C 
ATOM      3  O   UNL A   1      34.195  18.389  24.407  1.00  0.00    -0.267 OA
ATOM      4  H   UNL A   1      36.406  19.178  24.835  1.00  0.00     0.163 HD
ENDROOT
BRANCH   1   5
ATOM      5  C   UNL A   1      36.289  21.111  25.566  1.00  0.00     0.118 C 
BRANCH   5   6
ATOM      6  C   UNL A   1      37.765  21.314  25.216  1.00  0.00     0.042 C 
BRANCH   6   7
ATOM      7  C   UNL A   1      38.506  22.289  26.126  1.00  0.00     0.118 C 
BRANCH   7   8
ATOM      8  N   UNL A   1      39.949  22.182  26.081  1.00  0.00    -0.352 N 
ATOM      9  O   UNL A   1      42.108  22.448  26.450  1.00  0.00    -0.269 OA
ATOM     10  C   UNL A   1      40.986  22.958  26.512  1.00  0.00     0.251 C 
ATOM     11  H   UNL A   1      40.254  21.358  25.636  1.00  0.00     0.163 HD
BRANCH  10  12
ATOM     12  C   UNL A   1      40.873  24.372  26.957  1.00  0.00     0.039 A 
ATOM     13  C   UNL A   1      40.344  25.432  26.219  1.00  0.00     0.014 A 
ATOM     14  C   UNL A   1      41.378  24.633  28.245  1.00  0.00     0.014 A 
ATOM     15  C   UNL A   1      40.403  26.734  26.717  1.00  0.00     0.010 A 
ATOM     16  C   UNL A   1      41.435  25.925  28.749  1.00  0.00     0.010 A 
ATOM     17  C   UNL A   1      40.979  26.981  27.968  1.00  0.00    -0.014 A 
BRANCH  17  18
ATOM     18  C   UNL A   1      40.931  28.332  28.520  1.00  0.00     0.031 A 
ATOM     19  C   UNL A   1      42.079  29.198  28.124  1.00  0.00     0.074 A 
ATOM     20  C   UNL A   1      39.864  28.833  29.175  1.00  0.00     0.049 A 
ATOM     21  N   UNL A   1      42.952  29.759  28.895  1.00  0.00    -0.248 NA
ATOM     22  C   UNL A   1      42.345  29.381  26.687  1.00  0.00     0.031 C 
ATOM     23  C   UNL A   1      38.553  28.210  29.371  1.00  0.00     0.029 A 
ATOM     24  N   UNL A   1      39.689  30.078  29.708  1.00  0.00    -0.354 N 
ATOM     25  C   UNL A   1      43.784  30.503  28.059  1.00  0.00     0.074 A 
ATOM     26  C   UNL A   1      43.450  30.127  26.710  1.00  0.00     0.031 C 
ATOM     27  C   UNL A   1      37.661  29.153  29.757  1.00  0.00     0.029 A 
ATOM     28  C   UNL A   1      38.362  30.410  29.963  1.00  0.00     0.049 A 
ATOM     29  H   UNL A   1      40.437  30.689  29.895  1.00  0.00     0.167 HD
ATOM     30  C   UNL A   1      44.538  31.536  28.528  1.00  0.00     0.031 A 
ATOM     31  C   UNL A   1      37.869  31.640  30.262  1.00  0.00     0.031 A 
ATOM     32  C   UNL A   1      44.647  31.514  29.961  1.00  0.00     0.049 A 
ATOM     33  C   UNL A   1      38.999  32.478  30.720  1.00  0.00     0.074 A 
ATOM     34  C   UNL A   1      45.169  30.638  30.891  1.00  0.00     0.029 A 
ATOM     35  N   UNL A   1      43.827  32.365  30.660  1.00  0.00    -0.354 N 
ATOM     36  N   UNL A   1      39.628  32.283  31.841  1.00  0.00    -0.248 NA
ATOM     37  C   UNL A   1      39.714  33.263  29.727  1.00  0.00     0.031 C 
ATOM     38  C   UNL A   1      44.265  30.698  31.992  1.00  0.00     0.029 A 
ATOM     39  C   UNL A   1      43.290  31.652  31.698  1.00  0.00     0.049 A 
ATOM     40  H   UNL A   1      43.656  33.312  30.453  1.00  0.00     0.167 HD
ATOM     41  C   UNL A   1      40.962  32.508  31.533  1.00  0.00     0.074 A 
ATOM     42  C   UNL A   1      40.942  33.206  30.248  1.00  0.00     0.031 C 
ATOM     43  C   UNL A   1      41.955  31.858  32.206  1.00  0.00     0.031 A 
BRANCH  30  44
ATOM     44  C   UNL A   1      44.827  32.790  27.741  1.00  0.00    -0.014 A 
ATOM     45  C   UNL A   1      43.793  33.732  27.570  1.00  0.00     0.009 A 
ATOM     46  C   UNL A   1      45.957  32.933  26.915  1.00  0.00     0.009 A 
ATOM     47  C   UNL A   1      43.855  34.707  26.568  1.00  0.00     0.001 A 
ATOM     48  C   UNL A   1      46.039  33.932  25.941  1.00  0.00     0.001 A 
ATOM     49  C   UNL A   1      44.975  34.800  25.747  1.00  0.00     0.000 A 
ENDBRANCH  30  44
BRANCH  31  50
ATOM     50  C   UNL A   1      36.557  32.237  29.923  1.00  0.00    -0.014 A 
ATOM     51  C   UNL A   1      35.782  32.886  30.899  1.00  0.00     0.009 A 
ATOM     52  C   UNL A   1      36.198  32.427  28.576  1.00  0.00     0.009 A 
ATOM     53  C   UNL A   1      34.715  33.723  30.539  1.00  0.00     0.001 A 
ATOM     54  C   UNL A   1      35.133  33.259  28.215  1.00  0.00     0.001 A 
ATOM     55  C   UNL A   1      34.401  33.920  29.197  1.00  0.00     0.000 A 
ENDBRANCH  31  50
BRANCH  43  56
ATOM     56  C   UNL A   1      41.581  31.081  33.444  1.00  0.00    -0.014 A 
ATOM     57  C   UNL A   1      41.158  29.740  33.416  1.00  0.00     0.009 A 
ATOM     58  C   UNL A   1      41.814  31.680  34.690  1.00  0.00     0.009 A 
ATOM     59  C   UNL A   1      40.945  29.033  34.605  1.00  0.00     0.001 A 
ATOM     60  C   UNL A   1      41.623  30.968  35.875  1.00  0.00     0.001 A 
ATOM     61  C   UNL A   1      41.184  29.646  35.832  1.00  0.00     0.000 A 
ENDBRANCH  43  56
ENDBRANCH  17  18
ENDBRANCH  10  12
ENDBRANCH   7   8
ENDBRANCH   6   7
ENDBRANCH   5   6
ENDBRANCH   1   5
BRANCH   2  62
ATOM     62  C   UNL A   1      33.451  20.609  24.610  1.00  0.00     0.170 A 
ATOM     63  C   UNL A   1      33.512  21.831  23.967  1.00  0.00     0.145 A 
ATOM     64  N   UNL A   1      32.224  20.486  25.212  1.00  0.00    -0.125 NA
ATOM     65  N   UNL A   1      32.348  22.444  24.319  1.00  0.00    -0.237 N 
ATOM     66  N   UNL A   1      31.565  21.622  25.039  1.00  0.00    -0.066 NA
BRANCH  65  67
ATOM     67  C   UNL A   1      31.991  23.815  24.165  1.00  0.00     0.218 C 
ATOM     68  C   UNL A   1      32.541  24.450  22.856  1.00  0.00     0.295 C 
ATOM     69  C   UNL A   1      30.612  24.111  23.542  1.00  0.00     0.295 C 
ATOM     70  N   UNL A   1      31.247  25.118  22.663  1.00  0.00    -0.331 N 
ATOM     71  H   UNL A   1      30.891  25.293  21.724  1.00  0.00     0.348 HD
BRANCH  70  72
ATOM     72  C   UNL A   1      31.184  26.499  23.178  1.00  0.00     0.262 C 
BRANCH  72  73
ATOM     73  C   UNL A   1      30.540  27.673  22.407  1.00  0.00     0.064 C 
BRANCH  73  74
ATOM     74  C   UNL A   1      29.511  28.552  23.139  1.00  0.00     0.038 C 
BRANCH  74  75
ATOM     75  C   UNL A   1      29.452  29.995  22.653  1.00  0.00     0.118 C 
ATOM     76  C   UNL A   1      28.374  30.815  23.345  1.00  0.00     0.034 C 
ATOM     77  O   UNL A   1      29.155  30.031  21.249  1.00  0.00    -0.378 OA
ATOM     78  C   UNL A   1      28.084  31.862  22.301  1.00  0.00     0.031 C 
ATOM     79  C   UNL A   1      28.182  31.060  21.021  1.00  0.00     0.160 C 
ENDBRANCH  74  75
ENDBRANCH  73  74
ENDBRANCH  72  73
ENDBRANCH  70  72
ENDBRANCH  65  67
ENDBRANCH   2  62
TORSDOF 15
ENDMDL
MODEL 3
REMARK VINA RESULT:     -11.2      2.522      8.481
REMARK SMILES O=C(NCCCNC(=O)c1cn(C2C[NH+](CCC[C@@H]3CCCO3)C2)nn1)c1ccc(-c2c3nc(c(-c4ccccc4)c4ccc([nH]4)c(-c4ccccc4)c4nc(c(-c5ccccc5)c5ccc2[nH]5)C=C4)C=C3)cc1
REMARK SMILES IDX 7 1 8 2 9 3 6 5 5 6 4 7 3 8 1 9 2 10 27 12 28 13 74 14 29 15
REMARK SMILES IDX 73 16 30 17 31 18 32 19 67 20 33 21 72 22 66 23 68 24 34 25
REMARK SMILES IDX 71 26 65 27 64 28 35 30 57 31 42 32 56 33 43 34 46 35 55 36
REMARK SMILES IDX 69 37 44 38 45 39 54 41 70 42 47 43 36 44 37 45 41 46 38 47
REMARK SMILES IDX 40 48 39 49 58 50 59 51 63 52 60 53 62 54 61 55 48 56 49 57
REMARK SMILES IDX 53 58 50 59 52 60 51 61 10 62 11 63 26 64 12 65 25 66 13 67
REMARK SMILES IDX 14 68 24 69 15 70 16 72 17 73 18 74 19 75 20 76 23 77 21 78
REMARK SMILES IDX 22 79
REMARK H PARENT 7 4 3 11 68 29 46 40 15 71
REMARK Flexibility Score: inf
ROOT
ATOM      1  N   UNL A   1      35.169  19.963  25.030  1.00  0.00    -0.351 N 
ATOM      2  C   UNL A   1      33.850  20.006  24.639  1.00  0.00     0.273 C 
ATOM      3  O   UNL A   1      33.287  18.950  24.378  1.00  0.00    -0.267 OA
ATOM      4  H   UNL A   1      35.612  19.094  24.891  1.00  0.00     0.163 HD
ENDROOT
BRANCH   1   5
ATOM      5  C   UNL A   1      36.015  20.991  25.616  1.00  0.00     0.118 C 
BRANCH   5   6
ATOM      6  C   UNL A   1      36.924  21.663  24.586  1.00  0.00     0.042 C 
BRANCH   6   7
ATOM      7  C   UNL A   1      37.902  22.679  25.168  1.00  0.00     0.118 C 
BRANCH   7   8
ATOM      8  N   UNL A   1      39.122  22.110  25.701  1.00  0.00    -0.352 N 
ATOM      9  O   UNL A   1      40.853  21.623  26.978  1.00  0.00    -0.269 OA
ATOM     10  C   UNL A   1      40.002  22.465  26.682  1.00  0.00     0.251 C 
ATOM     11  H   UNL A   1      39.375  21.271  25.253  1.00  0.00     0.163 HD
BRANCH  10  12
ATOM     12  C   UNL A   1      40.062  23.797  27.339  1.00  0.00     0.039 A 
ATOM     13  C   UNL A   1      39.047  24.755  27.364  1.00  0.00     0.014 A 
ATOM     14  C   UNL A   1      41.285  24.095  27.971  1.00  0.00     0.014 A 
ATOM     15  C   UNL A   1      39.280  26.012  27.922  1.00  0.00     0.010 A 
ATOM     16  C   UNL A   1      41.521  25.341  28.533  1.00  0.00     0.010 A 
ATOM     17  C   UNL A   1      40.528  26.313  28.477  1.00  0.00    -0.014 A 
BRANCH  17  18
ATOM     18  C   UNL A   1      40.718  27.592  29.155  1.00  0.00     0.031 A 
ATOM     19  C   UNL A   1      41.680  28.509  28.480  1.00  0.00     0.074 A 
ATOM     20  C   UNL A   1      39.962  28.005  30.193  1.00  0.00     0.049 A 
ATOM     21  N   UNL A   1      42.784  28.988  28.951  1.00  0.00    -0.248 NA
ATOM     22  C   UNL A   1      41.432  28.856  27.070  1.00  0.00     0.031 C 
ATOM     23  C   UNL A   1      38.784  27.350  30.767  1.00  0.00     0.029 A 
ATOM     24  N   UNL A   1      40.022  29.180  30.887  1.00  0.00    -0.354 N 
ATOM     25  C   UNL A   1      43.294  29.830  27.964  1.00  0.00     0.074 A 
ATOM     26  C   UNL A   1      42.498  29.606  26.785  1.00  0.00     0.031 C 
ATOM     27  C   UNL A   1      38.112  28.235  31.542  1.00  0.00     0.029 A 
ATOM     28  C   UNL A   1      38.878  29.467  31.625  1.00  0.00     0.049 A 
ATOM     29  H   UNL A   1      40.807  29.774  30.865  1.00  0.00     0.167 HD
ATOM     30  C   UNL A   1      44.195  30.811  28.249  1.00  0.00     0.031 A 
ATOM     31  C   UNL A   1      38.559  30.650  32.211  1.00  0.00     0.031 A 
ATOM     32  C   UNL A   1      44.797  30.629  29.542  1.00  0.00     0.049 A 
ATOM     33  C   UNL A   1      39.801  31.443  32.333  1.00  0.00     0.074 A 
ATOM     34  C   UNL A   1      45.584  29.659  30.127  1.00  0.00     0.029 A 
ATOM     35  N   UNL A   1      44.299  31.387  30.572  1.00  0.00    -0.354 N 
ATOM     36  N   UNL A   1      40.777  31.128  33.133  1.00  0.00    -0.248 NA
ATOM     37  C   UNL A   1      40.148  32.342  31.244  1.00  0.00     0.031 C 
ATOM     38  C   UNL A   1      45.124  29.584  31.475  1.00  0.00     0.029 A 
ATOM     39  C   UNL A   1      44.137  30.556  31.647  1.00  0.00     0.049 A 
ATOM     40  H   UNL A   1      44.094  32.350  30.543  1.00  0.00     0.167 HD
ATOM     41  C   UNL A   1      41.925  31.401  32.404  1.00  0.00     0.074 A 
ATOM     42  C   UNL A   1      41.479  32.239  31.292  1.00  0.00     0.031 C 
ATOM     43  C   UNL A   1      43.071  30.689  32.611  1.00  0.00     0.031 A 
BRANCH  30  44
ATOM     44  C   UNL A   1      44.228  32.149  27.553  1.00  0.00    -0.014 A 
ATOM     45  C   UNL A   1      43.717  33.275  28.229  1.00  0.00     0.009 A 
ATOM     46  C   UNL A   1      44.450  32.289  26.171  1.00  0.00     0.009 A 
ATOM     47  C   UNL A   1      43.368  34.442  27.541  1.00  0.00     0.001 A 
ATOM     48  C   UNL A   1      44.141  33.468  25.487  1.00  0.00     0.001 A 
ATOM     49  C   UNL A   1      43.570  34.534  26.167  1.00  0.00     0.000 A 
ENDBRANCH  30  44
BRANCH  31  50
ATOM     50  C   UNL A   1      37.229  31.268  32.421  1.00  0.00    -0.014 A 
ATOM     51  C   UNL A   1      36.957  32.030  33.571  1.00  0.00     0.009 A 
ATOM     52  C   UNL A   1      36.318  31.356  31.353  1.00  0.00     0.009 A 
ATOM     53  C   UNL A   1      35.839  32.875  33.632  1.00  0.00     0.001 A 
ATOM     54  C   UNL A   1      35.201  32.197  31.414  1.00  0.00     0.001 A 
ATOM     55  C   UNL A   1      34.970  32.969  32.548  1.00  0.00     0.000 A 
ENDBRANCH  31  50
BRANCH  43  56
ATOM     56  C   UNL A   1      43.130  29.773  33.808  1.00  0.00    -0.014 A 
ATOM     57  C   UNL A   1      42.738  28.423  33.768  1.00  0.00     0.009 A 
ATOM     58  C   UNL A   1      43.748  30.253  34.972  1.00  0.00     0.009 A 
ATOM     59  C   UNL A   1      42.932  27.589  34.875  1.00  0.00     0.001 A 
ATOM     60  C   UNL A   1      43.962  29.416  36.067  1.00  0.00     0.001 A 
ATOM     61  C   UNL A   1      43.549  28.086  36.021  1.00  0.00     0.000 A 
ENDBRANCH  43  56
ENDBRANCH  17  18
ENDBRANCH  10  12
ENDBRANCH   7   8
ENDBRANCH   6   7
ENDBRANCH   5   6
ENDBRANCH   1   5
BRANCH   2  62
ATOM     62  C   UNL A   1      33.187  21.292  24.550  1.00  0.00     0.170 A 
ATOM     63  C   UNL A   1      33.233  22.351  25.436  1.00  0.00     0.145 A 
ATOM     64  N   UNL A   1      32.408  21.646  23.477  1.00  0.00    -0.125 NA
ATOM     65  N   UNL A   1      32.368  23.260  24.906  1.00  0.00    -0.237 N 
ATOM     66  N   UNL A   1      31.900  22.846  23.715  1.00  0.00    -0.066 NA
BRANCH  65  67
ATOM     67  C   UNL A   1      31.820  24.422  25.523  1.00  0.00     0.218 C 
ATOM     68  C   UNL A   1      32.897  25.343  26.163  1.00  0.00     0.295 C 
ATOM     69  C   UNL A   1      31.551  25.635  24.611  1.00  0.00     0.295 C 
ATOM     70  N   UNL A   1      32.189  26.510  25.620  1.00  0.00    -0.331 N 
ATOM     71  H   UNL A   1      32.705  27.343  25.340  1.00  0.00     0.348 HD
BRANCH  70  72
ATOM     72  C   UNL A   1      31.243  27.147  26.555  1.00  0.00     0.262 C 
BRANCH  72  73
ATOM     73  C   UNL A   1      31.635  28.278  27.532  1.00  0.00     0.064 C 
BRANCH  73  74
ATOM     74  C   UNL A   1      31.912  29.678  26.957  1.00  0.00     0.038 C 
BRANCH  74  75
ATOM     75  C   UNL A   1      33.384  29.971  26.690  1.00  0.00     0.118 C 
ATOM     76  C   UNL A   1      34.319  28.935  27.296  1.00  0.00     0.034 C 
ATOM     77  O   UNL A   1      33.748  31.235  27.264  1.00  0.00    -0.378 OA
ATOM     78  C   UNL A   1      35.575  29.746  27.484  1.00  0.00     0.031 C 
ATOM     79  C   UNL A   1      35.018  31.087  27.912  1.00  0.00     0.160 C 
ENDBRANCH  74  75
ENDBRANCH  73  74
ENDBRANCH  72  73
ENDBRANCH  70  72
ENDBRANCH  65  67
ENDBRANCH   2  62
TORSDOF 15
ENDMDL
