MODEL 1
REMARK VINA RESULT:     -12.4      0.000      0.000
REMARK SMILES O=C(NCCCNC(=O)c1ccsc1NC(=O)c1cc2c(F)cccc2s1)c1ccc(-c2c3nc(c(-c4ccccc4)c4ccc([nH]4)c(-c4ccccc4)c4nc(c(-c5ccccc5)c5ccc2[nH]5)C=C4)C=C3)cc1
REMARK SMILES IDX 5 1 4 2 3 3 1 4 2 5 28 7 29 8 75 9 30 10 74 11 31 12 32 13
REMARK SMILES IDX 33 14 68 15 34 16 73 17 67 18 69 19 35 20 72 21 66 22 65 23
REMARK SMILES IDX 36 25 58 26 43 27 57 28 44 29 47 30 56 31 70 32 45 33 46 34
REMARK SMILES IDX 55 36 71 37 48 38 37 39 38 40 42 41 39 42 41 43 40 44 59 45
REMARK SMILES IDX 60 46 64 47 61 48 63 49 62 50 49 51 50 52 54 53 51 54 53 55
REMARK SMILES IDX 52 56 6 57 7 58 8 59 9 61 10 62 11 63 14 64 12 65 13 66
REMARK SMILES IDX 15 67 16 68 17 70 18 71 19 72 27 73 20 74 26 75 21 76 25 77
REMARK SMILES IDX 22 78 23 79 24 80
REMARK H PARENT 3 6 69 24 47 35 7 60 15 69
REMARK Flexibility Score: inf
ROOT
ATOM      1  C   UNL A   1      34.821  30.697  27.643  1.00  0.00     0.042 C 
ENDROOT
BRANCH   1   2
ATOM      2  C   UNL A   1      34.768  32.139  28.139  1.00  0.00     0.118 C 
BRANCH   2   3
ATOM      3  N   UNL A   1      34.541  32.300  29.564  1.00  0.00    -0.352 N 
ATOM      4  O   UNL A   1      34.845  32.520  31.747  1.00  0.00    -0.269 OA
ATOM      5  C   UNL A   1      35.293  32.081  30.686  1.00  0.00     0.251 C 
ATOM      6  H   UNL A   1      33.641  32.644  29.769  1.00  0.00     0.163 HD
BRANCH   5   7
ATOM      7  C   UNL A   1      36.534  31.265  30.720  1.00  0.00     0.039 A 
ATOM      8  C   UNL A   1      37.829  31.761  30.582  1.00  0.00     0.014 A 
ATOM      9  C   UNL A   1      36.351  29.875  30.847  1.00  0.00     0.014 A 
ATOM     10  C   UNL A   1      38.897  30.887  30.420  1.00  0.00     0.010 A 
ATOM     11  C   UNL A   1      37.417  28.996  30.713  1.00  0.00     0.010 A 
ATOM     12  C   UNL A   1      38.682  29.507  30.446  1.00  0.00    -0.014 A 
BRANCH  12  13
ATOM     13  C   UNL A   1      39.844  28.640  30.319  1.00  0.00     0.031 A 
ATOM     14  C   UNL A   1      40.605  28.424  31.579  1.00  0.00     0.074 A 
ATOM     15  C   UNL A   1      40.178  27.991  29.187  1.00  0.00     0.049 A 
ATOM     16  N   UNL A   1      41.826  28.762  31.841  1.00  0.00    -0.248 NA
ATOM     17  C   UNL A   1      39.883  27.838  32.720  1.00  0.00     0.031 C 
ATOM     18  C   UNL A   1      39.405  27.851  27.952  1.00  0.00     0.029 A 
ATOM     19  N   UNL A   1      41.278  27.223  28.952  1.00  0.00    -0.354 N 
ATOM     20  C   UNL A   1      42.083  28.305  33.130  1.00  0.00     0.074 A 
ATOM     21  C   UNL A   1      40.825  27.844  33.663  1.00  0.00     0.031 C 
ATOM     22  C   UNL A   1      39.953  26.873  27.193  1.00  0.00     0.029 A 
ATOM     23  C   UNL A   1      41.184  26.423  27.821  1.00  0.00     0.049 A 
ATOM     24  H   UNL A   1      42.072  27.234  29.534  1.00  0.00     0.167 HD
ATOM     25  C   UNL A   1      43.347  28.162  33.615  1.00  0.00     0.031 A 
ATOM     26  C   UNL A   1      42.033  25.421  27.480  1.00  0.00     0.031 A 
ATOM     27  C   UNL A   1      44.317  28.877  32.837  1.00  0.00     0.049 A 
ATOM     28  C   UNL A   1      43.306  25.656  28.200  1.00  0.00     0.074 A 
ATOM     29  C   UNL A   1      44.549  30.205  32.542  1.00  0.00     0.029 A 
ATOM     30  N   UNL A   1      45.056  28.154  31.933  1.00  0.00    -0.354 N 
ATOM     31  N   UNL A   1      44.104  26.654  27.954  1.00  0.00    -0.248 NA
ATOM     32  C   UNL A   1      43.509  24.991  29.477  1.00  0.00     0.031 C 
ATOM     33  C   UNL A   1      45.016  30.203  31.196  1.00  0.00     0.029 A 
ATOM     34  C   UNL A   1      45.077  28.875  30.769  1.00  0.00     0.049 A 
ATOM     35  H   UNL A   1      45.488  27.283  32.091  1.00  0.00     0.167 HD
ATOM     36  C   UNL A   1      44.619  27.008  29.191  1.00  0.00     0.074 A 
ATOM     37  C   UNL A   1      44.301  25.886  30.071  1.00  0.00     0.031 C 
ATOM     38  C   UNL A   1      45.007  28.290  29.451  1.00  0.00     0.031 A 
BRANCH  25  39
ATOM     39  C   UNL A   1      43.746  27.077  34.580  1.00  0.00    -0.014 A 
ATOM     40  C   UNL A   1      43.723  25.737  34.153  1.00  0.00     0.009 A 
ATOM     41  C   UNL A   1      43.866  27.302  35.964  1.00  0.00     0.009 A 
ATOM     42  C   UNL A   1      43.764  24.681  35.071  1.00  0.00     0.001 A 
ATOM     43  C   UNL A   1      43.948  26.250  36.880  1.00  0.00     0.001 A 
ATOM     44  C   UNL A   1      43.871  24.939  36.434  1.00  0.00     0.000 A 
ENDBRANCH  25  39
BRANCH  26  45
ATOM     45  C   UNL A   1      41.731  24.117  26.846  1.00  0.00    -0.014 A 
ATOM     46  C   UNL A   1      42.756  23.377  26.232  1.00  0.00     0.009 A 
ATOM     47  C   UNL A   1      40.519  23.456  27.110  1.00  0.00     0.009 A 
ATOM     48  C   UNL A   1      42.597  22.012  25.955  1.00  0.00     0.001 A 
ATOM     49  C   UNL A   1      40.356  22.096  26.824  1.00  0.00     0.001 A 
ATOM     50  C   UNL A   1      41.403  21.369  26.269  1.00  0.00     0.000 A 
ENDBRANCH  26  45
BRANCH  38  51
ATOM     51  C   UNL A   1      45.083  29.254  28.297  1.00  0.00    -0.014 A 
ATOM     52  C   UNL A   1      43.978  30.015  27.876  1.00  0.00     0.009 A 
ATOM     53  C   UNL A   1      46.344  29.547  27.758  1.00  0.00     0.009 A 
ATOM     54  C   UNL A   1      44.136  31.043  26.938  1.00  0.00     0.001 A 
ATOM     55  C   UNL A   1      46.503  30.582  26.835  1.00  0.00     0.001 A 
ATOM     56  C   UNL A   1      45.400  31.331  26.427  1.00  0.00     0.000 A 
ENDBRANCH  38  51
ENDBRANCH  12  13
ENDBRANCH   5   7
ENDBRANCH   2   3
ENDBRANCH   1   2
BRANCH   1  57
ATOM     57  C   UNL A   1      33.575  30.247  26.886  1.00  0.00     0.118 C 
BRANCH  57  58
ATOM     58  N   UNL A   1      32.718  29.368  27.679  1.00  0.00    -0.352 N 
ATOM     59  C   UNL A   1      32.161  28.165  27.357  1.00  0.00     0.254 C 
ATOM     60  H   UNL A   1      32.510  29.695  28.585  1.00  0.00     0.163 HD
ATOM     61  O   UNL A   1      31.227  27.722  28.059  1.00  0.00    -0.269 OA
BRANCH  59  62
ATOM     62  C   UNL A   1      32.633  27.457  26.188  1.00  0.00     0.074 A 
ATOM     63  C   UNL A   1      33.612  27.968  25.254  1.00  0.00     0.028 A 
ATOM     64  C   UNL A   1      32.280  26.152  25.862  1.00  0.00     0.108 A 
ATOM     65  C   UNL A   1      33.721  27.188  24.132  1.00  0.00     0.068 A 
ATOM     66  S   UNL A   1      32.684  25.861  24.242  1.00  0.00    -0.126 S 
BRANCH  64  67
ATOM     67  N   UNL A   1      31.543  25.244  26.622  1.00  0.00    -0.312 N 
ATOM     68  C   UNL A   1      31.675  23.874  26.849  1.00  0.00     0.266 C 
ATOM     69  H   UNL A   1      30.778  25.650  27.090  1.00  0.00     0.171 HD
ATOM     70  O   UNL A   1      30.780  23.312  27.488  1.00  0.00    -0.268 OA
BRANCH  68  71
ATOM     71  C   UNL A   1      32.884  23.184  26.467  1.00  0.00     0.094 A 
ATOM     72  C   UNL A   1      34.175  23.340  26.940  1.00  0.00     0.037 A 
ATOM     73  S   UNL A   1      32.866  21.935  25.292  1.00  0.00    -0.130 S 
ATOM     74  C   UNL A   1      35.115  23.004  25.901  1.00  0.00     0.029 A 
ATOM     75  C   UNL A   1      34.452  22.445  24.805  1.00  0.00     0.038 A 
ATOM     76  C   UNL A   1      36.470  23.350  25.740  1.00  0.00     0.131 A 
ATOM     77  C   UNL A   1      35.017  22.438  23.519  1.00  0.00     0.020 A 
ATOM     78  F   UNL A   1      37.195  23.777  26.784  1.00  0.00    -0.206 F 
ATOM     79  C   UNL A   1      37.013  23.434  24.458  1.00  0.00     0.040 A 
ATOM     80  C   UNL A   1      36.264  23.047  23.352  1.00  0.00     0.005 A 
ENDBRANCH  68  71
ENDBRANCH  64  67
ENDBRANCH  59  62
ENDBRANCH  57  58
ENDBRANCH   1  57
TORSDOF 12
ENDMDL
MODEL 2
REMARK VINA RESULT:     -12.3      3.153      8.060
REMARK SMILES O=C(NCCCNC(=O)c1ccsc1NC(=O)c1cc2c(F)cccc2s1)c1ccc(-c2c3nc(c(-c4ccccc4)c4ccc([nH]4)c(-c4ccccc4)c4nc(c(-c5ccccc5)c5ccc2[nH]5)C=C4)C=C3)cc1
REMARK SMILES IDX 5 1 4 2 3 3 1 4 2 5 28 7 29 8 75 9 30 10 74 11 31 12 32 13
REMARK SMILES IDX 33 14 68 15 34 16 73 17 67 18 69 19 35 20 72 21 66 22 65 23
REMARK SMILES IDX 36 25 58 26 43 27 57 28 44 29 47 30 56 31 70 32 45 33 46 34
REMARK SMILES IDX 55 36 71 37 48 38 37 39 38 40 42 41 39 42 41 43 40 44 59 45
REMARK SMILES IDX 60 46 64 47 61 48 63 49 62 50 49 51 50 52 54 53 51 54 53 55
REMARK SMILES IDX 52 56 6 57 7 58 8 59 9 61 10 62 11 63 14 64 12 65 13 66
REMARK SMILES IDX 15 67 16 68 17 70 18 71 19 72 27 73 20 74 26 75 21 76 25 77
REMARK SMILES IDX 22 78 23 79 24 80
REMARK H PARENT 3 6 69 24 47 35 7 60 15 69
REMARK Flexibility Score: inf
ROOT
ATOM      1  C   UNL A   1      37.122  21.587  24.535  1.00  0.00     0.042 C 
ENDROOT
BRANCH   1   2
ATOM      2  C   UNL A   1      37.871  22.034  25.787  1.00  0.00     0.118 C 
BRANCH   2   3
ATOM      3  N   UNL A   1      39.312  21.868  25.743  1.00  0.00    -0.352 N 
ATOM      4  O   UNL A   1      41.469  21.928  26.247  1.00  0.00    -0.269 OA
ATOM      5  C   UNL A   1      40.366  22.462  26.384  1.00  0.00     0.251 C 
ATOM      6  H   UNL A   1      39.596  21.170  25.110  1.00  0.00     0.163 HD
BRANCH   5   7
ATOM      7  C   UNL A   1      40.283  23.747  27.124  1.00  0.00     0.039 A 
ATOM      8  C   UNL A   1      39.225  24.651  27.054  1.00  0.00     0.014 A 
ATOM      9  C   UNL A   1      41.405  24.075  27.909  1.00  0.00     0.014 A 
ATOM     10  C   UNL A   1      39.348  25.913  27.624  1.00  0.00     0.010 A 
ATOM     11  C   UNL A   1      41.523  25.325  28.504  1.00  0.00     0.010 A 
ATOM     12  C   UNL A   1      40.513  26.259  28.314  1.00  0.00    -0.014 A 
BRANCH  12  13
ATOM     13  C   UNL A   1      40.566  27.577  28.930  1.00  0.00     0.031 A 
ATOM     14  C   UNL A   1      41.558  28.509  28.329  1.00  0.00     0.074 A 
ATOM     15  C   UNL A   1      39.732  27.986  29.905  1.00  0.00     0.049 A 
ATOM     16  N   UNL A   1      42.598  29.035  28.888  1.00  0.00    -0.248 NA
ATOM     17  C   UNL A   1      41.419  28.823  26.897  1.00  0.00     0.031 C 
ATOM     18  C   UNL A   1      38.529  27.325  30.414  1.00  0.00     0.029 A 
ATOM     19  N   UNL A   1      39.751  29.163  30.588  1.00  0.00    -0.354 N 
ATOM     20  C   UNL A   1      43.173  29.863  27.929  1.00  0.00     0.074 A 
ATOM     21  C   UNL A   1      42.474  29.611  26.694  1.00  0.00     0.031 C 
ATOM     22  C   UNL A   1      37.819  28.207  31.156  1.00  0.00     0.029 A 
ATOM     23  C   UNL A   1      38.583  29.437  31.288  1.00  0.00     0.049 A 
ATOM     24  H   UNL A   1      40.527  29.770  30.587  1.00  0.00     0.167 HD
ATOM     25  C   UNL A   1      44.066  30.840  28.248  1.00  0.00     0.031 A 
ATOM     26  C   UNL A   1      38.259  30.619  31.868  1.00  0.00     0.031 A 
ATOM     27  C   UNL A   1      44.625  30.666  29.559  1.00  0.00     0.049 A 
ATOM     28  C   UNL A   1      39.519  31.370  32.075  1.00  0.00     0.074 A 
ATOM     29  C   UNL A   1      45.409  29.708  30.169  1.00  0.00     0.029 A 
ATOM     30  N   UNL A   1      44.099  31.427  30.573  1.00  0.00    -0.354 N 
ATOM     31  N   UNL A   1      40.447  31.012  32.913  1.00  0.00    -0.248 NA
ATOM     32  C   UNL A   1      39.928  32.324  31.056  1.00  0.00     0.031 C 
ATOM     33  C   UNL A   1      44.929  29.644  31.509  1.00  0.00     0.029 A 
ATOM     34  C   UNL A   1      43.912  30.592  31.642  1.00  0.00     0.049 A 
ATOM     35  H   UNL A   1      43.895  32.390  30.539  1.00  0.00     0.167 HD
ATOM     36  C   UNL A   1      41.637  31.356  32.291  1.00  0.00     0.074 A 
ATOM     37  C   UNL A   1      41.253  32.253  31.204  1.00  0.00     0.031 C 
ATOM     38  C   UNL A   1      42.787  30.667  32.543  1.00  0.00     0.031 A 
BRANCH  25  39
ATOM     39  C   UNL A   1      44.157  32.151  27.514  1.00  0.00    -0.014 A 
ATOM     40  C   UNL A   1      43.739  33.329  28.160  1.00  0.00     0.009 A 
ATOM     41  C   UNL A   1      44.368  32.228  26.125  1.00  0.00     0.009 A 
ATOM     42  C   UNL A   1      43.495  34.505  27.441  1.00  0.00     0.001 A 
ATOM     43  C   UNL A   1      44.164  33.411  25.410  1.00  0.00     0.001 A 
ATOM     44  C   UNL A   1      43.702  34.543  26.066  1.00  0.00     0.000 A 
ENDBRANCH  25  39
BRANCH  26  45
ATOM     45  C   UNL A   1      36.938  31.283  31.960  1.00  0.00    -0.014 A 
ATOM     46  C   UNL A   1      36.563  31.949  33.139  1.00  0.00     0.009 A 
ATOM     47  C   UNL A   1      36.178  31.530  30.803  1.00  0.00     0.009 A 
ATOM     48  C   UNL A   1      35.513  32.877  33.144  1.00  0.00     0.001 A 
ATOM     49  C   UNL A   1      35.123  32.449  30.809  1.00  0.00     0.001 A 
ATOM     50  C   UNL A   1      34.807  33.140  31.974  1.00  0.00     0.000 A 
ENDBRANCH  26  45
BRANCH  38  51
ATOM     51  C   UNL A   1      42.786  29.679  33.680  1.00  0.00    -0.014 A 
ATOM     52  C   UNL A   1      43.165  30.033  34.987  1.00  0.00     0.009 A 
ATOM     53  C   UNL A   1      42.198  28.423  33.468  1.00  0.00     0.009 A 
ATOM     54  C   UNL A   1      42.960  29.148  36.053  1.00  0.00     0.001 A 
ATOM     55  C   UNL A   1      41.980  27.549  34.534  1.00  0.00     0.001 A 
ATOM     56  C   UNL A   1      42.359  27.912  35.826  1.00  0.00     0.000 A 
ENDBRANCH  38  51
ENDBRANCH  12  13
ENDBRANCH   5   7
ENDBRANCH   2   3
ENDBRANCH   1   2
BRANCH   1  57
ATOM     57  C   UNL A   1      36.566  22.731  23.693  1.00  0.00     0.118 C 
BRANCH  57  58
ATOM     58  N   UNL A   1      36.060  23.836  24.505  1.00  0.00    -0.352 N 
ATOM     59  C   UNL A   1      34.775  24.214  24.765  1.00  0.00     0.254 C 
ATOM     60  H   UNL A   1      36.753  24.394  24.928  1.00  0.00     0.163 HD
ATOM     61  O   UNL A   1      34.561  25.353  25.234  1.00  0.00    -0.269 OA
BRANCH  59  62
ATOM     62  C   UNL A   1      33.693  23.309  24.450  1.00  0.00     0.074 A 
ATOM     63  C   UNL A   1      32.975  22.512  25.422  1.00  0.00     0.028 A 
ATOM     64  C   UNL A   1      33.136  23.157  23.185  1.00  0.00     0.108 A 
ATOM     65  C   UNL A   1      32.146  21.592  24.834  1.00  0.00     0.068 A 
ATOM     66  S   UNL A   1      32.225  21.729  23.153  1.00  0.00    -0.126 S 
BRANCH  64  67
ATOM     67  N   UNL A   1      33.392  23.904  22.037  1.00  0.00    -0.312 N 
ATOM     68  C   UNL A   1      32.901  25.125  21.572  1.00  0.00     0.266 C 
ATOM     69  H   UNL A   1      34.049  23.487  21.432  1.00  0.00     0.171 HD
ATOM     70  O   UNL A   1      33.235  25.481  20.438  1.00  0.00    -0.268 OA
BRANCH  68  71
ATOM     71  C   UNL A   1      32.151  25.990  22.450  1.00  0.00     0.094 A 
ATOM     72  C   UNL A   1      30.948  25.762  23.096  1.00  0.00     0.037 A 
ATOM     73  S   UNL A   1      32.728  27.548  22.877  1.00  0.00    -0.130 S 
ATOM     74  C   UNL A   1      30.254  27.011  23.282  1.00  0.00     0.029 A 
ATOM     75  C   UNL A   1      31.078  28.084  22.932  1.00  0.00     0.038 A 
ATOM     76  C   UNL A   1      28.892  27.281  23.516  1.00  0.00     0.131 A 
ATOM     77  C   UNL A   1      30.555  29.342  22.588  1.00  0.00     0.020 A 
ATOM     78  F   UNL A   1      28.075  26.321  23.972  1.00  0.00    -0.206 F 
ATOM     79  C   UNL A   1      28.346  28.492  23.094  1.00  0.00     0.040 A 
ATOM     80  C   UNL A   1      29.166  29.486  22.569  1.00  0.00     0.005 A 
ENDBRANCH  68  71
ENDBRANCH  64  67
ENDBRANCH  59  62
ENDBRANCH  57  58
ENDBRANCH   1  57
TORSDOF 12
ENDMDL
MODEL 3
REMARK VINA RESULT:     -12.2      1.865      2.194
REMARK SMILES O=C(NCCCNC(=O)c1ccsc1NC(=O)c1cc2c(F)cccc2s1)c1ccc(-c2c3nc(c(-c4ccccc4)c4ccc([nH]4)c(-c4ccccc4)c4nc(c(-c5ccccc5)c5ccc2[nH]5)C=C4)C=C3)cc1
REMARK SMILES IDX 5 1 4 2 3 3 1 4 2 5 28 7 29 8 75 9 30 10 74 11 31 12 32 13
REMARK SMILES IDX 33 14 68 15 34 16 73 17 67 18 69 19 35 20 72 21 66 22 65 23
REMARK SMILES IDX 36 25 58 26 43 27 57 28 44 29 47 30 56 31 70 32 45 33 46 34
REMARK SMILES IDX 55 36 71 37 48 38 37 39 38 40 42 41 39 42 41 43 40 44 59 45
REMARK SMILES IDX 60 46 64 47 61 48 63 49 62 50 49 51 50 52 54 53 51 54 53 55
REMARK SMILES IDX 52 56 6 57 7 58 8 59 9 61 10 62 11 63 14 64 12 65 13 66
REMARK SMILES IDX 15 67 16 68 17 70 18 71 19 72 27 73 20 74 26 75 21 76 25 77
REMARK SMILES IDX 22 78 23 79 24 80
REMARK H PARENT 3 6 69 24 47 35 7 60 15 69
REMARK Flexibility Score: inf
ROOT
ATOM      1  C   UNL A   1      33.283  29.357  27.161  1.00  0.00     0.042 C 
ENDROOT
BRANCH   1   2
ATOM      2  C   UNL A   1      34.264  30.524  27.099  1.00  0.00     0.118 C 
BRANCH   2   3
ATOM      3  N   UNL A   1      34.265  31.401  28.255  1.00  0.00    -0.352 N 
ATOM      4  O   UNL A   1      34.910  32.689  29.939  1.00  0.00    -0.269 OA
ATOM      5  C   UNL A   1      35.196  31.746  29.197  1.00  0.00     0.251 C 
ATOM      6  H   UNL A   1      33.399  31.849  28.394  1.00  0.00     0.163 HD
BRANCH   5   7
ATOM      7  C   UNL A   1      36.454  30.999  29.448  1.00  0.00     0.039 A 
ATOM      8  C   UNL A   1      37.728  31.410  29.058  1.00  0.00     0.014 A 
ATOM      9  C   UNL A   1      36.310  29.751  30.084  1.00  0.00     0.014 A 
ATOM     10  C   UNL A   1      38.804  30.537  29.159  1.00  0.00     0.010 A 
ATOM     11  C   UNL A   1      37.387  28.883  30.213  1.00  0.00     0.010 A 
ATOM     12  C   UNL A   1      38.621  29.261  29.701  1.00  0.00    -0.014 A 
BRANCH  12  13
ATOM     13  C   UNL A   1      39.793  28.407  29.825  1.00  0.00     0.031 A 
ATOM     14  C   UNL A   1      40.375  28.338  31.193  1.00  0.00     0.074 A 
ATOM     15  C   UNL A   1      40.282  27.649  28.825  1.00  0.00     0.049 A 
ATOM     16  N   UNL A   1      41.547  28.724  31.581  1.00  0.00    -0.248 NA
ATOM     17  C   UNL A   1      39.506  27.862  32.281  1.00  0.00     0.031 C 
ATOM     18  C   UNL A   1      39.686  27.367  27.518  1.00  0.00     0.029 A 
ATOM     19  N   UNL A   1      41.406  26.881  28.825  1.00  0.00    -0.354 N 
ATOM     20  C   UNL A   1      41.627  28.409  32.935  1.00  0.00     0.074 A 
ATOM     21  C   UNL A   1      40.309  27.984  33.337  1.00  0.00     0.031 C 
ATOM     22  C   UNL A   1      40.337  26.324  26.950  1.00  0.00     0.029 A 
ATOM     23  C   UNL A   1      41.472  25.965  27.783  1.00  0.00     0.049 A 
ATOM     24  H   UNL A   1      42.113  26.967  29.505  1.00  0.00     0.167 HD
ATOM     25  C   UNL A   1      42.812  28.341  33.600  1.00  0.00     0.031 A 
ATOM     26  C   UNL A   1      42.363  24.949  27.670  1.00  0.00     0.031 A 
ATOM     27  C   UNL A   1      43.878  28.988  32.889  1.00  0.00     0.049 A 
ATOM     28  C   UNL A   1      43.524  25.281  28.527  1.00  0.00     0.074 A 
ATOM     29  C   UNL A   1      44.143  30.282  32.489  1.00  0.00     0.029 A 
ATOM     30  N   UNL A   1      44.736  28.188  32.177  1.00  0.00    -0.354 N 
ATOM     31  N   UNL A   1      44.345  26.262  28.287  1.00  0.00    -0.248 NA
ATOM     32  C   UNL A   1      43.553  24.757  29.883  1.00  0.00     0.031 C 
ATOM     33  C   UNL A   1      44.790  30.148  31.227  1.00  0.00     0.029 A 
ATOM     34  C   UNL A   1      44.914  28.783  30.956  1.00  0.00     0.049 A 
ATOM     35  H   UNL A   1      45.146  27.347  32.484  1.00  0.00     0.167 HD
ATOM     36  C   UNL A   1      44.684  26.753  29.539  1.00  0.00     0.074 A 
ATOM     37  C   UNL A   1      44.253  25.724  30.481  1.00  0.00     0.031 C 
ATOM     38  C   UNL A   1      45.028  28.062  29.711  1.00  0.00     0.031 A 
BRANCH  25  39
ATOM     39  C   UNL A   1      43.079  27.371  34.720  1.00  0.00    -0.014 A 
ATOM     40  C   UNL A   1      43.270  26.011  34.418  1.00  0.00     0.009 A 
ATOM     41  C   UNL A   1      42.866  27.699  36.072  1.00  0.00     0.009 A 
ATOM     42  C   UNL A   1      43.197  25.028  35.413  1.00  0.00     0.001 A 
ATOM     43  C   UNL A   1      42.833  26.725  37.073  1.00  0.00     0.001 A 
ATOM     44  C   UNL A   1      42.974  25.387  36.739  1.00  0.00     0.000 A 
ENDBRANCH  25  39
BRANCH  26  45
ATOM     45  C   UNL A   1      42.156  23.580  27.143  1.00  0.00    -0.014 A 
ATOM     46  C   UNL A   1      43.087  23.018  26.253  1.00  0.00     0.009 A 
ATOM     47  C   UNL A   1      41.224  22.715  27.743  1.00  0.00     0.009 A 
ATOM     48  C   UNL A   1      43.128  21.635  26.026  1.00  0.00     0.001 A 
ATOM     49  C   UNL A   1      41.258  21.336  27.509  1.00  0.00     0.001 A 
ATOM     50  C   UNL A   1      42.224  20.794  26.669  1.00  0.00     0.000 A 
ENDBRANCH  26  45
BRANCH  38  51
ATOM     51  C   UNL A   1      45.258  28.901  28.482  1.00  0.00    -0.014 A 
ATOM     52  C   UNL A   1      44.218  29.593  27.835  1.00  0.00     0.009 A 
ATOM     53  C   UNL A   1      46.580  29.160  28.092  1.00  0.00     0.009 A 
ATOM     54  C   UNL A   1      44.500  30.519  26.823  1.00  0.00     0.001 A 
ATOM     55  C   UNL A   1      46.860  30.095  27.095  1.00  0.00     0.001 A 
ATOM     56  C   UNL A   1      45.821  30.776  26.462  1.00  0.00     0.000 A 
ENDBRANCH  38  51
ENDBRANCH  12  13
ENDBRANCH   5   7
ENDBRANCH   2   3
ENDBRANCH   1   2
BRANCH   1  57
ATOM     57  C   UNL A   1      33.543  28.263  26.131  1.00  0.00     0.118 C 
BRANCH  57  58
ATOM     58  N   UNL A   1      34.101  28.781  24.883  1.00  0.00    -0.352 N 
ATOM     59  C   UNL A   1      33.534  28.878  23.645  1.00  0.00     0.254 C 
ATOM     60  H   UNL A   1      35.027  29.111  24.945  1.00  0.00     0.163 HD
ATOM     61  O   UNL A   1      34.272  29.072  22.655  1.00  0.00    -0.269 OA
BRANCH  59  62
ATOM     62  C   UNL A   1      32.106  28.709  23.505  1.00  0.00     0.074 A 
ATOM     63  C   UNL A   1      31.109  29.510  24.183  1.00  0.00     0.028 A 
ATOM     64  C   UNL A   1      31.501  27.818  22.625  1.00  0.00     0.108 A 
ATOM     65  C   UNL A   1      29.844  29.005  24.036  1.00  0.00     0.068 A 
ATOM     66  S   UNL A   1      29.878  27.620  23.071  1.00  0.00    -0.126 S 
BRANCH  64  67
ATOM     67  N   UNL A   1      32.105  27.035  21.642  1.00  0.00    -0.312 N 
ATOM     68  C   UNL A   1      32.924  25.907  21.701  1.00  0.00     0.266 C 
ATOM     69  H   UNL A   1      31.918  27.340  20.724  1.00  0.00     0.171 HD
ATOM     70  O   UNL A   1      33.411  25.499  20.642  1.00  0.00    -0.268 OA
BRANCH  68  71
ATOM     71  C   UNL A   1      33.070  25.177  22.937  1.00  0.00     0.094 A 
ATOM     72  C   UNL A   1      34.046  25.281  23.913  1.00  0.00     0.037 A 
ATOM     73  S   UNL A   1      31.921  23.998  23.419  1.00  0.00    -0.130 S 
ATOM     74  C   UNL A   1      34.212  24.008  24.569  1.00  0.00     0.029 A 
ATOM     75  C   UNL A   1      33.218  23.115  24.160  1.00  0.00     0.038 A 
ATOM     76  C   UNL A   1      35.286  23.494  25.321  1.00  0.00     0.131 A 
ATOM     77  C   UNL A   1      33.377  21.723  24.273  1.00  0.00     0.020 A 
ATOM     78  F   UNL A   1      36.206  24.316  25.845  1.00  0.00    -0.206 F 
ATOM     79  C   UNL A   1      35.503  22.117  25.361  1.00  0.00     0.040 A 
ATOM     80  C   UNL A   1      34.589  21.246  24.778  1.00  0.00     0.005 A 
ENDBRANCH  68  71
ENDBRANCH  64  67
ENDBRANCH  59  62
ENDBRANCH  57  58
ENDBRANCH   1  57
TORSDOF 12
ENDMDL
