MODEL 1
REMARK VINA RESULT:     -12.5      0.000      0.000
REMARK SMILES Cc1oc2c(C)c3oc(=O)c(CC(=O)N[C@@H](CC(C)C)C(=O)NCCCNC(=O)c4ccc(-c5c6nc(c(-c7ccccc7)c7ccc([nH]7)c(-c7ccccc7)c7nc(c(-c8ccccc8)c8ccc5[nH]8)C=C7)C=C6)cc4)c(C)c3cc2c1C
REMARK SMILES IDX 24 1 23 2 21 3 22 4 16 6 15 7 13 8 14 9 12 11 11 12 1 13
REMARK SMILES IDX 2 14 3 15 83 16 4 17 82 18 84 19 5 20 81 21 6 22 7 23 80 24
REMARK SMILES IDX 8 25 78 26 9 27 79 28 10 29 17 30 18 31 19 32 20 33 25 34
REMARK SMILES IDX 26 35 27 36 28 37 29 39 30 40 31 41 77 42 32 43 76 44 33 45
REMARK SMILES IDX 34 46 35 47 70 48 36 49 75 50 69 51 71 52 37 53 74 54 68 55
REMARK SMILES IDX 67 56 38 58 60 59 45 60 59 61 46 62 49 63 58 64 72 65 47 66
REMARK SMILES IDX 48 67 57 69 73 70 50 71 39 72 40 73 44 74 41 75 43 76 42 77
REMARK SMILES IDX 61 78 62 79 66 80 63 81 65 82 64 83 51 84 52 85 56 86 53 87
REMARK SMILES IDX 55 88 54 89
REMARK H PARENT 23 5 15 10 27 38 71 57 49 68
REMARK Flexibility Score: inf
ROOT
ATOM      1  C   UNL A   1      37.173  21.965  25.055  1.00  0.00     0.117 C 
ENDROOT
BRANCH   1   2
ATOM      2  N   UNL A   1      36.162  22.094  26.087  1.00  0.00    -0.354 N 
ATOM      3  C   UNL A   1      34.927  21.530  26.216  1.00  0.00     0.242 C 
ATOM      4  O   UNL A   1      34.472  21.477  27.365  1.00  0.00    -0.273 OA
ATOM      5  H   UNL A   1      36.413  22.694  26.826  1.00  0.00     0.163 HD
BRANCH   3   6
ATOM      6  C   UNL A   1      34.150  20.892  25.046  1.00  0.00     0.171 C 
BRANCH   6   7
ATOM      7  N   UNL A   1      34.031  21.806  23.908  1.00  0.00    -0.344 N 
ATOM      8  C   UNL A   1      33.453  23.038  23.879  1.00  0.00     0.225 C 
ATOM      9  O   UNL A   1      33.820  23.822  23.002  1.00  0.00    -0.275 OA
ATOM     10  H   UNL A   1      34.418  21.491  23.060  1.00  0.00     0.164 HD
BRANCH   8  11
ATOM     11  C   UNL A   1      32.327  23.385  24.844  1.00  0.00     0.143 C 
BRANCH  11  12
ATOM     12  C   UNL A   1      32.023  24.870  24.779  1.00  0.00     0.051 A 
ATOM     13  C   UNL A   1      28.805  32.468  22.955  1.00  0.00     0.088 C 
ATOM     14  C   UNL A   1      29.160  31.078  23.307  1.00  0.00     0.105 A 
ATOM     15  O   UNL A   1      30.154  30.942  24.231  1.00  0.00    -0.461 OA
ATOM     16  C   UNL A   1      28.722  29.837  22.879  1.00  0.00    -0.002 A 
ATOM     17  C   UNL A   1      30.418  29.610  24.354  1.00  0.00     0.141 A 
ATOM     18  C   UNL A   1      29.567  28.890  23.530  1.00  0.00     0.025 A 
ATOM     19  C   UNL A   1      27.650  29.524  21.903  1.00  0.00     0.049 C 
ATOM     20  C   UNL A   1      31.408  29.049  25.163  1.00  0.00     0.036 A 
ATOM     21  C   UNL A   1      29.706  27.491  23.477  1.00  0.00     0.024 A 
ATOM     22  C   UNL A   1      32.269  29.878  26.062  1.00  0.00     0.052 C 
ATOM     23  C   UNL A   1      31.555  27.653  25.007  1.00  0.00     0.145 A 
ATOM     24  C   UNL A   1      30.748  26.865  24.180  1.00  0.00     0.022 A 
ATOM     25  O   UNL A   1      32.608  27.051  25.728  1.00  0.00    -0.422 OA
ATOM     26  C   UNL A   1      31.016  25.418  24.064  1.00  0.00    -0.029 A 
ATOM     27  C   UNL A   1      32.920  25.712  25.612  1.00  0.00     0.340 A 
ATOM     28  C   UNL A   1      30.132  24.623  23.131  1.00  0.00     0.046 C 
ATOM     29  O   UNL A   1      33.889  25.242  26.200  1.00  0.00    -0.246 OA
ENDBRANCH  11  12
ENDBRANCH   8  11
ENDBRANCH   6   7
BRANCH   6  30
ATOM     30  C   UNL A   1      34.531  19.456  24.627  1.00  0.00     0.038 C 
BRANCH  30  31
ATOM     31  C   UNL A   1      33.419  18.487  24.187  1.00  0.00    -0.015 C 
ATOM     32  C   UNL A   1      33.983  17.215  23.544  1.00  0.00     0.007 C 
ATOM     33  C   UNL A   1      32.562  18.070  25.390  1.00  0.00     0.007 C 
ENDBRANCH  30  31
ENDBRANCH   6  30
ENDBRANCH   3   6
ENDBRANCH   1   2
BRANCH   1  34
ATOM     34  C   UNL A   1      38.388  21.155  25.487  1.00  0.00     0.042 C 
BRANCH  34  35
ATOM     35  C   UNL A   1      39.284  21.871  26.495  1.00  0.00     0.118 C 
BRANCH  35  36
ATOM     36  N   UNL A   1      40.497  21.117  26.778  1.00  0.00    -0.352 N 
ATOM     37  C   UNL A   1      41.799  21.525  26.834  1.00  0.00     0.251 C 
ATOM     38  H   UNL A   1      40.356  20.159  26.957  1.00  0.00     0.163 HD
ATOM     39  O   UNL A   1      42.696  20.681  26.813  1.00  0.00    -0.269 OA
BRANCH  37  40
ATOM     40  C   UNL A   1      42.143  22.954  26.934  1.00  0.00     0.039 A 
ATOM     41  C   UNL A   1      41.835  23.626  28.119  1.00  0.00     0.014 A 
ATOM     42  C   UNL A   1      42.668  23.653  25.840  1.00  0.00     0.014 A 
ATOM     43  C   UNL A   1      42.092  24.989  28.223  1.00  0.00     0.010 A 
ATOM     44  C   UNL A   1      42.943  25.013  25.951  1.00  0.00     0.010 A 
ATOM     45  C   UNL A   1      42.659  25.685  27.144  1.00  0.00    -0.014 A 
BRANCH  45  46
ATOM     46  C   UNL A   1      42.918  27.123  27.302  1.00  0.00     0.031 A 
ATOM     47  C   UNL A   1      41.734  28.030  27.311  1.00  0.00     0.074 A 
ATOM     48  C   UNL A   1      44.041  27.545  27.918  1.00  0.00     0.049 A 
ATOM     49  N   UNL A   1      41.006  28.232  28.373  1.00  0.00    -0.248 NA
ATOM     50  C   UNL A   1      41.172  28.607  26.091  1.00  0.00     0.031 C 
ATOM     51  C   UNL A   1      44.778  26.752  28.913  1.00  0.00     0.029 A 
ATOM     52  N   UNL A   1      44.621  28.785  27.977  1.00  0.00    -0.354 N 
ATOM     53  C   UNL A   1      39.874  28.917  27.969  1.00  0.00     0.074 A 
ATOM     54  C   UNL A   1      40.029  29.143  26.548  1.00  0.00     0.031 C 
ATOM     55  C   UNL A   1      45.578  27.580  29.617  1.00  0.00     0.029 A 
ATOM     56  C   UNL A   1      45.541  28.904  29.011  1.00  0.00     0.049 A 
ATOM     57  H   UNL A   1      44.408  29.515  27.352  1.00  0.00     0.167 HD
ATOM     58  C   UNL A   1      38.863  29.251  28.815  1.00  0.00     0.031 A 
ATOM     59  C   UNL A   1      45.855  30.059  29.654  1.00  0.00     0.031 A 
ATOM     60  C   UNL A   1      39.040  28.867  30.182  1.00  0.00     0.049 A 
ATOM     61  C   UNL A   1      44.557  30.370  30.357  1.00  0.00     0.074 A 
ATOM     62  C   UNL A   1      38.696  27.802  30.987  1.00  0.00     0.029 A 
ATOM     63  N   UNL A   1      39.791  29.683  30.992  1.00  0.00    -0.354 N 
ATOM     64  N   UNL A   1      44.129  29.833  31.468  1.00  0.00    -0.248 NA
ATOM     65  C   UNL A   1      43.534  31.091  29.596  1.00  0.00     0.031 C 
ATOM     66  C   UNL A   1      39.634  27.820  32.066  1.00  0.00     0.029 A 
ATOM     67  C   UNL A   1      40.524  28.862  31.811  1.00  0.00     0.049 A 
ATOM     68  H   UNL A   1      39.802  30.667  30.987  1.00  0.00     0.167 HD
ATOM     69  C   UNL A   1      42.736  29.889  31.397  1.00  0.00     0.074 A 
ATOM     70  C   UNL A   1      42.438  30.696  30.229  1.00  0.00     0.031 C 
ATOM     71  C   UNL A   1      41.901  29.129  32.165  1.00  0.00     0.031 A 
BRANCH  58  72
ATOM     72  C   UNL A   1      37.681  30.049  28.433  1.00  0.00    -0.014 A 
ATOM     73  C   UNL A   1      37.664  31.416  28.747  1.00  0.00     0.009 A 
ATOM     74  C   UNL A   1      36.513  29.440  27.961  1.00  0.00     0.009 A 
ATOM     75  C   UNL A   1      36.488  32.156  28.630  1.00  0.00     0.001 A 
ATOM     76  C   UNL A   1      35.338  30.186  27.835  1.00  0.00     0.001 A 
ATOM     77  C   UNL A   1      35.323  31.539  28.182  1.00  0.00     0.000 A 
ENDBRANCH  58  72
BRANCH  59  78
ATOM     78  C   UNL A   1      46.582  31.063  28.808  1.00  0.00    -0.014 A 
ATOM     79  C   UNL A   1      47.752  30.646  28.136  1.00  0.00     0.009 A 
ATOM     80  C   UNL A   1      46.194  32.399  28.646  1.00  0.00     0.009 A 
ATOM     81  C   UNL A   1      48.438  31.493  27.261  1.00  0.00     0.001 A 
ATOM     82  C   UNL A   1      46.864  33.243  27.749  1.00  0.00     0.001 A 
ATOM     83  C   UNL A   1      47.976  32.785  27.047  1.00  0.00     0.000 A 
ENDBRANCH  59  78
BRANCH  71  84
ATOM     84  C   UNL A   1      42.529  28.339  33.267  1.00  0.00    -0.014 A 
ATOM     85  C   UNL A   1      42.450  28.786  34.591  1.00  0.00     0.009 A 
ATOM     86  C   UNL A   1      43.129  27.096  33.005  1.00  0.00     0.009 A 
ATOM     87  C   UNL A   1      42.926  27.989  35.635  1.00  0.00     0.001 A 
ATOM     88  C   UNL A   1      43.588  26.292  34.049  1.00  0.00     0.001 A 
ATOM     89  C   UNL A   1      43.479  26.738  35.365  1.00  0.00     0.000 A 
ENDBRANCH  71  84
ENDBRANCH  45  46
ENDBRANCH  37  40
ENDBRANCH  35  36
ENDBRANCH  34  35
ENDBRANCH   1  34
TORSDOF 15
ENDMDL
MODEL 2
REMARK VINA RESULT:     -12.1      3.548      8.667
REMARK SMILES Cc1oc2c(C)c3oc(=O)c(CC(=O)N[C@@H](CC(C)C)C(=O)NCCCNC(=O)c4ccc(-c5c6nc(c(-c7ccccc7)c7ccc([nH]7)c(-c7ccccc7)c7nc(c(-c8ccccc8)c8ccc5[nH]8)C=C7)C=C6)cc4)c(C)c3cc2c1C
REMARK SMILES IDX 24 1 23 2 21 3 22 4 16 6 15 7 13 8 14 9 12 11 11 12 1 13
REMARK SMILES IDX 2 14 3 15 83 16 4 17 82 18 84 19 5 20 81 21 6 22 7 23 80 24
REMARK SMILES IDX 8 25 78 26 9 27 79 28 10 29 17 30 18 31 19 32 20 33 25 34
REMARK SMILES IDX 26 35 27 36 28 37 29 39 30 40 31 41 77 42 32 43 76 44 33 45
REMARK SMILES IDX 34 46 35 47 70 48 36 49 75 50 69 51 71 52 37 53 74 54 68 55
REMARK SMILES IDX 67 56 38 58 60 59 45 60 59 61 46 62 49 63 58 64 72 65 47 66
REMARK SMILES IDX 48 67 57 69 73 70 50 71 39 72 40 73 44 74 41 75 43 76 42 77
REMARK SMILES IDX 61 78 62 79 66 80 63 81 65 82 64 83 51 84 52 85 56 86 53 87
REMARK SMILES IDX 55 88 54 89
REMARK H PARENT 23 5 15 10 27 38 71 57 49 68
REMARK Flexibility Score: inf
ROOT
ATOM      1  C   UNL A   1      45.724  27.877  26.198  1.00  0.00     0.117 C 
ENDROOT
BRANCH   1   2
ATOM      2  N   UNL A   1      44.569  27.863  25.321  1.00  0.00    -0.354 N 
ATOM      3  C   UNL A   1      43.284  27.454  25.529  1.00  0.00     0.242 C 
ATOM      4  O   UNL A   1      42.432  27.938  24.774  1.00  0.00    -0.273 OA
ATOM      5  H   UNL A   1      44.743  28.211  24.417  1.00  0.00     0.163 HD
BRANCH   3   6
ATOM      6  C   UNL A   1      42.856  26.526  26.685  1.00  0.00     0.171 C 
BRANCH   6   7
ATOM      7  N   UNL A   1      43.588  25.258  26.664  1.00  0.00    -0.344 N 
ATOM      8  C   UNL A   1      43.134  24.021  27.006  1.00  0.00     0.225 C 
ATOM      9  O   UNL A   1      43.713  23.045  26.524  1.00  0.00    -0.275 OA
ATOM     10  H   UNL A   1      44.524  25.306  26.365  1.00  0.00     0.164 HD
BRANCH   8  11
ATOM     11  C   UNL A   1      42.010  23.866  28.022  1.00  0.00     0.143 C 
BRANCH  11  12
ATOM     12  C   UNL A   1      40.780  23.283  27.353  1.00  0.00     0.051 A 
ATOM     13  C   UNL A   1      33.194  22.124  23.813  1.00  0.00     0.088 C 
ATOM     14  C   UNL A   1      34.541  22.495  24.293  1.00  0.00     0.105 A 
ATOM     15  O   UNL A   1      35.433  21.468  24.389  1.00  0.00    -0.461 OA
ATOM     16  C   UNL A   1      35.118  23.680  24.712  1.00  0.00    -0.002 A 
ATOM     17  C   UNL A   1      36.575  21.969  24.940  1.00  0.00     0.141 A 
ATOM     18  C   UNL A   1      36.424  23.328  25.167  1.00  0.00     0.025 A 
ATOM     19  C   UNL A   1      34.516  25.035  24.754  1.00  0.00     0.049 C 
ATOM     20  C   UNL A   1      37.717  21.230  25.255  1.00  0.00     0.036 A 
ATOM     21  C   UNL A   1      37.479  24.031  25.775  1.00  0.00     0.024 A 
ATOM     22  C   UNL A   1      37.836  19.772  24.946  1.00  0.00     0.052 C 
ATOM     23  C   UNL A   1      38.710  21.969  25.935  1.00  0.00     0.145 A 
ATOM     24  C   UNL A   1      38.618  23.337  26.217  1.00  0.00     0.022 A 
ATOM     25  O   UNL A   1      39.844  21.247  26.364  1.00  0.00    -0.422 OA
ATOM     26  C   UNL A   1      39.701  24.001  26.969  1.00  0.00    -0.029 A 
ATOM     27  C   UNL A   1      40.855  21.820  27.108  1.00  0.00     0.340 A 
ATOM     28  C   UNL A   1      39.531  25.471  27.272  1.00  0.00     0.046 C 
ATOM     29  O   UNL A   1      41.788  21.141  27.524  1.00  0.00    -0.246 OA
ENDBRANCH  11  12
ENDBRANCH   8  11
ENDBRANCH   6   7
BRANCH   6  30
ATOM     30  C   UNL A   1      42.752  27.138  28.098  1.00  0.00     0.038 C 
BRANCH  30  31
ATOM     31  C   UNL A   1      43.971  27.065  29.034  1.00  0.00    -0.015 C 
ATOM     32  C   UNL A   1      44.291  28.423  29.671  1.00  0.00     0.007 C 
ATOM     33  C   UNL A   1      43.721  26.059  30.166  1.00  0.00     0.007 C 
ENDBRANCH  30  31
ENDBRANCH   6  30
ENDBRANCH   3   6
ENDBRANCH   1   2
BRANCH   1  34
ATOM     34  C   UNL A   1      46.224  29.278  26.527  1.00  0.00     0.042 C 
BRANCH  34  35
ATOM     35  C   UNL A   1      45.311  30.396  26.028  1.00  0.00     0.118 C 
BRANCH  35  36
ATOM     36  N   UNL A   1      45.987  31.685  26.013  1.00  0.00    -0.352 N 
ATOM     37  C   UNL A   1      45.621  32.881  26.561  1.00  0.00     0.251 C 
ATOM     38  H   UNL A   1      46.845  31.696  25.531  1.00  0.00     0.163 HD
ATOM     39  O   UNL A   1      46.193  33.910  26.197  1.00  0.00    -0.269 OA
BRANCH  37  40
ATOM     40  C   UNL A   1      44.565  32.955  27.586  1.00  0.00     0.039 A 
ATOM     41  C   UNL A   1      44.112  34.218  27.976  1.00  0.00     0.014 A 
ATOM     42  C   UNL A   1      44.098  31.805  28.233  1.00  0.00     0.014 A 
ATOM     43  C   UNL A   1      43.159  34.325  28.984  1.00  0.00     0.010 A 
ATOM     44  C   UNL A   1      43.130  31.911  29.228  1.00  0.00     0.010 A 
ATOM     45  C   UNL A   1      42.656  33.170  29.604  1.00  0.00    -0.014 A 
BRANCH  45  46
ATOM     46  C   UNL A   1      41.646  33.332  30.661  1.00  0.00     0.031 A 
ATOM     47  C   UNL A   1      40.241  32.966  30.320  1.00  0.00     0.074 A 
ATOM     48  C   UNL A   1      42.012  33.292  31.959  1.00  0.00     0.049 A 
ATOM     49  N   UNL A   1      39.803  31.739  30.346  1.00  0.00    -0.248 NA
ATOM     50  C   UNL A   1      39.297  33.919  29.738  1.00  0.00     0.031 C 
ATOM     51  C   UNL A   1      43.203  32.585  32.454  1.00  0.00     0.029 A 
ATOM     52  N   UNL A   1      41.333  33.647  33.095  1.00  0.00    -0.354 N 
ATOM     53  C   UNL A   1      38.555  31.738  29.748  1.00  0.00     0.074 A 
ATOM     54  C   UNL A   1      38.276  33.115  29.403  1.00  0.00     0.031 C 
ATOM     55  C   UNL A   1      43.066  32.390  33.781  1.00  0.00     0.029 A 
ATOM     56  C   UNL A   1      41.886  33.105  34.248  1.00  0.00     0.049 A 
ATOM     57  H   UNL A   1      40.536  34.225  33.093  1.00  0.00     0.167 HD
ATOM     58  C   UNL A   1      37.823  30.609  29.555  1.00  0.00     0.031 A 
ATOM     59  C   UNL A   1      41.201  32.812  35.384  1.00  0.00     0.031 A 
ATOM     60  C   UNL A   1      38.412  29.393  30.029  1.00  0.00     0.049 A 
ATOM     61  C   UNL A   1      40.308  31.691  34.913  1.00  0.00     0.074 A 
ATOM     62  C   UNL A   1      39.193  28.380  29.515  1.00  0.00     0.029 A 
ATOM     63  N   UNL A   1      38.272  29.081  31.358  1.00  0.00    -0.354 N 
ATOM     64  N   UNL A   1      40.649  30.440  34.760  1.00  0.00    -0.248 NA
ATOM     65  C   UNL A   1      39.046  32.061  34.268  1.00  0.00     0.031 C 
ATOM     66  C   UNL A   1      39.844  27.790  30.644  1.00  0.00     0.029 A 
ATOM     67  C   UNL A   1      39.460  28.527  31.763  1.00  0.00     0.049 A 
ATOM     68  H   UNL A   1      37.473  29.226  31.915  1.00  0.00     0.167 HD
ATOM     69  C   UNL A   1      39.811  29.944  33.760  1.00  0.00     0.074 A 
ATOM     70  C   UNL A   1      38.833  30.989  33.517  1.00  0.00     0.031 C 
ATOM     71  C   UNL A   1      40.062  28.805  33.049  1.00  0.00     0.031 A 
BRANCH  58  72
ATOM     72  C   UNL A   1      36.458  30.582  28.994  1.00  0.00    -0.014 A 
ATOM     73  C   UNL A   1      36.112  29.542  28.119  1.00  0.00     0.009 A 
ATOM     74  C   UNL A   1      35.585  31.664  29.150  1.00  0.00     0.009 A 
ATOM     75  C   UNL A   1      34.932  29.600  27.379  1.00  0.00     0.001 A 
ATOM     76  C   UNL A   1      34.397  31.715  28.414  1.00  0.00     0.001 A 
ATOM     77  C   UNL A   1      34.079  30.691  27.521  1.00  0.00     0.000 A 
ENDBRANCH  58  72
BRANCH  59  78
ATOM     78  C   UNL A   1      40.681  34.010  36.122  1.00  0.00    -0.014 A 
ATOM     79  C   UNL A   1      39.684  33.810  37.101  1.00  0.00     0.009 A 
ATOM     80  C   UNL A   1      41.101  35.328  35.899  1.00  0.00     0.009 A 
ATOM     81  C   UNL A   1      39.209  34.859  37.893  1.00  0.00     0.001 A 
ATOM     82  C   UNL A   1      40.646  36.378  36.709  1.00  0.00     0.001 A 
ATOM     83  C   UNL A   1      39.712  36.141  37.714  1.00  0.00     0.000 A 
ENDBRANCH  59  78
BRANCH  71  84
ATOM     84  C   UNL A   1      41.202  27.958  33.511  1.00  0.00    -0.014 A 
ATOM     85  C   UNL A   1      42.488  28.164  33.000  1.00  0.00     0.009 A 
ATOM     86  C   UNL A   1      41.020  27.004  34.527  1.00  0.00     0.009 A 
ATOM     87  C   UNL A   1      43.576  27.459  33.520  1.00  0.00     0.001 A 
ATOM     88  C   UNL A   1      42.110  26.313  35.059  1.00  0.00     0.001 A 
ATOM     89  C   UNL A   1      43.389  26.548  34.559  1.00  0.00     0.000 A 
ENDBRANCH  71  84
ENDBRANCH  45  46
ENDBRANCH  37  40
ENDBRANCH  35  36
ENDBRANCH  34  35
ENDBRANCH   1  34
TORSDOF 15
ENDMDL
MODEL 3
REMARK VINA RESULT:     -12.0      3.517      8.188
REMARK SMILES Cc1oc2c(C)c3oc(=O)c(CC(=O)N[C@@H](CC(C)C)C(=O)NCCCNC(=O)c4ccc(-c5c6nc(c(-c7ccccc7)c7ccc([nH]7)c(-c7ccccc7)c7nc(c(-c8ccccc8)c8ccc5[nH]8)C=C7)C=C6)cc4)c(C)c3cc2c1C
REMARK SMILES IDX 24 1 23 2 21 3 22 4 16 6 15 7 13 8 14 9 12 11 11 12 1 13
REMARK SMILES IDX 2 14 3 15 83 16 4 17 82 18 84 19 5 20 81 21 6 22 7 23 80 24
REMARK SMILES IDX 8 25 78 26 9 27 79 28 10 29 17 30 18 31 19 32 20 33 25 34
REMARK SMILES IDX 26 35 27 36 28 37 29 39 30 40 31 41 77 42 32 43 76 44 33 45
REMARK SMILES IDX 34 46 35 47 70 48 36 49 75 50 69 51 71 52 37 53 74 54 68 55
REMARK SMILES IDX 67 56 38 58 60 59 45 60 59 61 46 62 49 63 58 64 72 65 47 66
REMARK SMILES IDX 48 67 57 69 73 70 50 71 39 72 40 73 44 74 41 75 43 76 42 77
REMARK SMILES IDX 61 78 62 79 66 80 63 81 65 82 64 83 51 84 52 85 56 86 53 87
REMARK SMILES IDX 55 88 54 89
REMARK H PARENT 23 5 15 10 27 38 71 57 49 68
REMARK Flexibility Score: inf
ROOT
ATOM      1  C   UNL A   1      39.728  31.777  34.349  1.00  0.00     0.117 C 
ENDROOT
BRANCH   1   2
ATOM      2  N   UNL A   1      40.710  32.057  33.319  1.00  0.00    -0.354 N 
ATOM      3  C   UNL A   1      40.634  31.990  31.958  1.00  0.00     0.242 C 
ATOM      4  O   UNL A   1      41.454  32.675  31.335  1.00  0.00    -0.273 OA
ATOM      5  H   UNL A   1      41.585  32.347  33.662  1.00  0.00     0.163 HD
BRANCH   3   6
ATOM      6  C   UNL A   1      39.545  31.204  31.199  1.00  0.00     0.171 C 
BRANCH   6   7
ATOM      7  N   UNL A   1      39.163  31.870  29.952  1.00  0.00    -0.344 N 
ATOM      8  C   UNL A   1      37.972  32.453  29.642  1.00  0.00     0.225 C 
ATOM      9  O   UNL A   1      37.970  33.320  28.766  1.00  0.00    -0.275 OA
ATOM     10  H   UNL A   1      39.853  31.901  29.251  1.00  0.00     0.164 HD
BRANCH   8  11
ATOM     11  C   UNL A   1      36.685  31.973  30.299  1.00  0.00     0.143 C 
BRANCH  11  12
ATOM     12  C   UNL A   1      35.670  31.588  29.238  1.00  0.00     0.051 A 
ATOM     13  C   UNL A   1      31.364  27.698  23.095  1.00  0.00     0.088 C 
ATOM     14  C   UNL A   1      32.113  28.184  24.272  1.00  0.00     0.105 A 
ATOM     15  O   UNL A   1      31.656  29.346  24.820  1.00  0.00    -0.461 OA
ATOM     16  C   UNL A   1      33.231  27.733  24.952  1.00  0.00    -0.002 A 
ATOM     17  C   UNL A   1      32.519  29.695  25.816  1.00  0.00     0.141 A 
ATOM     18  C   UNL A   1      33.513  28.736  25.927  1.00  0.00     0.025 A 
ATOM     19  C   UNL A   1      34.029  26.507  24.706  1.00  0.00     0.049 C 
ATOM     20  C   UNL A   1      32.437  30.852  26.594  1.00  0.00     0.036 A 
ATOM     21  C   UNL A   1      34.534  28.931  26.874  1.00  0.00     0.024 A 
ATOM     22  C   UNL A   1      31.314  31.830  26.455  1.00  0.00     0.052 C 
ATOM     23  C   UNL A   1      33.530  31.035  27.469  1.00  0.00     0.145 A 
ATOM     24  C   UNL A   1      34.579  30.121  27.619  1.00  0.00     0.022 A 
ATOM     25  O   UNL A   1      33.546  32.238  28.206  1.00  0.00    -0.422 OA
ATOM     26  C   UNL A   1      35.692  30.434  28.537  1.00  0.00    -0.029 A 
ATOM     27  C   UNL A   1      34.589  32.588  29.039  1.00  0.00     0.340 A 
ATOM     28  C   UNL A   1      36.813  29.425  28.633  1.00  0.00     0.046 C 
ATOM     29  O   UNL A   1      34.600  33.676  29.606  1.00  0.00    -0.246 OA
ENDBRANCH  11  12
ENDBRANCH   8  11
ENDBRANCH   6   7
BRANCH   6  30
ATOM     30  C   UNL A   1      39.738  29.682  31.033  1.00  0.00     0.038 C 
BRANCH  30  31
ATOM     31  C   UNL A   1      38.930  28.726  31.929  1.00  0.00    -0.015 C 
ATOM     32  C   UNL A   1      37.600  29.342  32.378  1.00  0.00     0.007 C 
ATOM     33  C   UNL A   1      38.620  27.422  31.181  1.00  0.00     0.007 C 
ENDBRANCH  30  31
ENDBRANCH   6  30
ENDBRANCH   3   6
ENDBRANCH   1   2
BRANCH   1  34
ATOM     34  C   UNL A   1      39.920  30.426  35.025  1.00  0.00     0.042 C 
BRANCH  34  35
ATOM     35  C   UNL A   1      41.382  30.035  35.226  1.00  0.00     0.118 C 
BRANCH  35  36
ATOM     36  N   UNL A   1      41.524  28.915  36.146  1.00  0.00    -0.352 N 
ATOM     37  C   UNL A   1      41.973  27.644  35.929  1.00  0.00     0.251 C 
ATOM     38  H   UNL A   1      41.254  29.106  37.073  1.00  0.00     0.163 HD
ATOM     39  O   UNL A   1      41.752  26.775  36.774  1.00  0.00    -0.269 OA
BRANCH  37  40
ATOM     40  C   UNL A   1      42.726  27.303  34.709  1.00  0.00     0.039 A 
ATOM     41  C   UNL A   1      42.138  27.576  33.472  1.00  0.00     0.014 A 
ATOM     42  C   UNL A   1      43.951  26.628  34.777  1.00  0.00     0.014 A 
ATOM     43  C   UNL A   1      42.796  27.211  32.302  1.00  0.00     0.010 A 
ATOM     44  C   UNL A   1      44.619  26.281  33.606  1.00  0.00     0.010 A 
ATOM     45  C   UNL A   1      44.045  26.574  32.366  1.00  0.00    -0.014 A 
BRANCH  45  46
ATOM     46  C   UNL A   1      44.706  26.212  31.104  1.00  0.00     0.031 A 
ATOM     47  C   UNL A   1      43.887  25.483  30.091  1.00  0.00     0.074 A 
ATOM     48  C   UNL A   1      45.765  26.924  30.665  1.00  0.00     0.049 A 
ATOM     49  N   UNL A   1      43.070  26.087  29.276  1.00  0.00    -0.248 NA
ATOM     50  C   UNL A   1      43.780  24.025  30.064  1.00  0.00     0.031 C 
ATOM     51  C   UNL A   1      46.011  28.330  31.019  1.00  0.00     0.029 A 
ATOM     52  N   UNL A   1      46.682  26.657  29.682  1.00  0.00    -0.354 N 
ATOM     53  C   UNL A   1      42.309  25.109  28.661  1.00  0.00     0.074 A 
ATOM     54  C   UNL A   1      42.798  23.845  29.168  1.00  0.00     0.031 C 
ATOM     55  C   UNL A   1      46.878  28.852  30.128  1.00  0.00     0.029 A 
ATOM     56  C   UNL A   1      47.376  27.787  29.268  1.00  0.00     0.049 A 
ATOM     57  H   UNL A   1      46.832  25.758  29.309  1.00  0.00     0.167 HD
ATOM     58  C   UNL A   1      41.312  25.386  27.779  1.00  0.00     0.031 A 
ATOM     59  C   UNL A   1      47.906  27.973  28.032  1.00  0.00     0.031 A 
ATOM     60  C   UNL A   1      41.093  26.772  27.498  1.00  0.00     0.049 A 
ATOM     61  C   UNL A   1      46.661  28.046  27.182  1.00  0.00     0.074 A 
ATOM     62  C   UNL A   1      40.285  27.785  27.968  1.00  0.00     0.029 A 
ATOM     63  N   UNL A   1      41.891  27.376  26.558  1.00  0.00    -0.354 N 
ATOM     64  N   UNL A   1      45.882  29.084  27.038  1.00  0.00    -0.248 NA
ATOM     65  C   UNL A   1      46.082  26.780  26.725  1.00  0.00     0.031 C 
ATOM     66  C   UNL A   1      40.956  29.000  27.623  1.00  0.00     0.029 A 
ATOM     67  C   UNL A   1      42.159  28.640  27.017  1.00  0.00     0.049 A 
ATOM     68  H   UNL A   1      42.211  26.979  25.715  1.00  0.00     0.167 HD
ATOM     69  C   UNL A   1      44.617  28.563  26.755  1.00  0.00     0.074 A 
ATOM     70  C   UNL A   1      44.817  27.140  26.555  1.00  0.00     0.031 C 
ATOM     71  C   UNL A   1      43.455  29.269  26.885  1.00  0.00     0.031 A 
BRANCH  58  72
ATOM     72  C   UNL A   1      40.535  24.366  27.047  1.00  0.00    -0.014 A 
ATOM     73  C   UNL A   1      39.148  24.535  26.928  1.00  0.00     0.009 A 
ATOM     74  C   UNL A   1      41.113  23.154  26.655  1.00  0.00     0.009 A 
ATOM     75  C   UNL A   1      38.343  23.495  26.464  1.00  0.00     0.001 A 
ATOM     76  C   UNL A   1      40.306  22.116  26.180  1.00  0.00     0.001 A 
ATOM     77  C   UNL A   1      38.922  22.283  26.098  1.00  0.00     0.000 A 
ENDBRANCH  58  72
BRANCH  59  78
ATOM     78  C   UNL A   1      49.059  27.069  27.707  1.00  0.00    -0.014 A 
ATOM     79  C   UNL A   1      49.651  26.339  28.761  1.00  0.00     0.009 A 
ATOM     80  C   UNL A   1      49.609  26.906  26.429  1.00  0.00     0.009 A 
ATOM     81  C   UNL A   1      50.671  25.412  28.531  1.00  0.00     0.001 A 
ATOM     82  C   UNL A   1      50.613  25.957  26.191  1.00  0.00     0.001 A 
ATOM     83  C   UNL A   1      51.133  25.201  27.238  1.00  0.00     0.000 A 
ENDBRANCH  59  78
BRANCH  71  84
ATOM     84  C   UNL A   1      43.580  30.731  27.165  1.00  0.00    -0.014 A 
ATOM     85  C   UNL A   1      43.545  31.204  28.482  1.00  0.00     0.009 A 
ATOM     86  C   UNL A   1      43.823  31.642  26.123  1.00  0.00     0.009 A 
ATOM     87  C   UNL A   1      43.787  32.552  28.754  1.00  0.00     0.001 A 
ATOM     88  C   UNL A   1      44.082  32.985  26.397  1.00  0.00     0.001 A 
ATOM     89  C   UNL A   1      44.070  33.438  27.715  1.00  0.00     0.000 A 
ENDBRANCH  71  84
ENDBRANCH  45  46
ENDBRANCH  37  40
ENDBRANCH  35  36
ENDBRANCH  34  35
ENDBRANCH   1  34
TORSDOF 15
ENDMDL
