MODEL 1
REMARK VINA RESULT:     -10.2      0.000      0.000
REMARK SMILES CCN(CCC(=O)NCCCNC(=O)c1ccc(-c2c3nc(c(-c4ccccc4)c4ccc([nH]4)c(-c4ccccc4)c4nc(c(-c5ccccc5)c5ccc2[nH]5)C=C4)C=C3)cc1)C(=O)N1C[C@H](C(=O)OC)[C@@H](C)C1
REMARK SMILES IDX 6 1 7 2 8 3 5 5 4 6 3 7 2 8 1 9 63 10 64 11 65 12 66 13
REMARK SMILES IDX 74 14 67 15 72 16 73 17 68 18 69 19 70 20 71 21 9 22 10 23
REMARK SMILES IDX 11 24 12 25 13 26 14 28 15 29 16 30 62 31 17 32 61 33 18 34
REMARK SMILES IDX 19 35 20 36 55 37 21 38 60 39 54 40 56 41 22 42 59 43 53 44
REMARK SMILES IDX 52 45 23 47 45 48 30 49 44 50 31 51 34 52 43 53 57 54 32 55
REMARK SMILES IDX 33 56 42 58 58 59 35 60 24 61 25 62 29 63 26 64 28 65 27 66
REMARK SMILES IDX 46 67 47 68 51 69 48 70 50 71 49 72 36 73 37 74 41 75 38 76
REMARK SMILES IDX 40 77 39 78
REMARK H PARENT 8 4 12 27 56 46 34 57
REMARK Flexibility Score: inf
ROOT
ATOM      1  C   UNL A   1      29.904  29.241  23.277  1.00  0.00     0.221 C 
ATOM      2  O   UNL A   1      29.090  29.440  22.370  1.00  0.00    -0.275 OA
ATOM      3  N   UNL A   1      30.341  30.314  23.996  1.00  0.00    -0.356 N 
ATOM      4  H   UNL A   1      30.122  31.188  23.601  1.00  0.00     0.163 HD
ENDROOT
BRANCH   1   5
ATOM      5  C   UNL A   1      30.415  27.848  23.536  1.00  0.00     0.121 C 
BRANCH   5   6
ATOM      6  C   UNL A   1      31.143  27.238  22.336  1.00  0.00     0.131 C 
BRANCH   6   7
ATOM      7  N   UNL A   1      32.494  26.737  22.614  1.00  0.00    -0.324 N 
BRANCH   7   8
ATOM      8  C   UNL A   1      33.240  27.649  23.522  1.00  0.00     0.118 C 
ATOM      9  C   UNL A   1      33.981  28.872  23.000  1.00  0.00     0.027 C 
ENDBRANCH   7   8
BRANCH   7  10
ATOM     10  C   UNL A   1      33.118  25.622  22.078  1.00  0.00     0.320 C 
ATOM     11  O   UNL A   1      33.265  25.524  20.854  1.00  0.00    -0.248 OA
BRANCH  10  12
ATOM     12  N   UNL A   1      33.531  24.547  22.831  1.00  0.00    -0.323 N 
ATOM     13  C   UNL A   1      34.160  24.378  24.139  1.00  0.00     0.137 C 
ATOM     14  C   UNL A   1      33.341  23.220  22.227  1.00  0.00     0.125 C 
ATOM     15  C   UNL A   1      34.796  22.993  24.119  1.00  0.00     0.123 C 
ATOM     16  C   UNL A   1      33.839  22.187  23.245  1.00  0.00     0.021 C 
ATOM     17  C   UNL A   1      32.677  21.626  24.075  1.00  0.00     0.010 C 
BRANCH  15  18
ATOM     18  C   UNL A   1      36.216  23.166  23.609  1.00  0.00     0.310 C 
ATOM     19  O   UNL A   1      36.550  22.907  22.468  1.00  0.00    -0.252 OA
BRANCH  18  20
ATOM     20  O   UNL A   1      37.077  23.457  24.623  1.00  0.00    -0.469 OA
ATOM     21  C   UNL A   1      37.545  22.319  25.347  1.00  0.00     0.282 C 
ENDBRANCH  18  20
ENDBRANCH  15  18
ENDBRANCH  10  12
ENDBRANCH   7  10
ENDBRANCH   6   7
ENDBRANCH   5   6
ENDBRANCH   1   5
BRANCH   3  22
ATOM     22  C   UNL A   1      31.077  30.381  25.251  1.00  0.00     0.117 C 
BRANCH  22  23
ATOM     23  C   UNL A   1      31.024  31.729  25.971  1.00  0.00     0.042 C 
BRANCH  23  24
ATOM     24  C   UNL A   1      32.240  32.093  26.819  1.00  0.00     0.118 C 
BRANCH  24  25
ATOM     25  N   UNL A   1      32.202  33.472  27.274  1.00  0.00    -0.352 N 
ATOM     26  C   UNL A   1      32.979  34.139  28.190  1.00  0.00     0.251 C 
ATOM     27  H   UNL A   1      31.500  34.022  26.856  1.00  0.00     0.163 HD
ATOM     28  O   UNL A   1      32.605  35.244  28.580  1.00  0.00    -0.269 OA
BRANCH  26  29
ATOM     29  C   UNL A   1      34.241  33.577  28.738  1.00  0.00     0.039 A 
ATOM     30  C   UNL A   1      35.422  33.794  28.015  1.00  0.00     0.014 A 
ATOM     31  C   UNL A   1      34.279  32.749  29.864  1.00  0.00     0.014 A 
ATOM     32  C   UNL A   1      36.631  33.231  28.439  1.00  0.00     0.010 A 
ATOM     33  C   UNL A   1      35.499  32.220  30.314  1.00  0.00     0.010 A 
ATOM     34  C   UNL A   1      36.690  32.456  29.608  1.00  0.00    -0.014 A 
BRANCH  34  35
ATOM     35  C   UNL A   1      37.994  31.934  30.107  1.00  0.00     0.031 A 
ATOM     36  C   UNL A   1      38.576  30.644  29.590  1.00  0.00     0.074 A 
ATOM     37  C   UNL A   1      38.662  32.620  31.057  1.00  0.00     0.049 A 
ATOM     38  N   UNL A   1      39.689  30.043  29.937  1.00  0.00    -0.248 NA
ATOM     39  C   UNL A   1      37.809  29.935  28.557  1.00  0.00     0.031 C 
ATOM     40  C   UNL A   1      38.219  33.879  31.657  1.00  0.00     0.029 A 
ATOM     41  N   UNL A   1      39.854  32.353  31.687  1.00  0.00    -0.354 N 
ATOM     42  C   UNL A   1      39.753  28.885  29.171  1.00  0.00     0.074 A 
ATOM     43  C   UNL A   1      38.550  28.852  28.365  1.00  0.00     0.031 C 
ATOM     44  C   UNL A   1      39.131  34.282  32.554  1.00  0.00     0.029 A 
ATOM     45  C   UNL A   1      40.201  33.291  32.629  1.00  0.00     0.049 A 
ATOM     46  H   UNL A   1      40.406  31.564  31.483  1.00  0.00     0.167 HD
ATOM     47  C   UNL A   1      40.725  27.939  29.136  1.00  0.00     0.031 A 
ATOM     48  C   UNL A   1      41.247  33.346  33.476  1.00  0.00     0.031 A 
ATOM     49  C   UNL A   1      41.922  27.959  29.938  1.00  0.00     0.049 A 
ATOM     50  C   UNL A   1      42.276  32.250  33.462  1.00  0.00     0.074 A 
ATOM     51  C   UNL A   1      42.982  27.066  29.926  1.00  0.00     0.029 A 
ATOM     52  N   UNL A   1      42.213  28.906  30.906  1.00  0.00    -0.354 N 
ATOM     53  N   UNL A   1      42.351  31.196  32.687  1.00  0.00    -0.248 NA
ATOM     54  C   UNL A   1      43.368  32.354  34.443  1.00  0.00     0.031 C 
ATOM     55  C   UNL A   1      43.884  27.439  30.929  1.00  0.00     0.029 A 
ATOM     56  C   UNL A   1      43.415  28.597  31.526  1.00  0.00     0.049 A 
ATOM     57  H   UNL A   1      41.650  29.685  31.121  1.00  0.00     0.167 HD
ATOM     58  C   UNL A   1      43.502  30.522  33.075  1.00  0.00     0.074 A 
ATOM     59  C   UNL A   1      44.107  31.297  34.137  1.00  0.00     0.031 C 
ATOM     60  C   UNL A   1      44.008  29.362  32.592  1.00  0.00     0.031 A 
BRANCH  47  61
ATOM     61  C   UNL A   1      40.530  26.774  28.204  1.00  0.00    -0.014 A 
ATOM     62  C   UNL A   1      39.752  25.666  28.573  1.00  0.00     0.009 A 
ATOM     63  C   UNL A   1      41.079  26.816  26.911  1.00  0.00     0.009 A 
ATOM     64  C   UNL A   1      39.555  24.610  27.680  1.00  0.00     0.001 A 
ATOM     65  C   UNL A   1      40.858  25.772  26.011  1.00  0.00     0.001 A 
ATOM     66  C   UNL A   1      40.104  24.665  26.400  1.00  0.00     0.000 A 
ENDBRANCH  47  61
BRANCH  48  67
ATOM     67  C   UNL A   1      41.366  34.476  34.435  1.00  0.00    -0.014 A 
ATOM     68  C   UNL A   1      40.768  34.406  35.701  1.00  0.00     0.009 A 
ATOM     69  C   UNL A   1      42.071  35.637  34.079  1.00  0.00     0.009 A 
ATOM     70  C   UNL A   1      40.854  35.486  36.584  1.00  0.00     0.001 A 
ATOM     71  C   UNL A   1      42.181  36.702  34.974  1.00  0.00     0.001 A 
ATOM     72  C   UNL A   1      41.565  36.629  36.222  1.00  0.00     0.000 A 
ENDBRANCH  48  67
BRANCH  60  73
ATOM     73  C   UNL A   1      45.289  28.862  33.199  1.00  0.00    -0.014 A 
ATOM     74  C   UNL A   1      45.280  27.969  34.283  1.00  0.00     0.009 A 
ATOM     75  C   UNL A   1      46.522  29.260  32.659  1.00  0.00     0.009 A 
ATOM     76  C   UNL A   1      46.479  27.509  34.831  1.00  0.00     0.001 A 
ATOM     77  C   UNL A   1      47.718  28.775  33.191  1.00  0.00     0.001 A 
ATOM     78  C   UNL A   1      47.697  27.908  34.282  1.00  0.00     0.000 A 
ENDBRANCH  60  73
ENDBRANCH  34  35
ENDBRANCH  26  29
ENDBRANCH  24  25
ENDBRANCH  23  24
ENDBRANCH  22  23
ENDBRANCH   3  22
TORSDOF 17
ENDMDL
MODEL 2
REMARK VINA RESULT:     -10.1      3.378      9.030
REMARK SMILES CCN(CCC(=O)NCCCNC(=O)c1ccc(-c2c3nc(c(-c4ccccc4)c4ccc([nH]4)c(-c4ccccc4)c4nc(c(-c5ccccc5)c5ccc2[nH]5)C=C4)C=C3)cc1)C(=O)N1C[C@H](C(=O)OC)[C@@H](C)C1
REMARK SMILES IDX 6 1 7 2 8 3 5 5 4 6 3 7 2 8 1 9 63 10 64 11 65 12 66 13
REMARK SMILES IDX 74 14 67 15 72 16 73 17 68 18 69 19 70 20 71 21 9 22 10 23
REMARK SMILES IDX 11 24 12 25 13 26 14 28 15 29 16 30 62 31 17 32 61 33 18 34
REMARK SMILES IDX 19 35 20 36 55 37 21 38 60 39 54 40 56 41 22 42 59 43 53 44
REMARK SMILES IDX 52 45 23 47 45 48 30 49 44 50 31 51 34 52 43 53 57 54 32 55
REMARK SMILES IDX 33 56 42 58 58 59 35 60 24 61 25 62 29 63 26 64 28 65 27 66
REMARK SMILES IDX 46 67 47 68 51 69 48 70 50 71 49 72 36 73 37 74 41 75 38 76
REMARK SMILES IDX 40 77 39 78
REMARK H PARENT 8 4 12 27 56 46 34 57
REMARK Flexibility Score: inf
ROOT
ATOM      1  C   UNL A   1      33.424  19.794  24.860  1.00  0.00     0.221 C 
ATOM      2  O   UNL A   1      32.597  18.906  25.085  1.00  0.00    -0.275 OA
ATOM      3  N   UNL A   1      34.719  19.574  25.229  1.00  0.00    -0.356 N 
ATOM      4  H   UNL A   1      34.850  18.803  25.826  1.00  0.00     0.163 HD
ENDROOT
BRANCH   1   5
ATOM      5  C   UNL A   1      32.986  21.091  24.234  1.00  0.00     0.121 C 
BRANCH   5   6
ATOM      6  C   UNL A   1      32.474  22.112  25.252  1.00  0.00     0.131 C 
BRANCH   6   7
ATOM      7  N   UNL A   1      33.349  23.268  25.471  1.00  0.00    -0.324 N 
BRANCH   7   8
ATOM      8  C   UNL A   1      34.107  23.149  26.746  1.00  0.00     0.118 C 
ATOM      9  C   UNL A   1      33.882  21.990  27.707  1.00  0.00     0.027 C 
ENDBRANCH   7   8
BRANCH   7  10
ATOM     10  C   UNL A   1      33.461  24.414  24.698  1.00  0.00     0.320 C 
ATOM     11  O   UNL A   1      34.057  24.373  23.615  1.00  0.00    -0.248 OA
BRANCH  10  12
ATOM     12  N   UNL A   1      33.006  25.649  25.099  1.00  0.00    -0.323 N 
ATOM     13  C   UNL A   1      31.922  26.127  25.955  1.00  0.00     0.137 C 
ATOM     14  C   UNL A   1      33.725  26.812  24.559  1.00  0.00     0.125 C 
ATOM     15  C   UNL A   1      31.678  27.575  25.547  1.00  0.00     0.123 C 
ATOM     16  C   UNL A   1      33.071  28.063  25.158  1.00  0.00     0.021 C 
ATOM     17  C   UNL A   1      33.845  28.554  26.389  1.00  0.00     0.010 C 
BRANCH  15  18
ATOM     18  C   UNL A   1      30.624  27.555  24.455  1.00  0.00     0.310 C 
ATOM     19  O   UNL A   1      30.496  28.447  23.637  1.00  0.00    -0.252 OA
BRANCH  18  20
ATOM     20  O   UNL A   1      29.746  26.529  24.628  1.00  0.00    -0.469 OA
ATOM     21  C   UNL A   1      28.574  26.610  23.819  1.00  0.00     0.282 C 
ENDBRANCH  18  20
ENDBRANCH  15  18
ENDBRANCH  10  12
ENDBRANCH   7  10
ENDBRANCH   6   7
ENDBRANCH   5   6
ENDBRANCH   1   5
BRANCH   3  22
ATOM     22  C   UNL A   1      35.940  20.289  24.885  1.00  0.00     0.117 C 
BRANCH  22  23
ATOM     23  C   UNL A   1      37.224  19.461  24.943  1.00  0.00     0.042 C 
BRANCH  23  24
ATOM     24  C   UNL A   1      38.495  20.208  25.334  1.00  0.00     0.118 C 
BRANCH  24  25
ATOM     25  N   UNL A   1      39.594  19.307  25.636  1.00  0.00    -0.352 N 
ATOM     26  C   UNL A   1      40.876  19.561  26.062  1.00  0.00     0.251 C 
ATOM     27  H   UNL A   1      39.385  18.352  25.514  1.00  0.00     0.163 HD
ATOM     28  O   UNL A   1      41.696  18.645  26.025  1.00  0.00    -0.269 OA
BRANCH  26  29
ATOM     29  C   UNL A   1      41.314  20.894  26.550  1.00  0.00     0.039 A 
ATOM     30  C   UNL A   1      41.119  21.191  27.905  1.00  0.00     0.014 A 
ATOM     31  C   UNL A   1      41.794  21.895  25.700  1.00  0.00     0.014 A 
ATOM     32  C   UNL A   1      41.443  22.455  28.412  1.00  0.00     0.010 A 
ATOM     33  C   UNL A   1      42.160  23.149  26.216  1.00  0.00     0.010 A 
ATOM     34  C   UNL A   1      41.991  23.443  27.579  1.00  0.00    -0.014 A 
BRANCH  34  35
ATOM     35  C   UNL A   1      42.421  24.755  28.140  1.00  0.00     0.031 A 
ATOM     36  C   UNL A   1      41.437  25.872  28.372  1.00  0.00     0.074 A 
ATOM     37  C   UNL A   1      43.722  24.958  28.429  1.00  0.00     0.049 A 
ATOM     38  N   UNL A   1      41.654  27.081  28.834  1.00  0.00    -0.248 NA
ATOM     39  C   UNL A   1      40.031  25.601  28.040  1.00  0.00     0.031 C 
ATOM     40  C   UNL A   1      44.789  23.972  28.249  1.00  0.00     0.029 A 
ATOM     41  N   UNL A   1      44.370  26.061  28.931  1.00  0.00    -0.354 N 
ATOM     42  C   UNL A   1      40.417  27.716  28.841  1.00  0.00     0.074 A 
ATOM     43  C   UNL A   1      39.460  26.768  28.308  1.00  0.00     0.031 C 
ATOM     44  C   UNL A   1      45.952  24.508  28.650  1.00  0.00     0.029 A 
ATOM     45  C   UNL A   1      45.726  25.887  29.070  1.00  0.00     0.049 A 
ATOM     46  H   UNL A   1      43.906  26.896  29.168  1.00  0.00     0.167 HD
ATOM     47  C   UNL A   1      40.105  28.968  29.259  1.00  0.00     0.031 A 
ATOM     48  C   UNL A   1      46.688  26.742  29.469  1.00  0.00     0.031 A 
ATOM     49  C   UNL A   1      41.050  29.920  29.785  1.00  0.00     0.049 A 
ATOM     50  C   UNL A   1      46.322  28.146  29.864  1.00  0.00     0.074 A 
ATOM     51  C   UNL A   1      40.807  31.192  30.278  1.00  0.00     0.029 A 
ATOM     52  N   UNL A   1      42.417  29.716  29.870  1.00  0.00    -0.354 N 
ATOM     53  N   UNL A   1      45.140  28.706  29.923  1.00  0.00    -0.248 NA
ATOM     54  C   UNL A   1      47.429  29.035  30.248  1.00  0.00     0.031 C 
ATOM     55  C   UNL A   1      42.034  31.780  30.604  1.00  0.00     0.029 A 
ATOM     56  C   UNL A   1      43.036  30.853  30.369  1.00  0.00     0.049 A 
ATOM     57  H   UNL A   1      42.882  28.886  29.615  1.00  0.00     0.167 HD
ATOM     58  C   UNL A   1      45.358  30.004  30.366  1.00  0.00     0.074 A 
ATOM     59  C   UNL A   1      46.783  30.143  30.581  1.00  0.00     0.031 C 
ATOM     60  C   UNL A   1      44.454  30.993  30.571  1.00  0.00     0.031 A 
BRANCH  47  61
ATOM     61  C   UNL A   1      38.668  29.400  29.149  1.00  0.00    -0.014 A 
ATOM     62  C   UNL A   1      38.155  29.932  27.955  1.00  0.00     0.009 A 
ATOM     63  C   UNL A   1      37.797  29.211  30.235  1.00  0.00     0.009 A 
ATOM     64  C   UNL A   1      36.810  30.296  27.862  1.00  0.00     0.001 A 
ATOM     65  C   UNL A   1      36.447  29.551  30.130  1.00  0.00     0.001 A 
ATOM     66  C   UNL A   1      35.956  30.101  28.947  1.00  0.00     0.000 A 
ENDBRANCH  47  61
BRANCH  48  67
ATOM     67  C   UNL A   1      48.107  26.300  29.494  1.00  0.00    -0.014 A 
ATOM     68  C   UNL A   1      48.672  25.772  30.665  1.00  0.00     0.009 A 
ATOM     69  C   UNL A   1      48.908  26.417  28.347  1.00  0.00     0.009 A 
ATOM     70  C   UNL A   1      50.016  25.392  30.691  1.00  0.00     0.001 A 
ATOM     71  C   UNL A   1      50.242  26.008  28.368  1.00  0.00     0.001 A 
ATOM     72  C   UNL A   1      50.797  25.504  29.543  1.00  0.00     0.000 A 
ENDBRANCH  48  67
BRANCH  60  73
ATOM     73  C   UNL A   1      44.977  32.312  31.066  1.00  0.00    -0.014 A 
ATOM     74  C   UNL A   1      45.121  32.567  32.440  1.00  0.00     0.009 A 
ATOM     75  C   UNL A   1      45.365  33.302  30.150  1.00  0.00     0.009 A 
ATOM     76  C   UNL A   1      45.614  33.796  32.884  1.00  0.00     0.001 A 
ATOM     77  C   UNL A   1      45.885  34.518  30.596  1.00  0.00     0.001 A 
ATOM     78  C   UNL A   1      46.001  34.768  31.962  1.00  0.00     0.000 A 
ENDBRANCH  60  73
ENDBRANCH  34  35
ENDBRANCH  26  29
ENDBRANCH  24  25
ENDBRANCH  23  24
ENDBRANCH  22  23
ENDBRANCH   3  22
TORSDOF 17
ENDMDL
MODEL 3
REMARK VINA RESULT:     -10.0      2.935      7.133
REMARK SMILES CCN(CCC(=O)NCCCNC(=O)c1ccc(-c2c3nc(c(-c4ccccc4)c4ccc([nH]4)c(-c4ccccc4)c4nc(c(-c5ccccc5)c5ccc2[nH]5)C=C4)C=C3)cc1)C(=O)N1C[C@H](C(=O)OC)[C@@H](C)C1
REMARK SMILES IDX 6 1 7 2 8 3 5 5 4 6 3 7 2 8 1 9 63 10 64 11 65 12 66 13
REMARK SMILES IDX 74 14 67 15 72 16 73 17 68 18 69 19 70 20 71 21 9 22 10 23
REMARK SMILES IDX 11 24 12 25 13 26 14 28 15 29 16 30 62 31 17 32 61 33 18 34
REMARK SMILES IDX 19 35 20 36 55 37 21 38 60 39 54 40 56 41 22 42 59 43 53 44
REMARK SMILES IDX 52 45 23 47 45 48 30 49 44 50 31 51 34 52 43 53 57 54 32 55
REMARK SMILES IDX 33 56 42 58 58 59 35 60 24 61 25 62 29 63 26 64 28 65 27 66
REMARK SMILES IDX 46 67 47 68 51 69 48 70 50 71 49 72 36 73 37 74 41 75 38 76
REMARK SMILES IDX 40 77 39 78
REMARK H PARENT 8 4 12 27 56 46 34 57
REMARK Flexibility Score: inf
ROOT
ATOM      1  C   UNL A   1      30.977  25.381  26.326  1.00  0.00     0.221 C 
ATOM      2  O   UNL A   1      31.092  24.412  27.082  1.00  0.00    -0.275 OA
ATOM      3  N   UNL A   1      31.143  26.629  26.850  1.00  0.00    -0.356 N 
ATOM      4  H   UNL A   1      31.146  26.663  27.833  1.00  0.00     0.163 HD
ENDROOT
BRANCH   1   5
ATOM      5  C   UNL A   1      30.620  25.168  24.878  1.00  0.00     0.121 C 
BRANCH   5   6
ATOM      6  C   UNL A   1      31.438  24.060  24.211  1.00  0.00     0.131 C 
BRANCH   6   7
ATOM      7  N   UNL A   1      32.660  24.507  23.535  1.00  0.00    -0.324 N 
BRANCH   7   8
ATOM      8  C   UNL A   1      32.500  24.508  22.055  1.00  0.00     0.118 C 
ATOM      9  C   UNL A   1      32.304  25.797  21.270  1.00  0.00     0.027 C 
ENDBRANCH   7   8
BRANCH   7  10
ATOM     10  C   UNL A   1      33.885  24.822  24.104  1.00  0.00     0.320 C 
ATOM     11  O   UNL A   1      34.217  26.006  24.240  1.00  0.00    -0.248 OA
BRANCH  10  12
ATOM     12  N   UNL A   1      34.817  23.880  24.471  1.00  0.00    -0.323 N 
ATOM     13  C   UNL A   1      35.414  22.707  23.833  1.00  0.00     0.137 C 
ATOM     14  C   UNL A   1      35.377  24.012  25.824  1.00  0.00     0.125 C 
ATOM     15  C   UNL A   1      35.964  21.852  24.968  1.00  0.00     0.123 C 
ATOM     16  C   UNL A   1      36.403  22.887  25.999  1.00  0.00     0.021 C 
ATOM     17  C   UNL A   1      37.824  23.387  25.705  1.00  0.00     0.010 C 
BRANCH  15  18
ATOM     18  C   UNL A   1      34.857  20.896  25.377  1.00  0.00     0.310 C 
ATOM     19  O   UNL A   1      34.098  21.115  26.303  1.00  0.00    -0.252 OA
BRANCH  18  20
ATOM     20  O   UNL A   1      34.948  19.713  24.712  1.00  0.00    -0.469 OA
ATOM     21  C   UNL A   1      33.740  18.954  24.684  1.00  0.00     0.282 C 
ENDBRANCH  18  20
ENDBRANCH  15  18
ENDBRANCH  10  12
ENDBRANCH   7  10
ENDBRANCH   6   7
ENDBRANCH   5   6
ENDBRANCH   1   5
BRANCH   3  22
ATOM     22  C   UNL A   1      31.319  27.919  26.196  1.00  0.00     0.117 C 
BRANCH  22  23
ATOM     23  C   UNL A   1      32.769  28.366  26.009  1.00  0.00     0.042 C 
BRANCH  23  24
ATOM     24  C   UNL A   1      33.564  28.642  27.282  1.00  0.00     0.118 C 
BRANCH  24  25
ATOM     25  N   UNL A   1      33.580  30.054  27.626  1.00  0.00    -0.352 N 
ATOM     26  C   UNL A   1      34.520  30.808  28.287  1.00  0.00     0.251 C 
ATOM     27  H   UNL A   1      32.784  30.555  27.337  1.00  0.00     0.163 HD
ATOM     28  O   UNL A   1      34.204  31.935  28.666  1.00  0.00    -0.269 OA
BRANCH  26  29
ATOM     29  C   UNL A   1      35.891  30.315  28.577  1.00  0.00     0.039 A 
ATOM     30  C   UNL A   1      36.833  30.352  27.540  1.00  0.00     0.014 A 
ATOM     31  C   UNL A   1      36.243  29.710  29.788  1.00  0.00     0.014 A 
ATOM     32  C   UNL A   1      38.120  29.836  27.726  1.00  0.00     0.010 A 
ATOM     33  C   UNL A   1      37.548  29.232  29.990  1.00  0.00     0.010 A 
ATOM     34  C   UNL A   1      38.503  29.291  28.962  1.00  0.00    -0.014 A 
BRANCH  34  35
ATOM     35  C   UNL A   1      39.901  28.826  29.186  1.00  0.00     0.031 A 
ATOM     36  C   UNL A   1      40.939  29.726  29.804  1.00  0.00     0.074 A 
ATOM     37  C   UNL A   1      40.253  27.579  28.813  1.00  0.00     0.049 A 
ATOM     38  N   UNL A   1      42.204  29.480  30.048  1.00  0.00    -0.248 NA
ATOM     39  C   UNL A   1      40.505  31.075  30.194  1.00  0.00     0.031 C 
ATOM     40  C   UNL A   1      39.358  26.600  28.195  1.00  0.00     0.029 A 
ATOM     41  N   UNL A   1      41.459  26.924  28.893  1.00  0.00    -0.354 N 
ATOM     42  C   UNL A   1      42.718  30.642  30.612  1.00  0.00     0.074 A 
ATOM     43  C   UNL A   1      41.635  31.603  30.644  1.00  0.00     0.031 C 
ATOM     44  C   UNL A   1      40.039  25.466  27.968  1.00  0.00     0.029 A 
ATOM     45  C   UNL A   1      41.428  25.650  28.378  1.00  0.00     0.049 A 
ATOM     46  H   UNL A   1      42.267  27.330  29.281  1.00  0.00     0.167 HD
ATOM     47  C   UNL A   1      43.973  30.886  31.067  1.00  0.00     0.031 A 
ATOM     48  C   UNL A   1      42.405  24.735  28.230  1.00  0.00     0.031 A 
ATOM     49  C   UNL A   1      45.059  29.940  31.034  1.00  0.00     0.049 A 
ATOM     50  C   UNL A   1      43.803  25.056  28.684  1.00  0.00     0.074 A 
ATOM     51  C   UNL A   1      46.347  30.090  31.522  1.00  0.00     0.029 A 
ATOM     52  N   UNL A   1      44.994  28.677  30.469  1.00  0.00    -0.354 N 
ATOM     53  N   UNL A   1      44.253  26.137  29.271  1.00  0.00    -0.248 NA
ATOM     54  C   UNL A   1      44.827  24.026  28.452  1.00  0.00     0.031 C 
ATOM     55  C   UNL A   1      47.078  28.942  31.197  1.00  0.00     0.029 A 
ATOM     56  C   UNL A   1      46.229  28.053  30.558  1.00  0.00     0.049 A 
ATOM     57  H   UNL A   1      44.189  28.280  30.064  1.00  0.00     0.167 HD
ATOM     58  C   UNL A   1      45.606  25.911  29.493  1.00  0.00     0.074 A 
ATOM     59  C   UNL A   1      45.898  24.582  28.999  1.00  0.00     0.031 C 
ATOM     60  C   UNL A   1      46.522  26.736  30.055  1.00  0.00     0.031 A 
BRANCH  47  61
ATOM     61  C   UNL A   1      44.255  32.252  31.632  1.00  0.00    -0.014 A 
ATOM     62  C   UNL A   1      44.129  32.514  33.005  1.00  0.00     0.009 A 
ATOM     63  C   UNL A   1      44.719  33.274  30.787  1.00  0.00     0.009 A 
ATOM     64  C   UNL A   1      44.429  33.780  33.515  1.00  0.00     0.001 A 
ATOM     65  C   UNL A   1      45.043  34.530  31.303  1.00  0.00     0.001 A 
ATOM     66  C   UNL A   1      44.890  34.785  32.665  1.00  0.00     0.000 A 
ENDBRANCH  47  61
BRANCH  48  67
ATOM     67  C   UNL A   1      42.103  23.423  27.599  1.00  0.00    -0.014 A 
ATOM     68  C   UNL A   1      41.695  22.331  28.379  1.00  0.00     0.009 A 
ATOM     69  C   UNL A   1      42.234  23.256  26.212  1.00  0.00     0.009 A 
ATOM     70  C   UNL A   1      41.447  21.092  27.784  1.00  0.00     0.001 A 
ATOM     71  C   UNL A   1      41.956  22.024  25.616  1.00  0.00     0.001 A 
ATOM     72  C   UNL A   1      41.572  20.941  26.404  1.00  0.00     0.000 A 
ENDBRANCH  48  67
BRANCH  60  73
ATOM     73  C   UNL A   1      47.928  26.222  30.178  1.00  0.00    -0.014 A 
ATOM     74  C   UNL A   1      48.824  26.288  29.099  1.00  0.00     0.009 A 
ATOM     75  C   UNL A   1      48.379  25.699  31.401  1.00  0.00     0.009 A 
ATOM     76  C   UNL A   1      50.130  25.813  29.233  1.00  0.00     0.001 A 
ATOM     77  C   UNL A   1      49.693  25.252  31.540  1.00  0.00     0.001 A 
ATOM     78  C   UNL A   1      50.566  25.300  30.454  1.00  0.00     0.000 A 
ENDBRANCH  60  73
ENDBRANCH  34  35
ENDBRANCH  26  29
ENDBRANCH  24  25
ENDBRANCH  23  24
ENDBRANCH  22  23
ENDBRANCH   3  22
TORSDOF 17
ENDMDL
