MODEL 1
REMARK VINA RESULT:     -11.9      0.000      0.000
REMARK SMILES CC(C)[N@H+](C)Cc1cc2c(cc1Cl)C=C(C(=O)NCCCNC(=O)c1ccc(-c3c4nc(c(-c5ccccc5)c5ccc([nH]5)c(-c5ccccc5)c5nc(c(-c6ccccc6)c6ccc3[nH]6)C=C5)C=C4)cc1)[C@@H](C(F)(F)F)O2
REMARK SMILES IDX 19 1 18 2 16 3 17 4 15 6 7 7 8 8 12 9 9 10 11 11 13 12 10 13
REMARK SMILES IDX 78 14 14 15 73 16 6 17 4 18 5 19 2 21 1 22 3 23 74 24 75 25
REMARK SMILES IDX 76 26 77 27 20 28 21 29 22 30 23 31 24 33 25 34 26 35 72 36
REMARK SMILES IDX 27 37 71 38 28 39 29 40 30 41 65 42 31 43 70 44 64 45 66 46
REMARK SMILES IDX 32 47 69 48 63 49 62 50 33 52 55 53 40 54 54 55 41 56 44 57
REMARK SMILES IDX 53 58 67 59 42 60 43 61 52 63 68 64 45 65 34 66 35 67 39 68
REMARK SMILES IDX 36 69 38 70 37 71 56 72 57 73 61 74 58 75 60 76 59 77 46 78
REMARK SMILES IDX 47 79 51 80 48 81 50 82 49 83
REMARK H PARENT 18 5 4 20 22 32 66 51 44 62
REMARK Flexibility Score: inf
ROOT
ATOM      1  C   UNL A   1      36.402  20.695  25.076  1.00  0.00     0.118 C 
ENDROOT
BRANCH   1   2
ATOM      2  N   UNL A   1      35.254  19.804  25.058  1.00  0.00    -0.352 N 
ATOM      3  C   UNL A   1      33.912  19.934  24.973  1.00  0.00     0.251 C 
ATOM      4  O   UNL A   1      33.276  18.880  25.074  1.00  0.00    -0.270 OA
ATOM      5  H   UNL A   1      35.525  18.860  25.127  1.00  0.00     0.163 HD
BRANCH   3   6
ATOM      6  C   UNL A   1      33.194  21.223  24.772  1.00  0.00     0.067 C 
ATOM      7  C   UNL A   1      31.616  25.610  22.827  1.00  0.00     0.029 A 
ATOM      8  C   UNL A   1      31.320  24.882  23.995  1.00  0.00     0.058 A 
ATOM      9  C   UNL A   1      32.425  24.992  21.854  1.00  0.00     0.050 A 
ATOM     10  C   UNL A   1      31.887  23.630  24.221  1.00  0.00     0.128 A 
ATOM     11  C   UNL A   1      33.027  23.755  22.111  1.00  0.00     0.033 A 
ATOM     12  Cl  UNL A   1      32.703  25.648  20.278  1.00  0.00    -0.084 Cl
ATOM     13  C   UNL A   1      32.769  23.079  23.299  1.00  0.00     0.019 A 
ATOM     14  O   UNL A   1      31.493  22.975  25.349  1.00  0.00    -0.475 OA
ATOM     15  C   UNL A   1      33.382  21.790  23.568  1.00  0.00     0.025 C 
ATOM     16  C   UNL A   1      32.355  21.902  25.820  1.00  0.00     0.314 C 
BRANCH   7  17
ATOM     17  C   UNL A   1      30.979  26.977  22.675  1.00  0.00     0.300 C 
BRANCH  17  18
ATOM     18  N   UNL A   1      31.757  28.072  23.252  1.00  0.00    -0.332 N 
ATOM     19  C   UNL A   1      31.062  28.715  24.358  1.00  0.00     0.333 C 
ATOM     20  H   UNL A   1      31.805  28.729  22.472  1.00  0.00     0.348 HD
BRANCH  18  21
ATOM     21  C   UNL A   1      33.193  27.871  23.491  1.00  0.00     0.177 C 
ATOM     22  C   UNL A   1      34.135  28.575  22.510  1.00  0.00     0.075 C 
ATOM     23  C   UNL A   1      33.584  28.221  24.932  1.00  0.00     0.075 C 
ENDBRANCH  18  21
ENDBRANCH  17  18
ENDBRANCH   7  17
BRANCH  16  24
ATOM     24  C   UNL A   1      33.173  22.442  27.008  1.00  0.00     0.429 C 
ATOM     25  F   UNL A   1      34.327  23.000  26.561  1.00  0.00    -0.167 F 
ATOM     26  F   UNL A   1      32.526  23.407  27.701  1.00  0.00    -0.167 F 
ATOM     27  F   UNL A   1      33.505  21.476  27.892  1.00  0.00    -0.167 F 
ENDBRANCH  16  24
ENDBRANCH   3   6
ENDBRANCH   1   2
BRANCH   1  28
ATOM     28  C   UNL A   1      37.691  19.952  24.772  1.00  0.00     0.042 C 
BRANCH  28  29
ATOM     29  C   UNL A   1      38.849  20.448  25.626  1.00  0.00     0.118 C 
BRANCH  29  30
ATOM     30  N   UNL A   1      39.883  19.429  25.789  1.00  0.00    -0.352 N 
ATOM     31  C   UNL A   1      41.229  19.559  26.047  1.00  0.00     0.251 C 
ATOM     32  H   UNL A   1      39.568  18.501  25.699  1.00  0.00     0.163 HD
ATOM     33  O   UNL A   1      41.984  18.616  25.875  1.00  0.00    -0.269 OA
BRANCH  31  34
ATOM     34  C   UNL A   1      41.749  20.855  26.524  1.00  0.00     0.039 A 
ATOM     35  C   UNL A   1      41.732  21.149  27.886  1.00  0.00     0.014 A 
ATOM     36  C   UNL A   1      42.249  21.785  25.609  1.00  0.00     0.014 A 
ATOM     37  C   UNL A   1      42.009  22.437  28.311  1.00  0.00     0.010 A 
ATOM     38  C   UNL A   1      42.650  23.046  26.057  1.00  0.00     0.010 A 
ATOM     39  C   UNL A   1      42.484  23.398  27.405  1.00  0.00    -0.014 A 
BRANCH  39  40
ATOM     40  C   UNL A   1      42.808  24.754  27.912  1.00  0.00     0.031 A 
ATOM     41  C   UNL A   1      41.723  25.765  28.161  1.00  0.00     0.074 A 
ATOM     42  C   UNL A   1      44.090  25.039  28.223  1.00  0.00     0.049 A 
ATOM     43  N   UNL A   1      41.831  26.984  28.625  1.00  0.00    -0.248 NA
ATOM     44  C   UNL A   1      40.340  25.365  27.852  1.00  0.00     0.031 C 
ATOM     45  C   UNL A   1      45.221  24.123  28.049  1.00  0.00     0.029 A 
ATOM     46  N   UNL A   1      44.652  26.153  28.790  1.00  0.00    -0.354 N 
ATOM     47  C   UNL A   1      40.543  27.502  28.638  1.00  0.00     0.074 A 
ATOM     48  C   UNL A   1      39.667  26.478  28.116  1.00  0.00     0.031 C 
ATOM     49  C   UNL A   1      46.322  24.680  28.571  1.00  0.00     0.029 A 
ATOM     50  C   UNL A   1      45.999  26.025  29.030  1.00  0.00     0.049 A 
ATOM     51  H   UNL A   1      44.140  26.967  29.005  1.00  0.00     0.167 HD
ATOM     52  C   UNL A   1      40.132  28.722  29.057  1.00  0.00     0.031 A 
ATOM     53  C   UNL A   1      46.886  26.896  29.544  1.00  0.00     0.031 A 
ATOM     54  C   UNL A   1      41.009  29.726  29.597  1.00  0.00     0.049 A 
ATOM     55  C   UNL A   1      46.407  28.255  29.959  1.00  0.00     0.074 A 
ATOM     56  C   UNL A   1      40.683  30.990  30.056  1.00  0.00     0.029 A 
ATOM     57  N   UNL A   1      42.378  29.580  29.758  1.00  0.00    -0.354 N 
ATOM     58  N   UNL A   1      45.186  28.732  29.953  1.00  0.00    -0.248 NA
ATOM     59  C   UNL A   1      47.423  29.199  30.444  1.00  0.00     0.031 C 
ATOM     60  C   UNL A   1      41.861  31.630  30.442  1.00  0.00     0.029 A 
ATOM     61  C   UNL A   1      42.913  30.741  30.288  1.00  0.00     0.049 A 
ATOM     62  H   UNL A   1      42.892  28.773  29.530  1.00  0.00     0.167 HD
ATOM     63  C   UNL A   1      45.283  30.027  30.439  1.00  0.00     0.074 A 
ATOM     64  C   UNL A   1      46.679  30.253  30.756  1.00  0.00     0.031 C 
ATOM     65  C   UNL A   1      44.304  30.949  30.599  1.00  0.00     0.031 A 
BRANCH  52  66
ATOM     66  C   UNL A   1      38.671  29.062  28.945  1.00  0.00    -0.014 A 
ATOM     67  C   UNL A   1      38.176  29.607  27.749  1.00  0.00     0.009 A 
ATOM     68  C   UNL A   1      37.813  28.956  30.050  1.00  0.00     0.009 A 
ATOM     69  C   UNL A   1      36.858  30.062  27.668  1.00  0.00     0.001 A 
ATOM     70  C   UNL A   1      36.487  29.387  29.958  1.00  0.00     0.001 A 
ATOM     71  C   UNL A   1      36.015  29.950  28.772  1.00  0.00     0.000 A 
ENDBRANCH  52  66
BRANCH  53  72
ATOM     72  C   UNL A   1      48.314  26.497  29.669  1.00  0.00    -0.014 A 
ATOM     73  C   UNL A   1      48.776  25.862  30.834  1.00  0.00     0.009 A 
ATOM     74  C   UNL A   1      49.234  26.798  28.654  1.00  0.00     0.009 A 
ATOM     75  C   UNL A   1      50.131  25.568  30.997  1.00  0.00     0.001 A 
ATOM     76  C   UNL A   1      50.584  26.469  28.804  1.00  0.00     0.001 A 
ATOM     77  C   UNL A   1      51.033  25.866  29.978  1.00  0.00     0.000 A 
ENDBRANCH  53  72
BRANCH  65  78
ATOM     78  C   UNL A   1      44.690  32.290  31.152  1.00  0.00    -0.014 A 
ATOM     79  C   UNL A   1      44.625  32.517  32.536  1.00  0.00     0.009 A 
ATOM     80  C   UNL A   1      45.011  33.357  30.299  1.00  0.00     0.009 A 
ATOM     81  C   UNL A   1      44.855  33.791  33.055  1.00  0.00     0.001 A 
ATOM     82  C   UNL A   1      45.270  34.623  30.824  1.00  0.00     0.001 A 
ATOM     83  C   UNL A   1      45.181  34.841  32.199  1.00  0.00     0.000 A 
ENDBRANCH  65  78
ENDBRANCH  39  40
ENDBRANCH  31  34
ENDBRANCH  29  30
ENDBRANCH  28  29
ENDBRANCH   1  28
TORSDOF 14
ENDMDL
MODEL 2
REMARK VINA RESULT:     -11.9      0.486      5.877
REMARK SMILES CC(C)[N@H+](C)Cc1cc2c(cc1Cl)C=C(C(=O)NCCCNC(=O)c1ccc(-c3c4nc(c(-c5ccccc5)c5ccc([nH]5)c(-c5ccccc5)c5nc(c(-c6ccccc6)c6ccc3[nH]6)C=C5)C=C4)cc1)[C@@H](C(F)(F)F)O2
REMARK SMILES IDX 19 1 18 2 16 3 17 4 15 6 7 7 8 8 12 9 9 10 11 11 13 12 10 13
REMARK SMILES IDX 78 14 14 15 73 16 6 17 4 18 5 19 2 21 1 22 3 23 74 24 75 25
REMARK SMILES IDX 76 26 77 27 20 28 21 29 22 30 23 31 24 33 25 34 26 35 72 36
REMARK SMILES IDX 27 37 71 38 28 39 29 40 30 41 65 42 31 43 70 44 64 45 66 46
REMARK SMILES IDX 32 47 69 48 63 49 62 50 33 52 55 53 40 54 54 55 41 56 44 57
REMARK SMILES IDX 53 58 67 59 42 60 43 61 52 63 68 64 45 65 34 66 35 67 39 68
REMARK SMILES IDX 36 69 38 70 37 71 56 72 57 73 61 74 58 75 60 76 59 77 46 78
REMARK SMILES IDX 47 79 51 80 48 81 50 82 49 83
REMARK H PARENT 18 5 4 20 22 32 66 51 44 62
REMARK Flexibility Score: inf
ROOT
ATOM      1  C   UNL A   1      36.459  20.663  25.154  1.00  0.00     0.118 C 
ENDROOT
BRANCH   1   2
ATOM      2  N   UNL A   1      35.330  19.772  24.946  1.00  0.00    -0.352 N 
ATOM      3  C   UNL A   1      33.987  19.891  24.863  1.00  0.00     0.251 C 
ATOM      4  O   UNL A   1      33.372  18.826  24.749  1.00  0.00    -0.270 OA
ATOM      5  H   UNL A   1      35.621  18.838  24.837  1.00  0.00     0.163 HD
BRANCH   3   6
ATOM      6  C   UNL A   1      33.245  21.182  24.901  1.00  0.00     0.067 C 
ATOM      7  C   UNL A   1      31.325  25.678  23.629  1.00  0.00     0.029 A 
ATOM      8  C   UNL A   1      31.259  24.862  24.774  1.00  0.00     0.058 A 
ATOM      9  C   UNL A   1      31.932  25.144  22.475  1.00  0.00     0.050 A 
ATOM     10  C   UNL A   1      31.858  23.605  24.792  1.00  0.00     0.128 A 
ATOM     11  C   UNL A   1      32.571  23.901  22.518  1.00  0.00     0.033 A 
ATOM     12  Cl  UNL A   1      31.902  25.919  20.928  1.00  0.00    -0.084 Cl
ATOM     13  C   UNL A   1      32.546  23.135  23.680  1.00  0.00     0.019 A 
ATOM     14  O   UNL A   1      31.688  22.863  25.923  1.00  0.00    -0.475 OA
ATOM     15  C   UNL A   1      33.199  21.838  23.729  1.00  0.00     0.025 C 
ATOM     16  C   UNL A   1      32.624  21.770  26.138  1.00  0.00     0.314 C 
BRANCH   7  17
ATOM     17  C   UNL A   1      30.672  27.043  23.704  1.00  0.00     0.300 C 
BRANCH  17  18
ATOM     18  N   UNL A   1      31.590  28.163  23.501  1.00  0.00    -0.332 N 
ATOM     19  C   UNL A   1      31.040  29.166  22.600  1.00  0.00     0.333 C 
ATOM     20  H   UNL A   1      32.377  27.707  23.039  1.00  0.00     0.348 HD
BRANCH  18  21
ATOM     21  C   UNL A   1      32.284  28.729  24.666  1.00  0.00     0.177 C 
ATOM     22  C   UNL A   1      31.678  28.389  26.030  1.00  0.00     0.075 C 
ATOM     23  C   UNL A   1      33.778  28.386  24.660  1.00  0.00     0.075 C 
ENDBRANCH  18  21
ENDBRANCH  17  18
ENDBRANCH   7  17
BRANCH  16  24
ATOM     24  C   UNL A   1      33.655  22.232  27.184  1.00  0.00     0.429 C 
ATOM     25  F   UNL A   1      33.029  22.894  28.192  1.00  0.00    -0.167 F 
ATOM     26  F   UNL A   1      34.321  21.204  27.760  1.00  0.00    -0.167 F 
ATOM     27  F   UNL A   1      34.584  23.065  26.667  1.00  0.00    -0.167 F 
ENDBRANCH  16  24
ENDBRANCH   3   6
ENDBRANCH   1   2
BRANCH   1  28
ATOM     28  C   UNL A   1      37.775  19.988  24.814  1.00  0.00     0.042 C 
BRANCH  28  29
ATOM     29  C   UNL A   1      38.904  20.449  25.726  1.00  0.00     0.118 C 
BRANCH  29  30
ATOM     30  N   UNL A   1      39.974  19.458  25.815  1.00  0.00    -0.352 N 
ATOM     31  C   UNL A   1      41.319  19.618  26.061  1.00  0.00     0.251 C 
ATOM     32  H   UNL A   1      39.687  18.526  25.678  1.00  0.00     0.163 HD
ATOM     33  O   UNL A   1      42.100  18.712  25.825  1.00  0.00    -0.269 OA
BRANCH  31  34
ATOM     34  C   UNL A   1      41.804  20.902  26.603  1.00  0.00     0.039 A 
ATOM     35  C   UNL A   1      41.817  21.111  27.980  1.00  0.00     0.014 A 
ATOM     36  C   UNL A   1      42.241  21.904  25.733  1.00  0.00     0.014 A 
ATOM     37  C   UNL A   1      42.059  22.381  28.477  1.00  0.00     0.010 A 
ATOM     38  C   UNL A   1      42.608  23.151  26.248  1.00  0.00     0.010 A 
ATOM     39  C   UNL A   1      42.470  23.413  27.619  1.00  0.00    -0.014 A 
BRANCH  39  40
ATOM     40  C   UNL A   1      42.758  24.748  28.199  1.00  0.00     0.031 A 
ATOM     41  C   UNL A   1      44.167  25.161  28.522  1.00  0.00     0.074 A 
ATOM     42  C   UNL A   1      41.739  25.618  28.357  1.00  0.00     0.049 A 
ATOM     43  N   UNL A   1      44.596  26.298  29.010  1.00  0.00    -0.248 NA
ATOM     44  C   UNL A   1      45.236  24.179  28.271  1.00  0.00     0.031 C 
ATOM     45  C   UNL A   1      40.335  25.334  28.049  1.00  0.00     0.029 A 
ATOM     46  N   UNL A   1      41.729  26.925  28.769  1.00  0.00    -0.354 N 
ATOM     47  C   UNL A   1      45.971  26.159  29.147  1.00  0.00     0.074 A 
ATOM     48  C   UNL A   1      46.309  24.822  28.714  1.00  0.00     0.031 C 
ATOM     49  C   UNL A   1      39.615  26.452  28.207  1.00  0.00     0.029 A 
ATOM     50  C   UNL A   1      40.484  27.506  28.715  1.00  0.00     0.049 A 
ATOM     51  H   UNL A   1      42.535  27.402  29.075  1.00  0.00     0.167 HD
ATOM     52  C   UNL A   1      46.867  27.072  29.589  1.00  0.00     0.031 A 
ATOM     53  C   UNL A   1      40.076  28.743  29.054  1.00  0.00     0.031 A 
ATOM     54  C   UNL A   1      46.523  28.408  29.995  1.00  0.00     0.049 A 
ATOM     55  C   UNL A   1      41.087  29.718  29.580  1.00  0.00     0.074 A 
ATOM     56  C   UNL A   1      47.365  29.408  30.450  1.00  0.00     0.029 A 
ATOM     57  N   UNL A   1      45.241  28.933  29.990  1.00  0.00    -0.354 N 
ATOM     58  N   UNL A   1      42.382  29.565  29.714  1.00  0.00    -0.248 NA
ATOM     59  C   UNL A   1      40.585  31.030  30.009  1.00  0.00     0.031 C 
ATOM     60  C   UNL A   1      46.586  30.519  30.773  1.00  0.00     0.029 A 
ATOM     61  C   UNL A   1      45.266  30.236  30.456  1.00  0.00     0.049 A 
ATOM     62  H   UNL A   1      44.433  28.451  29.700  1.00  0.00     0.167 HD
ATOM     63  C   UNL A   1      42.852  30.761  30.235  1.00  0.00     0.074 A 
ATOM     64  C   UNL A   1      41.708  31.640  30.368  1.00  0.00     0.031 C 
ATOM     65  C   UNL A   1      44.118  31.097  30.580  1.00  0.00     0.031 A 
BRANCH  52  66
ATOM     66  C   UNL A   1      48.315  26.670  29.672  1.00  0.00    -0.014 A 
ATOM     67  C   UNL A   1      49.155  26.877  28.566  1.00  0.00     0.009 A 
ATOM     68  C   UNL A   1      48.816  25.985  30.788  1.00  0.00     0.009 A 
ATOM     69  C   UNL A   1      50.463  26.385  28.566  1.00  0.00     0.001 A 
ATOM     70  C   UNL A   1      50.134  25.517  30.796  1.00  0.00     0.001 A 
ATOM     71  C   UNL A   1      50.951  25.708  29.682  1.00  0.00     0.000 A 
ENDBRANCH  52  66
BRANCH  53  72
ATOM     72  C   UNL A   1      38.640  29.102  28.917  1.00  0.00    -0.014 A 
ATOM     73  C   UNL A   1      38.149  29.620  27.706  1.00  0.00     0.009 A 
ATOM     74  C   UNL A   1      37.764  28.986  30.006  1.00  0.00     0.009 A 
ATOM     75  C   UNL A   1      36.823  30.045  27.598  1.00  0.00     0.001 A 
ATOM     76  C   UNL A   1      36.428  29.378  29.884  1.00  0.00     0.001 A 
ATOM     77  C   UNL A   1      35.963  29.918  28.686  1.00  0.00     0.000 A 
ENDBRANCH  53  72
BRANCH  65  78
ATOM     78  C   UNL A   1      44.352  32.475  31.126  1.00  0.00    -0.014 A 
ATOM     79  C   UNL A   1      44.696  33.520  30.254  1.00  0.00     0.009 A 
ATOM     80  C   UNL A   1      44.338  32.716  32.509  1.00  0.00     0.009 A 
ATOM     81  C   UNL A   1      45.042  34.775  30.756  1.00  0.00     0.001 A 
ATOM     82  C   UNL A   1      44.655  33.981  33.005  1.00  0.00     0.001 A 
ATOM     83  C   UNL A   1      45.017  35.004  32.131  1.00  0.00     0.000 A 
ENDBRANCH  65  78
ENDBRANCH  39  40
ENDBRANCH  31  34
ENDBRANCH  29  30
ENDBRANCH  28  29
ENDBRANCH   1  28
TORSDOF 14
ENDMDL
MODEL 3
REMARK VINA RESULT:     -11.8      3.651      8.985
REMARK SMILES CC(C)[N@H+](C)Cc1cc2c(cc1Cl)C=C(C(=O)NCCCNC(=O)c1ccc(-c3c4nc(c(-c5ccccc5)c5ccc([nH]5)c(-c5ccccc5)c5nc(c(-c6ccccc6)c6ccc3[nH]6)C=C5)C=C4)cc1)[C@@H](C(F)(F)F)O2
REMARK SMILES IDX 19 1 18 2 16 3 17 4 15 6 7 7 8 8 12 9 9 10 11 11 13 12 10 13
REMARK SMILES IDX 78 14 14 15 73 16 6 17 4 18 5 19 2 21 1 22 3 23 74 24 75 25
REMARK SMILES IDX 76 26 77 27 20 28 21 29 22 30 23 31 24 33 25 34 26 35 72 36
REMARK SMILES IDX 27 37 71 38 28 39 29 40 30 41 65 42 31 43 70 44 64 45 66 46
REMARK SMILES IDX 32 47 69 48 63 49 62 50 33 52 55 53 40 54 54 55 41 56 44 57
REMARK SMILES IDX 53 58 67 59 42 60 43 61 52 63 68 64 45 65 34 66 35 67 39 68
REMARK SMILES IDX 36 69 38 70 37 71 56 72 57 73 61 74 58 75 60 76 59 77 46 78
REMARK SMILES IDX 47 79 51 80 48 81 50 82 49 83
REMARK H PARENT 18 5 4 20 22 32 66 51 44 62
REMARK Flexibility Score: inf
ROOT
ATOM      1  C   UNL A   1      31.787  30.378  26.452  1.00  0.00     0.118 C 
ENDROOT
BRANCH   1   2
ATOM      2  N   UNL A   1      31.536  30.118  25.045  1.00  0.00    -0.352 N 
ATOM      3  C   UNL A   1      31.532  29.039  24.232  1.00  0.00     0.251 C 
ATOM      4  O   UNL A   1      31.330  29.283  23.038  1.00  0.00    -0.270 OA
ATOM      5  H   UNL A   1      31.310  30.943  24.558  1.00  0.00     0.163 HD
BRANCH   3   6
ATOM      6  C   UNL A   1      31.749  27.636  24.680  1.00  0.00     0.067 C 
ATOM      7  C   UNL A   1      33.933  23.245  25.894  1.00  0.00     0.029 A 
ATOM      8  C   UNL A   1      32.609  23.721  25.883  1.00  0.00     0.058 A 
ATOM      9  C   UNL A   1      34.967  24.172  25.656  1.00  0.00     0.050 A 
ATOM     10  C   UNL A   1      32.327  25.045  25.553  1.00  0.00     0.128 A 
ATOM     11  C   UNL A   1      34.672  25.487  25.281  1.00  0.00     0.033 A 
ATOM     12  Cl  UNL A   1      36.647  23.808  25.851  1.00  0.00    -0.084 Cl
ATOM     13  C   UNL A   1      33.351  25.922  25.216  1.00  0.00     0.019 A 
ATOM     14  O   UNL A   1      31.022  25.429  25.629  1.00  0.00    -0.475 OA
ATOM     15  C   UNL A   1      33.038  27.288  24.837  1.00  0.00     0.025 C 
ATOM     16  C   UNL A   1      30.649  26.634  24.904  1.00  0.00     0.314 C 
BRANCH   7  17
ATOM     17  C   UNL A   1      34.148  21.785  26.235  1.00  0.00     0.300 C 
BRANCH  17  18
ATOM     18  N   UNL A   1      34.382  20.923  25.076  1.00  0.00    -0.332 N 
ATOM     19  C   UNL A   1      35.753  20.434  25.025  1.00  0.00     0.333 C 
ATOM     20  H   UNL A   1      34.239  21.571  24.301  1.00  0.00     0.348 HD
BRANCH  18  21
ATOM     21  C   UNL A   1      33.377  19.907  24.736  1.00  0.00     0.177 C 
ATOM     22  C   UNL A   1      32.422  20.273  23.596  1.00  0.00     0.075 C 
ATOM     23  C   UNL A   1      34.019  18.542  24.461  1.00  0.00     0.075 C 
ENDBRANCH  18  21
ENDBRANCH  17  18
ENDBRANCH   7  17
BRANCH  16  24
ATOM     24  C   UNL A   1      29.937  26.203  23.608  1.00  0.00     0.429 C 
ATOM     25  F   UNL A   1      30.763  26.377  22.545  1.00  0.00    -0.167 F 
ATOM     26  F   UNL A   1      29.586  24.896  23.608  1.00  0.00    -0.167 F 
ATOM     27  F   UNL A   1      28.813  26.914  23.371  1.00  0.00    -0.167 F 
ENDBRANCH  16  24
ENDBRANCH   3   6
ENDBRANCH   1   2
BRANCH   1  28
ATOM     28  C   UNL A   1      31.576  31.841  26.797  1.00  0.00     0.042 C 
BRANCH  28  29
ATOM     29  C   UNL A   1      32.871  32.519  27.221  1.00  0.00     0.118 C 
BRANCH  29  30
ATOM     30  N   UNL A   1      32.644  33.883  27.695  1.00  0.00    -0.352 N 
ATOM     31  C   UNL A   1      33.238  34.579  28.724  1.00  0.00     0.251 C 
ATOM     32  H   UNL A   1      31.957  34.384  27.200  1.00  0.00     0.163 HD
ATOM     33  O   UNL A   1      32.731  35.603  29.148  1.00  0.00    -0.269 OA
BRANCH  31  34
ATOM     34  C   UNL A   1      34.490  34.064  29.313  1.00  0.00     0.039 A 
ATOM     35  C   UNL A   1      35.711  34.358  28.710  1.00  0.00     0.014 A 
ATOM     36  C   UNL A   1      34.445  33.280  30.468  1.00  0.00     0.014 A 
ATOM     37  C   UNL A   1      36.855  33.701  29.127  1.00  0.00     0.010 A 
ATOM     38  C   UNL A   1      35.623  32.717  30.965  1.00  0.00     0.010 A 
ATOM     39  C   UNL A   1      36.829  32.882  30.267  1.00  0.00    -0.014 A 
BRANCH  39  40
ATOM     40  C   UNL A   1      38.089  32.229  30.703  1.00  0.00     0.031 A 
ATOM     41  C   UNL A   1      38.570  30.966  30.047  1.00  0.00     0.074 A 
ATOM     42  C   UNL A   1      38.838  32.836  31.647  1.00  0.00     0.049 A 
ATOM     43  N   UNL A   1      39.659  30.281  30.290  1.00  0.00    -0.248 NA
ATOM     44  C   UNL A   1      37.729  30.390  28.984  1.00  0.00     0.031 C 
ATOM     45  C   UNL A   1      38.481  34.082  32.332  1.00  0.00     0.029 A 
ATOM     46  N   UNL A   1      40.068  32.518  32.161  1.00  0.00    -0.354 N 
ATOM     47  C   UNL A   1      39.621  29.188  29.434  1.00  0.00     0.074 A 
ATOM     48  C   UNL A   1      38.392  29.283  28.678  1.00  0.00     0.031 C 
ATOM     49  C   UNL A   1      39.500  34.462  33.114  1.00  0.00     0.029 A 
ATOM     50  C   UNL A   1      40.542  33.444  33.060  1.00  0.00     0.049 A 
ATOM     51  H   UNL A   1      40.564  31.705  31.911  1.00  0.00     0.167 HD
ATOM     52  C   UNL A   1      40.535  28.201  29.290  1.00  0.00     0.031 A 
ATOM     53  C   UNL A   1      41.679  33.468  33.778  1.00  0.00     0.031 A 
ATOM     54  C   UNL A   1      41.766  28.129  30.030  1.00  0.00     0.049 A 
ATOM     55  C   UNL A   1      42.653  32.337  33.628  1.00  0.00     0.074 A 
ATOM     56  C   UNL A   1      42.760  27.169  29.947  1.00  0.00     0.029 A 
ATOM     57  N   UNL A   1      42.175  29.051  30.981  1.00  0.00    -0.354 N 
ATOM     58  N   UNL A   1      42.594  31.305  32.822  1.00  0.00    -0.248 NA
ATOM     59  C   UNL A   1      43.844  32.366  34.487  1.00  0.00     0.031 C 
ATOM     60  C   UNL A   1      43.744  27.480  30.886  1.00  0.00     0.029 A 
ATOM     61  C   UNL A   1      43.397  28.670  31.508  1.00  0.00     0.049 A 
ATOM     62  H   UNL A   1      41.672  29.856  31.242  1.00  0.00     0.167 HD
ATOM     63  C   UNL A   1      43.740  30.566  33.069  1.00  0.00     0.074 A 
ATOM     64  C   UNL A   1      44.491  31.280  34.082  1.00  0.00     0.031 C 
ATOM     65  C   UNL A   1      44.130  29.394  32.514  1.00  0.00     0.031 A 
BRANCH  52  66
ATOM     66  C   UNL A   1      40.251  27.101  28.304  1.00  0.00    -0.014 A 
ATOM     67  C   UNL A   1      39.517  25.976  28.715  1.00  0.00     0.009 A 
ATOM     68  C   UNL A   1      40.804  27.118  27.015  1.00  0.00     0.009 A 
ATOM     69  C   UNL A   1      39.362  24.879  27.863  1.00  0.00     0.001 A 
ATOM     70  C   UNL A   1      40.624  26.031  26.155  1.00  0.00     0.001 A 
ATOM     71  C   UNL A   1      39.914  24.910  26.584  1.00  0.00     0.000 A 
ENDBRANCH  52  66
BRANCH  53  72
ATOM     72  C   UNL A   1      41.931  34.598  34.712  1.00  0.00    -0.014 A 
ATOM     73  C   UNL A   1      41.496  34.529  36.047  1.00  0.00     0.009 A 
ATOM     74  C   UNL A   1      42.553  35.773  34.265  1.00  0.00     0.009 A 
ATOM     75  C   UNL A   1      41.647  35.621  36.903  1.00  0.00     0.001 A 
ATOM     76  C   UNL A   1      42.735  36.851  35.135  1.00  0.00     0.001 A 
ATOM     77  C   UNL A   1      42.272  36.779  36.448  1.00  0.00     0.000 A 
ENDBRANCH  53  72
BRANCH  65  78
ATOM     78  C   UNL A   1      45.433  28.803  32.969  1.00  0.00    -0.014 A 
ATOM     79  C   UNL A   1      46.610  29.079  32.255  1.00  0.00     0.009 A 
ATOM     80  C   UNL A   1      45.478  27.892  34.035  1.00  0.00     0.009 A 
ATOM     81  C   UNL A   1      47.805  28.438  32.586  1.00  0.00     0.001 A 
ATOM     82  C   UNL A   1      46.682  27.275  34.382  1.00  0.00     0.001 A 
ATOM     83  C   UNL A   1      47.839  27.541  33.652  1.00  0.00     0.000 A 
ENDBRANCH  65  78
ENDBRANCH  39  40
ENDBRANCH  31  34
ENDBRANCH  29  30
ENDBRANCH  28  29
ENDBRANCH   1  28
TORSDOF 14
ENDMDL
