MODEL 1
REMARK VINA RESULT:     -12.9      0.000      0.000
REMARK SMILES Cc1cccc(-n2c(C)cc(/C=N\c3ccc(O)c(C(=O)NCCCNC(=O)c4ccc(-c5c6nc(c(-c7ccccc7)c7ccc([nH]7)c(-c7ccccc7)c7nc(c(-c8ccccc8)c8ccc5[nH]8)C=C7)C=C6)cc4)c3)c2C)c1
REMARK SMILES IDX 23 1 22 2 20 3 21 4 19 6 14 7 15 8 77 9 16 10 17 11 13 12
REMARK SMILES IDX 12 13 11 14 7 15 8 16 78 17 9 18 10 19 79 20 6 21 1 22 2 23
REMARK SMILES IDX 3 24 80 25 4 26 5 27 18 28 24 30 25 31 26 32 27 33 28 35
REMARK SMILES IDX 29 36 30 37 76 38 31 39 75 40 32 41 33 42 34 43 69 44 35 45
REMARK SMILES IDX 74 46 68 47 70 48 36 49 73 50 67 51 66 52 37 54 59 55 44 56
REMARK SMILES IDX 58 57 45 58 48 59 57 60 71 61 46 62 47 63 56 65 72 66 49 67
REMARK SMILES IDX 38 68 39 69 43 70 40 71 42 72 41 73 60 74 61 75 65 76 62 77
REMARK SMILES IDX 64 78 63 79 50 80 51 81 55 82 52 83 54 84 53 85
REMARK H PARENT 22 5 18 29 26 34 70 53 48 64
REMARK Flexibility Score: inf
ROOT
ATOM      1  C   UNL A   1      31.797  30.497  26.448  1.00  0.00     0.118 C 
ENDROOT
BRANCH   1   2
ATOM      2  N   UNL A   1      31.568  29.241  27.135  1.00  0.00    -0.352 N 
ATOM      3  C   UNL A   1      31.571  27.937  26.684  1.00  0.00     0.255 C 
ATOM      4  O   UNL A   1      31.425  27.058  27.536  1.00  0.00    -0.269 OA
ATOM      5  H   UNL A   1      31.377  29.336  28.096  1.00  0.00     0.163 HD
BRANCH   3   6
ATOM      6  C   UNL A   1      31.703  27.538  25.242  1.00  0.00     0.083 A 
ATOM      7  C   UNL A   1      30.940  26.086  23.442  1.00  0.00     0.064 A 
ATOM      8  C   UNL A   1      31.702  26.799  22.521  1.00  0.00     0.032 A 
ATOM      9  C   UNL A   1      30.808  26.573  24.753  1.00  0.00     0.046 A 
ATOM     10  C   UNL A   1      32.615  27.727  22.986  1.00  0.00     0.049 A 
ATOM     11  C   UNL A   1      32.716  27.925  24.358  1.00  0.00     0.128 A 
BRANCH   7  12
ATOM     12  N   UNL A   1      30.378  24.855  23.101  1.00  0.00    -0.256 NA
ATOM     13  C   UNL A   1      30.844  23.723  23.563  1.00  0.00     0.121 C 
BRANCH  13  14
ATOM     14  C   UNL A   1      31.952  23.424  24.487  1.00  0.00     0.014 A 
ATOM     15  N   UNL A   1      33.952  23.037  25.495  1.00  0.00    -0.318 N 
ATOM     16  C   UNL A   1      32.971  22.795  26.440  1.00  0.00     0.021 A 
ATOM     17  C   UNL A   1      33.333  23.609  24.376  1.00  0.00     0.029 A 
ATOM     18  C   UNL A   1      33.264  22.487  27.870  1.00  0.00     0.065 C 
ATOM     19  C   UNL A   1      31.746  22.981  25.830  1.00  0.00     0.033 A 
ATOM     20  C   UNL A   1      34.131  24.214  23.283  1.00  0.00     0.065 C 
BRANCH  15  21
ATOM     21  C   UNL A   1      35.338  22.700  25.616  1.00  0.00     0.046 A 
ATOM     22  C   UNL A   1      37.626  19.752  24.785  1.00  0.00     0.044 C 
ATOM     23  C   UNL A   1      37.137  21.109  25.201  1.00  0.00    -0.049 A 
ATOM     24  C   UNL A   1      38.073  22.111  25.493  1.00  0.00     0.003 A 
ATOM     25  C   UNL A   1      35.766  21.407  25.269  1.00  0.00     0.030 A 
ATOM     26  C   UNL A   1      37.651  23.376  25.890  1.00  0.00     0.002 A 
ATOM     27  C   UNL A   1      36.287  23.665  25.967  1.00  0.00     0.026 A 
ENDBRANCH  15  21
ENDBRANCH  13  14
ENDBRANCH   7  12
BRANCH  11  28
ATOM     28  O   UNL A   1      34.005  28.197  24.760  1.00  0.00    -0.507 OA
ATOM     29  H   UNL A   1      34.512  27.535  25.185  1.00  0.00     0.293 HD
ENDBRANCH  11  28
ENDBRANCH   3   6
ENDBRANCH   1   2
BRANCH   1  30
ATOM     30  C   UNL A   1      32.768  31.449  27.084  1.00  0.00     0.042 C 
BRANCH  30  31
ATOM     31  C   UNL A   1      33.993  30.801  27.667  1.00  0.00     0.118 C 
BRANCH  31  32
ATOM     32  N   UNL A   1      34.892  31.697  28.399  1.00  0.00    -0.352 N 
ATOM     33  C   UNL A   1      36.142  31.430  28.945  1.00  0.00     0.251 C 
ATOM     34  H   UNL A   1      34.564  32.617  28.523  1.00  0.00     0.163 HD
ATOM     35  O   UNL A   1      36.795  32.337  29.458  1.00  0.00    -0.269 OA
BRANCH  33  36
ATOM     36  C   UNL A   1      36.756  30.089  28.761  1.00  0.00     0.039 A 
ATOM     37  C   UNL A   1      36.942  29.291  29.892  1.00  0.00     0.014 A 
ATOM     38  C   UNL A   1      37.466  29.814  27.607  1.00  0.00     0.014 A 
ATOM     39  C   UNL A   1      38.072  28.481  29.962  1.00  0.00     0.010 A 
ATOM     40  C   UNL A   1      38.701  29.235  27.760  1.00  0.00     0.010 A 
ATOM     41  C   UNL A   1      39.025  28.596  28.957  1.00  0.00    -0.014 A 
BRANCH  41  42
ATOM     42  C   UNL A   1      40.408  28.159  29.079  1.00  0.00     0.031 A 
ATOM     43  C   UNL A   1      40.812  26.857  28.516  1.00  0.00     0.074 A 
ATOM     44  C   UNL A   1      41.342  29.001  29.571  1.00  0.00     0.049 A 
ATOM     45  N   UNL A   1      41.865  26.212  28.879  1.00  0.00    -0.248 NA
ATOM     46  C   UNL A   1      40.027  26.149  27.512  1.00  0.00     0.031 C 
ATOM     47  C   UNL A   1      42.795  28.880  29.481  1.00  0.00     0.029 A 
ATOM     48  N   UNL A   1      41.143  30.074  30.439  1.00  0.00    -0.354 N 
ATOM     49  C   UNL A   1      42.073  25.218  27.953  1.00  0.00     0.074 A 
ATOM     50  C   UNL A   1      40.854  25.156  27.185  1.00  0.00     0.031 C 
ATOM     51  C   UNL A   1      43.355  29.648  30.430  1.00  0.00     0.029 A 
ATOM     52  C   UNL A   1      42.282  30.161  31.264  1.00  0.00     0.049 A 
ATOM     53  H   UNL A   1      40.353  30.660  30.471  1.00  0.00     0.167 HD
ATOM     54  C   UNL A   1      43.310  24.659  27.849  1.00  0.00     0.031 A 
ATOM     55  C   UNL A   1      42.163  29.939  32.609  1.00  0.00     0.031 A 
ATOM     56  C   UNL A   1      44.224  25.160  28.880  1.00  0.00     0.049 A 
ATOM     57  C   UNL A   1      42.861  28.680  33.097  1.00  0.00     0.074 A 
ATOM     58  C   UNL A   1      45.311  26.019  28.882  1.00  0.00     0.029 A 
ATOM     59  N   UNL A   1      43.873  24.995  30.210  1.00  0.00    -0.354 N 
ATOM     60  N   UNL A   1      43.526  27.855  32.335  1.00  0.00    -0.248 NA
ATOM     61  C   UNL A   1      42.773  28.203  34.479  1.00  0.00     0.031 C 
ATOM     62  C   UNL A   1      45.601  26.367  30.234  1.00  0.00     0.029 A 
ATOM     63  C   UNL A   1      44.705  25.704  31.052  1.00  0.00     0.049 A 
ATOM     64  H   UNL A   1      43.121  24.439  30.518  1.00  0.00     0.167 HD
ATOM     65  C   UNL A   1      43.866  26.739  33.053  1.00  0.00     0.074 A 
ATOM     66  C   UNL A   1      43.388  27.010  34.397  1.00  0.00     0.031 C 
ATOM     67  C   UNL A   1      44.460  25.649  32.484  1.00  0.00     0.031 A 
BRANCH  54  68
ATOM     68  C   UNL A   1      43.758  23.836  26.663  1.00  0.00    -0.014 A 
ATOM     69  C   UNL A   1      43.452  22.464  26.620  1.00  0.00     0.009 A 
ATOM     70  C   UNL A   1      44.519  24.321  25.584  1.00  0.00     0.009 A 
ATOM     71  C   UNL A   1      43.951  21.620  25.619  1.00  0.00     0.001 A 
ATOM     72  C   UNL A   1      45.052  23.481  24.598  1.00  0.00     0.001 A 
ATOM     73  C   UNL A   1      44.776  22.123  24.623  1.00  0.00     0.000 A 
ENDBRANCH  54  68
BRANCH  55  74
ATOM     74  C   UNL A   1      40.881  30.472  33.157  1.00  0.00    -0.014 A 
ATOM     75  C   UNL A   1      40.703  31.872  33.183  1.00  0.00     0.009 A 
ATOM     76  C   UNL A   1      39.747  29.654  33.255  1.00  0.00     0.009 A 
ATOM     77  C   UNL A   1      39.420  32.430  33.164  1.00  0.00     0.001 A 
ATOM     78  C   UNL A   1      38.466  30.219  33.253  1.00  0.00     0.001 A 
ATOM     79  C   UNL A   1      38.303  31.602  33.164  1.00  0.00     0.000 A 
ENDBRANCH  55  74
BRANCH  67  80
ATOM     80  C   UNL A   1      44.836  24.403  33.241  1.00  0.00    -0.014 A 
ATOM     81  C   UNL A   1      43.910  23.401  33.555  1.00  0.00     0.009 A 
ATOM     82  C   UNL A   1      46.133  24.265  33.781  1.00  0.00     0.009 A 
ATOM     83  C   UNL A   1      44.278  22.288  34.324  1.00  0.00     0.001 A 
ATOM     84  C   UNL A   1      46.499  23.171  34.568  1.00  0.00     0.001 A 
ATOM     85  C   UNL A   1      45.571  22.175  34.832  1.00  0.00     0.000 A 
ENDBRANCH  67  80
ENDBRANCH  41  42
ENDBRANCH  33  36
ENDBRANCH  31  32
ENDBRANCH  30  31
ENDBRANCH   1  30
TORSDOF 14
ENDMDL
MODEL 2
REMARK VINA RESULT:     -12.7      3.148      8.790
REMARK SMILES Cc1cccc(-n2c(C)cc(/C=N\c3ccc(O)c(C(=O)NCCCNC(=O)c4ccc(-c5c6nc(c(-c7ccccc7)c7ccc([nH]7)c(-c7ccccc7)c7nc(c(-c8ccccc8)c8ccc5[nH]8)C=C7)C=C6)cc4)c3)c2C)c1
REMARK SMILES IDX 23 1 22 2 20 3 21 4 19 6 14 7 15 8 77 9 16 10 17 11 13 12
REMARK SMILES IDX 12 13 11 14 7 15 8 16 78 17 9 18 10 19 79 20 6 21 1 22 2 23
REMARK SMILES IDX 3 24 80 25 4 26 5 27 18 28 24 30 25 31 26 32 27 33 28 35
REMARK SMILES IDX 29 36 30 37 76 38 31 39 75 40 32 41 33 42 34 43 69 44 35 45
REMARK SMILES IDX 74 46 68 47 70 48 36 49 73 50 67 51 66 52 37 54 59 55 44 56
REMARK SMILES IDX 58 57 45 58 48 59 57 60 71 61 46 62 47 63 56 65 72 66 49 67
REMARK SMILES IDX 38 68 39 69 43 70 40 71 42 72 41 73 60 74 61 75 65 76 62 77
REMARK SMILES IDX 64 78 63 79 50 80 51 81 55 82 52 83 54 84 53 85
REMARK H PARENT 22 5 18 29 26 34 70 53 48 64
REMARK Flexibility Score: inf
ROOT
ATOM      1  C   UNL A   1      37.149  20.944  24.946  1.00  0.00     0.118 C 
ENDROOT
BRANCH   1   2
ATOM      2  N   UNL A   1      36.878  21.893  23.884  1.00  0.00    -0.352 N 
ATOM      3  C   UNL A   1      35.782  22.692  23.628  1.00  0.00     0.255 C 
ATOM      4  O   UNL A   1      35.879  23.473  22.680  1.00  0.00    -0.269 OA
ATOM      5  H   UNL A   1      37.607  21.985  23.229  1.00  0.00     0.163 HD
BRANCH   3   6
ATOM      6  C   UNL A   1      34.495  22.639  24.399  1.00  0.00     0.083 A 
ATOM      7  C   UNL A   1      32.062  22.726  24.330  1.00  0.00     0.064 A 
ATOM      8  C   UNL A   1      31.994  22.379  25.676  1.00  0.00     0.032 A 
ATOM      9  C   UNL A   1      33.298  22.674  23.665  1.00  0.00     0.046 A 
ATOM     10  C   UNL A   1      33.156  22.373  26.423  1.00  0.00     0.049 A 
ATOM     11  C   UNL A   1      34.351  22.694  25.790  1.00  0.00     0.128 A 
BRANCH   7  12
ATOM     12  N   UNL A   1      30.935  23.204  23.660  1.00  0.00    -0.256 NA
ATOM     13  C   UNL A   1      30.771  24.473  23.387  1.00  0.00     0.121 C 
BRANCH  13  14
ATOM     14  C   UNL A   1      31.620  25.648  23.647  1.00  0.00     0.014 A 
ATOM     15  N   UNL A   1      32.724  27.434  24.518  1.00  0.00    -0.318 N 
ATOM     16  C   UNL A   1      33.061  27.366  23.177  1.00  0.00     0.021 A 
ATOM     17  C   UNL A   1      32.009  26.272  24.835  1.00  0.00     0.029 A 
ATOM     18  C   UNL A   1      34.081  28.248  22.539  1.00  0.00     0.065 C 
ATOM     19  C   UNL A   1      32.361  26.312  22.622  1.00  0.00     0.033 A 
ATOM     20  C   UNL A   1      31.712  25.915  26.243  1.00  0.00     0.065 C 
BRANCH  15  21
ATOM     21  C   UNL A   1      33.000  28.527  25.400  1.00  0.00     0.046 A 
ATOM     22  C   UNL A   1      31.316  31.773  26.512  1.00  0.00     0.044 C 
ATOM     23  C   UNL A   1      32.268  30.616  26.418  1.00  0.00    -0.049 A 
ATOM     24  C   UNL A   1      33.303  30.507  27.357  1.00  0.00     0.003 A 
ATOM     25  C   UNL A   1      32.122  29.623  25.434  1.00  0.00     0.030 A 
ATOM     26  C   UNL A   1      34.207  29.450  27.290  1.00  0.00     0.002 A 
ATOM     27  C   UNL A   1      34.066  28.472  26.304  1.00  0.00     0.026 A 
ENDBRANCH  15  21
ENDBRANCH  13  14
ENDBRANCH   7  12
BRANCH  11  28
ATOM     28  O   UNL A   1      35.216  23.383  26.611  1.00  0.00    -0.507 OA
ATOM     29  H   UNL A   1      35.281  24.315  26.546  1.00  0.00     0.293 HD
ENDBRANCH  11  28
ENDBRANCH   3   6
ENDBRANCH   1   2
BRANCH   1  30
ATOM     30  C   UNL A   1      38.475  21.068  25.641  1.00  0.00     0.042 C 
BRANCH  30  31
ATOM     31  C   UNL A   1      38.884  22.477  25.968  1.00  0.00     0.118 C 
BRANCH  31  32
ATOM     32  N   UNL A   1      40.287  22.652  26.352  1.00  0.00    -0.352 N 
ATOM     33  C   UNL A   1      40.942  23.801  26.780  1.00  0.00     0.251 C 
ATOM     34  H   UNL A   1      40.845  21.843  26.298  1.00  0.00     0.163 HD
ATOM     35  O   UNL A   1      42.115  23.741  27.143  1.00  0.00    -0.269 OA
BRANCH  33  36
ATOM     36  C   UNL A   1      40.177  25.063  26.956  1.00  0.00     0.039 A 
ATOM     37  C   UNL A   1      40.571  26.179  26.215  1.00  0.00     0.014 A 
ATOM     38  C   UNL A   1      39.385  25.233  28.077  1.00  0.00     0.014 A 
ATOM     39  C   UNL A   1      40.475  27.439  26.797  1.00  0.00     0.010 A 
ATOM     40  C   UNL A   1      39.523  26.415  28.761  1.00  0.00     0.010 A 
ATOM     41  C   UNL A   1      40.105  27.517  28.135  1.00  0.00    -0.014 A 
BRANCH  41  42
ATOM     42  C   UNL A   1      40.352  28.667  28.993  1.00  0.00     0.031 A 
ATOM     43  C   UNL A   1      39.304  29.691  29.155  1.00  0.00     0.074 A 
ATOM     44  C   UNL A   1      41.471  28.719  29.747  1.00  0.00     0.049 A 
ATOM     45  N   UNL A   1      39.529  30.893  29.559  1.00  0.00    -0.248 NA
ATOM     46  C   UNL A   1      37.902  29.450  28.835  1.00  0.00     0.031 C 
ATOM     47  C   UNL A   1      41.748  29.599  30.880  1.00  0.00     0.029 A 
ATOM     48  N   UNL A   1      42.688  28.085  29.502  1.00  0.00    -0.354 N 
ATOM     49  C   UNL A   1      38.313  31.453  29.868  1.00  0.00     0.074 A 
ATOM     50  C   UNL A   1      37.331  30.558  29.308  1.00  0.00     0.031 C 
ATOM     51  C   UNL A   1      43.076  29.649  31.076  1.00  0.00     0.029 A 
ATOM     52  C   UNL A   1      43.706  28.935  29.979  1.00  0.00     0.049 A 
ATOM     53  H   UNL A   1      42.813  27.208  29.074  1.00  0.00     0.167 HD
ATOM     54  C   UNL A   1      38.274  32.538  30.691  1.00  0.00     0.031 A 
ATOM     55  C   UNL A   1      44.598  29.484  29.099  1.00  0.00     0.031 A 
ATOM     56  C   UNL A   1      39.618  33.016  31.026  1.00  0.00     0.049 A 
ATOM     57  C   UNL A   1      44.478  30.992  28.949  1.00  0.00     0.074 A 
ATOM     58  C   UNL A   1      40.408  32.979  32.164  1.00  0.00     0.029 A 
ATOM     59  N   UNL A   1      40.464  33.387  29.993  1.00  0.00    -0.354 N 
ATOM     60  N   UNL A   1      43.614  31.736  29.583  1.00  0.00    -0.248 NA
ATOM     61  C   UNL A   1      45.266  31.764  27.985  1.00  0.00     0.031 C 
ATOM     62  C   UNL A   1      41.740  33.330  31.793  1.00  0.00     0.029 A 
ATOM     63  C   UNL A   1      41.753  33.599  30.437  1.00  0.00     0.049 A 
ATOM     64  H   UNL A   1      40.180  33.487  29.056  1.00  0.00     0.167 HD
ATOM     65  C   UNL A   1      43.651  33.011  29.083  1.00  0.00     0.074 A 
ATOM     66  C   UNL A   1      44.714  32.985  28.094  1.00  0.00     0.031 C 
ATOM     67  C   UNL A   1      42.770  33.980  29.470  1.00  0.00     0.031 A 
BRANCH  54  68
ATOM     68  C   UNL A   1      37.018  33.017  31.383  1.00  0.00    -0.014 A 
ATOM     69  C   UNL A   1      36.798  32.672  32.728  1.00  0.00     0.009 A 
ATOM     70  C   UNL A   1      35.994  33.762  30.772  1.00  0.00     0.009 A 
ATOM     71  C   UNL A   1      35.597  32.969  33.386  1.00  0.00     0.001 A 
ATOM     72  C   UNL A   1      34.776  34.034  31.409  1.00  0.00     0.001 A 
ATOM     73  C   UNL A   1      34.574  33.625  32.718  1.00  0.00     0.000 A 
ENDBRANCH  54  68
BRANCH  55  74
ATOM     74  C   UNL A   1      44.956  28.542  27.997  1.00  0.00    -0.014 A 
ATOM     75  C   UNL A   1      45.783  27.441  28.309  1.00  0.00     0.009 A 
ATOM     76  C   UNL A   1      44.197  28.493  26.820  1.00  0.00     0.009 A 
ATOM     77  C   UNL A   1      45.740  26.273  27.541  1.00  0.00     0.001 A 
ATOM     78  C   UNL A   1      44.171  27.327  26.044  1.00  0.00     0.001 A 
ATOM     79  C   UNL A   1      44.907  26.205  26.428  1.00  0.00     0.000 A 
ENDBRANCH  55  74
BRANCH  67  80
ATOM     80  C   UNL A   1      42.775  35.387  28.932  1.00  0.00    -0.014 A 
ATOM     81  C   UNL A   1      43.268  36.474  29.664  1.00  0.00     0.009 A 
ATOM     82  C   UNL A   1      42.152  35.676  27.700  1.00  0.00     0.009 A 
ATOM     83  C   UNL A   1      43.190  37.781  29.162  1.00  0.00     0.001 A 
ATOM     84  C   UNL A   1      42.049  36.979  27.206  1.00  0.00     0.001 A 
ATOM     85  C   UNL A   1      42.579  38.033  27.935  1.00  0.00     0.000 A 
ENDBRANCH  67  80
ENDBRANCH  41  42
ENDBRANCH  33  36
ENDBRANCH  31  32
ENDBRANCH  30  31
ENDBRANCH   1  30
TORSDOF 14
ENDMDL
MODEL 3
REMARK VINA RESULT:     -12.4      1.030      1.771
REMARK SMILES Cc1cccc(-n2c(C)cc(/C=N\c3ccc(O)c(C(=O)NCCCNC(=O)c4ccc(-c5c6nc(c(-c7ccccc7)c7ccc([nH]7)c(-c7ccccc7)c7nc(c(-c8ccccc8)c8ccc5[nH]8)C=C7)C=C6)cc4)c3)c2C)c1
REMARK SMILES IDX 23 1 22 2 20 3 21 4 19 6 14 7 15 8 77 9 16 10 17 11 13 12
REMARK SMILES IDX 12 13 11 14 7 15 8 16 78 17 9 18 10 19 79 20 6 21 1 22 2 23
REMARK SMILES IDX 3 24 80 25 4 26 5 27 18 28 24 30 25 31 26 32 27 33 28 35
REMARK SMILES IDX 29 36 30 37 76 38 31 39 75 40 32 41 33 42 34 43 69 44 35 45
REMARK SMILES IDX 74 46 68 47 70 48 36 49 73 50 67 51 66 52 37 54 59 55 44 56
REMARK SMILES IDX 58 57 45 58 48 59 57 60 71 61 46 62 47 63 56 65 72 66 49 67
REMARK SMILES IDX 38 68 39 69 43 70 40 71 42 72 41 73 60 74 61 75 65 76 62 77
REMARK SMILES IDX 64 78 63 79 50 80 51 81 55 82 52 83 54 84 53 85
REMARK H PARENT 22 5 18 29 26 34 70 53 48 64
REMARK Flexibility Score: inf
ROOT
ATOM      1  C   UNL A   1      32.171  30.248  25.792  1.00  0.00     0.118 C 
ENDROOT
BRANCH   1   2
ATOM      2  N   UNL A   1      33.133  29.325  25.222  1.00  0.00    -0.352 N 
ATOM      3  C   UNL A   1      32.971  28.116  24.576  1.00  0.00     0.255 C 
ATOM      4  O   UNL A   1      33.990  27.593  24.120  1.00  0.00    -0.269 OA
ATOM      5  H   UNL A   1      34.070  29.612  25.313  1.00  0.00     0.163 HD
BRANCH   3   6
ATOM      6  C   UNL A   1      31.658  27.400  24.432  1.00  0.00     0.083 A 
ATOM      7  C   UNL A   1      29.938  26.045  25.497  1.00  0.00     0.064 A 
ATOM      8  C   UNL A   1      29.124  26.165  24.375  1.00  0.00     0.032 A 
ATOM      9  C   UNL A   1      31.113  26.811  25.584  1.00  0.00     0.046 A 
ATOM     10  C   UNL A   1      29.654  26.710  23.221  1.00  0.00     0.049 A 
ATOM     11  C   UNL A   1      30.977  27.137  23.239  1.00  0.00     0.128 A 
BRANCH   7  12
ATOM     12  N   UNL A   1      29.644  25.113  26.495  1.00  0.00    -0.256 NA
ATOM     13  C   UNL A   1      30.287  23.979  26.601  1.00  0.00     0.121 C 
BRANCH  13  14
ATOM     14  C   UNL A   1      31.394  23.404  25.819  1.00  0.00     0.014 A 
ATOM     15  N   UNL A   1      33.346  22.516  25.064  1.00  0.00    -0.318 N 
ATOM     16  C   UNL A   1      32.535  22.702  23.959  1.00  0.00     0.021 A 
ATOM     17  C   UNL A   1      32.571  22.758  26.206  1.00  0.00     0.029 A 
ATOM     18  C   UNL A   1      32.894  22.242  22.587  1.00  0.00     0.065 C 
ATOM     19  C   UNL A   1      31.361  23.285  24.395  1.00  0.00     0.033 A 
ATOM     20  C   UNL A   1      33.068  22.408  27.558  1.00  0.00     0.065 C 
BRANCH  15  21
ATOM     21  C   UNL A   1      34.742  22.199  25.039  1.00  0.00     0.046 A 
ATOM     22  C   UNL A   1      38.057  23.910  25.872  1.00  0.00     0.044 C 
ATOM     23  C   UNL A   1      37.038  22.872  25.502  1.00  0.00    -0.049 A 
ATOM     24  C   UNL A   1      37.446  21.539  25.352  1.00  0.00     0.003 A 
ATOM     25  C   UNL A   1      35.681  23.200  25.339  1.00  0.00     0.030 A 
ATOM     26  C   UNL A   1      36.525  20.556  25.001  1.00  0.00     0.002 A 
ATOM     27  C   UNL A   1      35.180  20.888  24.829  1.00  0.00     0.026 A 
ENDBRANCH  15  21
ENDBRANCH  13  14
ENDBRANCH   7  12
BRANCH  11  28
ATOM     28  O   UNL A   1      31.615  26.932  22.036  1.00  0.00    -0.507 OA
ATOM     29  H   UNL A   1      31.401  27.464  21.295  1.00  0.00     0.293 HD
ENDBRANCH  11  28
ENDBRANCH   3   6
ENDBRANCH   1   2
BRANCH   1  30
ATOM     30  C   UNL A   1      32.643  31.095  26.938  1.00  0.00     0.042 C 
BRANCH  30  31
ATOM     31  C   UNL A   1      33.857  30.568  27.650  1.00  0.00     0.118 C 
BRANCH  31  32
ATOM     32  N   UNL A   1      34.769  31.586  28.178  1.00  0.00    -0.352 N 
ATOM     33  C   UNL A   1      36.082  31.447  28.612  1.00  0.00     0.251 C 
ATOM     34  H   UNL A   1      34.399  32.497  28.235  1.00  0.00     0.163 HD
ATOM     35  O   UNL A   1      36.727  32.438  28.949  1.00  0.00    -0.269 OA
BRANCH  33  36
ATOM     36  C   UNL A   1      36.755  30.126  28.511  1.00  0.00     0.039 A 
ATOM     37  C   UNL A   1      36.853  29.348  29.667  1.00  0.00     0.014 A 
ATOM     38  C   UNL A   1      37.587  29.861  27.439  1.00  0.00     0.014 A 
ATOM     39  C   UNL A   1      37.996  28.578  29.863  1.00  0.00     0.010 A 
ATOM     40  C   UNL A   1      38.819  29.327  27.724  1.00  0.00     0.010 A 
ATOM     41  C   UNL A   1      39.041  28.713  28.958  1.00  0.00    -0.014 A 
BRANCH  41  42
ATOM     42  C   UNL A   1      40.419  28.326  29.224  1.00  0.00     0.031 A 
ATOM     43  C   UNL A   1      40.941  27.066  28.664  1.00  0.00     0.074 A 
ATOM     44  C   UNL A   1      41.251  29.182  29.854  1.00  0.00     0.049 A 
ATOM     45  N   UNL A   1      41.973  26.447  29.124  1.00  0.00    -0.248 NA
ATOM     46  C   UNL A   1      40.309  26.371  27.548  1.00  0.00     0.031 C 
ATOM     47  C   UNL A   1      42.709  29.121  29.931  1.00  0.00     0.029 A 
ATOM     48  N   UNL A   1      40.906  30.207  30.733  1.00  0.00    -0.354 N 
ATOM     49  C   UNL A   1      42.329  25.502  28.191  1.00  0.00     0.074 A 
ATOM     50  C   UNL A   1      41.212  25.427  27.284  1.00  0.00     0.031 C 
ATOM     51  C   UNL A   1      43.121  29.869  30.968  1.00  0.00     0.029 A 
ATOM     52  C   UNL A   1      41.938  30.303  31.689  1.00  0.00     0.049 A 
ATOM     53  H   UNL A   1      40.094  30.760  30.694  1.00  0.00     0.167 HD
ATOM     54  C   UNL A   1      43.594  24.997  28.212  1.00  0.00     0.031 A 
ATOM     55  C   UNL A   1      41.673  30.020  33.001  1.00  0.00     0.031 A 
ATOM     56  C   UNL A   1      44.359  25.489  29.361  1.00  0.00     0.049 A 
ATOM     57  C   UNL A   1      42.364  28.769  33.520  1.00  0.00     0.074 A 
ATOM     58  C   UNL A   1      45.400  26.389  29.524  1.00  0.00     0.029 A 
ATOM     59  N   UNL A   1      43.863  25.253  30.634  1.00  0.00    -0.354 N 
ATOM     60  N   UNL A   1      43.148  28.004  32.811  1.00  0.00    -0.248 NA
ATOM     61  C   UNL A   1      42.138  28.230  34.863  1.00  0.00     0.031 C 
ATOM     62  C   UNL A   1      45.516  26.689  30.914  1.00  0.00     0.029 A 
ATOM     63  C   UNL A   1      44.561  25.958  31.594  1.00  0.00     0.049 A 
ATOM     64  H   UNL A   1      43.106  24.655  30.830  1.00  0.00     0.167 HD
ATOM     65  C   UNL A   1      43.451  26.872  33.521  1.00  0.00     0.074 A 
ATOM     66  C   UNL A   1      42.809  27.066  34.809  1.00  0.00     0.031 C 
ATOM     67  C   UNL A   1      44.154  25.832  32.985  1.00  0.00     0.031 A 
BRANCH  54  68
ATOM     68  C   UNL A   1      44.212  24.244  27.056  1.00  0.00    -0.014 A 
ATOM     69  C   UNL A   1      44.046  24.732  25.748  1.00  0.00     0.009 A 
ATOM     70  C   UNL A   1      44.921  23.035  27.168  1.00  0.00     0.009 A 
ATOM     71  C   UNL A   1      44.476  24.013  24.624  1.00  0.00     0.001 A 
ATOM     72  C   UNL A   1      45.324  22.291  26.051  1.00  0.00     0.001 A 
ATOM     73  C   UNL A   1      45.091  22.778  24.774  1.00  0.00     0.000 A 
ENDBRANCH  54  68
BRANCH  55  74
ATOM     74  C   UNL A   1      40.314  30.479  33.415  1.00  0.00    -0.014 A 
ATOM     75  C   UNL A   1      40.066  31.867  33.450  1.00  0.00     0.009 A 
ATOM     76  C   UNL A   1      39.218  29.606  33.370  1.00  0.00     0.009 A 
ATOM     77  C   UNL A   1      38.767  32.366  33.300  1.00  0.00     0.001 A 
ATOM     78  C   UNL A   1      37.918  30.111  33.238  1.00  0.00     0.001 A 
ATOM     79  C   UNL A   1      37.699  31.487  33.159  1.00  0.00     0.000 A 
ENDBRANCH  55  74
BRANCH  67  80
ATOM     80  C   UNL A   1      44.494  24.570  33.733  1.00  0.00    -0.014 A 
ATOM     81  C   UNL A   1      43.735  23.398  33.621  1.00  0.00     0.009 A 
ATOM     82  C   UNL A   1      45.533  24.570  34.687  1.00  0.00     0.009 A 
ATOM     83  C   UNL A   1      44.037  22.264  34.388  1.00  0.00     0.001 A 
ATOM     84  C   UNL A   1      45.823  23.450  35.471  1.00  0.00     0.001 A 
ATOM     85  C   UNL A   1      45.079  22.291  35.313  1.00  0.00     0.000 A 
ENDBRANCH  67  80
ENDBRANCH  41  42
ENDBRANCH  33  36
ENDBRANCH  31  32
ENDBRANCH  30  31
ENDBRANCH   1  30
TORSDOF 14
ENDMDL
