MODEL 1
REMARK VINA RESULT:      -9.5      0.000      0.000
REMARK SMILES COc1ccc(NS(=O)(=O)c2ccc(NC(=O)[C@H]3CCCC[C@@H]3C(=O)NCCCNC(=O)c3ccc(-c4c5nc(c(-c6ccccc6)c6ccc([nH]6)c(-c6ccccc6)c6nc(c(-c7ccccc7)c7ccc4[nH]7)C=C6)C=C5)cc3)cc2)cc1
REMARK SMILES IDX 24 1 25 2 26 3 23 5 18 6 19 7 20 8 22 9 21 10 16 11 15 12
REMARK SMILES IDX 17 14 14 15 11 16 12 17 82 18 13 19 81 20 8 21 9 22 10 23
REMARK SMILES IDX 7 24 6 26 3 27 4 28 84 29 5 30 83 31 2 32 1 33 27 34 28 35
REMARK SMILES IDX 29 36 30 37 31 38 32 40 33 41 34 42 80 43 35 44 79 45 36 46
REMARK SMILES IDX 37 47 38 48 73 49 39 50 78 51 72 52 74 53 40 54 77 55 71 56
REMARK SMILES IDX 70 57 41 59 63 60 48 61 62 62 49 63 52 64 61 65 75 66 50 67
REMARK SMILES IDX 51 68 60 70 76 71 53 72 42 73 43 74 47 75 44 76 46 77 45 78
REMARK SMILES IDX 64 79 65 80 69 81 66 82 68 83 67 84 54 85 55 86 59 87 56 88
REMARK SMILES IDX 58 89 57 90
REMARK H PARENT 26 4 15 13 7 25 30 39 74 58 52 69
REMARK Flexibility Score: inf
ROOT
ATOM      1  C   UNL A   1      37.385  33.742  31.230  1.00  0.00     0.223 C 
ATOM      2  O   UNL A   1      38.358  33.971  30.513  1.00  0.00    -0.275 OA
ATOM      3  N   UNL A   1      36.978  34.741  32.069  1.00  0.00    -0.356 N 
ATOM      4  H   UNL A   1      37.597  35.504  32.136  1.00  0.00     0.163 HD
ENDROOT
BRANCH   1   5
ATOM      5  C   UNL A   1      36.634  32.407  31.221  1.00  0.00     0.091 C 
ATOM      6  C   UNL A   1      37.395  31.345  30.404  1.00  0.00     0.091 C 
ATOM      7  C   UNL A   1      37.257  31.728  28.903  1.00  0.00     0.014 C 
ATOM      8  C   UNL A   1      35.793  31.792  28.462  1.00  0.00     0.001 C 
ATOM      9  C   UNL A   1      35.170  32.560  30.788  1.00  0.00     0.014 C 
ATOM     10  C   UNL A   1      34.989  32.783  29.293  1.00  0.00     0.001 C 
BRANCH   6  11
ATOM     11  C   UNL A   1      37.150  29.809  30.504  1.00  0.00     0.228 C 
ATOM     12  N   UNL A   1      37.949  28.795  30.082  1.00  0.00    -0.326 N 
ATOM     13  H   UNL A   1      37.751  27.939  30.526  1.00  0.00     0.169 HD
ATOM     14  O   UNL A   1      36.126  29.423  31.096  1.00  0.00    -0.274 OA
BRANCH  12  15
ATOM     15  C   UNL A   1      38.986  28.700  29.157  1.00  0.00     0.041 A 
ATOM     16  C   UNL A   1      40.937  28.241  27.204  1.00  0.00     0.087 A 
ATOM     17  C   UNL A   1      41.126  27.820  28.514  1.00  0.00     0.024 A 
ATOM     18  C   UNL A   1      39.776  28.952  26.879  1.00  0.00     0.024 A 
ATOM     19  C   UNL A   1      40.218  28.187  29.499  1.00  0.00     0.027 A 
ATOM     20  C   UNL A   1      38.790  29.162  27.854  1.00  0.00     0.027 A 
BRANCH  16  21
ATOM     21  S   UNL A   1      42.180  28.034  25.939  1.00  0.00     0.261 S 
ATOM     22  O   UNL A   1      42.280  29.309  25.255  1.00  0.00    -0.201 OA
ATOM     23  O   UNL A   1      41.834  26.824  25.231  1.00  0.00    -0.201 OA
BRANCH  21  24
ATOM     24  N   UNL A   1      43.661  27.713  26.667  1.00  0.00    -0.280 N 
ATOM     25  H   UNL A   1      44.092  28.446  27.164  1.00  0.00     0.180 HD
BRANCH  24  26
ATOM     26  C   UNL A   1      44.338  26.462  26.620  1.00  0.00     0.049 A 
ATOM     27  C   UNL A   1      45.036  23.803  26.122  1.00  0.00     0.119 A 
ATOM     28  C   UNL A   1      44.615  24.185  27.394  1.00  0.00     0.048 A 
ATOM     29  C   UNL A   1      45.246  24.781  25.150  1.00  0.00     0.048 A 
ATOM     30  C   UNL A   1      44.307  25.527  27.657  1.00  0.00     0.030 A 
ATOM     31  C   UNL A   1      44.907  26.110  25.396  1.00  0.00     0.030 A 
BRANCH  27  32
ATOM     32  O   UNL A   1      45.164  22.518  25.684  1.00  0.00    -0.497 OA
ATOM     33  C   UNL A   1      45.282  22.330  24.283  1.00  0.00     0.278 C 
ENDBRANCH  27  32
ENDBRANCH  24  26
ENDBRANCH  21  24
ENDBRANCH  16  21
ENDBRANCH  12  15
ENDBRANCH   6  11
ENDBRANCH   1   5
BRANCH   3  34
ATOM     34  C   UNL A   1      35.773  34.854  32.880  1.00  0.00     0.117 C 
BRANCH  34  35
ATOM     35  C   UNL A   1      35.855  34.053  34.174  1.00  0.00     0.042 C 
BRANCH  35  36
ATOM     36  C   UNL A   1      37.223  34.095  34.849  1.00  0.00     0.118 C 
BRANCH  36  37
ATOM     37  N   UNL A   1      37.335  33.243  36.024  1.00  0.00    -0.352 N 
ATOM     38  C   UNL A   1      38.099  32.120  36.260  1.00  0.00     0.251 C 
ATOM     39  H   UNL A   1      36.768  33.515  36.781  1.00  0.00     0.163 HD
ATOM     40  O   UNL A   1      38.005  31.516  37.325  1.00  0.00    -0.269 OA
BRANCH  38  41
ATOM     41  C   UNL A   1      39.033  31.621  35.232  1.00  0.00     0.039 A 
ATOM     42  C   UNL A   1      40.395  31.941  35.312  1.00  0.00     0.014 A 
ATOM     43  C   UNL A   1      38.558  30.864  34.167  1.00  0.00     0.014 A 
ATOM     44  C   UNL A   1      41.293  31.419  34.374  1.00  0.00     0.010 A 
ATOM     45  C   UNL A   1      39.455  30.272  33.293  1.00  0.00     0.010 A 
ATOM     46  C   UNL A   1      40.830  30.550  33.379  1.00  0.00    -0.014 A 
BRANCH  46  47
ATOM     47  C   UNL A   1      41.688  29.959  32.324  1.00  0.00     0.031 A 
ATOM     48  C   UNL A   1      42.335  28.635  32.618  1.00  0.00     0.074 A 
ATOM     49  C   UNL A   1      42.034  30.661  31.230  1.00  0.00     0.049 A 
ATOM     50  N   UNL A   1      43.431  28.119  32.132  1.00  0.00    -0.248 NA
ATOM     51  C   UNL A   1      41.688  27.820  33.661  1.00  0.00     0.031 C 
ATOM     52  C   UNL A   1      41.469  31.944  30.816  1.00  0.00     0.029 A 
ATOM     53  N   UNL A   1      42.999  30.400  30.289  1.00  0.00    -0.354 N 
ATOM     54  C   UNL A   1      43.652  26.962  32.869  1.00  0.00     0.074 A 
ATOM     55  C   UNL A   1      42.582  26.859  33.837  1.00  0.00     0.031 C 
ATOM     56  C   UNL A   1      42.102  32.364  29.707  1.00  0.00     0.029 A 
ATOM     57  C   UNL A   1      43.161  31.415  29.378  1.00  0.00     0.049 A 
ATOM     58  H   UNL A   1      43.523  29.567  30.269  1.00  0.00     0.167 HD
ATOM     59  C   UNL A   1      44.666  26.074  32.752  1.00  0.00     0.031 A 
ATOM     60  C   UNL A   1      44.091  31.577  28.417  1.00  0.00     0.031 A 
ATOM     61  C   UNL A   1      45.691  26.164  31.750  1.00  0.00     0.049 A 
ATOM     62  C   UNL A   1      45.184  30.552  28.273  1.00  0.00     0.074 A 
ATOM     63  C   UNL A   1      46.753  25.310  31.517  1.00  0.00     0.029 A 
ATOM     64  N   UNL A   1      45.754  27.161  30.789  1.00  0.00    -0.354 N 
ATOM     65  N   UNL A   1      45.415  29.484  28.999  1.00  0.00    -0.248 NA
ATOM     66  C   UNL A   1      46.146  30.758  27.182  1.00  0.00     0.031 C 
ATOM     67  C   UNL A   1      47.464  25.793  30.414  1.00  0.00     0.029 A 
ATOM     68  C   UNL A   1      46.823  26.929  29.944  1.00  0.00     0.049 A 
ATOM     69  H   UNL A   1      45.131  27.920  30.719  1.00  0.00     0.167 HD
ATOM     70  C   UNL A   1      46.523  28.872  28.427  1.00  0.00     0.074 A 
ATOM     71  C   UNL A   1      46.918  29.687  27.298  1.00  0.00     0.031 C 
ATOM     72  C   UNL A   1      47.160  27.737  28.803  1.00  0.00     0.031 A 
BRANCH  59  73
ATOM     73  C   UNL A   1      44.712  24.945  33.741  1.00  0.00    -0.014 A 
ATOM     74  C   UNL A   1      44.163  23.689  33.438  1.00  0.00     0.009 A 
ATOM     75  C   UNL A   1      45.317  25.138  34.992  1.00  0.00     0.009 A 
ATOM     76  C   UNL A   1      44.181  22.663  34.384  1.00  0.00     0.001 A 
ATOM     77  C   UNL A   1      45.360  24.101  35.926  1.00  0.00     0.001 A 
ATOM     78  C   UNL A   1      44.783  22.868  35.625  1.00  0.00     0.000 A 
ENDBRANCH  59  73
BRANCH  60  79
ATOM     79  C   UNL A   1      44.041  32.756  27.513  1.00  0.00    -0.014 A 
ATOM     80  C   UNL A   1      43.780  32.579  26.146  1.00  0.00     0.009 A 
ATOM     81  C   UNL A   1      44.278  34.052  27.996  1.00  0.00     0.009 A 
ATOM     82  C   UNL A   1      43.786  33.671  25.274  1.00  0.00     0.001 A 
ATOM     83  C   UNL A   1      44.257  35.145  27.127  1.00  0.00     0.001 A 
ATOM     84  C   UNL A   1      44.022  34.953  25.766  1.00  0.00     0.000 A 
ENDBRANCH  60  79
BRANCH  72  85
ATOM     85  C   UNL A   1      48.288  27.261  27.937  1.00  0.00    -0.014 A 
ATOM     86  C   UNL A   1      49.610  27.662  28.173  1.00  0.00     0.009 A 
ATOM     87  C   UNL A   1      48.022  26.338  26.913  1.00  0.00     0.009 A 
ATOM     88  C   UNL A   1      50.647  27.158  27.385  1.00  0.00     0.001 A 
ATOM     89  C   UNL A   1      49.061  25.822  26.141  1.00  0.00     0.001 A 
ATOM     90  C   UNL A   1      50.371  26.236  26.375  1.00  0.00     0.000 A 
ENDBRANCH  72  85
ENDBRANCH  46  47
ENDBRANCH  38  41
ENDBRANCH  36  37
ENDBRANCH  35  36
ENDBRANCH  34  35
ENDBRANCH   3  34
TORSDOF 16
ENDMDL
MODEL 2
REMARK VINA RESULT:      -9.1      2.500     10.979
REMARK SMILES COc1ccc(NS(=O)(=O)c2ccc(NC(=O)[C@H]3CCCC[C@@H]3C(=O)NCCCNC(=O)c3ccc(-c4c5nc(c(-c6ccccc6)c6ccc([nH]6)c(-c6ccccc6)c6nc(c(-c7ccccc7)c7ccc4[nH]7)C=C6)C=C5)cc3)cc2)cc1
REMARK SMILES IDX 24 1 25 2 26 3 23 5 18 6 19 7 20 8 22 9 21 10 16 11 15 12
REMARK SMILES IDX 17 14 14 15 11 16 12 17 82 18 13 19 81 20 8 21 9 22 10 23
REMARK SMILES IDX 7 24 6 26 3 27 4 28 84 29 5 30 83 31 2 32 1 33 27 34 28 35
REMARK SMILES IDX 29 36 30 37 31 38 32 40 33 41 34 42 80 43 35 44 79 45 36 46
REMARK SMILES IDX 37 47 38 48 73 49 39 50 78 51 72 52 74 53 40 54 77 55 71 56
REMARK SMILES IDX 70 57 41 59 63 60 48 61 62 62 49 63 52 64 61 65 75 66 50 67
REMARK SMILES IDX 51 68 60 70 76 71 53 72 42 73 43 74 47 75 44 76 46 77 45 78
REMARK SMILES IDX 64 79 65 80 69 81 66 82 68 83 67 84 54 85 55 86 59 87 56 88
REMARK SMILES IDX 58 89 57 90
REMARK H PARENT 26 4 15 13 7 25 30 39 74 58 52 69
REMARK Flexibility Score: inf
ROOT
ATOM      1  C   UNL A   1      43.971  23.448  28.093  1.00  0.00     0.223 C 
ATOM      2  O   UNL A   1      43.456  22.522  28.718  1.00  0.00    -0.275 OA
ATOM      3  N   UNL A   1      45.201  23.875  28.509  1.00  0.00    -0.356 N 
ATOM      4  H   UNL A   1      45.498  23.504  29.372  1.00  0.00     0.163 HD
ENDROOT
BRANCH   1   5
ATOM      5  C   UNL A   1      43.299  24.128  26.896  1.00  0.00     0.091 C 
ATOM      6  C   UNL A   1      42.103  24.991  27.346  1.00  0.00     0.091 C 
ATOM      7  C   UNL A   1      40.962  24.020  27.765  1.00  0.00     0.014 C 
ATOM      8  C   UNL A   1      40.551  23.093  26.620  1.00  0.00     0.001 C 
ATOM      9  C   UNL A   1      42.936  23.135  25.784  1.00  0.00     0.014 C 
ATOM     10  C   UNL A   1      41.722  22.272  26.100  1.00  0.00     0.001 C 
BRANCH   6  11
ATOM     11  C   UNL A   1      41.449  26.113  26.483  1.00  0.00     0.228 C 
ATOM     12  N   UNL A   1      40.827  27.246  26.901  1.00  0.00    -0.326 N 
ATOM     13  H   UNL A   1      40.784  27.940  26.203  1.00  0.00     0.169 HD
ATOM     14  O   UNL A   1      41.543  26.022  25.247  1.00  0.00    -0.274 OA
BRANCH  12  15
ATOM     15  C   UNL A   1      40.237  27.642  28.098  1.00  0.00     0.041 A 
ATOM     16  C   UNL A   1      39.300  28.311  30.649  1.00  0.00     0.087 A 
ATOM     17  C   UNL A   1      38.915  27.127  30.036  1.00  0.00     0.024 A 
ATOM     18  C   UNL A   1      40.124  29.202  29.951  1.00  0.00     0.024 A 
ATOM     19  C   UNL A   1      39.267  26.881  28.714  1.00  0.00     0.027 A 
ATOM     20  C   UNL A   1      40.609  28.854  28.682  1.00  0.00     0.027 A 
BRANCH  16  21
ATOM     21  S   UNL A   1      38.675  28.816  32.243  1.00  0.00     0.261 S 
ATOM     22  O   UNL A   1      39.123  27.815  33.192  1.00  0.00    -0.201 OA
ATOM     23  O   UNL A   1      37.272  29.099  32.053  1.00  0.00    -0.201 OA
BRANCH  21  24
ATOM     24  N   UNL A   1      39.370  30.287  32.668  1.00  0.00    -0.280 N 
ATOM     25  H   UNL A   1      40.252  30.264  33.103  1.00  0.00     0.180 HD
BRANCH  24  26
ATOM     26  C   UNL A   1      38.779  31.562  32.444  1.00  0.00     0.049 A 
ATOM     27  C   UNL A   1      36.984  33.631  31.894  1.00  0.00     0.119 A 
ATOM     28  C   UNL A   1      37.926  33.255  30.939  1.00  0.00     0.048 A 
ATOM     29  C   UNL A   1      37.044  33.070  33.170  1.00  0.00     0.048 A 
ATOM     30  C   UNL A   1      38.856  32.247  31.230  1.00  0.00     0.030 A 
ATOM     31  C   UNL A   1      37.943  32.044  33.452  1.00  0.00     0.030 A 
BRANCH  27  32
ATOM     32  O   UNL A   1      35.907  34.438  31.669  1.00  0.00    -0.497 OA
ATOM     33  C   UNL A   1      34.659  33.795  31.468  1.00  0.00     0.278 C 
ENDBRANCH  27  32
ENDBRANCH  24  26
ENDBRANCH  21  24
ENDBRANCH  16  21
ENDBRANCH  12  15
ENDBRANCH   6  11
ENDBRANCH   1   5
BRANCH   3  34
ATOM     34  C   UNL A   1      46.140  24.792  27.878  1.00  0.00     0.117 C 
BRANCH  34  35
ATOM     35  C   UNL A   1      46.821  24.190  26.654  1.00  0.00     0.042 C 
BRANCH  35  36
ATOM     36  C   UNL A   1      46.391  24.812  25.330  1.00  0.00     0.118 C 
BRANCH  36  37
ATOM     37  N   UNL A   1      47.246  25.898  24.874  1.00  0.00    -0.352 N 
ATOM     38  C   UNL A   1      47.343  27.210  25.286  1.00  0.00     0.251 C 
ATOM     39  H   UNL A   1      47.861  25.655  24.144  1.00  0.00     0.163 HD
ATOM     40  O   UNL A   1      48.112  27.984  24.723  1.00  0.00    -0.269 OA
BRANCH  38  41
ATOM     41  C   UNL A   1      46.515  27.707  26.402  1.00  0.00     0.039 A 
ATOM     42  C   UNL A   1      47.129  28.210  27.557  1.00  0.00     0.014 A 
ATOM     43  C   UNL A   1      45.128  27.642  26.325  1.00  0.00     0.014 A 
ATOM     44  C   UNL A   1      46.349  28.738  28.592  1.00  0.00     0.010 A 
ATOM     45  C   UNL A   1      44.358  28.247  27.304  1.00  0.00     0.010 A 
ATOM     46  C   UNL A   1      44.957  28.792  28.453  1.00  0.00    -0.014 A 
BRANCH  46  47
ATOM     47  C   UNL A   1      44.035  29.308  29.493  1.00  0.00     0.031 A 
ATOM     48  C   UNL A   1      43.632  30.753  29.406  1.00  0.00     0.074 A 
ATOM     49  C   UNL A   1      43.726  28.577  30.578  1.00  0.00     0.049 A 
ATOM     50  N   UNL A   1      43.248  31.568  30.351  1.00  0.00    -0.248 NA
ATOM     51  C   UNL A   1      43.755  31.377  28.077  1.00  0.00     0.031 C 
ATOM     52  C   UNL A   1      44.035  27.162  30.780  1.00  0.00     0.029 A 
ATOM     53  N   UNL A   1      43.117  28.957  31.749  1.00  0.00    -0.354 N 
ATOM     54  C   UNL A   1      43.166  32.817  29.749  1.00  0.00     0.074 A 
ATOM     55  C   UNL A   1      43.547  32.654  28.364  1.00  0.00     0.031 C 
ATOM     56  C   UNL A   1      43.621  26.793  32.004  1.00  0.00     0.029 A 
ATOM     57  C   UNL A   1      43.085  27.962  32.695  1.00  0.00     0.049 A 
ATOM     58  H   UNL A   1      42.741  29.854  31.895  1.00  0.00     0.167 HD
ATOM     59  C   UNL A   1      42.813  33.998  30.311  1.00  0.00     0.031 A 
ATOM     60  C   UNL A   1      42.706  28.006  33.987  1.00  0.00     0.031 A 
ATOM     61  C   UNL A   1      42.386  34.132  31.675  1.00  0.00     0.049 A 
ATOM     62  C   UNL A   1      42.272  29.320  34.580  1.00  0.00     0.074 A 
ATOM     63  C   UNL A   1      41.979  35.270  32.347  1.00  0.00     0.029 A 
ATOM     64  N   UNL A   1      42.278  33.075  32.566  1.00  0.00    -0.354 N 
ATOM     65  N   UNL A   1      42.238  30.507  34.021  1.00  0.00    -0.248 NA
ATOM     66  C   UNL A   1      41.831  29.302  35.982  1.00  0.00     0.031 C 
ATOM     67  C   UNL A   1      41.629  34.902  33.651  1.00  0.00     0.029 A 
ATOM     68  C   UNL A   1      41.787  33.530  33.775  1.00  0.00     0.049 A 
ATOM     69  H   UNL A   1      42.517  32.141  32.367  1.00  0.00     0.167 HD
ATOM     70  C   UNL A   1      41.735  31.366  34.991  1.00  0.00     0.074 A 
ATOM     71  C   UNL A   1      41.479  30.566  36.169  1.00  0.00     0.031 C 
ATOM     72  C   UNL A   1      41.504  32.698  34.914  1.00  0.00     0.031 A 
BRANCH  59  73
ATOM     73  C   UNL A   1      42.891  35.223  29.448  1.00  0.00    -0.014 A 
ATOM     74  C   UNL A   1      41.799  35.634  28.666  1.00  0.00     0.009 A 
ATOM     75  C   UNL A   1      44.071  35.981  29.419  1.00  0.00     0.009 A 
ATOM     76  C   UNL A   1      41.903  36.754  27.841  1.00  0.00     0.001 A 
ATOM     77  C   UNL A   1      44.162  37.119  28.614  1.00  0.00     0.001 A 
ATOM     78  C   UNL A   1      43.082  37.498  27.819  1.00  0.00     0.000 A 
ENDBRANCH  59  73
BRANCH  60  79
ATOM     79  C   UNL A   1      42.721  26.775  34.819  1.00  0.00    -0.014 A 
ATOM     80  C   UNL A   1      41.548  26.023  34.977  1.00  0.00     0.009 A 
ATOM     81  C   UNL A   1      43.889  26.357  35.475  1.00  0.00     0.009 A 
ATOM     82  C   UNL A   1      41.533  24.894  35.801  1.00  0.00     0.001 A 
ATOM     83  C   UNL A   1      43.878  25.213  36.277  1.00  0.00     0.001 A 
ATOM     84  C   UNL A   1      42.698  24.489  36.448  1.00  0.00     0.000 A 
ENDBRANCH  60  79
BRANCH  72  85
ATOM     85  C   UNL A   1      40.866  33.356  36.100  1.00  0.00    -0.014 A 
ATOM     86  C   UNL A   1      41.637  33.881  37.147  1.00  0.00     0.009 A 
ATOM     87  C   UNL A   1      39.471  33.514  36.128  1.00  0.00     0.009 A 
ATOM     88  C   UNL A   1      41.017  34.539  38.212  1.00  0.00     0.001 A 
ATOM     89  C   UNL A   1      38.858  34.188  37.182  1.00  0.00     0.001 A 
ATOM     90  C   UNL A   1      39.631  34.696  38.225  1.00  0.00     0.000 A 
ENDBRANCH  72  85
ENDBRANCH  46  47
ENDBRANCH  38  41
ENDBRANCH  36  37
ENDBRANCH  35  36
ENDBRANCH  34  35
ENDBRANCH   3  34
TORSDOF 16
ENDMDL
MODEL 3
REMARK VINA RESULT:      -8.9      4.724      9.970
REMARK SMILES COc1ccc(NS(=O)(=O)c2ccc(NC(=O)[C@H]3CCCC[C@@H]3C(=O)NCCCNC(=O)c3ccc(-c4c5nc(c(-c6ccccc6)c6ccc([nH]6)c(-c6ccccc6)c6nc(c(-c7ccccc7)c7ccc4[nH]7)C=C6)C=C5)cc3)cc2)cc1
REMARK SMILES IDX 24 1 25 2 26 3 23 5 18 6 19 7 20 8 22 9 21 10 16 11 15 12
REMARK SMILES IDX 17 14 14 15 11 16 12 17 82 18 13 19 81 20 8 21 9 22 10 23
REMARK SMILES IDX 7 24 6 26 3 27 4 28 84 29 5 30 83 31 2 32 1 33 27 34 28 35
REMARK SMILES IDX 29 36 30 37 31 38 32 40 33 41 34 42 80 43 35 44 79 45 36 46
REMARK SMILES IDX 37 47 38 48 73 49 39 50 78 51 72 52 74 53 40 54 77 55 71 56
REMARK SMILES IDX 70 57 41 59 63 60 48 61 62 62 49 63 52 64 61 65 75 66 50 67
REMARK SMILES IDX 51 68 60 70 76 71 53 72 42 73 43 74 47 75 44 76 46 77 45 78
REMARK SMILES IDX 64 79 65 80 69 81 66 82 68 83 67 84 54 85 55 86 59 87 56 88
REMARK SMILES IDX 58 89 57 90
REMARK H PARENT 26 4 15 13 7 25 30 39 74 58 52 69
REMARK Flexibility Score: inf
ROOT
ATOM      1  C   UNL A   1      44.531  26.850  25.496  1.00  0.00     0.223 C 
ATOM      2  O   UNL A   1      44.790  27.784  24.739  1.00  0.00    -0.275 OA
ATOM      3  N   UNL A   1      44.927  25.601  25.106  1.00  0.00    -0.356 N 
ATOM      4  H   UNL A   1      45.249  25.540  24.177  1.00  0.00     0.163 HD
ENDROOT
BRANCH   1   5
ATOM      5  C   UNL A   1      43.793  27.030  26.827  1.00  0.00     0.091 C 
ATOM      6  C   UNL A   1      42.460  26.256  26.833  1.00  0.00     0.091 C 
ATOM      7  C   UNL A   1      41.480  27.013  25.892  1.00  0.00     0.014 C 
ATOM      8  C   UNL A   1      41.260  28.459  26.340  1.00  0.00     0.001 C 
ATOM      9  C   UNL A   1      43.631  28.505  27.214  1.00  0.00     0.014 C 
ATOM     10  C   UNL A   1      42.565  29.239  26.412  1.00  0.00     0.001 C 
BRANCH   6  11
ATOM     11  C   UNL A   1      41.660  25.886  28.119  1.00  0.00     0.228 C 
ATOM     12  N   UNL A   1      40.798  24.853  28.311  1.00  0.00    -0.326 N 
ATOM     13  H   UNL A   1      40.668  24.634  29.262  1.00  0.00     0.169 HD
ATOM     14  O   UNL A   1      41.855  26.568  29.140  1.00  0.00    -0.274 OA
BRANCH  12  15
ATOM     15  C   UNL A   1      40.059  24.037  27.459  1.00  0.00     0.041 A 
ATOM     16  C   UNL A   1      38.403  22.318  25.998  1.00  0.00     0.087 A 
ATOM     17  C   UNL A   1      39.605  21.870  26.528  1.00  0.00     0.024 A 
ATOM     18  C   UNL A   1      38.049  23.663  26.155  1.00  0.00     0.024 A 
ATOM     19  C   UNL A   1      40.483  22.770  27.119  1.00  0.00     0.027 A 
ATOM     20  C   UNL A   1      38.871  24.517  26.905  1.00  0.00     0.027 A 
BRANCH  16  21
ATOM     21  S   UNL A   1      37.346  21.281  25.000  1.00  0.00     0.261 S 
ATOM     22  O   UNL A   1      38.005  19.992  24.912  1.00  0.00    -0.201 OA
ATOM     23  O   UNL A   1      37.031  22.049  23.818  1.00  0.00    -0.201 OA
BRANCH  21  24
ATOM     24  N   UNL A   1      35.879  21.064  25.792  1.00  0.00    -0.280 N 
ATOM     25  H   UNL A   1      35.837  20.373  26.492  1.00  0.00     0.180 HD
BRANCH  24  26
ATOM     26  C   UNL A   1      34.693  21.805  25.527  1.00  0.00     0.049 A 
ATOM     27  C   UNL A   1      32.786  23.512  24.406  1.00  0.00     0.119 A 
ATOM     28  C   UNL A   1      33.450  23.881  25.574  1.00  0.00     0.048 A 
ATOM     29  C   UNL A   1      32.974  22.229  23.891  1.00  0.00     0.048 A 
ATOM     30  C   UNL A   1      34.374  23.007  26.162  1.00  0.00     0.030 A 
ATOM     31  C   UNL A   1      33.917  21.371  24.451  1.00  0.00     0.030 A 
BRANCH  27  32
ATOM     32  O   UNL A   1      32.031  24.341  23.629  1.00  0.00    -0.497 OA
ATOM     33  C   UNL A   1      30.667  23.990  23.462  1.00  0.00     0.278 C 
ENDBRANCH  27  32
ENDBRANCH  24  26
ENDBRANCH  21  24
ENDBRANCH  16  21
ENDBRANCH  12  15
ENDBRANCH   6  11
ENDBRANCH   1   5
BRANCH   3  34
ATOM     34  C   UNL A   1      44.947  24.348  25.847  1.00  0.00     0.117 C 
BRANCH  34  35
ATOM     35  C   UNL A   1      46.351  23.940  26.279  1.00  0.00     0.042 C 
BRANCH  35  36
ATOM     36  C   UNL A   1      46.768  24.483  27.642  1.00  0.00     0.118 C 
BRANCH  36  37
ATOM     37  N   UNL A   1      48.207  24.492  27.867  1.00  0.00    -0.352 N 
ATOM     38  C   UNL A   1      49.082  25.532  28.098  1.00  0.00     0.251 C 
ATOM     39  H   UNL A   1      48.627  23.602  27.851  1.00  0.00     0.163 HD
ATOM     40  O   UNL A   1      50.285  25.317  28.217  1.00  0.00    -0.269 OA
BRANCH  38  41
ATOM     41  C   UNL A   1      48.587  26.919  28.195  1.00  0.00     0.039 A 
ATOM     42  C   UNL A   1      47.846  27.470  27.141  1.00  0.00     0.014 A 
ATOM     43  C   UNL A   1      48.888  27.690  29.312  1.00  0.00     0.014 A 
ATOM     44  C   UNL A   1      47.324  28.764  27.255  1.00  0.00     0.010 A 
ATOM     45  C   UNL A   1      48.295  28.932  29.467  1.00  0.00     0.010 A 
ATOM     46  C   UNL A   1      47.517  29.489  28.437  1.00  0.00    -0.014 A 
BRANCH  46  47
ATOM     47  C   UNL A   1      47.028  30.871  28.656  1.00  0.00     0.031 A 
ATOM     48  C   UNL A   1      45.664  31.036  29.264  1.00  0.00     0.074 A 
ATOM     49  C   UNL A   1      47.685  31.932  28.155  1.00  0.00     0.049 A 
ATOM     50  N   UNL A   1      44.820  32.026  29.157  1.00  0.00    -0.248 NA
ATOM     51  C   UNL A   1      45.160  29.887  30.037  1.00  0.00     0.031 C 
ATOM     52  C   UNL A   1      49.021  31.915  27.561  1.00  0.00     0.029 A 
ATOM     53  N   UNL A   1      47.278  33.237  28.027  1.00  0.00    -0.354 N 
ATOM     54  C   UNL A   1      43.656  31.586  29.775  1.00  0.00     0.074 A 
ATOM     55  C   UNL A   1      43.901  30.240  30.245  1.00  0.00     0.031 C 
ATOM     56  C   UNL A   1      49.321  33.150  27.122  1.00  0.00     0.029 A 
ATOM     57  C   UNL A   1      48.172  34.023  27.342  1.00  0.00     0.049 A 
ATOM     58  H   UNL A   1      46.428  33.575  28.389  1.00  0.00     0.167 HD
ATOM     59  C   UNL A   1      42.483  32.246  29.924  1.00  0.00     0.031 A 
ATOM     60  C   UNL A   1      48.054  35.291  26.904  1.00  0.00     0.031 A 
ATOM     61  C   UNL A   1      42.275  33.601  29.498  1.00  0.00     0.049 A 
ATOM     62  C   UNL A   1      46.757  36.024  27.122  1.00  0.00     0.074 A 
ATOM     63  C   UNL A   1      41.141  34.383  29.620  1.00  0.00     0.029 A 
ATOM     64  N   UNL A   1      43.246  34.387  28.896  1.00  0.00    -0.354 N 
ATOM     65  N   UNL A   1      45.645  35.592  27.667  1.00  0.00    -0.248 NA
ATOM     66  C   UNL A   1      46.698  37.419  26.660  1.00  0.00     0.031 C 
ATOM     67  C   UNL A   1      41.425  35.645  29.085  1.00  0.00     0.029 A 
ATOM     68  C   UNL A   1      42.745  35.654  28.663  1.00  0.00     0.049 A 
ATOM     69  H   UNL A   1      44.155  34.087  28.668  1.00  0.00     0.167 HD
ATOM     70  C   UNL A   1      44.770  36.671  27.648  1.00  0.00     0.074 A 
ATOM     71  C   UNL A   1      45.479  37.776  27.039  1.00  0.00     0.031 C 
ATOM     72  C   UNL A   1      43.493  36.743  28.094  1.00  0.00     0.031 A 
BRANCH  59  73
ATOM     73  C   UNL A   1      41.348  31.501  30.562  1.00  0.00    -0.014 A 
ATOM     74  C   UNL A   1      41.091  31.602  31.939  1.00  0.00     0.009 A 
ATOM     75  C   UNL A   1      40.518  30.688  29.775  1.00  0.00     0.009 A 
ATOM     76  C   UNL A   1      40.054  30.872  32.520  1.00  0.00     0.001 A 
ATOM     77  C   UNL A   1      39.462  29.981  30.354  1.00  0.00     0.001 A 
ATOM     78  C   UNL A   1      39.238  30.065  31.727  1.00  0.00     0.000 A 
ENDBRANCH  59  73
BRANCH  60  79
ATOM     79  C   UNL A   1      49.186  35.957  26.209  1.00  0.00    -0.014 A 
ATOM     80  C   UNL A   1      49.358  35.784  24.828  1.00  0.00     0.009 A 
ATOM     81  C   UNL A   1      50.110  36.742  26.915  1.00  0.00     0.009 A 
ATOM     82  C   UNL A   1      50.451  36.357  24.171  1.00  0.00     0.001 A 
ATOM     83  C   UNL A   1      51.186  37.337  26.251  1.00  0.00     0.001 A 
ATOM     84  C   UNL A   1      51.361  37.135  24.883  1.00  0.00     0.000 A 
ENDBRANCH  60  79
BRANCH  72  85
ATOM     85  C   UNL A   1      42.813  38.077  28.025  1.00  0.00    -0.014 A 
ATOM     86  C   UNL A   1      42.927  39.010  29.065  1.00  0.00     0.009 A 
ATOM     87  C   UNL A   1      42.109  38.427  26.862  1.00  0.00     0.009 A 
ATOM     88  C   UNL A   1      42.330  40.267  28.948  1.00  0.00     0.001 A 
ATOM     89  C   UNL A   1      41.530  39.689  26.740  1.00  0.00     0.001 A 
ATOM     90  C   UNL A   1      41.637  40.606  27.785  1.00  0.00     0.000 A 
ENDBRANCH  72  85
ENDBRANCH  46  47
ENDBRANCH  38  41
ENDBRANCH  36  37
ENDBRANCH  35  36
ENDBRANCH  34  35
ENDBRANCH   3  34
TORSDOF 16
ENDMDL
