MODEL 1
REMARK VINA RESULT:     -11.7      0.000      0.000
REMARK SMILES NC(=O)c1ccc(NC(=O)Cc2ccccc2C(=O)NCCCNC(=O)c2ccc(-c3c4nc(c(-c5ccccc5)c5ccc([nH]5)c(-c5ccccc5)c5nc(c(-c6ccccc6)c6ccc3[nH]6)C=C5)C=C4)cc2)cc1
REMARK SMILES IDX 21 1 20 2 18 3 19 4 17 6 12 7 13 8 14 9 16 10 15 11 11 12
REMARK SMILES IDX 9 13 8 14 10 16 7 17 4 18 5 19 76 20 6 21 75 22 2 23 1 24
REMARK SMILES IDX 3 27 22 28 23 29 24 30 25 31 26 33 27 34 28 35 74 36 29 37
REMARK SMILES IDX 73 38 30 39 31 40 32 41 67 42 33 43 72 44 66 45 68 46 34 47
REMARK SMILES IDX 71 48 65 49 64 50 35 52 57 53 42 54 56 55 43 56 46 57 55 58
REMARK SMILES IDX 69 59 44 60 45 61 54 63 70 64 47 65 36 66 37 67 41 68 38 69
REMARK SMILES IDX 40 70 39 71 58 72 59 73 63 74 60 75 62 76 61 77 48 78 49 79
REMARK SMILES IDX 53 80 50 81 52 82 51 83
REMARK H PARENT 20 5 8 15 1 25 1 26 24 32 68 51 46 62
REMARK Flexibility Score: inf
ROOT
ATOM      1  C   UNL A   1      33.248  27.707  24.771  1.00  0.00     0.118 C 
ENDROOT
BRANCH   1   2
ATOM      2  N   UNL A   1      33.154  26.617  25.729  1.00  0.00    -0.352 N 
ATOM      3  C   UNL A   1      33.508  25.309  25.878  1.00  0.00     0.251 C 
ATOM      4  O   UNL A   1      32.995  24.794  26.883  1.00  0.00    -0.269 OA
ATOM      5  H   UNL A   1      32.679  26.924  26.534  1.00  0.00     0.163 HD
BRANCH   3   6
ATOM      6  C   UNL A   1      34.461  24.449  25.085  1.00  0.00     0.043 A 
ATOM      7  C   UNL A   1      34.622  24.240  23.694  1.00  0.00    -0.026 A 
ATOM      8  C   UNL A   1      35.591  23.307  23.240  1.00  0.00     0.005 A 
ATOM      9  C   UNL A   1      36.454  22.655  24.111  1.00  0.00     0.000 A 
ATOM     10  C   UNL A   1      35.385  23.787  25.936  1.00  0.00     0.014 A 
ATOM     11  C   UNL A   1      36.372  22.920  25.464  1.00  0.00     0.001 A 
BRANCH   7  12
ATOM     12  C   UNL A   1      33.858  24.911  22.597  1.00  0.00     0.136 C 
BRANCH  12  13
ATOM     13  C   UNL A   1      32.357  24.630  22.455  1.00  0.00     0.228 C 
ATOM     14  N   UNL A   1      31.678  23.469  22.685  1.00  0.00    -0.326 N 
ATOM     15  H   UNL A   1      30.770  23.511  22.309  1.00  0.00     0.169 HD
ATOM     16  O   UNL A   1      31.661  25.529  21.950  1.00  0.00    -0.274 OA
BRANCH  14  17
ATOM     17  C   UNL A   1      31.908  22.227  23.307  1.00  0.00     0.041 A 
ATOM     18  C   UNL A   1      32.417  19.676  24.444  1.00  0.00     0.039 A 
ATOM     19  C   UNL A   1      32.213  20.786  25.250  1.00  0.00     0.016 A 
ATOM     20  C   UNL A   1      32.318  19.821  23.058  1.00  0.00     0.016 A 
ATOM     21  C   UNL A   1      31.936  22.025  24.673  1.00  0.00     0.027 A 
ATOM     22  C   UNL A   1      32.066  21.090  22.497  1.00  0.00     0.027 A 
BRANCH  18  23
ATOM     23  C   UNL A   1      32.678  18.385  25.123  1.00  0.00     0.248 C 
ATOM     24  N   UNL A   1      32.853  18.412  26.474  1.00  0.00    -0.366 N 
ATOM     25  H   UNL A   1      33.028  17.577  26.964  1.00  0.00     0.159 HD
ATOM     26  H   UNL A   1      32.804  19.268  26.959  1.00  0.00     0.159 HD
ATOM     27  O   UNL A   1      32.681  17.327  24.506  1.00  0.00    -0.270 OA
ENDBRANCH  18  23
ENDBRANCH  14  17
ENDBRANCH  12  13
ENDBRANCH   7  12
ENDBRANCH   3   6
ENDBRANCH   1   2
BRANCH   1  28
ATOM     28  C   UNL A   1      33.760  28.964  25.479  1.00  0.00     0.042 C 
BRANCH  28  29
ATOM     29  C   UNL A   1      33.629  28.893  26.984  1.00  0.00     0.118 C 
BRANCH  29  30
ATOM     30  N   UNL A   1      33.583  30.195  27.631  1.00  0.00    -0.352 N 
ATOM     31  C   UNL A   1      34.592  30.783  28.372  1.00  0.00     0.251 C 
ATOM     32  H   UNL A   1      32.750  30.709  27.534  1.00  0.00     0.163 HD
ATOM     33  O   UNL A   1      34.411  31.830  28.972  1.00  0.00    -0.269 OA
BRANCH  31  34
ATOM     34  C   UNL A   1      35.892  30.076  28.456  1.00  0.00     0.039 A 
ATOM     35  C   UNL A   1      36.801  30.180  27.401  1.00  0.00     0.014 A 
ATOM     36  C   UNL A   1      36.249  29.420  29.636  1.00  0.00     0.014 A 
ATOM     37  C   UNL A   1      38.101  29.693  27.566  1.00  0.00     0.010 A 
ATOM     38  C   UNL A   1      37.569  29.039  29.836  1.00  0.00     0.010 A 
ATOM     39  C   UNL A   1      38.508  29.161  28.800  1.00  0.00    -0.014 A 
BRANCH  39  40
ATOM     40  C   UNL A   1      39.899  28.697  29.035  1.00  0.00     0.031 A 
ATOM     41  C   UNL A   1      40.903  29.638  29.649  1.00  0.00     0.074 A 
ATOM     42  C   UNL A   1      40.288  27.475  28.621  1.00  0.00     0.049 A 
ATOM     43  N   UNL A   1      42.186  29.469  29.842  1.00  0.00    -0.248 NA
ATOM     44  C   UNL A   1      40.404  30.963  30.059  1.00  0.00     0.031 C 
ATOM     45  C   UNL A   1      39.435  26.487  27.957  1.00  0.00     0.029 A 
ATOM     46  N   UNL A   1      41.513  26.857  28.694  1.00  0.00    -0.354 N 
ATOM     47  C   UNL A   1      42.648  30.673  30.358  1.00  0.00     0.074 A 
ATOM     48  C   UNL A   1      41.525  31.582  30.392  1.00  0.00     0.031 C 
ATOM     49  C   UNL A   1      40.151  25.376  27.716  1.00  0.00     0.029 A 
ATOM     50  C   UNL A   1      41.521  25.585  28.174  1.00  0.00     0.049 A 
ATOM     51  H   UNL A   1      42.309  27.286  29.082  1.00  0.00     0.167 HD
ATOM     52  C   UNL A   1      43.890  30.992  30.792  1.00  0.00     0.031 A 
ATOM     53  C   UNL A   1      42.521  24.688  28.079  1.00  0.00     0.031 A 
ATOM     54  C   UNL A   1      44.997  30.076  30.803  1.00  0.00     0.049 A 
ATOM     55  C   UNL A   1      43.884  25.049  28.604  1.00  0.00     0.074 A 
ATOM     56  C   UNL A   1      46.275  30.275  31.293  1.00  0.00     0.029 A 
ATOM     57  N   UNL A   1      44.951  28.784  30.306  1.00  0.00    -0.354 N 
ATOM     58  N   UNL A   1      44.287  26.168  29.155  1.00  0.00    -0.248 NA
ATOM     59  C   UNL A   1      44.925  24.015  28.507  1.00  0.00     0.031 C 
ATOM     60  C   UNL A   1      47.015  29.110  31.063  1.00  0.00     0.029 A 
ATOM     61  C   UNL A   1      46.183  28.174  30.468  1.00  0.00     0.049 A 
ATOM     62  H   UNL A   1      44.160  28.362  29.899  1.00  0.00     0.167 HD
ATOM     63  C   UNL A   1      45.618  25.966  29.492  1.00  0.00     0.074 A 
ATOM     64  C   UNL A   1      45.950  24.612  29.099  1.00  0.00     0.031 C 
ATOM     65  C   UNL A   1      46.490  26.824  30.076  1.00  0.00     0.031 A 
BRANCH  52  66
ATOM     66  C   UNL A   1      44.104  32.390  31.300  1.00  0.00    -0.014 A 
ATOM     67  C   UNL A   1      44.551  33.413  30.447  1.00  0.00     0.009 A 
ATOM     68  C   UNL A   1      43.846  32.692  32.646  1.00  0.00     0.009 A 
ATOM     69  C   UNL A   1      44.780  34.698  30.943  1.00  0.00     0.001 A 
ATOM     70  C   UNL A   1      44.046  33.986  33.131  1.00  0.00     0.001 A 
ATOM     71  C   UNL A   1      44.524  34.984  32.282  1.00  0.00     0.000 A 
ENDBRANCH  52  66
BRANCH  53  72
ATOM     72  C   UNL A   1      42.267  23.345  27.496  1.00  0.00    -0.014 A 
ATOM     73  C   UNL A   1      41.674  22.337  28.272  1.00  0.00     0.009 A 
ATOM     74  C   UNL A   1      42.621  23.059  26.169  1.00  0.00     0.009 A 
ATOM     75  C   UNL A   1      41.464  21.062  27.739  1.00  0.00     0.001 A 
ATOM     76  C   UNL A   1      42.386  21.790  25.631  1.00  0.00     0.001 A 
ATOM     77  C   UNL A   1      41.816  20.791  26.419  1.00  0.00     0.000 A 
ENDBRANCH  53  72
BRANCH  65  78
ATOM     78  C   UNL A   1      47.872  26.313  30.357  1.00  0.00    -0.014 A 
ATOM     79  C   UNL A   1      48.877  26.361  29.380  1.00  0.00     0.009 A 
ATOM     80  C   UNL A   1      48.184  25.822  31.634  1.00  0.00     0.009 A 
ATOM     81  C   UNL A   1      50.162  25.899  29.669  1.00  0.00     0.001 A 
ATOM     82  C   UNL A   1      49.475  25.385  31.928  1.00  0.00     0.001 A 
ATOM     83  C   UNL A   1      50.461  25.417  30.943  1.00  0.00     0.000 A 
ENDBRANCH  65  78
ENDBRANCH  39  40
ENDBRANCH  31  34
ENDBRANCH  29  30
ENDBRANCH  28  29
ENDBRANCH   1  28
TORSDOF 14
ENDMDL
MODEL 2
REMARK VINA RESULT:     -11.6      2.107      7.031
REMARK SMILES NC(=O)c1ccc(NC(=O)Cc2ccccc2C(=O)NCCCNC(=O)c2ccc(-c3c4nc(c(-c5ccccc5)c5ccc([nH]5)c(-c5ccccc5)c5nc(c(-c6ccccc6)c6ccc3[nH]6)C=C5)C=C4)cc2)cc1
REMARK SMILES IDX 21 1 20 2 18 3 19 4 17 6 12 7 13 8 14 9 16 10 15 11 11 12
REMARK SMILES IDX 9 13 8 14 10 16 7 17 4 18 5 19 76 20 6 21 75 22 2 23 1 24
REMARK SMILES IDX 3 27 22 28 23 29 24 30 25 31 26 33 27 34 28 35 74 36 29 37
REMARK SMILES IDX 73 38 30 39 31 40 32 41 67 42 33 43 72 44 66 45 68 46 34 47
REMARK SMILES IDX 71 48 65 49 64 50 35 52 57 53 42 54 56 55 43 56 46 57 55 58
REMARK SMILES IDX 69 59 44 60 45 61 54 63 70 64 47 65 36 66 37 67 41 68 38 69
REMARK SMILES IDX 40 70 39 71 58 72 59 73 63 74 60 75 62 76 61 77 48 78 49 79
REMARK SMILES IDX 53 80 50 81 52 82 51 83
REMARK H PARENT 20 5 8 15 1 25 1 26 24 32 68 51 46 62
REMARK Flexibility Score: inf
ROOT
ATOM      1  C   UNL A   1      36.465  21.419  25.424  1.00  0.00     0.118 C 
ENDROOT
BRANCH   1   2
ATOM      2  N   UNL A   1      36.187  22.343  24.336  1.00  0.00    -0.352 N 
ATOM      3  C   UNL A   1      35.294  23.306  23.970  1.00  0.00     0.251 C 
ATOM      4  O   UNL A   1      35.449  23.670  22.795  1.00  0.00    -0.269 OA
ATOM      5  H   UNL A   1      36.868  22.240  23.633  1.00  0.00     0.163 HD
BRANCH   3   6
ATOM      6  C   UNL A   1      34.242  24.030  24.773  1.00  0.00     0.043 A 
ATOM      7  C   UNL A   1      32.981  23.626  25.275  1.00  0.00    -0.026 A 
ATOM      8  C   UNL A   1      32.173  24.569  25.963  1.00  0.00     0.005 A 
ATOM      9  C   UNL A   1      32.615  25.856  26.242  1.00  0.00     0.000 A 
ATOM     10  C   UNL A   1      34.667  25.343  25.111  1.00  0.00     0.014 A 
ATOM     11  C   UNL A   1      33.880  26.235  25.842  1.00  0.00     0.001 A 
BRANCH   7  12
ATOM     12  C   UNL A   1      32.369  22.266  25.159  1.00  0.00     0.136 C 
BRANCH  12  13
ATOM     13  C   UNL A   1      32.056  21.707  23.765  1.00  0.00     0.228 C 
ATOM     14  N   UNL A   1      32.258  20.446  23.283  1.00  0.00    -0.326 N 
ATOM     15  H   UNL A   1      32.169  20.425  22.304  1.00  0.00     0.169 HD
ATOM     16  O   UNL A   1      31.676  22.520  22.905  1.00  0.00    -0.274 OA
BRANCH  14  17
ATOM     17  C   UNL A   1      32.560  19.168  23.789  1.00  0.00     0.041 A 
ATOM     18  C   UNL A   1      33.230  16.561  24.693  1.00  0.00     0.039 A 
ATOM     19  C   UNL A   1      32.826  17.543  25.587  1.00  0.00     0.016 A 
ATOM     20  C   UNL A   1      33.255  16.860  23.329  1.00  0.00     0.016 A 
ATOM     21  C   UNL A   1      32.474  18.809  25.120  1.00  0.00     0.027 A 
ATOM     22  C   UNL A   1      32.921  18.157  22.884  1.00  0.00     0.027 A 
BRANCH  18  23
ATOM     23  C   UNL A   1      33.562  15.230  25.254  1.00  0.00     0.248 C 
ATOM     24  N   UNL A   1      32.524  14.445  25.659  1.00  0.00    -0.366 N 
ATOM     25  H   UNL A   1      32.700  13.554  26.036  1.00  0.00     0.159 HD
ATOM     26  H   UNL A   1      31.599  14.770  25.573  1.00  0.00     0.159 HD
ATOM     27  O   UNL A   1      34.717  14.827  25.301  1.00  0.00    -0.270 OA
ENDBRANCH  18  23
ENDBRANCH  14  17
ENDBRANCH  12  13
ENDBRANCH   7  12
ENDBRANCH   3   6
ENDBRANCH   1   2
BRANCH   1  28
ATOM     28  C   UNL A   1      37.583  20.461  25.006  1.00  0.00     0.042 C 
BRANCH  28  29
ATOM     29  C   UNL A   1      38.885  20.715  25.732  1.00  0.00     0.118 C 
BRANCH  29  30
ATOM     30  N   UNL A   1      39.811  19.594  25.686  1.00  0.00    -0.352 N 
ATOM     31  C   UNL A   1      41.154  19.619  26.020  1.00  0.00     0.251 C 
ATOM     32  H   UNL A   1      39.447  18.731  25.386  1.00  0.00     0.163 HD
ATOM     33  O   UNL A   1      41.871  18.651  25.835  1.00  0.00    -0.269 OA
BRANCH  31  34
ATOM     34  C   UNL A   1      41.708  20.881  26.567  1.00  0.00     0.039 A 
ATOM     35  C   UNL A   1      42.265  21.821  25.698  1.00  0.00     0.014 A 
ATOM     36  C   UNL A   1      41.554  21.174  27.923  1.00  0.00     0.014 A 
ATOM     37  C   UNL A   1      42.592  23.092  26.181  1.00  0.00     0.010 A 
ATOM     38  C   UNL A   1      41.777  22.468  28.374  1.00  0.00     0.010 A 
ATOM     39  C   UNL A   1      42.308  23.439  27.512  1.00  0.00    -0.014 A 
BRANCH  39  40
ATOM     40  C   UNL A   1      42.579  24.799  28.044  1.00  0.00     0.031 A 
ATOM     41  C   UNL A   1      43.972  25.159  28.490  1.00  0.00     0.074 A 
ATOM     42  C   UNL A   1      41.571  25.677  28.213  1.00  0.00     0.049 A 
ATOM     43  N   UNL A   1      44.398  26.248  29.076  1.00  0.00    -0.248 NA
ATOM     44  C   UNL A   1      45.016  24.138  28.288  1.00  0.00     0.031 C 
ATOM     45  C   UNL A   1      40.164  25.437  27.882  1.00  0.00     0.029 A 
ATOM     46  N   UNL A   1      41.576  26.955  28.716  1.00  0.00    -0.354 N 
ATOM     47  C   UNL A   1      45.743  26.026  29.345  1.00  0.00     0.074 A 
ATOM     48  C   UNL A   1      46.049  24.681  28.913  1.00  0.00     0.031 C 
ATOM     49  C   UNL A   1      39.451  26.542  28.157  1.00  0.00     0.029 A 
ATOM     50  C   UNL A   1      40.340  27.554  28.717  1.00  0.00     0.049 A 
ATOM     51  H   UNL A   1      42.391  27.400  29.046  1.00  0.00     0.167 HD
ATOM     52  C   UNL A   1      46.655  26.873  29.877  1.00  0.00     0.031 A 
ATOM     53  C   UNL A   1      39.966  28.783  29.121  1.00  0.00     0.031 A 
ATOM     54  C   UNL A   1      46.366  28.226  30.265  1.00  0.00     0.049 A 
ATOM     55  C   UNL A   1      41.003  29.722  29.674  1.00  0.00     0.074 A 
ATOM     56  C   UNL A   1      47.235  29.191  30.741  1.00  0.00     0.029 A 
ATOM     57  N   UNL A   1      45.109  28.806  30.209  1.00  0.00    -0.354 N 
ATOM     58  N   UNL A   1      42.286  29.521  29.855  1.00  0.00    -0.248 NA
ATOM     59  C   UNL A   1      40.541  31.062  30.064  1.00  0.00     0.031 C 
ATOM     60  C   UNL A   1      46.496  30.349  31.006  1.00  0.00     0.029 A 
ATOM     61  C   UNL A   1      45.176  30.116  30.653  1.00  0.00     0.049 A 
ATOM     62  H   UNL A   1      44.291  28.355  29.899  1.00  0.00     0.167 HD
ATOM     63  C   UNL A   1      42.789  30.714  30.355  1.00  0.00     0.074 A 
ATOM     64  C   UNL A   1      41.677  31.639  30.433  1.00  0.00     0.031 C 
ATOM     65  C   UNL A   1      44.059  31.020  30.717  1.00  0.00     0.031 A 
BRANCH  52  66
ATOM     66  C   UNL A   1      48.054  26.353  30.059  1.00  0.00    -0.014 A 
ATOM     67  C   UNL A   1      48.996  26.422  29.019  1.00  0.00     0.009 A 
ATOM     68  C   UNL A   1      48.439  25.796  31.288  1.00  0.00     0.009 A 
ATOM     69  C   UNL A   1      50.280  25.902  29.192  1.00  0.00     0.001 A 
ATOM     70  C   UNL A   1      49.733  25.305  31.468  1.00  0.00     0.001 A 
ATOM     71  C   UNL A   1      50.648  25.348  30.417  1.00  0.00     0.000 A 
ENDBRANCH  52  66
BRANCH  53  72
ATOM     72  C   UNL A   1      38.550  29.215  28.987  1.00  0.00    -0.014 A 
ATOM     73  C   UNL A   1      37.675  29.122  30.080  1.00  0.00     0.009 A 
ATOM     74  C   UNL A   1      38.064  29.715  27.770  1.00  0.00     0.009 A 
ATOM     75  C   UNL A   1      36.335  29.495  29.950  1.00  0.00     0.001 A 
ATOM     76  C   UNL A   1      36.729  30.112  27.650  1.00  0.00     0.001 A 
ATOM     77  C   UNL A   1      35.864  29.993  28.737  1.00  0.00     0.000 A 
ENDBRANCH  53  72
BRANCH  65  78
ATOM     78  C   UNL A   1      44.319  32.418  31.196  1.00  0.00    -0.014 A 
ATOM     79  C   UNL A   1      44.395  32.715  32.564  1.00  0.00     0.009 A 
ATOM     80  C   UNL A   1      44.540  33.441  30.261  1.00  0.00     0.009 A 
ATOM     81  C   UNL A   1      44.658  34.019  32.988  1.00  0.00     0.001 A 
ATOM     82  C   UNL A   1      44.829  34.737  30.687  1.00  0.00     0.001 A 
ATOM     83  C   UNL A   1      44.880  35.027  32.049  1.00  0.00     0.000 A 
ENDBRANCH  65  78
ENDBRANCH  39  40
ENDBRANCH  31  34
ENDBRANCH  29  30
ENDBRANCH  28  29
ENDBRANCH   1  28
TORSDOF 14
ENDMDL
MODEL 3
REMARK VINA RESULT:     -11.6      3.262      8.084
REMARK SMILES NC(=O)c1ccc(NC(=O)Cc2ccccc2C(=O)NCCCNC(=O)c2ccc(-c3c4nc(c(-c5ccccc5)c5ccc([nH]5)c(-c5ccccc5)c5nc(c(-c6ccccc6)c6ccc3[nH]6)C=C5)C=C4)cc2)cc1
REMARK SMILES IDX 21 1 20 2 18 3 19 4 17 6 12 7 13 8 14 9 16 10 15 11 11 12
REMARK SMILES IDX 9 13 8 14 10 16 7 17 4 18 5 19 76 20 6 21 75 22 2 23 1 24
REMARK SMILES IDX 3 27 22 28 23 29 24 30 25 31 26 33 27 34 28 35 74 36 29 37
REMARK SMILES IDX 73 38 30 39 31 40 32 41 67 42 33 43 72 44 66 45 68 46 34 47
REMARK SMILES IDX 71 48 65 49 64 50 35 52 57 53 42 54 56 55 43 56 46 57 55 58
REMARK SMILES IDX 69 59 44 60 45 61 54 63 70 64 47 65 36 66 37 67 41 68 38 69
REMARK SMILES IDX 40 70 39 71 58 72 59 73 63 74 60 75 62 76 61 77 48 78 49 79
REMARK SMILES IDX 53 80 50 81 52 82 51 83
REMARK H PARENT 20 5 8 15 1 25 1 26 24 32 68 51 46 62
REMARK Flexibility Score: inf
ROOT
ATOM      1  C   UNL A   1      31.465  30.128  25.478  1.00  0.00     0.118 C 
ENDROOT
BRANCH   1   2
ATOM      2  N   UNL A   1      32.449  29.546  24.580  1.00  0.00    -0.352 N 
ATOM      3  C   UNL A   1      33.162  28.399  24.396  1.00  0.00     0.251 C 
ATOM      4  O   UNL A   1      34.029  28.520  23.518  1.00  0.00    -0.269 OA
ATOM      5  H   UNL A   1      32.674  30.193  23.874  1.00  0.00     0.163 HD
BRANCH   3   6
ATOM      6  C   UNL A   1      33.005  27.032  25.012  1.00  0.00     0.043 A 
ATOM      7  C   UNL A   1      31.867  26.300  25.429  1.00  0.00    -0.026 A 
ATOM      8  C   UNL A   1      32.044  25.030  26.039  1.00  0.00     0.005 A 
ATOM      9  C   UNL A   1      33.294  24.436  26.161  1.00  0.00     0.000 A 
ATOM     10  C   UNL A   1      34.259  26.372  25.126  1.00  0.00     0.014 A 
ATOM     11  C   UNL A   1      34.403  25.096  25.673  1.00  0.00     0.001 A 
BRANCH   7  12
ATOM     12  C   UNL A   1      30.439  26.724  25.302  1.00  0.00     0.136 C 
BRANCH  12  13
ATOM     13  C   UNL A   1      29.683  26.416  24.004  1.00  0.00     0.228 C 
ATOM     14  N   UNL A   1      29.016  27.273  23.177  1.00  0.00    -0.326 N 
ATOM     15  H   UNL A   1      28.448  26.781  22.543  1.00  0.00     0.169 HD
ATOM     16  O   UNL A   1      29.544  25.217  23.704  1.00  0.00    -0.274 OA
BRANCH  14  17
ATOM     17  C   UNL A   1      28.910  28.662  22.975  1.00  0.00     0.041 A 
ATOM     18  C   UNL A   1      28.606  31.468  22.667  1.00  0.00     0.039 A 
ATOM     19  C   UNL A   1      29.682  30.802  22.098  1.00  0.00     0.016 A 
ATOM     20  C   UNL A   1      27.642  30.728  23.355  1.00  0.00     0.016 A 
ATOM     21  C   UNL A   1      29.799  29.419  22.237  1.00  0.00     0.027 A 
ATOM     22  C   UNL A   1      27.797  29.334  23.506  1.00  0.00     0.027 A 
BRANCH  18  23
ATOM     23  C   UNL A   1      28.529  32.933  22.456  1.00  0.00     0.248 C 
ATOM     24  N   UNL A   1      29.347  33.718  23.212  1.00  0.00    -0.366 N 
ATOM     25  H   UNL A   1      29.328  34.696  23.104  1.00  0.00     0.159 HD
ATOM     26  H   UNL A   1      29.957  33.307  23.867  1.00  0.00     0.159 HD
ATOM     27  O   UNL A   1      27.801  33.418  21.600  1.00  0.00    -0.270 OA
ENDBRANCH  18  23
ENDBRANCH  14  17
ENDBRANCH  12  13
ENDBRANCH   7  12
ENDBRANCH   3   6
ENDBRANCH   1   2
BRANCH   1  28
ATOM     28  C   UNL A   1      32.017  30.133  26.906  1.00  0.00     0.042 C 
BRANCH  28  29
ATOM     29  C   UNL A   1      33.060  31.206  27.135  1.00  0.00     0.118 C 
BRANCH  29  30
ATOM     30  N   UNL A   1      32.500  32.532  27.346  1.00  0.00    -0.352 N 
ATOM     31  C   UNL A   1      33.052  33.549  28.104  1.00  0.00     0.251 C 
ATOM     32  H   UNL A   1      31.641  32.725  26.907  1.00  0.00     0.163 HD
ATOM     33  O   UNL A   1      32.445  34.586  28.313  1.00  0.00    -0.269 OA
BRANCH  31  34
ATOM     34  C   UNL A   1      34.390  33.321  28.699  1.00  0.00     0.039 A 
ATOM     35  C   UNL A   1      34.499  32.611  29.897  1.00  0.00     0.014 A 
ATOM     36  C   UNL A   1      35.535  33.704  27.997  1.00  0.00     0.014 A 
ATOM     37  C   UNL A   1      35.762  32.214  30.346  1.00  0.00     0.010 A 
ATOM     38  C   UNL A   1      36.774  33.215  28.387  1.00  0.00     0.010 A 
ATOM     39  C   UNL A   1      36.904  32.473  29.571  1.00  0.00    -0.014 A 
BRANCH  39  40
ATOM     40  C   UNL A   1      38.254  32.009  29.981  1.00  0.00     0.031 A 
ATOM     41  C   UNL A   1      38.782  30.701  29.451  1.00  0.00     0.074 A 
ATOM     42  C   UNL A   1      38.966  32.703  30.890  1.00  0.00     0.049 A 
ATOM     43  N   UNL A   1      39.883  30.066  29.762  1.00  0.00    -0.248 NA
ATOM     44  C   UNL A   1      37.936  29.992  28.475  1.00  0.00     0.031 C 
ATOM     45  C   UNL A   1      38.547  33.952  31.530  1.00  0.00     0.029 A 
ATOM     46  N   UNL A   1      40.198  32.449  31.441  1.00  0.00    -0.354 N 
ATOM     47  C   UNL A   1      39.841  28.874  29.050  1.00  0.00     0.074 A 
ATOM     48  C   UNL A   1      38.583  28.845  28.339  1.00  0.00     0.031 C 
ATOM     49  C   UNL A   1      39.519  34.372  32.357  1.00  0.00     0.029 A 
ATOM     50  C   UNL A   1      40.612  33.406  32.335  1.00  0.00     0.049 A 
ATOM     51  H   UNL A   1      40.734  31.654  31.215  1.00  0.00     0.167 HD
ATOM     52  C   UNL A   1      40.776  27.898  28.969  1.00  0.00     0.031 A 
ATOM     53  C   UNL A   1      41.747  33.496  33.053  1.00  0.00     0.031 A 
ATOM     54  C   UNL A   1      42.047  27.945  29.637  1.00  0.00     0.049 A 
ATOM     55  C   UNL A   1      42.790  32.421  32.918  1.00  0.00     0.074 A 
ATOM     56  C   UNL A   1      43.096  27.047  29.559  1.00  0.00     0.029 A 
ATOM     57  N   UNL A   1      42.443  28.954  30.499  1.00  0.00    -0.354 N 
ATOM     58  N   UNL A   1      42.765  31.334  32.184  1.00  0.00    -0.248 NA
ATOM     59  C   UNL A   1      44.024  32.593  33.699  1.00  0.00     0.031 C 
ATOM     60  C   UNL A   1      44.117  27.496  30.403  1.00  0.00     0.029 A 
ATOM     61  C   UNL A   1      43.718  28.696  30.971  1.00  0.00     0.049 A 
ATOM     62  H   UNL A   1      41.899  29.738  30.741  1.00  0.00     0.167 HD
ATOM     63  C   UNL A   1      43.985  30.707  32.395  1.00  0.00     0.074 A 
ATOM     64  C   UNL A   1      44.734  31.542  33.312  1.00  0.00     0.031 C 
ATOM     65  C   UNL A   1      44.447  29.543  31.877  1.00  0.00     0.031 A 
BRANCH  52  66
ATOM     66  C   UNL A   1      40.452  26.704  28.116  1.00  0.00    -0.014 A 
ATOM     67  C   UNL A   1      39.689  25.636  28.619  1.00  0.00     0.009 A 
ATOM     68  C   UNL A   1      40.906  26.648  26.789  1.00  0.00     0.009 A 
ATOM     69  C   UNL A   1      39.428  24.518  27.826  1.00  0.00     0.001 A 
ATOM     70  C   UNL A   1      40.616  25.542  25.989  1.00  0.00     0.001 A 
ATOM     71  C   UNL A   1      39.888  24.473  26.511  1.00  0.00     0.000 A 
ENDBRANCH  52  66
BRANCH  53  72
ATOM     72  C   UNL A   1      41.979  34.666  33.941  1.00  0.00    -0.014 A 
ATOM     73  C   UNL A   1      41.611  34.612  35.294  1.00  0.00     0.009 A 
ATOM     74  C   UNL A   1      42.560  35.842  33.443  1.00  0.00     0.009 A 
ATOM     75  C   UNL A   1      41.796  35.720  36.125  1.00  0.00     0.001 A 
ATOM     76  C   UNL A   1      42.767  36.940  34.283  1.00  0.00     0.001 A 
ATOM     77  C   UNL A   1      42.377  36.881  35.620  1.00  0.00     0.000 A 
ENDBRANCH  53  72
BRANCH  65  78
ATOM     78  C   UNL A   1      45.836  29.124  32.260  1.00  0.00    -0.014 A 
ATOM     79  C   UNL A   1      46.066  28.296  33.368  1.00  0.00     0.009 A 
ATOM     80  C   UNL A   1      46.925  29.526  31.470  1.00  0.00     0.009 A 
ATOM     81  C   UNL A   1      47.365  27.901  33.694  1.00  0.00     0.001 A 
ATOM     82  C   UNL A   1      48.218  29.108  31.783  1.00  0.00     0.001 A 
ATOM     83  C   UNL A   1      48.438  28.303  32.899  1.00  0.00     0.000 A 
ENDBRANCH  65  78
ENDBRANCH  39  40
ENDBRANCH  31  34
ENDBRANCH  29  30
ENDBRANCH  28  29
ENDBRANCH   1  28
TORSDOF 14
ENDMDL
