MODEL 1
REMARK VINA RESULT:     -11.3      0.000      0.000
REMARK SMILES Cc1ccc(C)c(NS(=O)(=O)c2cc(C(=O)NCCCNC(=O)c3ccc(-c4c5nc(c(-c6ccccc6)c6ccc([nH]6)c(-c6ccccc6)c6nc(c(-c7ccccc7)c7ccc4[nH]7)C=C6)C=C5)cc3)ccc2Cl)c1
REMARK SMILES IDX 18 1 17 2 15 3 16 4 14 6 12 7 13 8 74 9 73 10 75 11 72 12
REMARK SMILES IDX 9 13 10 14 11 15 8 16 7 18 1 19 2 20 3 21 76 22 4 23 5 24
REMARK SMILES IDX 6 25 19 26 20 27 21 28 22 29 23 31 24 32 25 33 71 34 26 35
REMARK SMILES IDX 70 36 27 37 28 38 29 39 64 40 30 41 69 42 63 43 65 44 31 45
REMARK SMILES IDX 68 46 62 47 61 48 32 50 54 51 39 52 53 53 40 54 43 55 52 56
REMARK SMILES IDX 66 57 41 58 42 59 51 61 67 62 44 63 33 64 34 65 38 66 35 67
REMARK SMILES IDX 37 68 36 69 55 70 56 71 60 72 57 73 59 74 58 75 45 76 46 77
REMARK SMILES IDX 50 78 47 79 49 80 48 81
REMARK H PARENT 17 5 8 17 21 30 65 49 43 60
REMARK Flexibility Score: inf
ROOT
ATOM      1  C   UNL A   1      32.777  29.953  26.063  1.00  0.00     0.118 C 
ENDROOT
BRANCH   1   2
ATOM      2  N   UNL A   1      33.625  29.569  24.948  1.00  0.00    -0.352 N 
ATOM      3  C   UNL A   1      33.727  28.411  24.219  1.00  0.00     0.251 C 
ATOM      4  O   UNL A   1      34.451  28.438  23.222  1.00  0.00    -0.269 OA
ATOM      5  H   UNL A   1      34.247  30.276  24.660  1.00  0.00     0.163 HD
BRANCH   3   6
ATOM      6  C   UNL A   1      33.039  27.127  24.558  1.00  0.00     0.041 A 
ATOM      7  C   UNL A   1      33.256  24.889  25.544  1.00  0.00     0.107 A 
ATOM      8  C   UNL A   1      33.826  26.109  25.116  1.00  0.00     0.037 A 
ATOM      9  C   UNL A   1      31.877  24.736  25.565  1.00  0.00     0.061 A 
ATOM     10  C   UNL A   1      31.093  25.716  24.957  1.00  0.00     0.023 A 
ATOM     11  Cl  UNL A   1      31.050  23.456  26.367  1.00  0.00    -0.083 Cl
ATOM     12  C   UNL A   1      31.673  26.879  24.432  1.00  0.00     0.015 A 
BRANCH   7  13
ATOM     13  S   UNL A   1      34.378  23.558  25.841  1.00  0.00     0.263 S 
ATOM     14  O   UNL A   1      34.165  22.593  24.782  1.00  0.00    -0.201 OA
ATOM     15  O   UNL A   1      34.219  23.164  27.226  1.00  0.00    -0.201 OA
BRANCH  13  16
ATOM     16  N   UNL A   1      35.962  24.087  25.668  1.00  0.00    -0.279 N 
ATOM     17  H   UNL A   1      36.079  25.028  25.401  1.00  0.00     0.180 HD
BRANCH  16  18
ATOM     18  C   UNL A   1      37.165  23.331  25.864  1.00  0.00     0.052 A 
ATOM     19  C   UNL A   1      38.035  19.711  24.961  1.00  0.00     0.044 C 
ATOM     20  C   UNL A   1      38.174  21.128  25.431  1.00  0.00    -0.049 A 
ATOM     21  C   UNL A   1      39.399  21.618  25.868  1.00  0.00     0.004 A 
ATOM     22  C   UNL A   1      37.080  21.999  25.403  1.00  0.00     0.030 A 
ATOM     23  C   UNL A   1      39.477  22.899  26.413  1.00  0.00     0.006 A 
ATOM     24  C   UNL A   1      38.344  23.736  26.505  1.00  0.00    -0.027 A 
ATOM     25  C   UNL A   1      38.493  24.979  27.328  1.00  0.00     0.046 C 
ENDBRANCH  16  18
ENDBRANCH  13  16
ENDBRANCH   7  13
ENDBRANCH   3   6
ENDBRANCH   1   2
BRANCH   1  26
ATOM     26  C   UNL A   1      33.263  29.369  27.389  1.00  0.00     0.042 C 
BRANCH  26  27
ATOM     27  C   UNL A   1      34.767  29.400  27.569  1.00  0.00     0.118 C 
BRANCH  27  28
ATOM     28  N   UNL A   1      35.237  30.385  28.536  1.00  0.00    -0.352 N 
ATOM     29  C   UNL A   1      36.478  30.409  29.161  1.00  0.00     0.251 C 
ATOM     30  H   UNL A   1      34.610  31.108  28.771  1.00  0.00     0.163 HD
ATOM     31  O   UNL A   1      36.787  31.268  29.955  1.00  0.00    -0.269 OA
BRANCH  29  32
ATOM     32  C   UNL A   1      37.439  29.367  28.738  1.00  0.00     0.039 A 
ATOM     33  C   UNL A   1      37.881  28.461  29.702  1.00  0.00     0.014 A 
ATOM     34  C   UNL A   1      38.118  29.541  27.537  1.00  0.00     0.014 A 
ATOM     35  C   UNL A   1      39.141  27.892  29.553  1.00  0.00     0.010 A 
ATOM     36  C   UNL A   1      39.396  29.022  27.425  1.00  0.00     0.010 A 
ATOM     37  C   UNL A   1      39.947  28.264  28.467  1.00  0.00    -0.014 A 
BRANCH  37  38
ATOM     38  C   UNL A   1      41.371  27.917  28.465  1.00  0.00     0.031 A 
ATOM     39  C   UNL A   1      41.818  26.725  27.703  1.00  0.00     0.074 A 
ATOM     40  C   UNL A   1      42.346  28.754  28.875  1.00  0.00     0.049 A 
ATOM     41  N   UNL A   1      42.142  25.559  28.160  1.00  0.00    -0.248 NA
ATOM     42  C   UNL A   1      41.852  26.828  26.237  1.00  0.00     0.031 C 
ATOM     43  C   UNL A   1      42.240  30.177  29.208  1.00  0.00     0.029 A 
ATOM     44  N   UNL A   1      43.687  28.510  28.952  1.00  0.00    -0.354 N 
ATOM     45  C   UNL A   1      42.528  24.816  27.048  1.00  0.00     0.074 A 
ATOM     46  C   UNL A   1      42.090  25.562  25.897  1.00  0.00     0.031 C 
ATOM     47  C   UNL A   1      43.483  30.709  29.263  1.00  0.00     0.029 A 
ATOM     48  C   UNL A   1      44.465  29.648  29.091  1.00  0.00     0.049 A 
ATOM     49  H   UNL A   1      44.068  27.603  28.914  1.00  0.00     0.167 HD
ATOM     50  C   UNL A   1      43.396  23.767  27.107  1.00  0.00     0.031 A 
ATOM     51  C   UNL A   1      45.815  29.715  29.010  1.00  0.00     0.031 A 
ATOM     52  C   UNL A   1      43.741  23.416  28.460  1.00  0.00     0.049 A 
ATOM     53  C   UNL A   1      46.367  28.347  29.155  1.00  0.00     0.074 A 
ATOM     54  C   UNL A   1      43.063  23.003  29.587  1.00  0.00     0.029 A 
ATOM     55  N   UNL A   1      44.991  23.794  28.893  1.00  0.00    -0.354 N 
ATOM     56  N   UNL A   1      46.357  27.666  30.264  1.00  0.00    -0.248 NA
ATOM     57  C   UNL A   1      46.654  27.569  27.958  1.00  0.00     0.031 C 
ATOM     58  C   UNL A   1      43.778  23.567  30.686  1.00  0.00     0.029 A 
ATOM     59  C   UNL A   1      44.851  24.291  30.163  1.00  0.00     0.049 A 
ATOM     60  H   UNL A   1      45.831  23.721  28.385  1.00  0.00     0.167 HD
ATOM     61  C   UNL A   1      46.223  26.343  29.874  1.00  0.00     0.074 A 
ATOM     62  C   UNL A   1      46.562  26.333  28.457  1.00  0.00     0.031 C 
ATOM     63  C   UNL A   1      45.572  25.440  30.667  1.00  0.00     0.031 A 
BRANCH  50  64
ATOM     64  C   UNL A   1      44.224  23.276  25.941  1.00  0.00    -0.014 A 
ATOM     65  C   UNL A   1      44.091  21.936  25.536  1.00  0.00     0.009 A 
ATOM     66  C   UNL A   1      45.283  24.002  25.362  1.00  0.00     0.009 A 
ATOM     67  C   UNL A   1      44.983  21.352  24.627  1.00  0.00     0.001 A 
ATOM     68  C   UNL A   1      46.139  23.442  24.410  1.00  0.00     0.001 A 
ATOM     69  C   UNL A   1      46.003  22.108  24.059  1.00  0.00     0.000 A 
ENDBRANCH  50  64
BRANCH  51  70
ATOM     70  C   UNL A   1      46.668  30.865  28.651  1.00  0.00    -0.014 A 
ATOM     71  C   UNL A   1      47.526  31.450  29.595  1.00  0.00     0.009 A 
ATOM     72  C   UNL A   1      46.807  31.257  27.307  1.00  0.00     0.009 A 
ATOM     73  C   UNL A   1      48.501  32.376  29.205  1.00  0.00     0.001 A 
ATOM     74  C   UNL A   1      47.776  32.187  26.919  1.00  0.00     0.001 A 
ATOM     75  C   UNL A   1      48.631  32.737  27.866  1.00  0.00     0.000 A 
ENDBRANCH  51  70
BRANCH  63  76
ATOM     76  C   UNL A   1      45.300  25.837  32.096  1.00  0.00    -0.014 A 
ATOM     77  C   UNL A   1      44.162  26.574  32.469  1.00  0.00     0.009 A 
ATOM     78  C   UNL A   1      46.139  25.349  33.108  1.00  0.00     0.009 A 
ATOM     79  C   UNL A   1      43.898  26.854  33.812  1.00  0.00     0.001 A 
ATOM     80  C   UNL A   1      45.861  25.608  34.452  1.00  0.00     0.001 A 
ATOM     81  C   UNL A   1      44.746  26.368  34.803  1.00  0.00     0.000 A 
ENDBRANCH  63  76
ENDBRANCH  37  38
ENDBRANCH  29  32
ENDBRANCH  27  28
ENDBRANCH  26  27
ENDBRANCH   1  26
TORSDOF 13
ENDMDL
MODEL 2
REMARK VINA RESULT:     -11.1      2.271      7.501
REMARK SMILES Cc1ccc(C)c(NS(=O)(=O)c2cc(C(=O)NCCCNC(=O)c3ccc(-c4c5nc(c(-c6ccccc6)c6ccc([nH]6)c(-c6ccccc6)c6nc(c(-c7ccccc7)c7ccc4[nH]7)C=C6)C=C5)cc3)ccc2Cl)c1
REMARK SMILES IDX 18 1 17 2 15 3 16 4 14 6 12 7 13 8 74 9 73 10 75 11 72 12
REMARK SMILES IDX 9 13 10 14 11 15 8 16 7 18 1 19 2 20 3 21 76 22 4 23 5 24
REMARK SMILES IDX 6 25 19 26 20 27 21 28 22 29 23 31 24 32 25 33 71 34 26 35
REMARK SMILES IDX 70 36 27 37 28 38 29 39 64 40 30 41 69 42 63 43 65 44 31 45
REMARK SMILES IDX 68 46 62 47 61 48 32 50 54 51 39 52 53 53 40 54 43 55 52 56
REMARK SMILES IDX 66 57 41 58 42 59 51 61 67 62 44 63 33 64 34 65 38 66 35 67
REMARK SMILES IDX 37 68 36 69 55 70 56 71 60 72 57 73 59 74 58 75 45 76 46 77
REMARK SMILES IDX 50 78 47 79 49 80 48 81
REMARK H PARENT 17 5 8 17 21 30 65 49 43 60
REMARK Flexibility Score: inf
ROOT
ATOM      1  C   UNL A   1      39.418  20.823  25.722  1.00  0.00     0.118 C 
ENDROOT
BRANCH   1   2
ATOM      2  N   UNL A   1      39.235  22.241  25.986  1.00  0.00    -0.352 N 
ATOM      3  C   UNL A   1      38.124  23.046  25.983  1.00  0.00     0.251 C 
ATOM      4  O   UNL A   1      38.266  24.198  26.396  1.00  0.00    -0.269 OA
ATOM      5  H   UNL A   1      40.069  22.715  26.208  1.00  0.00     0.163 HD
BRANCH   3   6
ATOM      6  C   UNL A   1      36.770  22.629  25.504  1.00  0.00     0.041 A 
ATOM      7  C   UNL A   1      34.752  23.274  24.263  1.00  0.00     0.107 A 
ATOM      8  C   UNL A   1      36.009  23.592  24.825  1.00  0.00     0.037 A 
ATOM      9  C   UNL A   1      34.316  21.958  24.236  1.00  0.00     0.061 A 
ATOM     10  C   UNL A   1      35.035  21.007  24.961  1.00  0.00     0.023 A 
ATOM     11  Cl  UNL A   1      32.987  21.390  23.298  1.00  0.00    -0.083 Cl
ATOM     12  C   UNL A   1      36.228  21.350  25.612  1.00  0.00     0.015 A 
BRANCH   7  13
ATOM     13  S   UNL A   1      33.729  24.639  23.804  1.00  0.00     0.263 S 
ATOM     14  O   UNL A   1      32.418  24.380  24.362  1.00  0.00    -0.201 OA
ATOM     15  O   UNL A   1      33.885  24.831  22.377  1.00  0.00    -0.201 OA
BRANCH  13  16
ATOM     16  N   UNL A   1      34.272  26.045  24.543  1.00  0.00    -0.279 N 
ATOM     17  H   UNL A   1      35.211  26.044  24.841  1.00  0.00     0.180 HD
BRANCH  16  18
ATOM     18  C   UNL A   1      33.532  27.248  24.791  1.00  0.00     0.052 A 
ATOM     19  C   UNL A   1      31.374  28.302  27.776  1.00  0.00     0.044 C 
ATOM     20  C   UNL A   1      32.125  28.356  26.479  1.00  0.00    -0.049 A 
ATOM     21  C   UNL A   1      32.161  29.523  25.724  1.00  0.00     0.004 A 
ATOM     22  C   UNL A   1      32.837  27.243  26.020  1.00  0.00     0.030 A 
ATOM     23  C   UNL A   1      32.763  29.514  24.466  1.00  0.00     0.006 A 
ATOM     24  C   UNL A   1      33.372  28.352  23.944  1.00  0.00    -0.027 A 
ATOM     25  C   UNL A   1      33.759  28.391  22.496  1.00  0.00     0.046 C 
ENDBRANCH  16  18
ENDBRANCH  13  16
ENDBRANCH   7  13
ENDBRANCH   3   6
ENDBRANCH   1   2
BRANCH   1  26
ATOM     26  C   UNL A   1      40.589  20.235  26.508  1.00  0.00     0.042 C 
BRANCH  26  27
ATOM     27  C   UNL A   1      41.937  20.830  26.158  1.00  0.00     0.118 C 
BRANCH  27  28
ATOM     28  N   UNL A   1      42.817  19.934  25.417  1.00  0.00    -0.352 N 
ATOM     29  C   UNL A   1      44.026  20.264  24.817  1.00  0.00     0.251 C 
ATOM     30  H   UNL A   1      42.523  18.997  25.333  1.00  0.00     0.163 HD
ATOM     31  O   UNL A   1      44.695  19.454  24.218  1.00  0.00    -0.269 OA
BRANCH  29  32
ATOM     32  C   UNL A   1      44.495  21.653  25.022  1.00  0.00     0.039 A 
ATOM     33  C   UNL A   1      45.335  21.902  26.107  1.00  0.00     0.014 A 
ATOM     34  C   UNL A   1      43.822  22.681  24.370  1.00  0.00     0.014 A 
ATOM     35  C   UNL A   1      45.320  23.167  26.683  1.00  0.00     0.010 A 
ATOM     36  C   UNL A   1      43.763  23.918  24.986  1.00  0.00     0.010 A 
ATOM     37  C   UNL A   1      44.445  24.145  26.190  1.00  0.00    -0.014 A 
BRANCH  37  38
ATOM     38  C   UNL A   1      44.197  25.361  26.969  1.00  0.00     0.031 A 
ATOM     39  C   UNL A   1      45.078  26.538  26.763  1.00  0.00     0.074 A 
ATOM     40  C   UNL A   1      43.061  25.589  27.661  1.00  0.00     0.049 A 
ATOM     41  N   UNL A   1      46.039  26.960  27.518  1.00  0.00    -0.248 NA
ATOM     42  C   UNL A   1      44.902  27.309  25.524  1.00  0.00     0.031 C 
ATOM     43  C   UNL A   1      41.815  24.820  27.637  1.00  0.00     0.029 A 
ATOM     44  N   UNL A   1      42.757  26.663  28.448  1.00  0.00    -0.354 N 
ATOM     45  C   UNL A   1      46.515  28.115  26.906  1.00  0.00     0.074 A 
ATOM     46  C   UNL A   1      45.951  28.127  25.580  1.00  0.00     0.031 C 
ATOM     47  C   UNL A   1      40.836  25.551  28.219  1.00  0.00     0.029 A 
ATOM     48  C   UNL A   1      41.411  26.776  28.758  1.00  0.00     0.049 A 
ATOM     49  H   UNL A   1      43.435  27.300  28.768  1.00  0.00     0.167 HD
ATOM     50  C   UNL A   1      47.134  29.125  27.580  1.00  0.00     0.031 A 
ATOM     51  C   UNL A   1      40.810  27.828  29.361  1.00  0.00     0.031 A 
ATOM     52  C   UNL A   1      47.381  28.793  28.959  1.00  0.00     0.049 A 
ATOM     53  C   UNL A   1      41.852  28.665  30.004  1.00  0.00     0.074 A 
ATOM     54  C   UNL A   1      48.082  27.820  29.640  1.00  0.00     0.029 A 
ATOM     55  N   UNL A   1      46.559  29.383  29.890  1.00  0.00    -0.354 N 
ATOM     56  N   UNL A   1      42.531  28.309  31.056  1.00  0.00    -0.248 NA
ATOM     57  C   UNL A   1      42.396  29.802  29.276  1.00  0.00     0.031 C 
ATOM     58  C   UNL A   1      47.332  27.579  30.831  1.00  0.00     0.029 A 
ATOM     59  C   UNL A   1      46.218  28.420  30.804  1.00  0.00     0.049 A 
ATOM     60  H   UNL A   1      46.269  30.324  29.899  1.00  0.00     0.167 HD
ATOM     61  C   UNL A   1      43.779  28.889  30.892  1.00  0.00     0.074 A 
ATOM     62  C   UNL A   1      43.588  29.909  29.869  1.00  0.00     0.031 C 
ATOM     63  C   UNL A   1      44.902  28.291  31.391  1.00  0.00     0.031 A 
BRANCH  50  64
ATOM     64  C   UNL A   1      47.202  30.558  27.101  1.00  0.00    -0.014 A 
ATOM     65  C   UNL A   1      48.448  31.211  27.101  1.00  0.00     0.009 A 
ATOM     66  C   UNL A   1      46.073  31.363  26.856  1.00  0.00     0.009 A 
ATOM     67  C   UNL A   1      48.551  32.593  26.896  1.00  0.00     0.001 A 
ATOM     68  C   UNL A   1      46.176  32.731  26.591  1.00  0.00     0.001 A 
ATOM     69  C   UNL A   1      47.416  33.351  26.635  1.00  0.00     0.000 A 
ENDBRANCH  50  64
BRANCH  51  70
ATOM     70  C   UNL A   1      39.401  28.261  29.286  1.00  0.00    -0.014 A 
ATOM     71  C   UNL A   1      38.592  28.286  30.433  1.00  0.00     0.009 A 
ATOM     72  C   UNL A   1      38.902  28.867  28.119  1.00  0.00     0.009 A 
ATOM     73  C   UNL A   1      37.339  28.913  30.417  1.00  0.00     0.001 A 
ATOM     74  C   UNL A   1      37.649  29.487  28.100  1.00  0.00     0.001 A 
ATOM     75  C   UNL A   1      36.873  29.521  29.253  1.00  0.00     0.000 A 
ENDBRANCH  51  70
BRANCH  63  76
ATOM     76  C   UNL A   1      44.712  27.178  32.390  1.00  0.00    -0.014 A 
ATOM     77  C   UNL A   1      44.722  25.822  32.017  1.00  0.00     0.009 A 
ATOM     78  C   UNL A   1      44.650  27.493  33.755  1.00  0.00     0.009 A 
ATOM     79  C   UNL A   1      44.626  24.813  32.979  1.00  0.00     0.001 A 
ATOM     80  C   UNL A   1      44.579  26.483  34.718  1.00  0.00     0.001 A 
ATOM     81  C   UNL A   1      44.559  25.144  34.330  1.00  0.00     0.000 A 
ENDBRANCH  63  76
ENDBRANCH  37  38
ENDBRANCH  29  32
ENDBRANCH  27  28
ENDBRANCH  26  27
ENDBRANCH   1  26
TORSDOF 13
ENDMDL
MODEL 3
REMARK VINA RESULT:     -11.0      1.470      2.150
REMARK SMILES Cc1ccc(C)c(NS(=O)(=O)c2cc(C(=O)NCCCNC(=O)c3ccc(-c4c5nc(c(-c6ccccc6)c6ccc([nH]6)c(-c6ccccc6)c6nc(c(-c7ccccc7)c7ccc4[nH]7)C=C6)C=C5)cc3)ccc2Cl)c1
REMARK SMILES IDX 18 1 17 2 15 3 16 4 14 6 12 7 13 8 74 9 73 10 75 11 72 12
REMARK SMILES IDX 9 13 10 14 11 15 8 16 7 18 1 19 2 20 3 21 76 22 4 23 5 24
REMARK SMILES IDX 6 25 19 26 20 27 21 28 22 29 23 31 24 32 25 33 71 34 26 35
REMARK SMILES IDX 70 36 27 37 28 38 29 39 64 40 30 41 69 42 63 43 65 44 31 45
REMARK SMILES IDX 68 46 62 47 61 48 32 50 54 51 39 52 53 53 40 54 43 55 52 56
REMARK SMILES IDX 66 57 41 58 42 59 51 61 67 62 44 63 33 64 34 65 38 66 35 67
REMARK SMILES IDX 37 68 36 69 55 70 56 71 60 72 57 73 59 74 58 75 45 76 46 77
REMARK SMILES IDX 50 78 47 79 49 80 48 81
REMARK H PARENT 17 5 8 17 21 30 65 49 43 60
REMARK Flexibility Score: inf
ROOT
ATOM      1  C   UNL A   1      32.588  29.593  26.279  1.00  0.00     0.118 C 
ENDROOT
BRANCH   1   2
ATOM      2  N   UNL A   1      33.343  29.329  25.066  1.00  0.00    -0.352 N 
ATOM      3  C   UNL A   1      33.532  28.190  24.324  1.00  0.00     0.251 C 
ATOM      4  O   UNL A   1      34.115  28.314  23.246  1.00  0.00    -0.269 OA
ATOM      5  H   UNL A   1      33.808  30.119  24.707  1.00  0.00     0.163 HD
BRANCH   3   6
ATOM      6  C   UNL A   1      33.097  26.820  24.738  1.00  0.00     0.041 A 
ATOM      7  C   UNL A   1      33.748  24.698  25.786  1.00  0.00     0.107 A 
ATOM      8  C   UNL A   1      34.074  25.980  25.290  1.00  0.00     0.037 A 
ATOM      9  C   UNL A   1      32.420  24.307  25.880  1.00  0.00     0.061 A 
ATOM     10  C   UNL A   1      31.450  25.108  25.278  1.00  0.00     0.023 A 
ATOM     11  Cl  UNL A   1      31.867  22.935  26.764  1.00  0.00    -0.083 Cl
ATOM     12  C   UNL A   1      31.792  26.332  24.688  1.00  0.00     0.015 A 
BRANCH   7  13
ATOM     13  S   UNL A   1      35.099  23.597  26.072  1.00  0.00     0.263 S 
ATOM     14  O   UNL A   1      34.763  22.825  27.250  1.00  0.00    -0.201 OA
ATOM     15  O   UNL A   1      36.311  24.391  26.047  1.00  0.00    -0.201 OA
BRANCH  13  16
ATOM     16  N   UNL A   1      35.220  22.490  24.816  1.00  0.00    -0.279 N 
ATOM     17  H   UNL A   1      36.108  22.403  24.399  1.00  0.00     0.180 HD
BRANCH  16  18
ATOM     18  C   UNL A   1      34.184  21.656  24.280  1.00  0.00     0.052 A 
ATOM     19  C   UNL A   1      33.222  18.030  25.059  1.00  0.00     0.044 C 
ATOM     20  C   UNL A   1      33.185  19.416  24.487  1.00  0.00    -0.049 A 
ATOM     21  C   UNL A   1      32.154  19.812  23.644  1.00  0.00     0.004 A 
ATOM     22  C   UNL A   1      34.170  20.352  24.821  1.00  0.00     0.030 A 
ATOM     23  C   UNL A   1      32.205  21.063  23.030  1.00  0.00     0.006 A 
ATOM     24  C   UNL A   1      33.267  21.962  23.266  1.00  0.00    -0.027 A 
ATOM     25  C   UNL A   1      33.345  23.159  22.368  1.00  0.00     0.046 C 
ENDBRANCH  16  18
ENDBRANCH  13  16
ENDBRANCH   7  13
ENDBRANCH   3   6
ENDBRANCH   1   2
BRANCH   1  26
ATOM     26  C   UNL A   1      33.344  29.165  27.536  1.00  0.00     0.042 C 
BRANCH  26  27
ATOM     27  C   UNL A   1      34.840  29.390  27.471  1.00  0.00     0.118 C 
BRANCH  27  28
ATOM     28  N   UNL A   1      35.342  30.381  28.416  1.00  0.00    -0.352 N 
ATOM     29  C   UNL A   1      36.591  30.392  29.023  1.00  0.00     0.251 C 
ATOM     30  H   UNL A   1      34.731  31.119  28.646  1.00  0.00     0.163 HD
ATOM     31  O   UNL A   1      36.926  31.258  29.799  1.00  0.00    -0.269 OA
BRANCH  29  32
ATOM     32  C   UNL A   1      37.527  29.326  28.605  1.00  0.00     0.039 A 
ATOM     33  C   UNL A   1      37.950  28.416  29.573  1.00  0.00     0.014 A 
ATOM     34  C   UNL A   1      38.207  29.477  27.401  1.00  0.00     0.014 A 
ATOM     35  C   UNL A   1      39.196  27.817  29.425  1.00  0.00     0.010 A 
ATOM     36  C   UNL A   1      39.472  28.928  27.290  1.00  0.00     0.010 A 
ATOM     37  C   UNL A   1      40.008  28.163  28.336  1.00  0.00    -0.014 A 
BRANCH  37  38
ATOM     38  C   UNL A   1      41.423  27.784  28.333  1.00  0.00     0.031 A 
ATOM     39  C   UNL A   1      41.843  26.583  27.568  1.00  0.00     0.074 A 
ATOM     40  C   UNL A   1      42.418  28.598  28.744  1.00  0.00     0.049 A 
ATOM     41  N   UNL A   1      42.140  25.409  28.023  1.00  0.00    -0.248 NA
ATOM     42  C   UNL A   1      41.879  26.689  26.102  1.00  0.00     0.031 C 
ATOM     43  C   UNL A   1      42.345  30.022  29.080  1.00  0.00     0.029 A 
ATOM     44  N   UNL A   1      43.753  28.323  28.821  1.00  0.00    -0.354 N 
ATOM     45  C   UNL A   1      42.509  24.660  26.910  1.00  0.00     0.074 A 
ATOM     46  C   UNL A   1      42.088  25.419  25.759  1.00  0.00     0.031 C 
ATOM     47  C   UNL A   1      43.599  30.526  29.136  1.00  0.00     0.029 A 
ATOM     48  C   UNL A   1      44.557  29.442  28.962  1.00  0.00     0.049 A 
ATOM     49  H   UNL A   1      44.113  27.407  28.781  1.00  0.00     0.167 HD
ATOM     50  C   UNL A   1      43.353  23.592  26.967  1.00  0.00     0.031 A 
ATOM     51  C   UNL A   1      45.908  29.478  28.882  1.00  0.00     0.031 A 
ATOM     52  C   UNL A   1      43.690  23.230  28.318  1.00  0.00     0.049 A 
ATOM     53  C   UNL A   1      46.429  28.097  29.023  1.00  0.00     0.074 A 
ATOM     54  C   UNL A   1      43.002  22.830  29.445  1.00  0.00     0.029 A 
ATOM     55  N   UNL A   1      44.948  23.578  28.752  1.00  0.00    -0.354 N 
ATOM     56  N   UNL A   1      46.403  27.415  30.131  1.00  0.00    -0.248 NA
ATOM     57  C   UNL A   1      46.697  27.315  27.825  1.00  0.00     0.031 C 
ATOM     58  C   UNL A   1      43.731  23.375  30.545  1.00  0.00     0.029 A 
ATOM     59  C   UNL A   1      44.820  24.075  30.023  1.00  0.00     0.049 A 
ATOM     60  H   UNL A   1      45.786  23.487  28.243  1.00  0.00     0.167 HD
ATOM     61  C   UNL A   1      46.239  26.096  29.738  1.00  0.00     0.074 A 
ATOM     62  C   UNL A   1      46.577  26.081  28.321  1.00  0.00     0.031 C 
ATOM     63  C   UNL A   1      45.567  25.207  30.529  1.00  0.00     0.031 A 
BRANCH  50  64
ATOM     64  C   UNL A   1      44.170  23.084  25.799  1.00  0.00    -0.014 A 
ATOM     65  C   UNL A   1      44.009  21.747  25.395  1.00  0.00     0.009 A 
ATOM     66  C   UNL A   1      45.241  23.789  25.218  1.00  0.00     0.009 A 
ATOM     67  C   UNL A   1      44.888  21.145  24.485  1.00  0.00     0.001 A 
ATOM     68  C   UNL A   1      46.085  23.212  24.265  1.00  0.00     0.001 A 
ATOM     69  C   UNL A   1      45.922  21.880  23.915  1.00  0.00     0.000 A 
ENDBRANCH  50  64
BRANCH  51  70
ATOM     70  C   UNL A   1      46.787  30.609  28.524  1.00  0.00    -0.014 A 
ATOM     71  C   UNL A   1      46.927  31.020  27.189  1.00  0.00     0.009 A 
ATOM     72  C   UNL A   1      47.327  31.437  29.525  1.00  0.00     0.009 A 
ATOM     73  C   UNL A   1      47.564  32.226  26.870  1.00  0.00     0.001 A 
ATOM     74  C   UNL A   1      47.968  32.637  29.206  1.00  0.00     0.001 A 
ATOM     75  C   UNL A   1      48.076  33.038  27.880  1.00  0.00     0.000 A 
ENDBRANCH  51  70
BRANCH  63  76
ATOM     76  C   UNL A   1      45.304  25.607  31.959  1.00  0.00    -0.014 A 
ATOM     77  C   UNL A   1      44.154  26.320  32.342  1.00  0.00     0.009 A 
ATOM     78  C   UNL A   1      46.167  25.145  32.963  1.00  0.00     0.009 A 
ATOM     79  C   UNL A   1      43.900  26.603  33.686  1.00  0.00     0.001 A 
ATOM     80  C   UNL A   1      45.900  25.407  34.310  1.00  0.00     0.001 A 
ATOM     81  C   UNL A   1      44.772  26.143  34.670  1.00  0.00     0.000 A 
ENDBRANCH  63  76
ENDBRANCH  37  38
ENDBRANCH  29  32
ENDBRANCH  27  28
ENDBRANCH  26  27
ENDBRANCH   1  26
TORSDOF 13
ENDMDL
