MODEL 1
REMARK VINA RESULT:     -10.7      0.000      0.000
REMARK SMILES O=C(CN(CC(F)(F)F)c1nc(-c2ccccc2)cs1)NCCCNC(=O)c1ccc(-c2c3nc(c(-c4ccccc4)c4ccc([nH]4)c(-c4ccccc4)c4nc(c(-c5ccccc5)c5ccc2[nH]5)C=C4)C=C3)cc1
REMARK SMILES IDX 22 1 21 2 1 3 2 4 3 6 4 7 5 8 6 9 7 10 8 11 9 12 10 13 11 14
REMARK SMILES IDX 20 15 12 16 19 17 13 18 14 19 18 20 15 21 17 22 16 23 23 24
REMARK SMILES IDX 24 25 25 26 26 27 27 29 28 30 29 31 75 32 30 33 74 34 31 35
REMARK SMILES IDX 32 36 33 37 68 38 34 39 73 40 67 41 69 42 35 43 72 44 66 45
REMARK SMILES IDX 65 46 36 48 58 49 43 50 57 51 44 52 47 53 56 54 70 55 45 56
REMARK SMILES IDX 46 57 55 59 71 60 48 61 37 62 38 63 42 64 39 65 41 66 40 67
REMARK SMILES IDX 59 68 60 69 64 70 61 71 63 72 62 73 49 74 50 75 54 76 51 77
REMARK SMILES IDX 53 78 52 79
REMARK H PARENT 21 5 25 28 69 47 47 58
REMARK Flexibility Score: inf
ROOT
ATOM      1  C   UNL A   1      37.541  21.377  24.652  1.00  0.00     0.117 C 
ENDROOT
BRANCH   1   2
ATOM      2  N   UNL A   1      36.479  21.622  25.601  1.00  0.00    -0.354 N 
ATOM      3  O   UNL A   1      36.733  23.899  25.668  1.00  0.00    -0.273 OA
ATOM      4  C   UNL A   1      36.085  22.895  25.957  1.00  0.00     0.239 C 
ATOM      5  H   UNL A   1      36.019  20.852  26.009  1.00  0.00     0.163 HD
BRANCH   4   6
ATOM      6  C   UNL A   1      34.817  22.973  26.824  1.00  0.00     0.219 C 
BRANCH   6   7
ATOM      7  N   UNL A   1      33.552  23.039  26.060  1.00  0.00    -0.330 N 
BRANCH   7   8
ATOM      8  C   UNL A   1      32.871  24.345  25.943  1.00  0.00     0.234 C 
BRANCH   8   9
ATOM      9  C   UNL A   1      33.568  25.440  25.118  1.00  0.00     0.406 C 
ATOM     10  F   UNL A   1      34.253  24.932  24.071  1.00  0.00    -0.169 F 
ATOM     11  F   UNL A   1      32.643  26.288  24.603  1.00  0.00    -0.169 F 
ATOM     12  F   UNL A   1      34.417  26.180  25.864  1.00  0.00    -0.169 F 
ENDBRANCH   8   9
ENDBRANCH   7   8
BRANCH   7  13
ATOM     13  C   UNL A   1      33.223  21.967  25.288  1.00  0.00     0.186 A 
ATOM     14  N   UNL A   1      33.600  20.744  25.589  1.00  0.00    -0.220 NA
ATOM     15  S   UNL A   1      32.299  22.073  23.832  1.00  0.00    -0.105 S 
ATOM     16  C   UNL A   1      33.155  19.839  24.642  1.00  0.00     0.083 A 
ATOM     17  C   UNL A   1      32.458  20.391  23.591  1.00  0.00     0.097 A 
BRANCH  16  18
ATOM     18  C   UNL A   1      33.346  18.407  24.797  1.00  0.00     0.001 A 
ATOM     19  C   UNL A   1      32.451  17.629  25.543  1.00  0.00     0.010 A 
ATOM     20  C   UNL A   1      34.473  17.799  24.229  1.00  0.00     0.010 A 
ATOM     21  C   UNL A   1      32.696  16.267  25.739  1.00  0.00     0.001 A 
ATOM     22  C   UNL A   1      34.720  16.440  24.434  1.00  0.00     0.001 A 
ATOM     23  C   UNL A   1      33.834  15.676  25.192  1.00  0.00     0.000 A 
ENDBRANCH  16  18
ENDBRANCH   7  13
ENDBRANCH   6   7
ENDBRANCH   4   6
ENDBRANCH   1   2
BRANCH   1  24
ATOM     24  C   UNL A   1      38.140  19.977  24.736  1.00  0.00     0.042 C 
BRANCH  24  25
ATOM     25  C   UNL A   1      38.900  19.674  26.025  1.00  0.00     0.118 C 
BRANCH  25  26
ATOM     26  N   UNL A   1      40.201  19.058  25.800  1.00  0.00    -0.352 N 
ATOM     27  C   UNL A   1      41.473  19.546  25.948  1.00  0.00     0.251 C 
ATOM     28  H   UNL A   1      40.158  18.126  25.485  1.00  0.00     0.163 HD
ATOM     29  O   UNL A   1      42.420  18.849  25.575  1.00  0.00    -0.269 OA
BRANCH  27  30
ATOM     30  C   UNL A   1      41.746  20.883  26.526  1.00  0.00     0.039 A 
ATOM     31  C   UNL A   1      42.145  21.909  25.660  1.00  0.00     0.014 A 
ATOM     32  C   UNL A   1      41.693  21.129  27.899  1.00  0.00     0.014 A 
ATOM     33  C   UNL A   1      42.444  23.181  26.159  1.00  0.00     0.010 A 
ATOM     34  C   UNL A   1      41.927  22.417  28.392  1.00  0.00     0.010 A 
ATOM     35  C   UNL A   1      42.315  23.453  27.529  1.00  0.00    -0.014 A 
BRANCH  35  36
ATOM     36  C   UNL A   1      42.606  24.806  28.072  1.00  0.00     0.031 A 
ATOM     37  C   UNL A   1      44.003  25.174  28.497  1.00  0.00     0.074 A 
ATOM     38  C   UNL A   1      41.607  25.698  28.227  1.00  0.00     0.049 A 
ATOM     39  N   UNL A   1      44.438  26.286  29.034  1.00  0.00    -0.248 NA
ATOM     40  C   UNL A   1      45.043  24.150  28.312  1.00  0.00     0.031 C 
ATOM     41  C   UNL A   1      40.203  25.466  27.884  1.00  0.00     0.029 A 
ATOM     42  N   UNL A   1      41.624  26.980  28.718  1.00  0.00    -0.354 N 
ATOM     43  C   UNL A   1      45.793  26.088  29.271  1.00  0.00     0.074 A 
ATOM     44  C   UNL A   1      46.100  24.736  28.856  1.00  0.00     0.031 C 
ATOM     45  C   UNL A   1      39.497  26.577  28.155  1.00  0.00     0.029 A 
ATOM     46  C   UNL A   1      40.390  27.585  28.718  1.00  0.00     0.049 A 
ATOM     47  H   UNL A   1      42.441  27.423  29.040  1.00  0.00     0.167 HD
ATOM     48  C   UNL A   1      46.706  26.955  29.772  1.00  0.00     0.031 A 
ATOM     49  C   UNL A   1      40.017  28.812  29.129  1.00  0.00     0.031 A 
ATOM     50  C   UNL A   1      46.414  28.308  30.168  1.00  0.00     0.049 A 
ATOM     51  C   UNL A   1      41.047  29.756  29.681  1.00  0.00     0.074 A 
ATOM     52  C   UNL A   1      47.285  29.275  30.639  1.00  0.00     0.029 A 
ATOM     53  N   UNL A   1      45.154  28.884  30.140  1.00  0.00    -0.354 N 
ATOM     54  N   UNL A   1      42.334  29.570  29.845  1.00  0.00    -0.248 NA
ATOM     55  C   UNL A   1      40.573  31.085  30.091  1.00  0.00     0.031 C 
ATOM     56  C   UNL A   1      46.546  30.426  30.932  1.00  0.00     0.029 A 
ATOM     57  C   UNL A   1      45.222  30.189  30.598  1.00  0.00     0.049 A 
ATOM     58  H   UNL A   1      44.333  28.432  29.837  1.00  0.00     0.167 HD
ATOM     59  C   UNL A   1      42.828  30.767  30.348  1.00  0.00     0.074 A 
ATOM     60  C   UNL A   1      41.705  31.676  30.451  1.00  0.00     0.031 C 
ATOM     61  C   UNL A   1      44.099  31.085  30.691  1.00  0.00     0.031 A 
BRANCH  48  62
ATOM     62  C   UNL A   1      48.116  26.459  29.925  1.00  0.00    -0.014 A 
ATOM     63  C   UNL A   1      49.064  26.636  28.904  1.00  0.00     0.009 A 
ATOM     64  C   UNL A   1      48.513  25.834  31.117  1.00  0.00     0.009 A 
ATOM     65  C   UNL A   1      50.368  26.163  29.059  1.00  0.00     0.001 A 
ATOM     66  C   UNL A   1      49.825  25.387  31.280  1.00  0.00     0.001 A 
ATOM     67  C   UNL A   1      50.748  25.543  30.248  1.00  0.00     0.000 A 
ENDBRANCH  48  62
BRANCH  49  68
ATOM     68  C   UNL A   1      38.596  29.234  29.012  1.00  0.00    -0.014 A 
ATOM     69  C   UNL A   1      38.108  29.750  27.802  1.00  0.00     0.009 A 
ATOM     70  C   UNL A   1      37.728  29.132  30.110  1.00  0.00     0.009 A 
ATOM     71  C   UNL A   1      36.783  30.181  27.702  1.00  0.00     0.001 A 
ATOM     72  C   UNL A   1      36.397  29.539  29.998  1.00  0.00     0.001 A 
ATOM     73  C   UNL A   1      35.928  30.071  28.797  1.00  0.00     0.000 A 
ENDBRANCH  49  68
BRANCH  61  74
ATOM     74  C   UNL A   1      44.353  32.486  31.168  1.00  0.00    -0.014 A 
ATOM     75  C   UNL A   1      44.297  32.814  32.531  1.00  0.00     0.009 A 
ATOM     76  C   UNL A   1      44.689  33.484  30.240  1.00  0.00     0.009 A 
ATOM     77  C   UNL A   1      44.540  34.124  32.952  1.00  0.00     0.001 A 
ATOM     78  C   UNL A   1      44.956  34.786  30.666  1.00  0.00     0.001 A 
ATOM     79  C   UNL A   1      44.874  35.107  32.020  1.00  0.00     0.000 A 
ENDBRANCH  61  74
ENDBRANCH  35  36
ENDBRANCH  27  30
ENDBRANCH  25  26
ENDBRANCH  24  25
ENDBRANCH   1  24
TORSDOF 15
ENDMDL
MODEL 2
REMARK VINA RESULT:     -10.7      3.654      6.165
REMARK SMILES O=C(CN(CC(F)(F)F)c1nc(-c2ccccc2)cs1)NCCCNC(=O)c1ccc(-c2c3nc(c(-c4ccccc4)c4ccc([nH]4)c(-c4ccccc4)c4nc(c(-c5ccccc5)c5ccc2[nH]5)C=C4)C=C3)cc1
REMARK SMILES IDX 22 1 21 2 1 3 2 4 3 6 4 7 5 8 6 9 7 10 8 11 9 12 10 13 11 14
REMARK SMILES IDX 20 15 12 16 19 17 13 18 14 19 18 20 15 21 17 22 16 23 23 24
REMARK SMILES IDX 24 25 25 26 26 27 27 29 28 30 29 31 75 32 30 33 74 34 31 35
REMARK SMILES IDX 32 36 33 37 68 38 34 39 73 40 67 41 69 42 35 43 72 44 66 45
REMARK SMILES IDX 65 46 36 48 58 49 43 50 57 51 44 52 47 53 56 54 70 55 45 56
REMARK SMILES IDX 46 57 55 59 71 60 48 61 37 62 38 63 42 64 39 65 41 66 40 67
REMARK SMILES IDX 59 68 60 69 64 70 61 71 63 72 62 73 49 74 50 75 54 76 51 77
REMARK SMILES IDX 53 78 52 79
REMARK H PARENT 21 5 25 28 69 47 47 58
REMARK Flexibility Score: inf
ROOT
ATOM      1  C   UNL A   1      34.548  23.528  25.599  1.00  0.00     0.117 C 
ENDROOT
BRANCH   1   2
ATOM      2  N   UNL A   1      33.699  24.560  26.149  1.00  0.00    -0.354 N 
ATOM      3  O   UNL A   1      34.218  26.158  24.590  1.00  0.00    -0.273 OA
ATOM      4  C   UNL A   1      33.519  25.777  25.527  1.00  0.00     0.239 C 
ATOM      5  H   UNL A   1      33.231  24.387  26.999  1.00  0.00     0.163 HD
BRANCH   4   6
ATOM      6  C   UNL A   1      32.435  26.677  26.145  1.00  0.00     0.219 C 
BRANCH   6   7
ATOM      7  N   UNL A   1      32.280  27.993  25.489  1.00  0.00    -0.330 N 
BRANCH   7   8
ATOM      8  C   UNL A   1      33.406  28.948  25.555  1.00  0.00     0.234 C 
BRANCH   8   9
ATOM      9  C   UNL A   1      33.423  29.948  26.723  1.00  0.00     0.406 C 
ATOM     10  F   UNL A   1      32.898  29.424  27.851  1.00  0.00    -0.169 F 
ATOM     11  F   UNL A   1      34.703  30.294  27.014  1.00  0.00    -0.169 F 
ATOM     12  F   UNL A   1      32.758  31.086  26.433  1.00  0.00    -0.169 F 
ENDBRANCH   8   9
ENDBRANCH   7   8
BRANCH   7  13
ATOM     13  C   UNL A   1      31.229  28.156  24.638  1.00  0.00     0.186 A 
ATOM     14  N   UNL A   1      30.797  29.344  24.278  1.00  0.00    -0.220 NA
ATOM     15  S   UNL A   1      30.336  26.850  23.945  1.00  0.00    -0.105 S 
ATOM     16  C   UNL A   1      29.713  29.242  23.424  1.00  0.00     0.083 A 
ATOM     17  C   UNL A   1      29.299  27.954  23.161  1.00  0.00     0.097 A 
BRANCH  16  18
ATOM     18  C   UNL A   1      29.114  30.407  22.797  1.00  0.00     0.001 A 
ATOM     19  C   UNL A   1      28.651  30.366  21.475  1.00  0.00     0.010 A 
ATOM     20  C   UNL A   1      29.041  31.610  23.511  1.00  0.00     0.010 A 
ATOM     21  C   UNL A   1      28.146  31.520  20.870  1.00  0.00     0.001 A 
ATOM     22  C   UNL A   1      28.546  32.764  22.900  1.00  0.00     0.001 A 
ATOM     23  C   UNL A   1      28.103  32.719  21.579  1.00  0.00     0.000 A 
ENDBRANCH  16  18
ENDBRANCH   7  13
ENDBRANCH   6   7
ENDBRANCH   4   6
ENDBRANCH   1   2
BRANCH   1  24
ATOM     24  C   UNL A   1      35.979  23.549  26.131  1.00  0.00     0.042 C 
BRANCH  24  25
ATOM     25  C   UNL A   1      37.067  23.511  25.061  1.00  0.00     0.118 C 
BRANCH  25  26
ATOM     26  N   UNL A   1      38.153  22.590  25.372  1.00  0.00    -0.352 N 
ATOM     27  C   UNL A   1      39.334  22.774  26.041  1.00  0.00     0.251 C 
ATOM     28  H   UNL A   1      38.012  21.673  25.042  1.00  0.00     0.163 HD
ATOM     29  O   UNL A   1      40.147  21.847  26.071  1.00  0.00    -0.269 OA
BRANCH  27  30
ATOM     30  C   UNL A   1      39.671  24.049  26.717  1.00  0.00     0.039 A 
ATOM     31  C   UNL A   1      39.206  24.250  28.023  1.00  0.00     0.014 A 
ATOM     32  C   UNL A   1      40.363  25.076  26.072  1.00  0.00     0.014 A 
ATOM     33  C   UNL A   1      39.471  25.449  28.692  1.00  0.00     0.010 A 
ATOM     34  C   UNL A   1      40.686  26.248  26.763  1.00  0.00     0.010 A 
ATOM     35  C   UNL A   1      40.235  26.451  28.076  1.00  0.00    -0.014 A 
BRANCH  35  36
ATOM     36  C   UNL A   1      40.546  27.721  28.783  1.00  0.00     0.031 A 
ATOM     37  C   UNL A   1      41.880  27.913  29.456  1.00  0.00     0.074 A 
ATOM     38  C   UNL A   1      39.615  28.693  28.863  1.00  0.00     0.049 A 
ATOM     39  N   UNL A   1      42.313  28.930  30.158  1.00  0.00    -0.248 NA
ATOM     40  C   UNL A   1      42.844  26.808  29.342  1.00  0.00     0.031 C 
ATOM     41  C   UNL A   1      38.273  28.631  28.283  1.00  0.00     0.029 A 
ATOM     42  N   UNL A   1      39.660  29.924  29.468  1.00  0.00    -0.354 N 
ATOM     43  C   UNL A   1      43.589  28.580  30.586  1.00  0.00     0.074 A 
ATOM     44  C   UNL A   1      43.843  27.241  30.099  1.00  0.00     0.031 C 
ATOM     45  C   UNL A   1      37.630  29.782  28.541  1.00  0.00     0.029 A 
ATOM     46  C   UNL A   1      38.500  30.648  29.331  1.00  0.00     0.049 A 
ATOM     47  H   UNL A   1      40.449  30.257  29.955  1.00  0.00     0.167 HD
ATOM     48  C   UNL A   1      44.477  29.309  31.303  1.00  0.00     0.031 A 
ATOM     49  C   UNL A   1      38.171  31.870  29.791  1.00  0.00     0.031 A 
ATOM     50  C   UNL A   1      44.240  30.648  31.774  1.00  0.00     0.049 A 
ATOM     51  C   UNL A   1      39.173  32.659  30.585  1.00  0.00     0.074 A 
ATOM     52  C   UNL A   1      45.101  31.483  32.465  1.00  0.00     0.029 A 
ATOM     53  N   UNL A   1      43.057  31.348  31.602  1.00  0.00    -0.354 N 
ATOM     54  N   UNL A   1      40.394  32.334  30.932  1.00  0.00    -0.248 NA
ATOM     55  C   UNL A   1      38.753  33.993  31.039  1.00  0.00     0.031 C 
ATOM     56  C   UNL A   1      44.425  32.676  32.745  1.00  0.00     0.029 A 
ATOM     57  C   UNL A   1      43.159  32.599  32.186  1.00  0.00     0.049 A 
ATOM     58  H   UNL A   1      42.261  31.006  31.132  1.00  0.00     0.167 HD
ATOM     59  C   UNL A   1      40.898  33.432  31.617  1.00  0.00     0.074 A 
ATOM     60  C   UNL A   1      39.856  34.437  31.626  1.00  0.00     0.031 C 
ATOM     61  C   UNL A   1      42.118  33.593  32.184  1.00  0.00     0.031 A 
BRANCH  48  62
ATOM     62  C   UNL A   1      45.794  28.664  31.629  1.00  0.00    -0.014 A 
ATOM     63  C   UNL A   1      45.958  27.892  32.791  1.00  0.00     0.009 A 
ATOM     64  C   UNL A   1      46.878  28.803  30.749  1.00  0.00     0.009 A 
ATOM     65  C   UNL A   1      47.190  27.304  33.082  1.00  0.00     0.001 A 
ATOM     66  C   UNL A   1      48.101  28.191  31.029  1.00  0.00     0.001 A 
ATOM     67  C   UNL A   1      48.259  27.451  32.200  1.00  0.00     0.000 A 
ENDBRANCH  48  62
BRANCH  49  68
ATOM     68  C   UNL A   1      36.831  32.439  29.492  1.00  0.00    -0.014 A 
ATOM     69  C   UNL A   1      35.783  32.309  30.416  1.00  0.00     0.009 A 
ATOM     70  C   UNL A   1      36.592  33.105  28.280  1.00  0.00     0.009 A 
ATOM     71  C   UNL A   1      34.514  32.812  30.120  1.00  0.00     0.001 A 
ATOM     72  C   UNL A   1      35.328  33.630  27.999  1.00  0.00     0.001 A 
ATOM     73  C   UNL A   1      34.289  33.475  28.916  1.00  0.00     0.000 A 
ENDBRANCH  49  68
BRANCH  61  74
ATOM     74  C   UNL A   1      42.408  34.920  32.825  1.00  0.00    -0.014 A 
ATOM     75  C   UNL A   1      41.935  35.229  34.109  1.00  0.00     0.009 A 
ATOM     76  C   UNL A   1      43.199  35.859  32.145  1.00  0.00     0.009 A 
ATOM     77  C   UNL A   1      42.220  36.469  34.686  1.00  0.00     0.001 A 
ATOM     78  C   UNL A   1      43.504  37.087  32.736  1.00  0.00     0.001 A 
ATOM     79  C   UNL A   1      43.008  37.394  34.001  1.00  0.00     0.000 A 
ENDBRANCH  61  74
ENDBRANCH  35  36
ENDBRANCH  27  30
ENDBRANCH  25  26
ENDBRANCH  24  25
ENDBRANCH   1  24
TORSDOF 15
ENDMDL
MODEL 3
REMARK VINA RESULT:     -10.7      0.488      5.956
REMARK SMILES O=C(CN(CC(F)(F)F)c1nc(-c2ccccc2)cs1)NCCCNC(=O)c1ccc(-c2c3nc(c(-c4ccccc4)c4ccc([nH]4)c(-c4ccccc4)c4nc(c(-c5ccccc5)c5ccc2[nH]5)C=C4)C=C3)cc1
REMARK SMILES IDX 22 1 21 2 1 3 2 4 3 6 4 7 5 8 6 9 7 10 8 11 9 12 10 13 11 14
REMARK SMILES IDX 20 15 12 16 19 17 13 18 14 19 18 20 15 21 17 22 16 23 23 24
REMARK SMILES IDX 24 25 25 26 26 27 27 29 28 30 29 31 75 32 30 33 74 34 31 35
REMARK SMILES IDX 32 36 33 37 68 38 34 39 73 40 67 41 69 42 35 43 72 44 66 45
REMARK SMILES IDX 65 46 36 48 58 49 43 50 57 51 44 52 47 53 56 54 70 55 45 56
REMARK SMILES IDX 46 57 55 59 71 60 48 61 37 62 38 63 42 64 39 65 41 66 40 67
REMARK SMILES IDX 59 68 60 69 64 70 61 71 63 72 62 73 49 74 50 75 54 76 51 77
REMARK SMILES IDX 53 78 52 79
REMARK H PARENT 21 5 25 28 69 47 47 58
REMARK Flexibility Score: inf
ROOT
ATOM      1  C   UNL A   1      37.380  21.196  24.576  1.00  0.00     0.117 C 
ENDROOT
BRANCH   1   2
ATOM      2  N   UNL A   1      36.313  21.479  25.509  1.00  0.00    -0.354 N 
ATOM      3  O   UNL A   1      36.751  23.720  25.706  1.00  0.00    -0.273 OA
ATOM      4  C   UNL A   1      36.014  22.760  25.922  1.00  0.00     0.239 C 
ATOM      5  H   UNL A   1      35.779  20.729  25.861  1.00  0.00     0.163 HD
BRANCH   4   6
ATOM      6  C   UNL A   1      34.730  22.898  26.759  1.00  0.00     0.219 C 
BRANCH   6   7
ATOM      7  N   UNL A   1      33.494  23.067  25.965  1.00  0.00    -0.330 N 
BRANCH   7   8
ATOM      8  C   UNL A   1      32.896  24.416  25.877  1.00  0.00     0.234 C 
BRANCH   8   9
ATOM      9  C   UNL A   1      33.666  25.486  25.086  1.00  0.00     0.406 C 
ATOM     10  F   UNL A   1      34.383  24.954  24.073  1.00  0.00    -0.169 F 
ATOM     11  F   UNL A   1      32.795  26.362  24.527  1.00  0.00    -0.169 F 
ATOM     12  F   UNL A   1      34.503  26.199  25.870  1.00  0.00    -0.169 F 
ENDBRANCH   8   9
ENDBRANCH   7   8
BRANCH   7  13
ATOM     13  C   UNL A   1      33.123  22.044  25.146  1.00  0.00     0.186 A 
ATOM     14  N   UNL A   1      33.421  20.792  25.411  1.00  0.00    -0.220 NA
ATOM     15  S   UNL A   1      32.243  22.255  23.675  1.00  0.00    -0.105 S 
ATOM     16  C   UNL A   1      32.948  19.948  24.422  1.00  0.00     0.083 A 
ATOM     17  C   UNL A   1      32.311  20.577  23.376  1.00  0.00     0.097 A 
BRANCH  16  18
ATOM     18  C   UNL A   1      33.052  18.503  24.528  1.00  0.00     0.001 A 
ATOM     19  C   UNL A   1      32.566  17.817  25.649  1.00  0.00     0.010 A 
ATOM     20  C   UNL A   1      33.694  17.784  23.512  1.00  0.00     0.010 A 
ATOM     21  C   UNL A   1      32.742  16.436  25.762  1.00  0.00     0.001 A 
ATOM     22  C   UNL A   1      33.878  16.405  23.631  1.00  0.00     0.001 A 
ATOM     23  C   UNL A   1      33.406  15.733  24.758  1.00  0.00     0.000 A 
ENDBRANCH  16  18
ENDBRANCH   7  13
ENDBRANCH   6   7
ENDBRANCH   4   6
ENDBRANCH   1   2
BRANCH   1  24
ATOM     24  C   UNL A   1      38.137  19.904  24.869  1.00  0.00     0.042 C 
BRANCH  24  25
ATOM     25  C   UNL A   1      39.070  19.959  26.075  1.00  0.00     0.118 C 
BRANCH  25  26
ATOM     26  N   UNL A   1      40.324  19.245  25.872  1.00  0.00    -0.352 N 
ATOM     27  C   UNL A   1      41.627  19.650  25.988  1.00  0.00     0.251 C 
ATOM     28  H   UNL A   1      40.213  18.304  25.603  1.00  0.00     0.163 HD
ATOM     29  O   UNL A   1      42.521  18.872  25.643  1.00  0.00    -0.269 OA
BRANCH  27  30
ATOM     30  C   UNL A   1      41.997  20.991  26.498  1.00  0.00     0.039 A 
ATOM     31  C   UNL A   1      41.961  21.206  27.883  1.00  0.00     0.014 A 
ATOM     32  C   UNL A   1      42.302  22.056  25.649  1.00  0.00     0.014 A 
ATOM     33  C   UNL A   1      42.272  22.462  28.412  1.00  0.00     0.010 A 
ATOM     34  C   UNL A   1      42.678  23.294  26.180  1.00  0.00     0.010 A 
ATOM     35  C   UNL A   1      42.656  23.513  27.567  1.00  0.00    -0.014 A 
BRANCH  35  36
ATOM     36  C   UNL A   1      43.013  24.847  28.116  1.00  0.00     0.031 A 
ATOM     37  C   UNL A   1      41.948  25.885  28.354  1.00  0.00     0.074 A 
ATOM     38  C   UNL A   1      44.303  25.150  28.363  1.00  0.00     0.049 A 
ATOM     39  N   UNL A   1      42.074  27.116  28.782  1.00  0.00    -0.248 NA
ATOM     40  C   UNL A   1      40.562  25.493  28.050  1.00  0.00     0.031 C 
ATOM     41  C   UNL A   1      45.440  24.253  28.153  1.00  0.00     0.029 A 
ATOM     42  N   UNL A   1      44.873  26.303  28.844  1.00  0.00    -0.354 N 
ATOM     43  C   UNL A   1      40.791  27.651  28.779  1.00  0.00     0.074 A 
ATOM     44  C   UNL A   1      39.907  26.625  28.268  1.00  0.00     0.031 C 
ATOM     45  C   UNL A   1      46.568  24.880  28.524  1.00  0.00     0.029 A 
ATOM     46  C   UNL A   1      46.240  26.232  28.966  1.00  0.00     0.049 A 
ATOM     47  H   UNL A   1      44.352  27.105  29.079  1.00  0.00     0.167 HD
ATOM     48  C   UNL A   1      40.379  28.878  29.180  1.00  0.00     0.031 A 
ATOM     49  C   UNL A   1      47.130  27.152  29.384  1.00  0.00     0.031 A 
ATOM     50  C   UNL A   1      41.247  29.898  29.707  1.00  0.00     0.049 A 
ATOM     51  C   UNL A   1      46.649  28.506  29.823  1.00  0.00     0.074 A 
ATOM     52  C   UNL A   1      40.911  31.152  30.186  1.00  0.00     0.029 A 
ATOM     53  N   UNL A   1      42.622  29.779  29.825  1.00  0.00    -0.354 N 
ATOM     54  N   UNL A   1      45.426  28.974  29.866  1.00  0.00    -0.248 NA
ATOM     55  C   UNL A   1      47.674  29.453  30.286  1.00  0.00     0.031 C 
ATOM     56  C   UNL A   1      42.089  31.809  30.559  1.00  0.00     0.029 A 
ATOM     57  C   UNL A   1      43.152  30.944  30.356  1.00  0.00     0.049 A 
ATOM     58  H   UNL A   1      43.145  28.984  29.571  1.00  0.00     0.167 HD
ATOM     59  C   UNL A   1      45.530  30.258  30.388  1.00  0.00     0.074 A 
ATOM     60  C   UNL A   1      46.934  30.490  30.657  1.00  0.00     0.031 C 
ATOM     61  C   UNL A   1      44.549  31.160  30.625  1.00  0.00     0.031 A 
BRANCH  48  62
ATOM     62  C   UNL A   1      38.913  29.187  29.056  1.00  0.00    -0.014 A 
ATOM     63  C   UNL A   1      38.039  29.013  30.141  1.00  0.00     0.009 A 
ATOM     64  C   UNL A   1      38.403  29.689  27.848  1.00  0.00     0.009 A 
ATOM     65  C   UNL A   1      36.679  29.299  30.007  1.00  0.00     0.001 A 
ATOM     66  C   UNL A   1      37.048  30.000  27.726  1.00  0.00     0.001 A 
ATOM     67  C   UNL A   1      36.186  29.796  28.802  1.00  0.00     0.000 A 
ENDBRANCH  48  62
BRANCH  49  68
ATOM     68  C   UNL A   1      48.577  26.816  29.431  1.00  0.00    -0.014 A 
ATOM     69  C   UNL A   1      49.403  27.084  28.328  1.00  0.00     0.009 A 
ATOM     70  C   UNL A   1      49.136  26.219  30.572  1.00  0.00     0.009 A 
ATOM     71  C   UNL A   1      50.755  26.735  28.358  1.00  0.00     0.001 A 
ATOM     72  C   UNL A   1      50.494  25.896  30.607  1.00  0.00     0.001 A 
ATOM     73  C   UNL A   1      51.300  26.146  29.497  1.00  0.00     0.000 A 
ENDBRANCH  49  68
BRANCH  61  74
ATOM     74  C   UNL A   1      44.953  32.468  31.245  1.00  0.00    -0.014 A 
ATOM     75  C   UNL A   1      45.302  33.574  30.456  1.00  0.00     0.009 A 
ATOM     76  C   UNL A   1      44.948  32.602  32.643  1.00  0.00     0.009 A 
ATOM     77  C   UNL A   1      45.671  34.780  31.055  1.00  0.00     0.001 A 
ATOM     78  C   UNL A   1      45.293  33.817  33.238  1.00  0.00     0.001 A 
ATOM     79  C   UNL A   1      45.661  34.901  32.445  1.00  0.00     0.000 A 
ENDBRANCH  61  74
ENDBRANCH  35  36
ENDBRANCH  27  30
ENDBRANCH  25  26
ENDBRANCH  24  25
ENDBRANCH   1  24
TORSDOF 15
ENDMDL
