MODEL 1
REMARK VINA RESULT:     -12.0      0.000      0.000
REMARK SMILES COC(=O)c1ccccc1N1C(=O)/C(=C\c2ccc(-c3ccc(Cl)c(C(=O)NCCCNC(=O)c4ccc(-c5c6nc(c(-c7ccccc7)c7ccc([nH]7)c(-c7ccccc7)c7nc(c(-c8ccccc8)c8ccc5[nH]8)C=C7)C=C6)cc4)c3)o2)SC1=S
REMARK SMILES IDX 26 1 27 2 28 3 25 5 20 6 21 7 83 8 22 9 23 10 24 11 19 12
REMARK SMILES IDX 16 13 17 14 84 15 18 16 15 17 11 18 12 19 86 20 13 21 14 22
REMARK SMILES IDX 85 23 87 24 10 25 5 26 6 27 7 28 9 29 8 30 3 31 4 32 2 33
REMARK SMILES IDX 1 34 29 35 30 36 31 37 32 38 33 39 34 41 35 42 36 43 82 44
REMARK SMILES IDX 37 45 81 46 38 47 39 48 40 49 75 50 41 51 80 52 74 53 76 54
REMARK SMILES IDX 42 55 79 56 73 57 72 58 43 60 65 61 50 62 64 63 51 64 54 65
REMARK SMILES IDX 63 66 77 67 52 68 53 69 62 71 78 72 55 73 44 74 45 75 49 76
REMARK SMILES IDX 46 77 48 78 47 79 66 80 67 81 71 82 68 83 70 84 69 85 56 86
REMARK SMILES IDX 57 87 61 88 58 89 60 90 59 91
REMARK H PARENT 28 4 32 40 76 59 54 70
REMARK Flexibility Score: inf
ROOT
ATOM      1  C   UNL A   1      35.066  23.169  25.876  1.00  0.00     0.252 C 
ATOM      2  O   UNL A   1      34.284  22.340  26.337  1.00  0.00    -0.269 OA
ATOM      3  N   UNL A   1      36.411  22.945  26.107  1.00  0.00    -0.352 N 
ATOM      4  H   UNL A   1      36.572  22.169  26.690  1.00  0.00     0.163 HD
ENDROOT
BRANCH   1   5
ATOM      5  C   UNL A   1      34.557  24.353  25.123  1.00  0.00     0.059 A 
ATOM      6  C   UNL A   1      33.582  26.585  25.267  1.00  0.00     0.018 A 
ATOM      7  C   UNL A   1      33.237  26.527  23.918  1.00  0.00     0.013 A 
ATOM      8  C   UNL A   1      34.363  25.556  25.803  1.00  0.00     0.027 A 
ATOM      9  C   UNL A   1      33.613  25.419  23.154  1.00  0.00     0.022 A 
ATOM     10  C   UNL A   1      34.230  24.312  23.760  1.00  0.00     0.053 A 
ATOM     11  Cl  UNL A   1      34.508  22.945  22.739  1.00  0.00    -0.083 Cl
BRANCH   6  12
ATOM     12  C   UNL A   1      33.054  27.587  26.179  1.00  0.00     0.134 A 
ATOM     13  C   UNL A   1      32.920  29.667  26.944  1.00  0.00     0.128 A 
ATOM     14  C   UNL A   1      31.845  28.956  27.460  1.00  0.00     0.051 A 
ATOM     15  O   UNL A   1      33.636  28.821  26.130  1.00  0.00    -0.457 OA
ATOM     16  C   UNL A   1      31.952  27.626  27.004  1.00  0.00     0.051 A 
BRANCH  13  17
ATOM     17  C   UNL A   1      33.295  31.010  27.203  1.00  0.00     0.068 C 
ATOM     18  N   UNL A   1      36.704  31.012  28.510  1.00  0.00    -0.260 N 
ATOM     19  C   UNL A   1      35.596  30.345  28.005  1.00  0.00     0.270 C 
ATOM     20  C   UNL A   1      36.611  32.387  28.613  1.00  0.00     0.152 C 
ATOM     21  O   UNL A   1      35.517  29.136  27.826  1.00  0.00    -0.268 OA
ATOM     22  C   UNL A   1      34.498  31.310  27.711  1.00  0.00     0.084 C 
ATOM     23  S   UNL A   1      34.998  32.908  28.115  1.00  0.00    -0.054 SA
ATOM     24  S   UNL A   1      37.794  33.495  29.021  1.00  0.00    -0.051 S 
BRANCH  18  25
ATOM     25  C   UNL A   1      37.847  30.233  28.850  1.00  0.00     0.065 A 
ATOM     26  C   UNL A   1      38.139  29.786  30.152  1.00  0.00     0.084 A 
ATOM     27  C   UNL A   1      39.275  28.981  30.366  1.00  0.00     0.018 A 
ATOM     28  C   UNL A   1      40.095  28.598  29.302  1.00  0.00     0.001 A 
ATOM     29  C   UNL A   1      38.683  29.826  27.790  1.00  0.00     0.028 A 
ATOM     30  C   UNL A   1      39.795  29.016  28.013  1.00  0.00     0.002 A 
BRANCH  26  31
ATOM     31  C   UNL A   1      37.289  30.018  31.351  1.00  0.00     0.339 C 
ATOM     32  O   UNL A   1      36.566  29.166  31.832  1.00  0.00    -0.246 OA
BRANCH  31  33
ATOM     33  O   UNL A   1      37.382  31.308  31.769  1.00  0.00    -0.465 OA
ATOM     34  C   UNL A   1      36.150  31.841  32.263  1.00  0.00     0.282 C 
ENDBRANCH  31  33
ENDBRANCH  26  31
ENDBRANCH  18  25
ENDBRANCH  13  17
ENDBRANCH   6  12
ENDBRANCH   1   5
BRANCH   3  35
ATOM     35  C   UNL A   1      37.646  23.600  25.681  1.00  0.00     0.118 C 
BRANCH  35  36
ATOM     36  C   UNL A   1      38.355  24.387  26.771  1.00  0.00     0.042 C 
BRANCH  36  37
ATOM     37  C   UNL A   1      39.816  24.692  26.496  1.00  0.00     0.118 C 
BRANCH  37  38
ATOM     38  N   UNL A   1      40.676  23.520  26.607  1.00  0.00    -0.352 N 
ATOM     39  C   UNL A   1      42.040  23.377  26.520  1.00  0.00     0.251 C 
ATOM     40  H   UNL A   1      40.192  22.679  26.775  1.00  0.00     0.163 HD
ATOM     41  O   UNL A   1      42.517  22.245  26.456  1.00  0.00    -0.269 OA
BRANCH  39  42
ATOM     42  C   UNL A   1      42.945  24.549  26.481  1.00  0.00     0.039 A 
ATOM     43  C   UNL A   1      43.494  25.020  27.679  1.00  0.00     0.014 A 
ATOM     44  C   UNL A   1      43.221  25.223  25.290  1.00  0.00     0.014 A 
ATOM     45  C   UNL A   1      44.366  26.112  27.669  1.00  0.00     0.010 A 
ATOM     46  C   UNL A   1      44.169  26.242  25.265  1.00  0.00     0.010 A 
ATOM     47  C   UNL A   1      44.745  26.706  26.456  1.00  0.00    -0.014 A 
BRANCH  47  48
ATOM     48  C   UNL A   1      45.722  27.825  26.407  1.00  0.00     0.031 A 
ATOM     49  C   UNL A   1      47.195  27.540  26.267  1.00  0.00     0.074 A 
ATOM     50  C   UNL A   1      45.294  29.095  26.555  1.00  0.00     0.049 A 
ATOM     51  N   UNL A   1      48.202  28.376  26.277  1.00  0.00    -0.248 NA
ATOM     52  C   UNL A   1      47.590  26.128  26.125  1.00  0.00     0.031 C 
ATOM     53  C   UNL A   1      43.900  29.505  26.739  1.00  0.00     0.029 A 
ATOM     54  N   UNL A   1      45.992  30.275  26.579  1.00  0.00    -0.354 N 
ATOM     55  C   UNL A   1      49.345  27.593  26.163  1.00  0.00     0.074 A 
ATOM     56  C   UNL A   1      48.911  26.213  26.143  1.00  0.00     0.031 C 
ATOM     57  C   UNL A   1      43.842  30.844  26.821  1.00  0.00     0.029 A 
ATOM     58  C   UNL A   1      45.195  31.383  26.740  1.00  0.00     0.049 A 
ATOM     59  H   UNL A   1      46.971  30.325  26.488  1.00  0.00     0.167 HD
ATOM     60  C   UNL A   1      50.638  27.982  26.061  1.00  0.00     0.031 A 
ATOM     61  C   UNL A   1      45.517  32.689  26.818  1.00  0.00     0.031 A 
ATOM     62  C   UNL A   1      51.070  29.354  26.064  1.00  0.00     0.049 A 
ATOM     63  C   UNL A   1      46.961  33.095  26.717  1.00  0.00     0.074 A 
ATOM     64  C   UNL A   1      52.352  29.855  25.913  1.00  0.00     0.029 A 
ATOM     65  N   UNL A   1      50.230  30.444  26.224  1.00  0.00    -0.354 N 
ATOM     66  N   UNL A   1      48.021  32.343  26.548  1.00  0.00    -0.248 NA
ATOM     67  C   UNL A   1      47.249  34.533  26.808  1.00  0.00     0.031 C 
ATOM     68  C   UNL A   1      52.292  31.247  26.030  1.00  0.00     0.029 A 
ATOM     69  C   UNL A   1      50.967  31.616  26.197  1.00  0.00     0.049 A 
ATOM     70  H   UNL A   1      49.253  30.393  26.341  1.00  0.00     0.167 HD
ATOM     71  C   UNL A   1      49.098  33.217  26.481  1.00  0.00     0.074 A 
ATOM     72  C   UNL A   1      48.560  34.557  26.611  1.00  0.00     0.031 C 
ATOM     73  C   UNL A   1      50.415  32.939  26.326  1.00  0.00     0.031 A 
BRANCH  60  74
ATOM     74  C   UNL A   1      51.679  26.904  25.934  1.00  0.00    -0.014 A 
ATOM     75  C   UNL A   1      52.036  26.382  24.680  1.00  0.00     0.009 A 
ATOM     76  C   UNL A   1      52.335  26.425  27.079  1.00  0.00     0.009 A 
ATOM     77  C   UNL A   1      53.000  25.377  24.579  1.00  0.00     0.001 A 
ATOM     78  C   UNL A   1      53.319  25.441  26.973  1.00  0.00     0.001 A 
ATOM     79  C   UNL A   1      53.644  24.911  25.724  1.00  0.00     0.000 A 
ENDBRANCH  60  74
BRANCH  61  80
ATOM     80  C   UNL A   1      44.453  33.713  26.982  1.00  0.00    -0.014 A 
ATOM     81  C   UNL A   1      43.994  34.060  28.263  1.00  0.00     0.009 A 
ATOM     82  C   UNL A   1      43.881  34.340  25.865  1.00  0.00     0.009 A 
ATOM     83  C   UNL A   1      42.962  34.989  28.418  1.00  0.00     0.001 A 
ATOM     84  C   UNL A   1      42.871  35.292  26.025  1.00  0.00     0.001 A 
ATOM     85  C   UNL A   1      42.405  35.607  27.301  1.00  0.00     0.000 A 
ENDBRANCH  61  80
BRANCH  73  86
ATOM     86  C   UNL A   1      51.359  34.104  26.246  1.00  0.00    -0.014 A 
ATOM     87  C   UNL A   1      52.076  34.539  27.372  1.00  0.00     0.009 A 
ATOM     88  C   UNL A   1      51.562  34.751  25.018  1.00  0.00     0.009 A 
ATOM     89  C   UNL A   1      52.952  35.623  27.274  1.00  0.00     0.001 A 
ATOM     90  C   UNL A   1      52.460  35.814  24.917  1.00  0.00     0.001 A 
ATOM     91  C   UNL A   1      53.146  36.254  26.046  1.00  0.00     0.000 A 
ENDBRANCH  73  86
ENDBRANCH  47  48
ENDBRANCH  39  42
ENDBRANCH  37  38
ENDBRANCH  36  37
ENDBRANCH  35  36
ENDBRANCH   3  35
TORSDOF 15
ENDMDL
MODEL 2
REMARK VINA RESULT:     -11.9      5.858     11.157
REMARK SMILES COC(=O)c1ccccc1N1C(=O)/C(=C\c2ccc(-c3ccc(Cl)c(C(=O)NCCCNC(=O)c4ccc(-c5c6nc(c(-c7ccccc7)c7ccc([nH]7)c(-c7ccccc7)c7nc(c(-c8ccccc8)c8ccc5[nH]8)C=C7)C=C6)cc4)c3)o2)SC1=S
REMARK SMILES IDX 26 1 27 2 28 3 25 5 20 6 21 7 83 8 22 9 23 10 24 11 19 12
REMARK SMILES IDX 16 13 17 14 84 15 18 16 15 17 11 18 12 19 86 20 13 21 14 22
REMARK SMILES IDX 85 23 87 24 10 25 5 26 6 27 7 28 9 29 8 30 3 31 4 32 2 33
REMARK SMILES IDX 1 34 29 35 30 36 31 37 32 38 33 39 34 41 35 42 36 43 82 44
REMARK SMILES IDX 37 45 81 46 38 47 39 48 40 49 75 50 41 51 80 52 74 53 76 54
REMARK SMILES IDX 42 55 79 56 73 57 72 58 43 60 65 61 50 62 64 63 51 64 54 65
REMARK SMILES IDX 63 66 77 67 52 68 53 69 62 71 78 72 55 73 44 74 45 75 49 76
REMARK SMILES IDX 46 77 48 78 47 79 66 80 67 81 71 82 68 83 70 84 69 85 56 86
REMARK SMILES IDX 57 87 61 88 58 89 60 90 59 91
REMARK H PARENT 28 4 32 40 76 59 54 70
REMARK Flexibility Score: inf
ROOT
ATOM      1  C   UNL A   1      41.454  21.263  26.385  1.00  0.00     0.252 C 
ATOM      2  O   UNL A   1      41.389  20.076  26.697  1.00  0.00    -0.269 OA
ATOM      3  N   UNL A   1      42.616  21.674  25.759  1.00  0.00    -0.352 N 
ATOM      4  H   UNL A   1      43.293  20.961  25.709  1.00  0.00     0.163 HD
ENDROOT
BRANCH   1   5
ATOM      5  C   UNL A   1      40.325  22.189  26.690  1.00  0.00     0.059 A 
ATOM      6  C   UNL A   1      38.110  22.977  26.036  1.00  0.00     0.018 A 
ATOM      7  C   UNL A   1      38.250  24.083  26.872  1.00  0.00     0.013 A 
ATOM      8  C   UNL A   1      39.091  21.980  26.074  1.00  0.00     0.027 A 
ATOM      9  C   UNL A   1      39.390  24.207  27.670  1.00  0.00     0.022 A 
ATOM     10  C   UNL A   1      40.449  23.291  27.550  1.00  0.00     0.053 A 
ATOM     11  Cl  UNL A   1      41.864  23.639  28.480  1.00  0.00    -0.083 Cl
BRANCH   6  12
ATOM     12  C   UNL A   1      37.071  22.874  25.024  1.00  0.00     0.134 A 
ATOM     13  C   UNL A   1      34.942  22.790  24.400  1.00  0.00     0.128 A 
ATOM     14  C   UNL A   1      35.705  23.044  23.269  1.00  0.00     0.051 A 
ATOM     15  O   UNL A   1      35.793  22.722  25.479  1.00  0.00    -0.457 OA
ATOM     16  C   UNL A   1      37.059  23.060  23.659  1.00  0.00     0.051 A 
BRANCH  13  17
ATOM     17  C   UNL A   1      33.542  22.583  24.492  1.00  0.00     0.068 C 
ATOM     18  N   UNL A   1      31.967  25.774  25.309  1.00  0.00    -0.260 N 
ATOM     19  C   UNL A   1      33.090  25.012  25.020  1.00  0.00     0.270 C 
ATOM     20  C   UNL A   1      30.750  25.118  25.309  1.00  0.00     0.152 C 
ATOM     21  O   UNL A   1      34.237  25.436  24.956  1.00  0.00    -0.268 OA
ATOM     22  C   UNL A   1      32.710  23.587  24.802  1.00  0.00     0.084 C 
ATOM     23  S   UNL A   1      31.009  23.397  24.997  1.00  0.00    -0.054 SA
ATOM     24  S   UNL A   1      29.210  25.751  25.455  1.00  0.00    -0.051 S 
BRANCH  18  25
ATOM     25  C   UNL A   1      32.154  27.165  25.552  1.00  0.00     0.065 A 
ATOM     26  C   UNL A   1      32.088  28.157  24.556  1.00  0.00     0.084 A 
ATOM     27  C   UNL A   1      32.243  29.509  24.918  1.00  0.00     0.018 A 
ATOM     28  C   UNL A   1      32.430  29.879  26.252  1.00  0.00     0.001 A 
ATOM     29  C   UNL A   1      32.334  27.562  26.893  1.00  0.00     0.028 A 
ATOM     30  C   UNL A   1      32.470  28.905  27.240  1.00  0.00     0.002 A 
BRANCH  26  31
ATOM     31  C   UNL A   1      31.775  27.914  23.122  1.00  0.00     0.339 C 
ATOM     32  O   UNL A   1      30.653  27.686  22.713  1.00  0.00    -0.246 OA
BRANCH  31  33
ATOM     33  O   UNL A   1      32.909  27.911  22.372  1.00  0.00    -0.465 OA
ATOM     34  C   UNL A   1      33.256  26.620  21.863  1.00  0.00     0.282 C 
ENDBRANCH  31  33
ENDBRANCH  26  31
ENDBRANCH  18  25
ENDBRANCH  13  17
ENDBRANCH   6  12
ENDBRANCH   1   5
BRANCH   3  35
ATOM     35  C   UNL A   1      43.068  22.927  25.157  1.00  0.00     0.118 C 
BRANCH  35  36
ATOM     36  C   UNL A   1      44.318  23.519  25.786  1.00  0.00     0.042 C 
BRANCH  36  37
ATOM     37  C   UNL A   1      44.188  24.965  26.234  1.00  0.00     0.118 C 
BRANCH  37  38
ATOM     38  N   UNL A   1      43.885  25.878  25.139  1.00  0.00    -0.352 N 
ATOM     39  C   UNL A   1      43.149  27.036  25.093  1.00  0.00     0.251 C 
ATOM     40  H   UNL A   1      44.281  25.617  24.275  1.00  0.00     0.163 HD
ATOM     41  O   UNL A   1      42.878  27.528  23.999  1.00  0.00    -0.269 OA
BRANCH  39  42
ATOM     42  C   UNL A   1      42.655  27.694  26.326  1.00  0.00     0.039 A 
ATOM     43  C   UNL A   1      41.750  27.006  27.142  1.00  0.00     0.014 A 
ATOM     44  C   UNL A   1      43.027  28.996  26.662  1.00  0.00     0.014 A 
ATOM     45  C   UNL A   1      41.282  27.595  28.321  1.00  0.00     0.010 A 
ATOM     46  C   UNL A   1      42.645  29.540  27.885  1.00  0.00     0.010 A 
ATOM     47  C   UNL A   1      41.759  28.851  28.724  1.00  0.00    -0.014 A 
BRANCH  47  48
ATOM     48  C   UNL A   1      41.332  29.472  30.005  1.00  0.00     0.031 A 
ATOM     49  C   UNL A   1      40.065  30.287  30.068  1.00  0.00     0.074 A 
ATOM     50  C   UNL A   1      42.115  29.360  31.097  1.00  0.00     0.049 A 
ATOM     51  N   UNL A   1      39.567  30.961  31.073  1.00  0.00    -0.248 NA
ATOM     52  C   UNL A   1      39.269  30.377  28.832  1.00  0.00     0.031 C 
ATOM     53  C   UNL A   1      43.385  28.634  31.160  1.00  0.00     0.029 A 
ATOM     54  N   UNL A   1      41.956  29.863  32.364  1.00  0.00    -0.354 N 
ATOM     55  C   UNL A   1      38.416  31.570  30.586  1.00  0.00     0.074 A 
ATOM     56  C   UNL A   1      38.319  31.231  29.183  1.00  0.00     0.031 C 
ATOM     57  C   UNL A   1      43.872  28.709  32.409  1.00  0.00     0.029 A 
ATOM     58  C   UNL A   1      42.974  29.521  33.222  1.00  0.00     0.049 A 
ATOM     59  H   UNL A   1      41.187  30.414  32.633  1.00  0.00     0.167 HD
ATOM     60  C   UNL A   1      37.506  32.323  31.248  1.00  0.00     0.031 A 
ATOM     61  C   UNL A   1      43.166  29.832  34.518  1.00  0.00     0.031 A 
ATOM     62  C   UNL A   1      37.590  32.648  32.646  1.00  0.00     0.049 A 
ATOM     63  C   UNL A   1      42.150  30.682  35.227  1.00  0.00     0.074 A 
ATOM     64  C   UNL A   1      36.692  33.361  33.422  1.00  0.00     0.029 A 
ATOM     65  N   UNL A   1      38.635  32.278  33.479  1.00  0.00    -0.354 N 
ATOM     66  N   UNL A   1      41.036  31.197  34.765  1.00  0.00    -0.248 NA
ATOM     67  C   UNL A   1      42.413  30.986  36.640  1.00  0.00     0.031 C 
ATOM     68  C   UNL A   1      37.218  33.462  34.714  1.00  0.00     0.029 A 
ATOM     69  C   UNL A   1      38.415  32.765  34.756  1.00  0.00     0.049 A 
ATOM     70  H   UNL A   1      39.417  31.748  33.203  1.00  0.00     0.167 HD
ATOM     71  C   UNL A   1      40.451  31.858  35.837  1.00  0.00     0.074 A 
ATOM     72  C   UNL A   1      41.326  31.665  36.976  1.00  0.00     0.031 C 
ATOM     73  C   UNL A   1      39.294  32.562  35.877  1.00  0.00     0.031 A 
BRANCH  60  74
ATOM     74  C   UNL A   1      36.335  32.846  30.461  1.00  0.00    -0.014 A 
ATOM     75  C   UNL A   1      35.149  32.105  30.344  1.00  0.00     0.009 A 
ATOM     76  C   UNL A   1      36.407  34.111  29.855  1.00  0.00     0.009 A 
ATOM     77  C   UNL A   1      34.072  32.601  29.605  1.00  0.00     0.001 A 
ATOM     78  C   UNL A   1      35.319  34.618  29.142  1.00  0.00     0.001 A 
ATOM     79  C   UNL A   1      34.157  33.858  29.009  1.00  0.00     0.000 A 
ENDBRANCH  60  74
BRANCH  61  80
ATOM     80  C   UNL A   1      44.360  29.322  35.241  1.00  0.00    -0.014 A 
ATOM     81  C   UNL A   1      44.312  28.086  35.905  1.00  0.00     0.009 A 
ATOM     82  C   UNL A   1      45.548  30.068  35.284  1.00  0.00     0.009 A 
ATOM     83  C   UNL A   1      45.418  27.623  36.623  1.00  0.00     0.001 A 
ATOM     84  C   UNL A   1      46.663  29.588  35.976  1.00  0.00     0.001 A 
ATOM     85  C   UNL A   1      46.592  28.373  36.655  1.00  0.00     0.000 A 
ENDBRANCH  61  80
BRANCH  73  86
ATOM     86  C   UNL A   1      38.887  33.140  37.203  1.00  0.00    -0.014 A 
ATOM     87  C   UNL A   1      38.073  32.421  38.092  1.00  0.00     0.009 A 
ATOM     88  C   UNL A   1      39.357  34.406  37.581  1.00  0.00     0.009 A 
ATOM     89  C   UNL A   1      37.710  32.977  39.321  1.00  0.00     0.001 A 
ATOM     90  C   UNL A   1      39.018  34.947  38.822  1.00  0.00     0.001 A 
ATOM     91  C   UNL A   1      38.187  34.236  39.686  1.00  0.00     0.000 A 
ENDBRANCH  73  86
ENDBRANCH  47  48
ENDBRANCH  39  42
ENDBRANCH  37  38
ENDBRANCH  36  37
ENDBRANCH  35  36
ENDBRANCH   3  35
TORSDOF 15
ENDMDL
MODEL 3
REMARK VINA RESULT:     -11.8      2.456      4.986
REMARK SMILES COC(=O)c1ccccc1N1C(=O)/C(=C\c2ccc(-c3ccc(Cl)c(C(=O)NCCCNC(=O)c4ccc(-c5c6nc(c(-c7ccccc7)c7ccc([nH]7)c(-c7ccccc7)c7nc(c(-c8ccccc8)c8ccc5[nH]8)C=C7)C=C6)cc4)c3)o2)SC1=S
REMARK SMILES IDX 26 1 27 2 28 3 25 5 20 6 21 7 83 8 22 9 23 10 24 11 19 12
REMARK SMILES IDX 16 13 17 14 84 15 18 16 15 17 11 18 12 19 86 20 13 21 14 22
REMARK SMILES IDX 85 23 87 24 10 25 5 26 6 27 7 28 9 29 8 30 3 31 4 32 2 33
REMARK SMILES IDX 1 34 29 35 30 36 31 37 32 38 33 39 34 41 35 42 36 43 82 44
REMARK SMILES IDX 37 45 81 46 38 47 39 48 40 49 75 50 41 51 80 52 74 53 76 54
REMARK SMILES IDX 42 55 79 56 73 57 72 58 43 60 65 61 50 62 64 63 51 64 54 65
REMARK SMILES IDX 63 66 77 67 52 68 53 69 62 71 78 72 55 73 44 74 45 75 49 76
REMARK SMILES IDX 46 77 48 78 47 79 66 80 67 81 71 82 68 83 70 84 69 85 56 86
REMARK SMILES IDX 57 87 61 88 58 89 60 90 59 91
REMARK H PARENT 28 4 32 40 76 59 54 70
REMARK Flexibility Score: inf
ROOT
ATOM      1  C   UNL A   1      39.124  29.050  27.476  1.00  0.00     0.252 C 
ATOM      2  O   UNL A   1      39.676  29.567  26.507  1.00  0.00    -0.269 OA
ATOM      3  N   UNL A   1      39.646  27.848  27.915  1.00  0.00    -0.352 N 
ATOM      4  H   UNL A   1      40.366  27.512  27.335  1.00  0.00     0.163 HD
ENDROOT
BRANCH   1   5
ATOM      5  C   UNL A   1      37.945  29.706  28.115  1.00  0.00     0.059 A 
ATOM      6  C   UNL A   1      35.564  30.209  27.948  1.00  0.00     0.018 A 
ATOM      7  C   UNL A   1      35.688  31.161  28.958  1.00  0.00     0.013 A 
ATOM      8  C   UNL A   1      36.666  29.401  27.650  1.00  0.00     0.027 A 
ATOM      9  C   UNL A   1      36.919  31.336  29.597  1.00  0.00     0.022 A 
ATOM     10  C   UNL A   1      38.059  30.646  29.149  1.00  0.00     0.053 A 
ATOM     11  Cl  UNL A   1      39.549  31.062  29.921  1.00  0.00    -0.083 Cl
BRANCH   6  12
ATOM     12  C   UNL A   1      34.392  30.108  27.092  1.00  0.00     0.134 A 
ATOM     13  C   UNL A   1      33.300  29.261  25.355  1.00  0.00     0.128 A 
ATOM     14  C   UNL A   1      32.374  29.905  26.165  1.00  0.00     0.051 A 
ATOM     15  O   UNL A   1      34.533  29.365  25.955  1.00  0.00    -0.457 OA
ATOM     16  C   UNL A   1      33.074  30.474  27.248  1.00  0.00     0.051 A 
BRANCH  13  17
ATOM     17  C   UNL A   1      33.089  28.631  24.102  1.00  0.00     0.068 C 
ATOM     18  N   UNL A   1      33.502  25.031  24.551  1.00  0.00    -0.260 N 
ATOM     19  C   UNL A   1      33.474  26.323  25.057  1.00  0.00     0.270 C 
ATOM     20  C   UNL A   1      33.247  24.883  23.201  1.00  0.00     0.152 C 
ATOM     21  O   UNL A   1      33.654  26.631  26.228  1.00  0.00    -0.268 OA
ATOM     22  C   UNL A   1      33.197  27.302  23.966  1.00  0.00     0.084 C 
ATOM     23  S   UNL A   1      33.022  26.474  22.466  1.00  0.00    -0.054 SA
ATOM     24  S   UNL A   1      33.048  23.480  22.314  1.00  0.00    -0.051 S 
BRANCH  18  25
ATOM     25  C   UNL A   1      33.761  23.968  25.464  1.00  0.00     0.065 A 
ATOM     26  C   UNL A   1      32.763  23.273  26.172  1.00  0.00     0.084 A 
ATOM     27  C   UNL A   1      33.131  22.206  27.014  1.00  0.00     0.018 A 
ATOM     28  C   UNL A   1      34.465  21.812  27.132  1.00  0.00     0.001 A 
ATOM     29  C   UNL A   1      35.101  23.545  25.590  1.00  0.00     0.028 A 
ATOM     30  C   UNL A   1      35.450  22.478  26.416  1.00  0.00     0.002 A 
BRANCH  26  31
ATOM     31  C   UNL A   1      31.299  23.510  26.047  1.00  0.00     0.339 C 
ATOM     32  O   UNL A   1      30.578  22.858  25.316  1.00  0.00    -0.246 OA
BRANCH  31  33
ATOM     33  O   UNL A   1      30.915  24.581  26.791  1.00  0.00    -0.465 OA
ATOM     34  C   UNL A   1      30.130  25.531  26.067  1.00  0.00     0.282 C 
ENDBRANCH  31  33
ENDBRANCH  26  31
ENDBRANCH  18  25
ENDBRANCH  13  17
ENDBRANCH   6  12
ENDBRANCH   1   5
BRANCH   3  35
ATOM     35  C   UNL A   1      39.370  26.963  29.046  1.00  0.00     0.118 C 
BRANCH  35  36
ATOM     36  C   UNL A   1      39.438  25.480  28.722  1.00  0.00     0.042 C 
BRANCH  36  37
ATOM     37  C   UNL A   1      39.689  25.153  27.260  1.00  0.00     0.118 C 
BRANCH  37  38
ATOM     38  N   UNL A   1      40.386  23.886  27.069  1.00  0.00    -0.352 N 
ATOM     39  C   UNL A   1      41.683  23.602  26.718  1.00  0.00     0.251 C 
ATOM     40  H   UNL A   1      39.826  23.091  27.221  1.00  0.00     0.163 HD
ATOM     41  O   UNL A   1      41.983  22.444  26.431  1.00  0.00    -0.269 OA
BRANCH  39  42
ATOM     42  C   UNL A   1      42.722  24.657  26.654  1.00  0.00     0.039 A 
ATOM     43  C   UNL A   1      43.046  25.212  25.410  1.00  0.00     0.014 A 
ATOM     44  C   UNL A   1      43.418  25.071  27.790  1.00  0.00     0.014 A 
ATOM     45  C   UNL A   1      44.008  26.222  25.323  1.00  0.00     0.010 A 
ATOM     46  C   UNL A   1      44.298  26.147  27.719  1.00  0.00     0.010 A 
ATOM     47  C   UNL A   1      44.613  26.728  26.483  1.00  0.00    -0.014 A 
BRANCH  47  48
ATOM     48  C   UNL A   1      45.589  27.847  26.428  1.00  0.00     0.031 A 
ATOM     49  C   UNL A   1      47.061  27.563  26.277  1.00  0.00     0.074 A 
ATOM     50  C   UNL A   1      45.161  29.117  26.581  1.00  0.00     0.049 A 
ATOM     51  N   UNL A   1      48.068  28.401  26.280  1.00  0.00    -0.248 NA
ATOM     52  C   UNL A   1      47.456  26.152  26.132  1.00  0.00     0.031 C 
ATOM     53  C   UNL A   1      43.768  29.525  26.775  1.00  0.00     0.029 A 
ATOM     54  N   UNL A   1      45.859  30.298  26.600  1.00  0.00    -0.354 N 
ATOM     55  C   UNL A   1      49.210  27.618  26.158  1.00  0.00     0.074 A 
ATOM     56  C   UNL A   1      48.777  26.238  26.139  1.00  0.00     0.031 C 
ATOM     57  C   UNL A   1      43.710  30.864  26.859  1.00  0.00     0.029 A 
ATOM     58  C   UNL A   1      45.061  31.405  26.767  1.00  0.00     0.049 A 
ATOM     59  H   UNL A   1      46.837  30.348  26.501  1.00  0.00     0.167 HD
ATOM     60  C   UNL A   1      50.502  28.009  26.046  1.00  0.00     0.031 A 
ATOM     61  C   UNL A   1      45.384  32.711  26.844  1.00  0.00     0.031 A 
ATOM     62  C   UNL A   1      50.933  29.381  26.047  1.00  0.00     0.049 A 
ATOM     63  C   UNL A   1      46.826  33.118  26.733  1.00  0.00     0.074 A 
ATOM     64  C   UNL A   1      52.213  29.883  25.886  1.00  0.00     0.029 A 
ATOM     65  N   UNL A   1      50.093  30.470  26.213  1.00  0.00    -0.354 N 
ATOM     66  N   UNL A   1      47.885  32.367  26.556  1.00  0.00    -0.248 NA
ATOM     67  C   UNL A   1      47.114  34.557  26.822  1.00  0.00     0.031 C 
ATOM     68  C   UNL A   1      52.154  31.274  26.004  1.00  0.00     0.029 A 
ATOM     69  C   UNL A   1      50.829  31.642  26.182  1.00  0.00     0.049 A 
ATOM     70  H   UNL A   1      49.118  30.418  26.337  1.00  0.00     0.167 HD
ATOM     71  C   UNL A   1      48.961  33.242  26.481  1.00  0.00     0.074 A 
ATOM     72  C   UNL A   1      48.423  34.581  26.616  1.00  0.00     0.031 C 
ATOM     73  C   UNL A   1      50.277  32.965  26.315  1.00  0.00     0.031 A 
BRANCH  60  74
ATOM     74  C   UNL A   1      51.543  26.931  25.910  1.00  0.00    -0.014 A 
ATOM     75  C   UNL A   1      52.073  26.287  27.039  1.00  0.00     0.009 A 
ATOM     76  C   UNL A   1      51.976  26.532  24.636  1.00  0.00     0.009 A 
ATOM     77  C   UNL A   1      53.044  25.293  26.898  1.00  0.00     0.001 A 
ATOM     78  C   UNL A   1      52.924  25.517  24.495  1.00  0.00     0.001 A 
ATOM     79  C   UNL A   1      53.464  24.906  25.626  1.00  0.00     0.000 A 
ENDBRANCH  60  74
BRANCH  61  80
ATOM     80  C   UNL A   1      44.320  33.734  27.017  1.00  0.00    -0.014 A 
ATOM     81  C   UNL A   1      43.736  34.347  25.896  1.00  0.00     0.009 A 
ATOM     82  C   UNL A   1      43.891  34.116  28.298  1.00  0.00     0.009 A 
ATOM     83  C   UNL A   1      42.768  35.341  26.056  1.00  0.00     0.001 A 
ATOM     84  C   UNL A   1      42.900  35.089  28.453  1.00  0.00     0.001 A 
ATOM     85  C   UNL A   1      42.349  35.708  27.333  1.00  0.00     0.000 A 
ENDBRANCH  61  80
BRANCH  73  86
ATOM     86  C   UNL A   1      51.220  34.131  26.230  1.00  0.00    -0.014 A 
ATOM     87  C   UNL A   1      51.875  34.623  27.370  1.00  0.00     0.009 A 
ATOM     88  C   UNL A   1      51.484  34.721  24.984  1.00  0.00     0.009 A 
ATOM     89  C   UNL A   1      52.751  35.706  27.266  1.00  0.00     0.001 A 
ATOM     90  C   UNL A   1      52.382  35.783  24.879  1.00  0.00     0.001 A 
ATOM     91  C   UNL A   1      53.007  36.281  26.021  1.00  0.00     0.000 A 
ENDBRANCH  73  86
ENDBRANCH  47  48
ENDBRANCH  39  42
ENDBRANCH  37  38
ENDBRANCH  36  37
ENDBRANCH  35  36
ENDBRANCH   3  35
TORSDOF 15
ENDMDL
