MODEL 1
REMARK VINA RESULT:     -11.1      0.000      0.000
REMARK SMILES CC1(C)C(=O)N([C@H]2COC[C@@H]2C(=O)NCCCNC(=O)c2ccc(-c3c4nc(c(-c5ccccc5)c5ccc([nH]5)c(-c5ccccc5)c5nc(c(-c6ccccc6)c6ccc3[nH]6)C=C5)C=C4)cc2)S1(=O)=O
REMARK SMILES IDX 16 1 15 2 14 3 12 4 13 5 11 7 7 8 8 9 9 10 10 11 6 12 1 13
REMARK SMILES IDX 2 14 3 15 4 16 69 17 5 18 70 19 71 20 17 21 18 22 19 23
REMARK SMILES IDX 20 25 21 26 22 27 68 28 23 29 67 30 24 31 25 32 26 33 61 34
REMARK SMILES IDX 27 35 66 36 60 37 62 38 28 39 65 40 59 41 58 42 29 44 51 45
REMARK SMILES IDX 36 46 50 47 37 48 40 49 49 50 63 51 38 52 39 53 48 55 64 56
REMARK SMILES IDX 41 57 30 58 31 59 35 60 32 61 34 62 33 63 52 64 53 65 57 66
REMARK SMILES IDX 54 67 56 68 55 69 42 70 43 71 47 72 44 73 46 74 45 75
REMARK H PARENT 14 6 18 24 62 43 40 54
REMARK Flexibility Score: inf
ROOT
ATOM      1  C   UNL A   1      37.319  19.526  25.045  1.00  0.00     0.042 C 
ENDROOT
BRANCH   1   2
ATOM      2  C   UNL A   1      36.170  20.454  24.665  1.00  0.00     0.117 C 
BRANCH   2   3
ATOM      3  N   UNL A   1      35.607  21.143  25.815  1.00  0.00    -0.356 N 
ATOM      4  C   UNL A   1      35.295  22.435  26.073  1.00  0.00     0.227 C 
ATOM      5  O   UNL A   1      34.797  22.646  27.186  1.00  0.00    -0.275 OA
ATOM      6  H   UNL A   1      35.412  20.540  26.569  1.00  0.00     0.163 HD
BRANCH   4   7
ATOM      7  C   UNL A   1      35.427  23.610  25.106  1.00  0.00     0.130 C 
ATOM      8  C   UNL A   1      34.123  23.816  24.352  1.00  0.00     0.143 C 
ATOM      9  C   UNL A   1      34.366  23.046  23.063  1.00  0.00     0.187 C 
ATOM     10  O   UNL A   1      35.782  23.056  22.822  1.00  0.00    -0.378 OA
ATOM     11  C   UNL A   1      36.451  23.529  24.002  1.00  0.00     0.176 C 
BRANCH   8  12
ATOM     12  N   UNL A   1      33.818  25.241  24.113  1.00  0.00    -0.231 N 
ATOM     13  C   UNL A   1      31.542  27.886  24.098  1.00  0.00     0.041 C 
ATOM     14  C   UNL A   1      32.919  27.244  23.948  1.00  0.00     0.165 C 
ATOM     15  C   UNL A   1      34.011  28.295  23.770  1.00  0.00     0.041 C 
ATOM     16  C   UNL A   1      33.253  26.163  25.017  1.00  0.00     0.259 C 
ATOM     17  S   UNL A   1      32.964  25.875  22.837  1.00  0.00     0.252 S 
ATOM     18  O   UNL A   1      33.191  26.054  26.217  1.00  0.00    -0.272 OA
ATOM     19  O   UNL A   1      31.677  25.235  22.723  1.00  0.00    -0.205 OA
ATOM     20  O   UNL A   1      33.861  26.059  21.722  1.00  0.00    -0.205 OA
ENDBRANCH   8  12
ENDBRANCH   4   7
ENDBRANCH   2   3
ENDBRANCH   1   2
BRANCH   1  21
ATOM     21  C   UNL A   1      38.567  20.258  25.514  1.00  0.00     0.118 C 
BRANCH  21  22
ATOM     22  N   UNL A   1      39.695  19.358  25.693  1.00  0.00    -0.352 N 
ATOM     23  C   UNL A   1      40.998  19.620  26.033  1.00  0.00     0.251 C 
ATOM     24  H   UNL A   1      39.490  18.406  25.547  1.00  0.00     0.163 HD
ATOM     25  O   UNL A   1      41.844  18.742  25.891  1.00  0.00    -0.269 OA
BRANCH  23  26
ATOM     26  C   UNL A   1      41.393  20.942  26.564  1.00  0.00     0.039 A 
ATOM     27  C   UNL A   1      41.276  21.178  27.938  1.00  0.00     0.014 A 
ATOM     28  C   UNL A   1      41.821  21.966  25.716  1.00  0.00     0.014 A 
ATOM     29  C   UNL A   1      41.630  22.423  28.462  1.00  0.00     0.010 A 
ATOM     30  C   UNL A   1      42.260  23.174  26.248  1.00  0.00     0.010 A 
ATOM     31  C   UNL A   1      42.149  23.421  27.624  1.00  0.00    -0.014 A 
BRANCH  31  32
ATOM     32  C   UNL A   1      42.566  24.740  28.160  1.00  0.00     0.031 A 
ATOM     33  C   UNL A   1      41.545  25.821  28.388  1.00  0.00     0.074 A 
ATOM     34  C   UNL A   1      43.871  24.989  28.370  1.00  0.00     0.049 A 
ATOM     35  N   UNL A   1      41.722  27.053  28.791  1.00  0.00    -0.248 NA
ATOM     36  C   UNL A   1      40.145  25.482  28.089  1.00  0.00     0.031 C 
ATOM     37  C   UNL A   1      44.962  24.042  28.134  1.00  0.00     0.029 A 
ATOM     38  N   UNL A   1      44.502  26.121  28.817  1.00  0.00    -0.354 N 
ATOM     39  C   UNL A   1      40.464  27.641  28.770  1.00  0.00     0.074 A 
ATOM     40  C   UNL A   1      39.542  26.649  28.262  1.00  0.00     0.031 C 
ATOM     41  C   UNL A   1      46.126  24.626  28.458  1.00  0.00     0.029 A 
ATOM     42  C   UNL A   1      45.868  25.996  28.888  1.00  0.00     0.049 A 
ATOM     43  H   UNL A   1      44.023  26.945  29.065  1.00  0.00     0.167 HD
ATOM     44  C   UNL A   1      40.102  28.888  29.155  1.00  0.00     0.031 A 
ATOM     45  C   UNL A   1      46.809  26.887  29.249  1.00  0.00     0.031 A 
ATOM     46  C   UNL A   1      41.021  29.871  29.666  1.00  0.00     0.049 A 
ATOM     47  C   UNL A   1      46.389  28.261  29.685  1.00  0.00     0.074 A 
ATOM     48  C   UNL A   1      40.750  31.137  30.153  1.00  0.00     0.029 A 
ATOM     49  N   UNL A   1      42.395  29.696  29.746  1.00  0.00    -0.354 N 
ATOM     50  N   UNL A   1      45.185  28.776  29.740  1.00  0.00    -0.248 NA
ATOM     51  C   UNL A   1      47.457  29.171  30.120  1.00  0.00     0.031 C 
ATOM     52  C   UNL A   1      41.966  31.750  30.475  1.00  0.00     0.029 A 
ATOM     53  C   UNL A   1      42.989  30.842  30.246  1.00  0.00     0.049 A 
ATOM     54  H   UNL A   1      42.877  28.877  29.487  1.00  0.00     0.167 HD
ATOM     55  C   UNL A   1      45.345  30.064  30.234  1.00  0.00     0.074 A 
ATOM     56  C   UNL A   1      46.763  30.243  30.477  1.00  0.00     0.031 C 
ATOM     57  C   UNL A   1      44.404  31.010  30.466  1.00  0.00     0.031 A 
BRANCH  44  58
ATOM     58  C   UNL A   1      38.649  29.256  29.013  1.00  0.00    -0.014 A 
ATOM     59  C   UNL A   1      37.750  29.117  30.083  1.00  0.00     0.009 A 
ATOM     60  C   UNL A   1      38.170  29.743  27.787  1.00  0.00     0.009 A 
ATOM     61  C   UNL A   1      36.393  29.402  29.910  1.00  0.00     0.001 A 
ATOM     62  C   UNL A   1      36.820  30.060  27.627  1.00  0.00     0.001 A 
ATOM     63  C   UNL A   1      35.930  29.875  28.684  1.00  0.00     0.000 A 
ENDBRANCH  44  58
BRANCH  45  64
ATOM     64  C   UNL A   1      48.239  26.483  29.232  1.00  0.00    -0.014 A 
ATOM     65  C   UNL A   1      48.830  25.901  30.362  1.00  0.00     0.009 A 
ATOM     66  C   UNL A   1      49.006  26.634  28.065  1.00  0.00     0.009 A 
ATOM     67  C   UNL A   1      50.163  25.487  30.329  1.00  0.00     0.001 A 
ATOM     68  C   UNL A   1      50.330  26.195  28.026  1.00  0.00     0.001 A 
ATOM     69  C   UNL A   1      50.909  25.627  29.159  1.00  0.00     0.000 A 
ENDBRANCH  45  64
BRANCH  57  70
ATOM     70  C   UNL A   1      44.876  32.322  31.029  1.00  0.00    -0.014 A 
ATOM     71  C   UNL A   1      45.261  33.378  30.189  1.00  0.00     0.009 A 
ATOM     72  C   UNL A   1      44.895  32.515  32.419  1.00  0.00     0.009 A 
ATOM     73  C   UNL A   1      45.688  34.592  30.733  1.00  0.00     0.001 A 
ATOM     74  C   UNL A   1      45.293  33.739  32.959  1.00  0.00     0.001 A 
ATOM     75  C   UNL A   1      45.698  34.772  32.117  1.00  0.00     0.000 A 
ENDBRANCH  57  70
ENDBRANCH  31  32
ENDBRANCH  23  26
ENDBRANCH  21  22
ENDBRANCH   1  21
TORSDOF 11
ENDMDL
MODEL 2
REMARK VINA RESULT:     -11.1      2.538      7.094
REMARK SMILES CC1(C)C(=O)N([C@H]2COC[C@@H]2C(=O)NCCCNC(=O)c2ccc(-c3c4nc(c(-c5ccccc5)c5ccc([nH]5)c(-c5ccccc5)c5nc(c(-c6ccccc6)c6ccc3[nH]6)C=C5)C=C4)cc2)S1(=O)=O
REMARK SMILES IDX 16 1 15 2 14 3 12 4 13 5 11 7 7 8 8 9 9 10 10 11 6 12 1 13
REMARK SMILES IDX 2 14 3 15 4 16 69 17 5 18 70 19 71 20 17 21 18 22 19 23
REMARK SMILES IDX 20 25 21 26 22 27 68 28 23 29 67 30 24 31 25 32 26 33 61 34
REMARK SMILES IDX 27 35 66 36 60 37 62 38 28 39 65 40 59 41 58 42 29 44 51 45
REMARK SMILES IDX 36 46 50 47 37 48 40 49 49 50 63 51 38 52 39 53 48 55 64 56
REMARK SMILES IDX 41 57 30 58 31 59 35 60 32 61 34 62 33 63 52 64 53 65 57 66
REMARK SMILES IDX 54 67 56 68 55 69 42 70 43 71 47 72 44 73 46 74 45 75
REMARK H PARENT 14 6 18 24 62 43 40 54
REMARK Flexibility Score: inf
ROOT
ATOM      1  C   UNL A   1      35.342  23.010  26.579  1.00  0.00     0.042 C 
ENDROOT
BRANCH   1   2
ATOM      2  C   UNL A   1      34.161  22.497  25.759  1.00  0.00     0.117 C 
BRANCH   2   3
ATOM      3  N   UNL A   1      32.885  22.992  26.253  1.00  0.00    -0.356 N 
ATOM      4  C   UNL A   1      32.322  24.220  26.326  1.00  0.00     0.227 C 
ATOM      5  O   UNL A   1      31.178  24.249  26.799  1.00  0.00    -0.275 OA
ATOM      6  H   UNL A   1      32.307  22.279  26.611  1.00  0.00     0.163 HD
BRANCH   4   7
ATOM      7  C   UNL A   1      32.927  25.527  25.817  1.00  0.00     0.130 C 
ATOM      8  C   UNL A   1      31.836  26.570  25.629  1.00  0.00     0.143 C 
ATOM      9  C   UNL A   1      31.505  26.433  24.151  1.00  0.00     0.187 C 
ATOM     10  O   UNL A   1      32.690  25.958  23.492  1.00  0.00    -0.378 OA
ATOM     11  C   UNL A   1      33.633  25.528  24.485  1.00  0.00     0.176 C 
BRANCH   8  12
ATOM     12  N   UNL A   1      32.279  27.932  25.988  1.00  0.00    -0.231 N 
ATOM     13  C   UNL A   1      31.532  31.264  26.707  1.00  0.00     0.041 C 
ATOM     14  C   UNL A   1      32.449  30.054  26.553  1.00  0.00     0.165 C 
ATOM     15  C   UNL A   1      33.857  30.348  27.064  1.00  0.00     0.041 C 
ATOM     16  C   UNL A   1      31.855  28.716  27.080  1.00  0.00     0.259 C 
ATOM     17  S   UNL A   1      32.339  29.255  24.984  1.00  0.00     0.252 S 
ATOM     18  O   UNL A   1      31.294  28.325  28.074  1.00  0.00    -0.272 OA
ATOM     19  O   UNL A   1      31.058  29.474  24.360  1.00  0.00    -0.205 OA
ATOM     20  O   UNL A   1      33.584  29.230  24.255  1.00  0.00    -0.205 OA
ENDBRANCH   8  12
ENDBRANCH   4   7
ENDBRANCH   2   3
ENDBRANCH   1   2
BRANCH   1  21
ATOM     21  C   UNL A   1      36.536  23.427  25.735  1.00  0.00     0.118 C 
BRANCH  21  22
ATOM     22  N   UNL A   1      37.661  22.517  25.891  1.00  0.00    -0.352 N 
ATOM     23  C   UNL A   1      38.960  22.763  26.252  1.00  0.00     0.251 C 
ATOM     24  H   UNL A   1      37.454  21.572  25.708  1.00  0.00     0.163 HD
ATOM     25  O   UNL A   1      39.806  21.889  26.085  1.00  0.00    -0.269 OA
BRANCH  23  26
ATOM     26  C   UNL A   1      39.355  24.063  26.835  1.00  0.00     0.039 A 
ATOM     27  C   UNL A   1      39.011  24.338  28.162  1.00  0.00     0.014 A 
ATOM     28  C   UNL A   1      40.006  25.034  26.069  1.00  0.00     0.014 A 
ATOM     29  C   UNL A   1      39.360  25.565  28.731  1.00  0.00     0.010 A 
ATOM     30  C   UNL A   1      40.434  26.217  26.662  1.00  0.00     0.010 A 
ATOM     31  C   UNL A   1      40.097  26.503  27.992  1.00  0.00    -0.014 A 
BRANCH  31  32
ATOM     32  C   UNL A   1      40.511  27.799  28.584  1.00  0.00     0.031 A 
ATOM     33  C   UNL A   1      41.905  27.976  29.119  1.00  0.00     0.074 A 
ATOM     34  C   UNL A   1      39.608  28.789  28.710  1.00  0.00     0.049 A 
ATOM     35  N   UNL A   1      42.432  29.008  29.725  1.00  0.00    -0.248 NA
ATOM     36  C   UNL A   1      42.816  26.827  28.985  1.00  0.00     0.031 C 
ATOM     37  C   UNL A   1      38.210  28.719  28.281  1.00  0.00     0.029 A 
ATOM     38  N   UNL A   1      39.732  30.044  29.248  1.00  0.00    -0.354 N 
ATOM     39  C   UNL A   1      43.724  28.626  30.066  1.00  0.00     0.074 A 
ATOM     40  C   UNL A   1      43.881  27.250  29.649  1.00  0.00     0.031 C 
ATOM     41  C   UNL A   1      37.610  29.889  28.554  1.00  0.00     0.029 A 
ATOM     42  C   UNL A   1      38.569  30.773  29.209  1.00  0.00     0.049 A 
ATOM     43  H   UNL A   1      40.572  30.390  29.625  1.00  0.00     0.167 HD
ATOM     44  C   UNL A   1      44.698  29.357  30.657  1.00  0.00     0.031 A 
ATOM     45  C   UNL A   1      38.299  32.013  29.658  1.00  0.00     0.031 A 
ATOM     46  C   UNL A   1      44.541  30.728  31.065  1.00  0.00     0.049 A 
ATOM     47  C   UNL A   1      39.395  32.814  30.299  1.00  0.00     0.074 A 
ATOM     48  C   UNL A   1      45.484  31.584  31.604  1.00  0.00     0.029 A 
ATOM     49  N   UNL A   1      43.353  31.441  30.985  1.00  0.00    -0.354 N 
ATOM     50  N   UNL A   1      40.637  32.468  30.538  1.00  0.00    -0.248 NA
ATOM     51  C   UNL A   1      39.055  34.180  30.719  1.00  0.00     0.031 C 
ATOM     52  C   UNL A   1      44.853  32.797  31.903  1.00  0.00     0.029 A 
ATOM     53  C   UNL A   1      43.531  32.716  31.493  1.00  0.00     0.049 A 
ATOM     54  H   UNL A   1      42.507  31.091  30.619  1.00  0.00     0.167 HD
ATOM     55  C   UNL A   1      41.234  33.578  31.120  1.00  0.00     0.074 A 
ATOM     56  C   UNL A   1      40.220  34.614  31.181  1.00  0.00     0.031 C 
ATOM     57  C   UNL A   1      42.507  33.728  31.562  1.00  0.00     0.031 A 
BRANCH  44  58
ATOM     58  C   UNL A   1      46.013  28.670  30.912  1.00  0.00    -0.014 A 
ATOM     59  C   UNL A   1      47.042  28.676  29.955  1.00  0.00     0.009 A 
ATOM     60  C   UNL A   1      46.225  27.999  32.126  1.00  0.00     0.009 A 
ATOM     61  C   UNL A   1      48.229  27.977  30.185  1.00  0.00     0.001 A 
ATOM     62  C   UNL A   1      47.427  27.330  32.368  1.00  0.00     0.001 A 
ATOM     63  C   UNL A   1      48.421  27.306  31.391  1.00  0.00     0.000 A 
ENDBRANCH  44  58
BRANCH  45  64
ATOM     64  C   UNL A   1      36.932  32.568  29.487  1.00  0.00    -0.014 A 
ATOM     65  C   UNL A   1      36.568  33.217  28.298  1.00  0.00     0.009 A 
ATOM     66  C   UNL A   1      35.969  32.407  30.496  1.00  0.00     0.009 A 
ATOM     67  C   UNL A   1      35.271  33.703  28.127  1.00  0.00     0.001 A 
ATOM     68  C   UNL A   1      34.665  32.870  30.311  1.00  0.00     0.001 A 
ATOM     69  C   UNL A   1      34.318  33.522  29.130  1.00  0.00     0.000 A 
ENDBRANCH  45  64
BRANCH  57  70
ATOM     70  C   UNL A   1      42.880  35.067  32.134  1.00  0.00    -0.014 A 
ATOM     71  C   UNL A   1      43.520  36.040  31.353  1.00  0.00     0.009 A 
ATOM     72  C   UNL A   1      42.546  35.372  33.464  1.00  0.00     0.009 A 
ATOM     73  C   UNL A   1      43.850  37.282  31.902  1.00  0.00     0.001 A 
ATOM     74  C   UNL A   1      42.849  36.623  34.001  1.00  0.00     0.001 A 
ATOM     75  C   UNL A   1      43.509  37.573  33.224  1.00  0.00     0.000 A 
ENDBRANCH  57  70
ENDBRANCH  31  32
ENDBRANCH  23  26
ENDBRANCH  21  22
ENDBRANCH   1  21
TORSDOF 11
ENDMDL
MODEL 3
REMARK VINA RESULT:     -11.1      1.899      7.325
REMARK SMILES CC1(C)C(=O)N([C@H]2COC[C@@H]2C(=O)NCCCNC(=O)c2ccc(-c3c4nc(c(-c5ccccc5)c5ccc([nH]5)c(-c5ccccc5)c5nc(c(-c6ccccc6)c6ccc3[nH]6)C=C5)C=C4)cc2)S1(=O)=O
REMARK SMILES IDX 16 1 15 2 14 3 12 4 13 5 11 7 7 8 8 9 9 10 10 11 6 12 1 13
REMARK SMILES IDX 2 14 3 15 4 16 69 17 5 18 70 19 71 20 17 21 18 22 19 23
REMARK SMILES IDX 20 25 21 26 22 27 68 28 23 29 67 30 24 31 25 32 26 33 61 34
REMARK SMILES IDX 27 35 66 36 60 37 62 38 28 39 65 40 59 41 58 42 29 44 51 45
REMARK SMILES IDX 36 46 50 47 37 48 40 49 49 50 63 51 38 52 39 53 48 55 64 56
REMARK SMILES IDX 41 57 30 58 31 59 35 60 32 61 34 62 33 63 52 64 53 65 57 66
REMARK SMILES IDX 54 67 56 68 55 69 42 70 43 71 47 72 44 73 46 74 45 75
REMARK H PARENT 14 6 18 24 62 43 40 54
REMARK Flexibility Score: inf
ROOT
ATOM      1  C   UNL A   1      34.092  28.559  25.752  1.00  0.00     0.042 C 
ENDROOT
BRANCH   1   2
ATOM      2  C   UNL A   1      33.258  27.520  25.008  1.00  0.00     0.117 C 
BRANCH   2   3
ATOM      3  N   UNL A   1      31.991  27.248  25.668  1.00  0.00    -0.356 N 
ATOM      4  C   UNL A   1      31.421  26.130  26.177  1.00  0.00     0.227 C 
ATOM      5  O   UNL A   1      30.310  26.295  26.699  1.00  0.00    -0.275 OA
ATOM      6  H   UNL A   1      31.427  28.049  25.767  1.00  0.00     0.163 HD
BRANCH   4   7
ATOM      7  C   UNL A   1      32.045  24.738  26.231  1.00  0.00     0.130 C 
ATOM      8  C   UNL A   1      32.232  24.193  24.823  1.00  0.00     0.143 C 
ATOM      9  C   UNL A   1      30.978  23.355  24.629  1.00  0.00     0.187 C 
ATOM     10  O   UNL A   1      30.559  22.908  25.928  1.00  0.00    -0.378 OA
ATOM     11  C   UNL A   1      31.293  23.632  26.928  1.00  0.00     0.176 C 
BRANCH   8  12
ATOM     12  N   UNL A   1      33.471  23.404  24.675  1.00  0.00    -0.231 N 
ATOM     13  C   UNL A   1      36.615  22.954  23.228  1.00  0.00     0.041 C 
ATOM     14  C   UNL A   1      35.464  22.614  24.172  1.00  0.00     0.165 C 
ATOM     15  C   UNL A   1      35.846  21.500  25.142  1.00  0.00     0.041 C 
ATOM     16  C   UNL A   1      34.798  23.843  24.855  1.00  0.00     0.259 C 
ATOM     17  S   UNL A   1      33.897  22.456  23.378  1.00  0.00     0.252 S 
ATOM     18  O   UNL A   1      35.158  24.834  25.443  1.00  0.00    -0.272 OA
ATOM     19  O   UNL A   1      33.837  23.218  22.155  1.00  0.00    -0.205 OA
ATOM     20  O   UNL A   1      33.294  21.155  23.534  1.00  0.00    -0.205 OA
ENDBRANCH   8  12
ENDBRANCH   4   7
ENDBRANCH   2   3
ENDBRANCH   1   2
BRANCH   1  21
ATOM     21  C   UNL A   1      33.729  28.695  27.222  1.00  0.00     0.118 C 
BRANCH  21  22
ATOM     22  N   UNL A   1      33.700  30.085  27.653  1.00  0.00    -0.352 N 
ATOM     23  C   UNL A   1      34.613  30.814  28.370  1.00  0.00     0.251 C 
ATOM     24  H   UNL A   1      32.894  30.582  27.384  1.00  0.00     0.163 HD
ATOM     25  O   UNL A   1      34.283  31.901  28.835  1.00  0.00    -0.269 OA
BRANCH  23  26
ATOM     26  C   UNL A   1      35.984  30.307  28.593  1.00  0.00     0.039 A 
ATOM     27  C   UNL A   1      36.904  30.367  27.540  1.00  0.00     0.014 A 
ATOM     28  C   UNL A   1      36.354  29.722  29.806  1.00  0.00     0.014 A 
ATOM     29  C   UNL A   1      38.200  29.881  27.721  1.00  0.00     0.010 A 
ATOM     30  C   UNL A   1      37.670  29.324  30.016  1.00  0.00     0.010 A 
ATOM     31  C   UNL A   1      38.600  29.381  28.969  1.00  0.00    -0.014 A 
BRANCH  31  32
ATOM     32  C   UNL A   1      39.982  28.892  29.197  1.00  0.00     0.031 A 
ATOM     33  C   UNL A   1      41.019  29.804  29.792  1.00  0.00     0.074 A 
ATOM     34  C   UNL A   1      40.322  27.653  28.797  1.00  0.00     0.049 A 
ATOM     35  N   UNL A   1      42.289  29.580  30.011  1.00  0.00    -0.248 NA
ATOM     36  C   UNL A   1      40.576  31.159  30.158  1.00  0.00     0.031 C 
ATOM     37  C   UNL A   1      39.422  26.693  28.156  1.00  0.00     0.029 A 
ATOM     38  N   UNL A   1      41.523  26.994  28.861  1.00  0.00    -0.354 N 
ATOM     39  C   UNL A   1      42.800  30.770  30.515  1.00  0.00     0.074 A 
ATOM     40  C   UNL A   1      41.717  31.728  30.517  1.00  0.00     0.031 C 
ATOM     41  C   UNL A   1      40.097  25.561  27.904  1.00  0.00     0.029 A 
ATOM     42  C   UNL A   1      41.483  25.728  28.330  1.00  0.00     0.049 A 
ATOM     43  H   UNL A   1      42.337  27.390  29.250  1.00  0.00     0.167 HD
ATOM     44  C   UNL A   1      44.054  31.038  30.952  1.00  0.00     0.031 A 
ATOM     45  C   UNL A   1      42.453  24.807  28.193  1.00  0.00     0.031 A 
ATOM     46  C   UNL A   1      45.128  30.080  30.954  1.00  0.00     0.049 A 
ATOM     47  C   UNL A   1      43.834  25.117  28.695  1.00  0.00     0.074 A 
ATOM     48  C   UNL A   1      46.414  30.225  31.443  1.00  0.00     0.029 A 
ATOM     49  N   UNL A   1      45.039  28.798  30.431  1.00  0.00    -0.354 N 
ATOM     50  N   UNL A   1      44.282  26.218  29.248  1.00  0.00    -0.248 NA
ATOM     51  C   UNL A   1      44.838  24.052  28.568  1.00  0.00     0.031 C 
ATOM     52  C   UNL A   1      47.120  29.049  31.165  1.00  0.00     0.029 A 
ATOM     53  C   UNL A   1      46.257  28.151  30.558  1.00  0.00     0.049 A 
ATOM     54  H   UNL A   1      44.230  28.406  30.030  1.00  0.00     0.167 HD
ATOM     55  C   UNL A   1      45.615  25.975  29.551  1.00  0.00     0.074 A 
ATOM     56  C   UNL A   1      45.895  24.614  29.136  1.00  0.00     0.031 C 
ATOM     57  C   UNL A   1      46.523  26.802  30.123  1.00  0.00     0.031 A 
BRANCH  44  58
ATOM     58  C   UNL A   1      44.325  32.435  31.444  1.00  0.00    -0.014 A 
ATOM     59  C   UNL A   1      44.167  32.779  32.797  1.00  0.00     0.009 A 
ATOM     60  C   UNL A   1      44.737  33.425  30.539  1.00  0.00     0.009 A 
ATOM     61  C   UNL A   1      44.360  34.096  33.221  1.00  0.00     0.001 A 
ATOM     62  C   UNL A   1      44.964  34.733  30.972  1.00  0.00     0.001 A 
ATOM     63  C   UNL A   1      44.759  35.071  32.309  1.00  0.00     0.000 A 
ENDBRANCH  44  58
BRANCH  45  64
ATOM     64  C   UNL A   1      42.132  23.497  27.570  1.00  0.00    -0.014 A 
ATOM     65  C   UNL A   1      42.458  23.245  26.230  1.00  0.00     0.009 A 
ATOM     66  C   UNL A   1      41.542  22.475  28.331  1.00  0.00     0.009 A 
ATOM     67  C   UNL A   1      42.191  21.998  25.660  1.00  0.00     0.001 A 
ATOM     68  C   UNL A   1      41.300  21.222  27.766  1.00  0.00     0.001 A 
ATOM     69  C   UNL A   1      41.619  20.986  26.430  1.00  0.00     0.000 A 
ENDBRANCH  45  64
BRANCH  57  70
ATOM     70  C   UNL A   1      47.903  26.251  30.351  1.00  0.00    -0.014 A 
ATOM     71  C   UNL A   1      48.281  25.726  31.596  1.00  0.00     0.009 A 
ATOM     72  C   UNL A   1      48.822  26.220  29.290  1.00  0.00     0.009 A 
ATOM     73  C   UNL A   1      49.566  25.210  31.783  1.00  0.00     0.001 A 
ATOM     74  C   UNL A   1      50.095  25.677  29.471  1.00  0.00     0.001 A 
ATOM     75  C   UNL A   1      50.469  25.182  30.719  1.00  0.00     0.000 A 
ENDBRANCH  57  70
ENDBRANCH  31  32
ENDBRANCH  23  26
ENDBRANCH  21  22
ENDBRANCH   1  21
TORSDOF 11
ENDMDL
