MODEL 1
REMARK VINA RESULT:     -12.1      0.000      0.000
REMARK SMILES O=C(NCCCNC(=O)C1(C/C=C/c2ccccc2)Cc2ccccc2C1)c1ccc(-c2c3nc(c(-c4ccccc4)c4ccc([nH]4)c(-c4ccccc4)c4nc(c(-c5ccccc5)c5ccc2[nH]5)C=C4)C=C3)cc1
REMARK SMILES IDX 5 1 4 2 3 3 1 4 2 5 28 7 29 8 75 9 30 10 74 11 31 12 32 13
REMARK SMILES IDX 33 14 68 15 34 16 73 17 67 18 69 19 35 20 72 21 66 22 65 23
REMARK SMILES IDX 36 25 58 26 43 27 57 28 44 29 47 30 56 31 70 32 45 33 46 34
REMARK SMILES IDX 55 36 71 37 48 38 37 39 38 40 42 41 39 42 41 43 40 44 59 45
REMARK SMILES IDX 60 46 64 47 61 48 63 49 62 50 49 51 50 52 54 53 51 54 53 55
REMARK SMILES IDX 52 56 6 57 7 58 8 59 9 61 10 62 20 63 27 64 21 65 26 66
REMARK SMILES IDX 22 67 25 68 23 69 24 70 11 71 12 72 13 73 14 74 15 75 19 76
REMARK SMILES IDX 16 77 18 78 17 79
REMARK H PARENT 3 6 69 24 47 35 7 60
REMARK Flexibility Score: inf
ROOT
ATOM      1  C   UNL A   1      35.578  23.162  25.781  1.00  0.00     0.042 C 
ENDROOT
BRANCH   1   2
ATOM      2  C   UNL A   1      36.911  23.561  25.149  1.00  0.00     0.118 C 
BRANCH   2   3
ATOM      3  N   UNL A   1      37.983  22.657  25.525  1.00  0.00    -0.352 N 
ATOM      4  O   UNL A   1      40.055  22.068  26.158  1.00  0.00    -0.269 OA
ATOM      5  C   UNL A   1      39.173  22.921  26.154  1.00  0.00     0.251 C 
ATOM      6  H   UNL A   1      37.833  21.713  25.294  1.00  0.00     0.163 HD
BRANCH   5   7
ATOM      7  C   UNL A   1      39.411  24.218  26.826  1.00  0.00     0.039 A 
ATOM      8  C   UNL A   1      39.003  24.446  28.145  1.00  0.00     0.014 A 
ATOM      9  C   UNL A   1      40.149  25.193  26.148  1.00  0.00     0.014 A 
ATOM     10  C   UNL A   1      39.265  25.673  28.756  1.00  0.00     0.010 A 
ATOM     11  C   UNL A   1      40.458  26.401  26.778  1.00  0.00     0.010 A 
ATOM     12  C   UNL A   1      40.008  26.655  28.083  1.00  0.00    -0.014 A 
BRANCH  12  13
ATOM     13  C   UNL A   1      40.372  27.925  28.758  1.00  0.00     0.031 A 
ATOM     14  C   UNL A   1      41.702  28.076  29.440  1.00  0.00     0.074 A 
ATOM     15  C   UNL A   1      39.478  28.930  28.800  1.00  0.00     0.049 A 
ATOM     16  N   UNL A   1      42.156  29.078  30.149  1.00  0.00    -0.248 NA
ATOM     17  C   UNL A   1      42.640  26.950  29.314  1.00  0.00     0.031 C 
ATOM     18  C   UNL A   1      38.150  28.904  28.184  1.00  0.00     0.029 A 
ATOM     19  N   UNL A   1      39.546  30.163  29.399  1.00  0.00    -0.354 N 
ATOM     20  C   UNL A   1      43.422  28.696  30.576  1.00  0.00     0.074 A 
ATOM     21  C   UNL A   1      43.655  27.363  30.060  1.00  0.00     0.031 C 
ATOM     22  C   UNL A   1      37.532  30.070  28.430  1.00  0.00     0.029 A 
ATOM     23  C   UNL A   1      38.396  30.900  29.261  1.00  0.00     0.049 A 
ATOM     24  H   UNL A   1      40.341  30.486  29.881  1.00  0.00     0.167 HD
ATOM     25  C   UNL A   1      44.307  29.392  31.329  1.00  0.00     0.031 A 
ATOM     26  C   UNL A   1      38.060  32.102  29.768  1.00  0.00     0.031 A 
ATOM     27  C   UNL A   1      44.071  30.713  31.846  1.00  0.00     0.049 A 
ATOM     28  C   UNL A   1      39.043  32.841  30.628  1.00  0.00     0.074 A 
ATOM     29  C   UNL A   1      44.924  31.515  32.589  1.00  0.00     0.029 A 
ATOM     30  N   UNL A   1      42.894  31.427  31.683  1.00  0.00    -0.354 N 
ATOM     31  N   UNL A   1      40.251  32.482  30.991  1.00  0.00    -0.248 NA
ATOM     32  C   UNL A   1      38.619  34.149  31.144  1.00  0.00     0.031 C 
ATOM     33  C   UNL A   1      44.243  32.694  32.913  1.00  0.00     0.029 A 
ATOM     34  C   UNL A   1      42.987  32.647  32.330  1.00  0.00     0.049 A 
ATOM     35  H   UNL A   1      42.107  31.111  31.182  1.00  0.00     0.167 HD
ATOM     36  C   UNL A   1      40.740  33.529  31.759  1.00  0.00     0.074 A 
ATOM     37  C   UNL A   1      39.702  34.539  31.805  1.00  0.00     0.031 C 
ATOM     38  C   UNL A   1      41.946  33.643  32.367  1.00  0.00     0.031 A 
BRANCH  25  39
ATOM     39  C   UNL A   1      45.604  28.713  31.667  1.00  0.00    -0.014 A 
ATOM     40  C   UNL A   1      45.738  27.923  32.819  1.00  0.00     0.009 A 
ATOM     41  C   UNL A   1      46.705  28.851  30.807  1.00  0.00     0.009 A 
ATOM     42  C   UNL A   1      46.960  27.319  33.124  1.00  0.00     0.001 A 
ATOM     43  C   UNL A   1      47.918  28.226  31.101  1.00  0.00     0.001 A 
ATOM     44  C   UNL A   1      48.048  27.470  32.265  1.00  0.00     0.000 A 
ENDBRANCH  25  39
BRANCH  26  45
ATOM     45  C   UNL A   1      36.717  32.664  29.476  1.00  0.00    -0.014 A 
ATOM     46  C   UNL A   1      36.472  33.330  28.266  1.00  0.00     0.009 A 
ATOM     47  C   UNL A   1      35.663  32.496  30.388  1.00  0.00     0.009 A 
ATOM     48  C   UNL A   1      35.197  33.821  27.978  1.00  0.00     0.001 A 
ATOM     49  C   UNL A   1      34.385  32.968  30.087  1.00  0.00     0.001 A 
ATOM     50  C   UNL A   1      34.153  33.634  28.884  1.00  0.00     0.000 A 
ENDBRANCH  26  45
BRANCH  38  51
ATOM     51  C   UNL A   1      42.227  34.919  33.105  1.00  0.00    -0.014 A 
ATOM     52  C   UNL A   1      41.752  35.125  34.409  1.00  0.00     0.009 A 
ATOM     53  C   UNL A   1      43.027  35.904  32.506  1.00  0.00     0.009 A 
ATOM     54  C   UNL A   1      42.058  36.304  35.092  1.00  0.00     0.001 A 
ATOM     55  C   UNL A   1      43.348  37.072  33.198  1.00  0.00     0.001 A 
ATOM     56  C   UNL A   1      42.860  37.273  34.488  1.00  0.00     0.000 A 
ENDBRANCH  38  51
ENDBRANCH  12  13
ENDBRANCH   5   7
ENDBRANCH   2   3
ENDBRANCH   1   2
BRANCH   1  57
ATOM     57  C   UNL A   1      34.352  23.518  24.930  1.00  0.00     0.117 C 
BRANCH  57  58
ATOM     58  N   UNL A   1      33.149  23.500  25.741  1.00  0.00    -0.356 N 
ATOM     59  C   UNL A   1      32.428  24.480  26.345  1.00  0.00     0.227 C 
ATOM     60  H   UNL A   1      32.783  22.597  25.883  1.00  0.00     0.163 HD
ATOM     61  O   UNL A   1      31.717  24.071  27.267  1.00  0.00    -0.274 OA
BRANCH  59  62
ATOM     62  C   UNL A   1      32.416  25.955  25.884  1.00  0.00     0.061 C 
ATOM     63  C   UNL A   1      31.500  26.881  26.742  1.00  0.00     0.053 C 
ATOM     64  C   UNL A   1      33.854  26.541  25.996  1.00  0.00     0.053 C 
ATOM     65  C   UNL A   1      32.305  28.138  26.867  1.00  0.00    -0.044 A 
ATOM     66  C   UNL A   1      33.613  27.955  26.423  1.00  0.00    -0.044 A 
ATOM     67  C   UNL A   1      31.885  29.361  27.366  1.00  0.00     0.004 A 
ATOM     68  C   UNL A   1      34.526  28.997  26.444  1.00  0.00     0.004 A 
ATOM     69  C   UNL A   1      32.798  30.418  27.391  1.00  0.00     0.000 A 
ATOM     70  C   UNL A   1      34.108  30.239  26.925  1.00  0.00     0.000 A 
BRANCH  62  71
ATOM     71  C   UNL A   1      31.870  26.057  24.415  1.00  0.00     0.045 C 
BRANCH  71  72
ATOM     72  C   UNL A   1      30.712  26.986  24.154  1.00  0.00    -0.025 C 
ATOM     73  C   UNL A   1      30.877  28.232  23.678  1.00  0.00     0.004 C 
BRANCH  73  74
ATOM     74  C   UNL A   1      29.781  29.180  23.465  1.00  0.00    -0.026 A 
ATOM     75  C   UNL A   1      29.931  30.507  23.883  1.00  0.00     0.008 A 
ATOM     76  C   UNL A   1      28.553  28.769  22.930  1.00  0.00     0.008 A 
ATOM     77  C   UNL A   1      28.879  31.416  23.741  1.00  0.00     0.001 A 
ATOM     78  C   UNL A   1      27.501  29.677  22.792  1.00  0.00     0.001 A 
ATOM     79  C   UNL A   1      27.666  31.001  23.194  1.00  0.00     0.000 A 
ENDBRANCH  73  74
ENDBRANCH  71  72
ENDBRANCH  62  71
ENDBRANCH  59  62
ENDBRANCH  57  58
ENDBRANCH   1  57
TORSDOF 13
ENDMDL
MODEL 2
REMARK VINA RESULT:     -11.8      0.806      5.970
REMARK SMILES O=C(NCCCNC(=O)C1(C/C=C/c2ccccc2)Cc2ccccc2C1)c1ccc(-c2c3nc(c(-c4ccccc4)c4ccc([nH]4)c(-c4ccccc4)c4nc(c(-c5ccccc5)c5ccc2[nH]5)C=C4)C=C3)cc1
REMARK SMILES IDX 5 1 4 2 3 3 1 4 2 5 28 7 29 8 75 9 30 10 74 11 31 12 32 13
REMARK SMILES IDX 33 14 68 15 34 16 73 17 67 18 69 19 35 20 72 21 66 22 65 23
REMARK SMILES IDX 36 25 58 26 43 27 57 28 44 29 47 30 56 31 70 32 45 33 46 34
REMARK SMILES IDX 55 36 71 37 48 38 37 39 38 40 42 41 39 42 41 43 40 44 59 45
REMARK SMILES IDX 60 46 64 47 61 48 63 49 62 50 49 51 50 52 54 53 51 54 53 55
REMARK SMILES IDX 52 56 6 57 7 58 8 59 9 61 10 62 20 63 27 64 21 65 26 66
REMARK SMILES IDX 22 67 25 68 23 69 24 70 11 71 12 72 13 73 14 74 15 75 19 76
REMARK SMILES IDX 16 77 18 78 17 79
REMARK H PARENT 3 6 69 24 47 35 7 60
REMARK Flexibility Score: inf
ROOT
ATOM      1  C   UNL A   1      35.484  22.983  25.847  1.00  0.00     0.042 C 
ENDROOT
BRANCH   1   2
ATOM      2  C   UNL A   1      36.813  23.465  25.266  1.00  0.00     0.118 C 
BRANCH   2   3
ATOM      3  N   UNL A   1      37.902  22.557  25.575  1.00  0.00    -0.352 N 
ATOM      4  O   UNL A   1      40.007  21.960  26.080  1.00  0.00    -0.269 OA
ATOM      5  C   UNL A   1      39.130  22.816  26.131  1.00  0.00     0.251 C 
ATOM      6  H   UNL A   1      37.736  21.613  25.353  1.00  0.00     0.163 HD
BRANCH   5   7
ATOM      7  C   UNL A   1      39.412  24.112  26.789  1.00  0.00     0.039 A 
ATOM      8  C   UNL A   1      39.088  24.338  28.131  1.00  0.00     0.014 A 
ATOM      9  C   UNL A   1      40.110  25.085  26.068  1.00  0.00     0.014 A 
ATOM     10  C   UNL A   1      39.390  25.563  28.727  1.00  0.00     0.010 A 
ATOM     11  C   UNL A   1      40.460  26.291  26.680  1.00  0.00     0.010 A 
ATOM     12  C   UNL A   1      40.093  26.544  28.011  1.00  0.00    -0.014 A 
BRANCH  12  13
ATOM     13  C   UNL A   1      40.502  27.812  28.664  1.00  0.00     0.031 A 
ATOM     14  C   UNL A   1      39.523  28.939  28.828  1.00  0.00     0.074 A 
ATOM     15  C   UNL A   1      41.778  27.966  29.065  1.00  0.00     0.049 A 
ATOM     16  N   UNL A   1      39.725  30.145  29.295  1.00  0.00    -0.248 NA
ATOM     17  C   UNL A   1      38.139  28.679  28.403  1.00  0.00     0.031 C 
ATOM     18  C   UNL A   1      42.826  26.951  28.954  1.00  0.00     0.029 A 
ATOM     19  N   UNL A   1      42.412  29.042  29.632  1.00  0.00    -0.354 N 
ATOM     20  C   UNL A   1      38.501  30.797  29.199  1.00  0.00     0.074 A 
ATOM     21  C   UNL A   1      37.569  29.857  28.613  1.00  0.00     0.031 C 
ATOM     22  C   UNL A   1      43.971  27.448  29.446  1.00  0.00     0.029 A 
ATOM     23  C   UNL A   1      43.749  28.830  29.857  1.00  0.00     0.049 A 
ATOM     24  H   UNL A   1      41.953  29.884  29.857  1.00  0.00     0.167 HD
ATOM     25  C   UNL A   1      38.186  32.062  29.566  1.00  0.00     0.031 A 
ATOM     26  C   UNL A   1      44.703  29.662  30.318  1.00  0.00     0.031 A 
ATOM     27  C   UNL A   1      39.114  32.997  30.143  1.00  0.00     0.049 A 
ATOM     28  C   UNL A   1      44.339  31.070  30.687  1.00  0.00     0.074 A 
ATOM     29  C   UNL A   1      38.879  34.290  30.582  1.00  0.00     0.029 A 
ATOM     30  N   UNL A   1      40.461  32.743  30.355  1.00  0.00    -0.354 N 
ATOM     31  N   UNL A   1      43.169  31.660  30.625  1.00  0.00    -0.248 NA
ATOM     32  C   UNL A   1      45.422  31.925  31.190  1.00  0.00     0.031 C 
ATOM     33  C   UNL A   1      40.093  34.833  31.016  1.00  0.00     0.029 A 
ATOM     34  C   UNL A   1      41.074  33.861  30.895  1.00  0.00     0.049 A 
ATOM     35  H   UNL A   1      40.914  31.893  30.151  1.00  0.00     0.167 HD
ATOM     36  C   UNL A   1      43.370  32.947  31.103  1.00  0.00     0.074 A 
ATOM     37  C   UNL A   1      44.772  33.051  31.457  1.00  0.00     0.031 C 
ATOM     38  C   UNL A   1      42.469  33.950  31.241  1.00  0.00     0.031 A 
BRANCH  25  39
ATOM     39  C   UNL A   1      36.775  32.518  29.317  1.00  0.00    -0.014 A 
ATOM     40  C   UNL A   1      36.404  33.118  28.104  1.00  0.00     0.009 A 
ATOM     41  C   UNL A   1      35.798  32.325  30.306  1.00  0.00     0.009 A 
ATOM     42  C   UNL A   1      35.092  33.554  27.903  1.00  0.00     0.001 A 
ATOM     43  C   UNL A   1      34.482  32.738  30.093  1.00  0.00     0.001 A 
ATOM     44  C   UNL A   1      34.132  33.362  28.897  1.00  0.00     0.000 A 
ENDBRANCH  25  39
BRANCH  26  45
ATOM     45  C   UNL A   1      46.099  29.171  30.440  1.00  0.00    -0.014 A 
ATOM     46  C   UNL A   1      46.546  28.584  31.633  1.00  0.00     0.009 A 
ATOM     47  C   UNL A   1      46.976  29.247  29.346  1.00  0.00     0.009 A 
ATOM     48  C   UNL A   1      47.847  28.087  31.728  1.00  0.00     0.001 A 
ATOM     49  C   UNL A   1      48.268  28.728  29.438  1.00  0.00     0.001 A 
ATOM     50  C   UNL A   1      48.705  28.152  30.630  1.00  0.00     0.000 A 
ENDBRANCH  26  45
BRANCH  38  51
ATOM     51  C   UNL A   1      42.960  35.239  31.832  1.00  0.00    -0.014 A 
ATOM     52  C   UNL A   1      42.867  35.491  33.209  1.00  0.00     0.009 A 
ATOM     53  C   UNL A   1      43.578  36.190  31.005  1.00  0.00     0.009 A 
ATOM     54  C   UNL A   1      43.366  36.681  33.743  1.00  0.00     0.001 A 
ATOM     55  C   UNL A   1      44.094  37.368  31.544  1.00  0.00     0.001 A 
ATOM     56  C   UNL A   1      43.984  37.615  32.912  1.00  0.00     0.000 A 
ENDBRANCH  38  51
ENDBRANCH  12  13
ENDBRANCH   5   7
ENDBRANCH   2   3
ENDBRANCH   1   2
BRANCH   1  57
ATOM     57  C   UNL A   1      34.265  23.314  24.977  1.00  0.00     0.117 C 
BRANCH  57  58
ATOM     58  N   UNL A   1      33.059  23.341  25.783  1.00  0.00    -0.356 N 
ATOM     59  C   UNL A   1      32.359  24.350  26.363  1.00  0.00     0.227 C 
ATOM     60  H   UNL A   1      32.671  22.450  25.942  1.00  0.00     0.163 HD
ATOM     61  O   UNL A   1      31.634  23.978  27.291  1.00  0.00    -0.274 OA
BRANCH  59  62
ATOM     62  C   UNL A   1      32.382  25.815  25.872  1.00  0.00     0.061 C 
ATOM     63  C   UNL A   1      31.439  26.768  26.668  1.00  0.00     0.053 C 
ATOM     64  C   UNL A   1      33.820  26.390  26.038  1.00  0.00     0.053 C 
ATOM     65  C   UNL A   1      32.250  28.020  26.803  1.00  0.00    -0.044 A 
ATOM     66  C   UNL A   1      33.575  27.815  26.423  1.00  0.00    -0.044 A 
ATOM     67  C   UNL A   1      31.822  29.257  27.258  1.00  0.00     0.004 A 
ATOM     68  C   UNL A   1      34.497  28.848  26.464  1.00  0.00     0.004 A 
ATOM     69  C   UNL A   1      32.743  30.305  27.302  1.00  0.00     0.000 A 
ATOM     70  C   UNL A   1      34.071  30.104  26.900  1.00  0.00     0.000 A 
BRANCH  62  71
ATOM     71  C   UNL A   1      31.905  25.891  24.377  1.00  0.00     0.045 C 
BRANCH  71  72
ATOM     72  C   UNL A   1      30.765  26.821  24.047  1.00  0.00    -0.025 C 
ATOM     73  C   UNL A   1      30.792  27.652  22.991  1.00  0.00     0.004 C 
BRANCH  73  74
ATOM     74  C   UNL A   1      29.727  28.605  22.672  1.00  0.00    -0.026 A 
ATOM     75  C   UNL A   1      30.041  29.775  21.970  1.00  0.00     0.008 A 
ATOM     76  C   UNL A   1      28.415  28.415  23.126  1.00  0.00     0.008 A 
ATOM     77  C   UNL A   1      29.053  30.726  21.703  1.00  0.00     0.001 A 
ATOM     78  C   UNL A   1      27.429  29.367  22.861  1.00  0.00     0.001 A 
ATOM     79  C   UNL A   1      27.748  30.520  22.146  1.00  0.00     0.000 A 
ENDBRANCH  73  74
ENDBRANCH  71  72
ENDBRANCH  62  71
ENDBRANCH  59  62
ENDBRANCH  57  58
ENDBRANCH   1  57
TORSDOF 13
ENDMDL
MODEL 3
REMARK VINA RESULT:     -11.7      2.893      8.370
REMARK SMILES O=C(NCCCNC(=O)C1(C/C=C/c2ccccc2)Cc2ccccc2C1)c1ccc(-c2c3nc(c(-c4ccccc4)c4ccc([nH]4)c(-c4ccccc4)c4nc(c(-c5ccccc5)c5ccc2[nH]5)C=C4)C=C3)cc1
REMARK SMILES IDX 5 1 4 2 3 3 1 4 2 5 28 7 29 8 75 9 30 10 74 11 31 12 32 13
REMARK SMILES IDX 33 14 68 15 34 16 73 17 67 18 69 19 35 20 72 21 66 22 65 23
REMARK SMILES IDX 36 25 58 26 43 27 57 28 44 29 47 30 56 31 70 32 45 33 46 34
REMARK SMILES IDX 55 36 71 37 48 38 37 39 38 40 42 41 39 42 41 43 40 44 59 45
REMARK SMILES IDX 60 46 64 47 61 48 63 49 62 50 49 51 50 52 54 53 51 54 53 55
REMARK SMILES IDX 52 56 6 57 7 58 8 59 9 61 10 62 20 63 27 64 21 65 26 66
REMARK SMILES IDX 22 67 25 68 23 69 24 70 11 71 12 72 13 73 14 74 15 75 19 76
REMARK SMILES IDX 16 77 18 78 17 79
REMARK H PARENT 3 6 69 24 47 35 7 60
REMARK Flexibility Score: inf
ROOT
ATOM      1  C   UNL A   1      32.160  28.360  26.613  1.00  0.00     0.042 C 
ENDROOT
BRANCH   1   2
ATOM      2  C   UNL A   1      33.513  28.725  27.222  1.00  0.00     0.118 C 
BRANCH   2   3
ATOM      3  N   UNL A   1      33.569  30.119  27.625  1.00  0.00    -0.352 N 
ATOM      4  O   UNL A   1      34.309  31.907  28.763  1.00  0.00    -0.269 OA
ATOM      5  C   UNL A   1      34.554  30.801  28.293  1.00  0.00     0.251 C 
ATOM      6  H   UNL A   1      32.782  30.656  27.382  1.00  0.00     0.163 HD
BRANCH   5   7
ATOM      7  C   UNL A   1      35.907  30.221  28.458  1.00  0.00     0.039 A 
ATOM      8  C   UNL A   1      36.858  30.279  27.434  1.00  0.00     0.014 A 
ATOM      9  C   UNL A   1      36.258  29.697  29.706  1.00  0.00     0.014 A 
ATOM     10  C   UNL A   1      38.132  29.744  27.632  1.00  0.00     0.010 A 
ATOM     11  C   UNL A   1      37.550  29.210  29.921  1.00  0.00     0.010 A 
ATOM     12  C   UNL A   1      38.493  29.220  28.882  1.00  0.00    -0.014 A 
BRANCH  12  13
ATOM     13  C   UNL A   1      39.873  28.735  29.131  1.00  0.00     0.031 A 
ATOM     14  C   UNL A   1      40.913  29.649  29.714  1.00  0.00     0.074 A 
ATOM     15  C   UNL A   1      40.205  27.478  28.781  1.00  0.00     0.049 A 
ATOM     16  N   UNL A   1      42.185  29.425  29.921  1.00  0.00    -0.248 NA
ATOM     17  C   UNL A   1      40.463  30.993  30.109  1.00  0.00     0.031 C 
ATOM     18  C   UNL A   1      39.289  26.495  28.199  1.00  0.00     0.029 A 
ATOM     19  N   UNL A   1      41.405  26.818  28.851  1.00  0.00    -0.354 N 
ATOM     20  C   UNL A   1      42.696  30.606  30.447  1.00  0.00     0.074 A 
ATOM     21  C   UNL A   1      41.598  31.548  30.510  1.00  0.00     0.031 C 
ATOM     22  C   UNL A   1      39.959  25.355  27.972  1.00  0.00     0.029 A 
ATOM     23  C   UNL A   1      41.357  25.543  28.345  1.00  0.00     0.049 A 
ATOM     24  H   UNL A   1      42.222  27.218  29.229  1.00  0.00     0.167 HD
ATOM     25  C   UNL A   1      43.963  30.878  30.839  1.00  0.00     0.031 A 
ATOM     26  C   UNL A   1      42.333  24.631  28.171  1.00  0.00     0.031 A 
ATOM     27  C   UNL A   1      45.055  29.944  30.770  1.00  0.00     0.049 A 
ATOM     28  C   UNL A   1      43.737  24.966  28.582  1.00  0.00     0.074 A 
ATOM     29  C   UNL A   1      46.367  30.117  31.179  1.00  0.00     0.029 A 
ATOM     30  N   UNL A   1      44.965  28.661  30.251  1.00  0.00    -0.354 N 
ATOM     31  N   UNL A   1      44.196  26.074  29.112  1.00  0.00    -0.248 NA
ATOM     32  C   UNL A   1      44.754  23.927  28.375  1.00  0.00     0.031 C 
ATOM     33  C   UNL A   1      47.080  28.954  30.864  1.00  0.00     0.029 A 
ATOM     34  C   UNL A   1      46.201  28.041  30.306  1.00  0.00     0.049 A 
ATOM     35  H   UNL A   1      44.142  28.254  29.894  1.00  0.00     0.167 HD
ATOM     36  C   UNL A   1      45.551  25.858  29.323  1.00  0.00     0.074 A 
ATOM     37  C   UNL A   1      45.838  24.512  28.869  1.00  0.00     0.031 C 
ATOM     38  C   UNL A   1      46.471  26.701  29.851  1.00  0.00     0.031 A 
BRANCH  25  39
ATOM     39  C   UNL A   1      44.241  32.265  31.348  1.00  0.00    -0.014 A 
ATOM     40  C   UNL A   1      44.126  32.580  32.711  1.00  0.00     0.009 A 
ATOM     41  C   UNL A   1      44.643  33.267  30.451  1.00  0.00     0.009 A 
ATOM     42  C   UNL A   1      44.369  33.881  33.158  1.00  0.00     0.001 A 
ATOM     43  C   UNL A   1      44.909  34.560  30.904  1.00  0.00     0.001 A 
ATOM     44  C   UNL A   1      44.761  34.869  32.255  1.00  0.00     0.000 A 
ENDBRANCH  25  39
BRANCH  26  45
ATOM     45  C   UNL A   1      42.002  23.317  27.565  1.00  0.00    -0.014 A 
ATOM     46  C   UNL A   1      42.247  23.078  26.206  1.00  0.00     0.009 A 
ATOM     47  C   UNL A   1      41.481  22.281  28.358  1.00  0.00     0.009 A 
ATOM     48  C   UNL A   1      41.971  21.826  25.650  1.00  0.00     0.001 A 
ATOM     49  C   UNL A   1      41.229  21.025  27.805  1.00  0.00     0.001 A 
ATOM     50  C   UNL A   1      41.470  20.800  26.450  1.00  0.00     0.000 A 
ENDBRANCH  26  45
BRANCH  38  51
ATOM     51  C   UNL A   1      47.872  26.182  30.003  1.00  0.00    -0.014 A 
ATOM     52  C   UNL A   1      48.779  26.213  28.933  1.00  0.00     0.009 A 
ATOM     53  C   UNL A   1      48.304  25.710  31.251  1.00  0.00     0.009 A 
ATOM     54  C   UNL A   1      50.089  25.760  29.107  1.00  0.00     0.001 A 
ATOM     55  C   UNL A   1      49.619  25.279  31.428  1.00  0.00     0.001 A 
ATOM     56  C   UNL A   1      50.509  25.300  30.355  1.00  0.00     0.000 A 
ENDBRANCH  38  51
ENDBRANCH  12  13
ENDBRANCH   5   7
ENDBRANCH   2   3
ENDBRANCH   1   2
BRANCH   1  57
ATOM     57  C   UNL A   1      32.072  26.914  26.108  1.00  0.00     0.117 C 
BRANCH  57  58
ATOM     58  N   UNL A   1      32.203  26.872  24.664  1.00  0.00    -0.356 N 
ATOM     59  C   UNL A   1      32.964  26.119  23.828  1.00  0.00     0.227 C 
ATOM     60  H   UNL A   1      31.626  27.518  24.197  1.00  0.00     0.163 HD
ATOM     61  O   UNL A   1      33.116  26.623  22.711  1.00  0.00    -0.274 OA
BRANCH  59  62
ATOM     62  C   UNL A   1      33.523  24.724  24.186  1.00  0.00     0.061 C 
ATOM     63  C   UNL A   1      34.445  24.108  23.089  1.00  0.00     0.053 C 
ATOM     64  C   UNL A   1      34.394  24.833  25.473  1.00  0.00     0.053 C 
ATOM     65  C   UNL A   1      35.545  23.472  23.882  1.00  0.00    -0.044 A 
ATOM     66  C   UNL A   1      35.498  23.856  25.221  1.00  0.00    -0.044 A 
ATOM     67  C   UNL A   1      36.533  22.617  23.419  1.00  0.00     0.004 A 
ATOM     68  C   UNL A   1      36.423  23.374  26.134  1.00  0.00     0.004 A 
ATOM     69  C   UNL A   1      37.469  22.126  24.331  1.00  0.00     0.000 A 
ATOM     70  C   UNL A   1      37.410  22.496  25.682  1.00  0.00     0.000 A 
BRANCH  62  71
ATOM     71  C   UNL A   1      32.345  23.703  24.378  1.00  0.00     0.045 C 
BRANCH  71  72
ATOM     72  C   UNL A   1      32.542  22.295  23.875  1.00  0.00    -0.025 C 
ATOM     73  C   UNL A   1      32.813  21.265  24.694  1.00  0.00     0.004 C 
BRANCH  73  74
ATOM     74  C   UNL A   1      33.064  19.897  24.236  1.00  0.00    -0.026 A 
ATOM     75  C   UNL A   1      34.188  19.210  24.707  1.00  0.00     0.008 A 
ATOM     76  C   UNL A   1      32.251  19.290  23.269  1.00  0.00     0.008 A 
ATOM     77  C   UNL A   1      34.479  17.925  24.242  1.00  0.00     0.001 A 
ATOM     78  C   UNL A   1      32.543  18.007  22.803  1.00  0.00     0.001 A 
ATOM     79  C   UNL A   1      33.655  17.324  23.292  1.00  0.00     0.000 A 
ENDBRANCH  73  74
ENDBRANCH  71  72
ENDBRANCH  62  71
ENDBRANCH  59  62
ENDBRANCH  57  58
ENDBRANCH   1  57
TORSDOF 13
ENDMDL
