MODEL 1
REMARK VINA RESULT:     -12.0      0.000      0.000
REMARK SMILES COC(=O)C1=C(C)N(c2cccc(OC)c2)C(=O)/C1=C\c1ccc(C(=O)NCCCNC(=O)c2ccc(-c3c4nc(c(-c5ccccc5)c5ccc([nH]5)c(-c5ccccc5)c5nc(c(-c6ccccc6)c6ccc3[nH]6)C=C5)C=C4)cc2)cc1
REMARK SMILES IDX 28 1 27 2 25 3 26 4 24 6 21 7 22 8 83 9 23 10 82 11 20 12
REMARK SMILES IDX 5 13 6 14 19 15 7 16 8 17 17 18 18 19 3 20 4 21 2 22 1 23
REMARK SMILES IDX 9 24 10 25 16 26 11 27 13 28 12 29 14 30 15 31 29 32 30 33
REMARK SMILES IDX 31 34 32 35 33 37 34 38 35 39 81 40 36 41 80 42 37 43 38 44
REMARK SMILES IDX 39 45 74 46 40 47 79 48 73 49 75 50 41 51 78 52 72 53 71 54
REMARK SMILES IDX 42 56 64 57 49 58 63 59 50 60 53 61 62 62 76 63 51 64 52 65
REMARK SMILES IDX 61 67 77 68 54 69 43 70 44 71 48 72 45 73 47 74 46 75 65 76
REMARK SMILES IDX 66 77 70 78 67 79 69 80 68 81 55 82 56 83 60 84 57 85 59 86
REMARK SMILES IDX 58 87
REMARK H PARENT 27 5 31 36 75 55 53 66
REMARK Flexibility Score: inf
ROOT
ATOM      1  C   UNL A   1      31.722  29.198  25.094  1.00  0.00     0.118 C 
ENDROOT
BRANCH   1   2
ATOM      2  N   UNL A   1      31.045  29.262  23.812  1.00  0.00    -0.352 N 
ATOM      3  C   UNL A   1      30.668  28.282  22.927  1.00  0.00     0.251 C 
ATOM      4  O   UNL A   1      30.037  28.624  21.927  1.00  0.00    -0.269 OA
ATOM      5  H   UNL A   1      30.813  30.174  23.524  1.00  0.00     0.163 HD
BRANCH   3   6
ATOM      6  C   UNL A   1      30.952  26.838  23.148  1.00  0.00     0.039 A 
ATOM      7  C   UNL A   1      31.470  24.138  23.725  1.00  0.00    -0.025 A 
ATOM      8  C   UNL A   1      30.684  24.893  24.596  1.00  0.00     0.009 A 
ATOM      9  C   UNL A   1      31.952  24.715  22.550  1.00  0.00     0.009 A 
ATOM     10  C   UNL A   1      30.431  26.240  24.308  1.00  0.00     0.014 A 
ATOM     11  C   UNL A   1      31.668  26.046  22.251  1.00  0.00     0.014 A 
BRANCH   7  12
ATOM     12  C   UNL A   1      31.783  22.730  23.958  1.00  0.00     0.023 C 
ATOM     13  C   UNL A   1      33.393  20.846  24.286  1.00  0.00     0.092 C 
ATOM     14  C   UNL A   1      34.678  20.772  24.701  1.00  0.00     0.039 C 
ATOM     15  C   UNL A   1      33.006  22.243  24.219  1.00  0.00     0.057 C 
ATOM     16  C   UNL A   1      35.419  19.507  24.987  1.00  0.00     0.066 C 
ATOM     17  N   UNL A   1      35.193  22.057  24.905  1.00  0.00    -0.280 N 
ATOM     18  C   UNL A   1      34.229  23.041  24.562  1.00  0.00     0.263 C 
ATOM     19  O   UNL A   1      34.330  24.251  24.549  1.00  0.00    -0.268 OA
BRANCH  13  20
ATOM     20  C   UNL A   1      32.502  19.739  23.892  1.00  0.00     0.340 C 
ATOM     21  O   UNL A   1      32.178  19.518  22.734  1.00  0.00    -0.246 OA
BRANCH  20  22
ATOM     22  O   UNL A   1      32.065  19.051  24.973  1.00  0.00    -0.465 OA
ATOM     23  C   UNL A   1      32.360  17.655  24.916  1.00  0.00     0.282 C 
ENDBRANCH  20  22
ENDBRANCH  13  20
BRANCH  17  24
ATOM     24  C   UNL A   1      36.440  22.440  25.474  1.00  0.00     0.053 A 
ATOM     25  C   UNL A   1      36.641  23.681  26.084  1.00  0.00     0.027 A 
ATOM     26  C   UNL A   1      37.528  21.558  25.366  1.00  0.00     0.073 A 
ATOM     27  C   UNL A   1      37.915  24.052  26.528  1.00  0.00     0.006 A 
ATOM     28  C   UNL A   1      38.808  21.932  25.779  1.00  0.00     0.120 A 
ATOM     29  C   UNL A   1      38.994  23.185  26.362  1.00  0.00     0.046 A 
BRANCH  28  30
ATOM     30  O   UNL A   1      39.940  21.174  25.647  1.00  0.00    -0.497 OA
ATOM     31  C   UNL A   1      39.839  19.807  26.036  1.00  0.00     0.278 C 
ENDBRANCH  28  30
ENDBRANCH  17  24
ENDBRANCH   7  12
ENDBRANCH   3   6
ENDBRANCH   1   2
BRANCH   1  32
ATOM     32  C   UNL A   1      33.219  28.941  24.912  1.00  0.00     0.042 C 
BRANCH  32  33
ATOM     33  C   UNL A   1      34.014  29.091  26.205  1.00  0.00     0.118 C 
BRANCH  33  34
ATOM     34  N   UNL A   1      33.852  30.416  26.787  1.00  0.00    -0.352 N 
ATOM     35  C   UNL A   1      34.530  31.019  27.815  1.00  0.00     0.251 C 
ATOM     36  H   UNL A   1      33.145  30.965  26.378  1.00  0.00     0.163 HD
ATOM     37  O   UNL A   1      34.082  32.046  28.316  1.00  0.00    -0.269 OA
BRANCH  35  38
ATOM     38  C   UNL A   1      35.789  30.440  28.329  1.00  0.00     0.039 A 
ATOM     39  C   UNL A   1      36.970  30.665  27.618  1.00  0.00     0.014 A 
ATOM     40  C   UNL A   1      35.804  29.641  29.475  1.00  0.00     0.014 A 
ATOM     41  C   UNL A   1      38.173  30.131  28.082  1.00  0.00     0.010 A 
ATOM     42  C   UNL A   1      37.014  29.175  29.981  1.00  0.00     0.010 A 
ATOM     43  C   UNL A   1      38.209  29.408  29.286  1.00  0.00    -0.014 A 
BRANCH  43  44
ATOM     44  C   UNL A   1      39.491  28.899  29.833  1.00  0.00     0.031 A 
ATOM     45  C   UNL A   1      40.100  29.524  31.057  1.00  0.00     0.074 A 
ATOM     46  C   UNL A   1      40.139  27.911  29.186  1.00  0.00     0.049 A 
ATOM     47  N   UNL A   1      41.230  29.239  31.653  1.00  0.00    -0.248 NA
ATOM     48  C   UNL A   1      39.355  30.631  31.679  1.00  0.00     0.031 C 
ATOM     49  C   UNL A   1      39.674  27.255  27.962  1.00  0.00     0.029 A 
ATOM     50  N   UNL A   1      41.331  27.293  29.463  1.00  0.00    -0.354 N 
ATOM     51  C   UNL A   1      41.341  30.142  32.703  1.00  0.00     0.074 A 
ATOM     52  C   UNL A   1      40.190  31.014  32.633  1.00  0.00     0.031 C 
ATOM     53  C   UNL A   1      40.556  26.308  27.610  1.00  0.00     0.029 A 
ATOM     54  C   UNL A   1      41.670  26.321  28.553  1.00  0.00     0.049 A 
ATOM     55  H   UNL A   1      41.892  27.523  30.239  1.00  0.00     0.167 HD
ATOM     56  C   UNL A   1      42.307  30.227  33.650  1.00  0.00     0.031 A 
ATOM     57  C   UNL A   1      42.758  25.534  28.478  1.00  0.00     0.031 A 
ATOM     58  C   UNL A   1      43.452  29.358  33.714  1.00  0.00     0.049 A 
ATOM     59  C   UNL A   1      43.824  25.655  29.530  1.00  0.00     0.074 A 
ATOM     60  C   UNL A   1      44.452  29.318  34.670  1.00  0.00     0.029 A 
ATOM     61  N   UNL A   1      43.756  28.382  32.778  1.00  0.00    -0.354 N 
ATOM     62  N   UNL A   1      43.872  26.457  30.567  1.00  0.00    -0.248 NA
ATOM     63  C   UNL A   1      44.976  24.753  29.411  1.00  0.00     0.031 C 
ATOM     64  C   UNL A   1      45.397  28.366  34.275  1.00  0.00     0.029 A 
ATOM     65  C   UNL A   1      44.948  27.760  33.112  1.00  0.00     0.049 A 
ATOM     66  H   UNL A   1      43.206  28.163  31.990  1.00  0.00     0.167 HD
ATOM     67  C   UNL A   1      45.048  26.141  31.236  1.00  0.00     0.074 A 
ATOM     68  C   UNL A   1      45.671  25.061  30.497  1.00  0.00     0.031 C 
ATOM     69  C   UNL A   1      45.564  26.695  32.360  1.00  0.00     0.031 A 
BRANCH  56  70
ATOM     70  C   UNL A   1      42.176  31.321  34.677  1.00  0.00    -0.014 A 
ATOM     71  C   UNL A   1      42.740  32.591  34.475  1.00  0.00     0.009 A 
ATOM     72  C   UNL A   1      41.457  31.082  35.859  1.00  0.00     0.009 A 
ATOM     73  C   UNL A   1      42.627  33.581  35.453  1.00  0.00     0.001 A 
ATOM     74  C   UNL A   1      41.317  32.085  36.820  1.00  0.00     0.001 A 
ATOM     75  C   UNL A   1      41.913  33.328  36.623  1.00  0.00     0.000 A 
ENDBRANCH  56  70
BRANCH  57  76
ATOM     76  C   UNL A   1      42.886  24.556  27.366  1.00  0.00    -0.014 A 
ATOM     77  C   UNL A   1      43.313  24.969  26.096  1.00  0.00     0.009 A 
ATOM     78  C   UNL A   1      42.598  23.198  27.575  1.00  0.00     0.009 A 
ATOM     79  C   UNL A   1      43.431  24.047  25.052  1.00  0.00     0.001 A 
ATOM     80  C   UNL A   1      42.747  22.272  26.540  1.00  0.00     0.001 A 
ATOM     81  C   UNL A   1      43.155  22.699  25.278  1.00  0.00     0.000 A 
ENDBRANCH  57  76
BRANCH  69  82
ATOM     82  C   UNL A   1      46.853  26.120  32.880  1.00  0.00    -0.014 A 
ATOM     83  C   UNL A   1      48.098  26.615  32.459  1.00  0.00     0.009 A 
ATOM     84  C   UNL A   1      46.820  25.094  33.838  1.00  0.00     0.009 A 
ATOM     85  C   UNL A   1      49.281  26.067  32.960  1.00  0.00     0.001 A 
ATOM     86  C   UNL A   1      48.002  24.573  34.361  1.00  0.00     0.001 A 
ATOM     87  C   UNL A   1      49.232  25.052  33.914  1.00  0.00     0.000 A 
ENDBRANCH  69  82
ENDBRANCH  43  44
ENDBRANCH  35  38
ENDBRANCH  33  34
ENDBRANCH  32  33
ENDBRANCH   1  32
TORSDOF 15
ENDMDL
MODEL 2
REMARK VINA RESULT:     -11.9      3.535      7.250
REMARK SMILES COC(=O)C1=C(C)N(c2cccc(OC)c2)C(=O)/C1=C\c1ccc(C(=O)NCCCNC(=O)c2ccc(-c3c4nc(c(-c5ccccc5)c5ccc([nH]5)c(-c5ccccc5)c5nc(c(-c6ccccc6)c6ccc3[nH]6)C=C5)C=C4)cc2)cc1
REMARK SMILES IDX 28 1 27 2 25 3 26 4 24 6 21 7 22 8 83 9 23 10 82 11 20 12
REMARK SMILES IDX 5 13 6 14 19 15 7 16 8 17 17 18 18 19 3 20 4 21 2 22 1 23
REMARK SMILES IDX 9 24 10 25 16 26 11 27 13 28 12 29 14 30 15 31 29 32 30 33
REMARK SMILES IDX 31 34 32 35 33 37 34 38 35 39 81 40 36 41 80 42 37 43 38 44
REMARK SMILES IDX 39 45 74 46 40 47 79 48 73 49 75 50 41 51 78 52 72 53 71 54
REMARK SMILES IDX 42 56 64 57 49 58 63 59 50 60 53 61 62 62 76 63 51 64 52 65
REMARK SMILES IDX 61 67 77 68 54 69 43 70 44 71 48 72 45 73 47 74 46 75 65 76
REMARK SMILES IDX 66 77 70 78 67 79 69 80 68 81 55 82 56 83 60 84 57 85 59 86
REMARK SMILES IDX 58 87
REMARK H PARENT 27 5 31 36 75 55 53 66
REMARK Flexibility Score: inf
ROOT
ATOM      1  C   UNL A   1      34.205  34.742  27.916  1.00  0.00     0.118 C 
ENDROOT
BRANCH   1   2
ATOM      2  N   UNL A   1      35.541  34.365  28.338  1.00  0.00    -0.352 N 
ATOM      3  C   UNL A   1      36.180  33.150  28.376  1.00  0.00     0.251 C 
ATOM      4  O   UNL A   1      37.360  33.134  28.727  1.00  0.00    -0.269 OA
ATOM      5  H   UNL A   1      36.090  35.118  28.657  1.00  0.00     0.163 HD
BRANCH   3   6
ATOM      6  C   UNL A   1      35.523  31.877  27.975  1.00  0.00     0.039 A 
ATOM      7  C   UNL A   1      34.412  29.441  27.125  1.00  0.00    -0.025 A 
ATOM      8  C   UNL A   1      35.798  29.597  27.151  1.00  0.00     0.009 A 
ATOM      9  C   UNL A   1      33.589  30.478  27.567  1.00  0.00     0.009 A 
ATOM     10  C   UNL A   1      36.349  30.815  27.571  1.00  0.00     0.014 A 
ATOM     11  C   UNL A   1      34.144  31.674  28.016  1.00  0.00     0.014 A 
BRANCH   7  12
ATOM     12  C   UNL A   1      33.761  28.206  26.696  1.00  0.00     0.023 C 
ATOM     13  C   UNL A   1      31.861  26.947  25.665  1.00  0.00     0.092 C 
ATOM     14  C   UNL A   1      30.876  27.279  24.801  1.00  0.00     0.039 C 
ATOM     15  C   UNL A   1      32.635  28.138  25.968  1.00  0.00     0.057 C 
ATOM     16  C   UNL A   1      29.921  26.317  24.174  1.00  0.00     0.066 C 
ATOM     17  N   UNL A   1      30.930  28.647  24.511  1.00  0.00    -0.280 N 
ATOM     18  C   UNL A   1      31.964  29.274  25.254  1.00  0.00     0.263 C 
ATOM     19  O   UNL A   1      32.273  30.447  25.313  1.00  0.00    -0.268 OA
BRANCH  13  20
ATOM     20  C   UNL A   1      32.124  25.634  26.282  1.00  0.00     0.340 C 
ATOM     21  O   UNL A   1      31.495  25.204  27.239  1.00  0.00    -0.246 OA
BRANCH  20  22
ATOM     22  O   UNL A   1      33.165  25.008  25.684  1.00  0.00    -0.465 OA
ATOM     23  C   UNL A   1      33.602  23.840  26.378  1.00  0.00     0.282 C 
ENDBRANCH  20  22
ENDBRANCH  13  20
BRANCH  17  24
ATOM     24  C   UNL A   1      30.185  29.387  23.550  1.00  0.00     0.053 A 
ATOM     25  C   UNL A   1      30.194  29.075  22.187  1.00  0.00     0.027 A 
ATOM     26  C   UNL A   1      29.458  30.510  23.979  1.00  0.00     0.073 A 
ATOM     27  C   UNL A   1      29.534  29.899  21.270  1.00  0.00     0.006 A 
ATOM     28  C   UNL A   1      28.822  31.354  23.068  1.00  0.00     0.120 A 
ATOM     29  C   UNL A   1      28.864  31.041  21.710  1.00  0.00     0.046 A 
BRANCH  28  30
ATOM     30  O   UNL A   1      28.157  32.508  23.383  1.00  0.00    -0.497 OA
ATOM     31  C   UNL A   1      28.865  33.727  23.173  1.00  0.00     0.278 C 
ENDBRANCH  28  30
ENDBRANCH  17  24
ENDBRANCH   7  12
ENDBRANCH   3   6
ENDBRANCH   1   2
BRANCH   1  32
ATOM     32  C   UNL A   1      33.267  34.879  29.116  1.00  0.00     0.042 C 
BRANCH  32  33
ATOM     33  C   UNL A   1      33.360  36.241  29.797  1.00  0.00     0.118 C 
BRANCH  33  34
ATOM     34  N   UNL A   1      32.492  36.322  30.963  1.00  0.00    -0.352 N 
ATOM     35  C   UNL A   1      32.576  35.683  32.173  1.00  0.00     0.251 C 
ATOM     36  H   UNL A   1      31.727  36.932  30.868  1.00  0.00     0.163 HD
ATOM     37  O   UNL A   1      31.613  35.700  32.934  1.00  0.00    -0.269 OA
BRANCH  35  38
ATOM     38  C   UNL A   1      33.808  34.968  32.564  1.00  0.00     0.039 A 
ATOM     39  C   UNL A   1      33.701  33.662  33.049  1.00  0.00     0.014 A 
ATOM     40  C   UNL A   1      35.058  35.590  32.503  1.00  0.00     0.014 A 
ATOM     41  C   UNL A   1      34.849  32.964  33.426  1.00  0.00     0.010 A 
ATOM     42  C   UNL A   1      36.209  34.868  32.803  1.00  0.00     0.010 A 
ATOM     43  C   UNL A   1      36.116  33.551  33.275  1.00  0.00    -0.014 A 
BRANCH  43  44
ATOM     44  C   UNL A   1      37.352  32.796  33.597  1.00  0.00     0.031 A 
ATOM     45  C   UNL A   1      38.134  33.105  34.843  1.00  0.00     0.074 A 
ATOM     46  C   UNL A   1      37.804  31.870  32.730  1.00  0.00     0.049 A 
ATOM     47  N   UNL A   1      39.254  32.578  35.266  1.00  0.00    -0.248 NA
ATOM     48  C   UNL A   1      37.601  34.164  35.715  1.00  0.00     0.031 C 
ATOM     49  C   UNL A   1      37.160  31.511  31.464  1.00  0.00     0.029 A 
ATOM     50  N   UNL A   1      38.915  31.067  32.777  1.00  0.00    -0.354 N 
ATOM     51  C   UNL A   1      39.570  33.253  36.439  1.00  0.00     0.074 A 
ATOM     52  C   UNL A   1      38.551  34.260  36.633  1.00  0.00     0.031 C 
ATOM     53  C   UNL A   1      37.871  30.541  30.870  1.00  0.00     0.029 A 
ATOM     54  C   UNL A   1      39.044  30.243  31.685  1.00  0.00     0.049 A 
ATOM     55  H   UNL A   1      39.560  31.080  33.521  1.00  0.00     0.167 HD
ATOM     56  C   UNL A   1      40.608  33.043  37.285  1.00  0.00     0.031 A 
ATOM     57  C   UNL A   1      40.003  29.354  31.369  1.00  0.00     0.031 A 
ATOM     58  C   UNL A   1      41.621  32.041  37.086  1.00  0.00     0.049 A 
ATOM     59  C   UNL A   1      41.151  29.147  32.315  1.00  0.00     0.074 A 
ATOM     60  C   UNL A   1      42.675  31.703  37.916  1.00  0.00     0.029 A 
ATOM     61  N   UNL A   1      41.713  31.222  35.970  1.00  0.00    -0.354 N 
ATOM     62  N   UNL A   1      41.390  29.734  33.463  1.00  0.00    -0.248 NA
ATOM     63  C   UNL A   1      42.153  28.146  31.929  1.00  0.00     0.031 C 
ATOM     64  C   UNL A   1      43.444  30.729  37.272  1.00  0.00     0.029 A 
ATOM     65  C   UNL A   1      42.828  30.406  36.074  1.00  0.00     0.049 A 
ATOM     66  H   UNL A   1      41.080  31.221  35.216  1.00  0.00     0.167 HD
ATOM     67  C   UNL A   1      42.557  29.157  33.948  1.00  0.00     0.074 A 
ATOM     68  C   UNL A   1      42.965  28.161  32.978  1.00  0.00     0.031 C 
ATOM     69  C   UNL A   1      43.229  29.428  35.094  1.00  0.00     0.031 A 
BRANCH  56  70
ATOM     70  C   UNL A   1      40.709  33.939  38.492  1.00  0.00    -0.014 A 
ATOM     71  C   UNL A   1      40.141  33.577  39.724  1.00  0.00     0.009 A 
ATOM     72  C   UNL A   1      41.403  35.155  38.399  1.00  0.00     0.009 A 
ATOM     73  C   UNL A   1      40.226  34.436  40.823  1.00  0.00     0.001 A 
ATOM     74  C   UNL A   1      41.515  35.996  39.507  1.00  0.00     0.001 A 
ATOM     75  C   UNL A   1      40.915  35.643  40.714  1.00  0.00     0.000 A 
ENDBRANCH  56  70
BRANCH  57  76
ATOM     76  C   UNL A   1      39.907  28.587  30.099  1.00  0.00    -0.014 A 
ATOM     77  C   UNL A   1      39.266  27.340  30.062  1.00  0.00     0.009 A 
ATOM     78  C   UNL A   1      40.440  29.110  28.910  1.00  0.00     0.009 A 
ATOM     79  C   UNL A   1      39.179  26.623  28.866  1.00  0.00     0.001 A 
ATOM     80  C   UNL A   1      40.324  28.406  27.709  1.00  0.00     0.001 A 
ATOM     81  C   UNL A   1      39.701  27.160  27.690  1.00  0.00     0.000 A 
ENDBRANCH  57  76
BRANCH  69  82
ATOM     82  C   UNL A   1      44.461  28.612  35.377  1.00  0.00    -0.014 A 
ATOM     83  C   UNL A   1      45.735  29.050  34.984  1.00  0.00     0.009 A 
ATOM     84  C   UNL A   1      44.346  27.405  36.085  1.00  0.00     0.009 A 
ATOM     85  C   UNL A   1      46.865  28.276  35.262  1.00  0.00     0.001 A 
ATOM     86  C   UNL A   1      45.479  26.651  36.391  1.00  0.00     0.001 A 
ATOM     87  C   UNL A   1      46.736  27.082  35.970  1.00  0.00     0.000 A 
ENDBRANCH  69  82
ENDBRANCH  43  44
ENDBRANCH  35  38
ENDBRANCH  33  34
ENDBRANCH  32  33
ENDBRANCH   1  32
TORSDOF 15
ENDMDL
MODEL 3
REMARK VINA RESULT:     -11.7      1.863      6.210
REMARK SMILES COC(=O)C1=C(C)N(c2cccc(OC)c2)C(=O)/C1=C\c1ccc(C(=O)NCCCNC(=O)c2ccc(-c3c4nc(c(-c5ccccc5)c5ccc([nH]5)c(-c5ccccc5)c5nc(c(-c6ccccc6)c6ccc3[nH]6)C=C5)C=C4)cc2)cc1
REMARK SMILES IDX 28 1 27 2 25 3 26 4 24 6 21 7 22 8 83 9 23 10 82 11 20 12
REMARK SMILES IDX 5 13 6 14 19 15 7 16 8 17 17 18 18 19 3 20 4 21 2 22 1 23
REMARK SMILES IDX 9 24 10 25 16 26 11 27 13 28 12 29 14 30 15 31 29 32 30 33
REMARK SMILES IDX 31 34 32 35 33 37 34 38 35 39 81 40 36 41 80 42 37 43 38 44
REMARK SMILES IDX 39 45 74 46 40 47 79 48 73 49 75 50 41 51 78 52 72 53 71 54
REMARK SMILES IDX 42 56 64 57 49 58 63 59 50 60 53 61 62 62 76 63 51 64 52 65
REMARK SMILES IDX 61 67 77 68 54 69 43 70 44 71 48 72 45 73 47 74 46 75 65 76
REMARK SMILES IDX 66 77 70 78 67 79 69 80 68 81 55 82 56 83 60 84 57 85 59 86
REMARK SMILES IDX 58 87
REMARK H PARENT 27 5 31 36 75 55 53 66
REMARK Flexibility Score: inf
ROOT
ATOM      1  C   UNL A   1      32.331  29.345  24.452  1.00  0.00     0.118 C 
ENDROOT
BRANCH   1   2
ATOM      2  N   UNL A   1      31.351  29.359  23.382  1.00  0.00    -0.352 N 
ATOM      3  C   UNL A   1      30.722  28.345  22.703  1.00  0.00     0.251 C 
ATOM      4  O   UNL A   1      29.871  28.654  21.869  1.00  0.00    -0.269 OA
ATOM      5  H   UNL A   1      31.090  30.262  23.088  1.00  0.00     0.163 HD
BRANCH   3   6
ATOM      6  C   UNL A   1      30.997  26.906  22.962  1.00  0.00     0.039 A 
ATOM      7  C   UNL A   1      31.498  24.218  23.610  1.00  0.00    -0.025 A 
ATOM      8  C   UNL A   1      30.724  25.003  24.465  1.00  0.00     0.009 A 
ATOM      9  C   UNL A   1      31.977  24.759  22.417  1.00  0.00     0.009 A 
ATOM     10  C   UNL A   1      30.478  26.344  24.141  1.00  0.00     0.014 A 
ATOM     11  C   UNL A   1      31.702  26.083  22.083  1.00  0.00     0.014 A 
BRANCH   7  12
ATOM     12  C   UNL A   1      31.802  22.815  23.880  1.00  0.00     0.023 C 
ATOM     13  C   UNL A   1      33.400  20.933  24.275  1.00  0.00     0.092 C 
ATOM     14  C   UNL A   1      34.677  20.864  24.712  1.00  0.00     0.039 C 
ATOM     15  C   UNL A   1      33.019  22.329  24.171  1.00  0.00     0.057 C 
ATOM     16  C   UNL A   1      35.409  19.603  25.038  1.00  0.00     0.066 C 
ATOM     17  N   UNL A   1      35.194  22.152  24.895  1.00  0.00    -0.280 N 
ATOM     18  C   UNL A   1      34.240  23.131  24.515  1.00  0.00     0.263 C 
ATOM     19  O   UNL A   1      34.345  24.340  24.476  1.00  0.00    -0.268 OA
BRANCH  13  20
ATOM     20  C   UNL A   1      32.510  19.821  23.893  1.00  0.00     0.340 C 
ATOM     21  O   UNL A   1      32.274  19.519  22.732  1.00  0.00    -0.246 OA
BRANCH  20  22
ATOM     22  O   UNL A   1      31.967  19.228  24.983  1.00  0.00    -0.465 OA
ATOM     23  C   UNL A   1      32.429  17.894  25.194  1.00  0.00     0.282 C 
ENDBRANCH  20  22
ENDBRANCH  13  20
BRANCH  17  24
ATOM     24  C   UNL A   1      36.434  22.543  25.474  1.00  0.00     0.053 A 
ATOM     25  C   UNL A   1      36.667  23.833  25.958  1.00  0.00     0.027 A 
ATOM     26  C   UNL A   1      37.485  21.611  25.508  1.00  0.00     0.073 A 
ATOM     27  C   UNL A   1      37.937  24.199  26.415  1.00  0.00     0.006 A 
ATOM     28  C   UNL A   1      38.763  21.975  25.935  1.00  0.00     0.120 A 
ATOM     29  C   UNL A   1      38.982  23.275  26.389  1.00  0.00     0.046 A 
BRANCH  28  30
ATOM     30  O   UNL A   1      39.864  21.163  25.933  1.00  0.00    -0.497 OA
ATOM     31  C   UNL A   1      41.125  21.800  26.123  1.00  0.00     0.278 C 
ENDBRANCH  28  30
ENDBRANCH  17  24
ENDBRANCH   7  12
ENDBRANCH   3   6
ENDBRANCH   1   2
BRANCH   1  32
ATOM     32  C   UNL A   1      31.649  29.353  25.821  1.00  0.00     0.042 C 
BRANCH  32  33
ATOM     33  C   UNL A   1      32.488  30.025  26.904  1.00  0.00     0.118 C 
BRANCH  33  34
ATOM     34  N   UNL A   1      32.267  31.463  26.943  1.00  0.00    -0.352 N 
ATOM     35  C   UNL A   1      32.990  32.452  27.560  1.00  0.00     0.251 C 
ATOM     36  H   UNL A   1      31.475  31.775  26.449  1.00  0.00     0.163 HD
ATOM     37  O   UNL A   1      32.504  33.573  27.677  1.00  0.00    -0.269 OA
BRANCH  35  38
ATOM     38  C   UNL A   1      34.342  32.178  28.090  1.00  0.00     0.039 A 
ATOM     39  C   UNL A   1      35.336  33.146  27.922  1.00  0.00     0.014 A 
ATOM     40  C   UNL A   1      34.647  30.961  28.704  1.00  0.00     0.014 A 
ATOM     41  C   UNL A   1      36.621  32.913  28.414  1.00  0.00     0.010 A 
ATOM     42  C   UNL A   1      35.905  30.762  29.264  1.00  0.00     0.010 A 
ATOM     43  C   UNL A   1      36.907  31.732  29.117  1.00  0.00    -0.014 A 
BRANCH  43  44
ATOM     44  C   UNL A   1      38.246  31.503  29.713  1.00  0.00     0.031 A 
ATOM     45  C   UNL A   1      39.197  30.513  29.099  1.00  0.00     0.074 A 
ATOM     46  C   UNL A   1      38.581  32.144  30.849  1.00  0.00     0.049 A 
ATOM     47  N   UNL A   1      40.389  30.154  29.503  1.00  0.00    -0.248 NA
ATOM     48  C   UNL A   1      38.738  29.817  27.887  1.00  0.00     0.031 C 
ATOM     49  C   UNL A   1      37.728  33.094  31.567  1.00  0.00     0.029 A 
ATOM     50  N   UNL A   1      39.725  32.089  31.604  1.00  0.00    -0.354 N 
ATOM     51  C   UNL A   1      40.813  29.178  28.610  1.00  0.00     0.074 A 
ATOM     52  C   UNL A   1      39.732  28.966  27.673  1.00  0.00     0.031 C 
ATOM     53  C   UNL A   1      38.389  33.552  32.641  1.00  0.00     0.029 A 
ATOM     54  C   UNL A   1      39.690  32.896  32.715  1.00  0.00     0.049 A 
ATOM     55  H   UNL A   1      40.498  31.524  31.373  1.00  0.00     0.167 HD
ATOM     56  C   UNL A   1      42.001  28.527  28.565  1.00  0.00     0.031 A 
ATOM     57  C   UNL A   1      40.597  33.081  33.691  1.00  0.00     0.031 A 
ATOM     58  C   UNL A   1      43.072  28.740  29.501  1.00  0.00     0.049 A 
ATOM     59  C   UNL A   1      41.902  32.338  33.628  1.00  0.00     0.074 A 
ATOM     60  C   UNL A   1      44.338  28.182  29.504  1.00  0.00     0.029 A 
ATOM     61  N   UNL A   1      43.000  29.570  30.609  1.00  0.00    -0.354 N 
ATOM     62  N   UNL A   1      42.322  31.481  32.729  1.00  0.00    -0.248 NA
ATOM     63  C   UNL A   1      42.863  32.600  34.708  1.00  0.00     0.031 C 
ATOM     64  C   UNL A   1      45.007  28.620  30.651  1.00  0.00     0.029 A 
ATOM     65  C   UNL A   1      44.185  29.510  31.324  1.00  0.00     0.049 A 
ATOM     66  H   UNL A   1      42.221  30.121  30.853  1.00  0.00     0.167 HD
ATOM     67  C   UNL A   1      43.604  31.119  33.120  1.00  0.00     0.074 A 
ATOM     68  C   UNL A   1      43.899  31.865  34.327  1.00  0.00     0.031 C 
ATOM     69  C   UNL A   1      44.460  30.248  32.531  1.00  0.00     0.031 A 
BRANCH  56  70
ATOM     70  C   UNL A   1      42.188  27.502  27.478  1.00  0.00    -0.014 A 
ATOM     71  C   UNL A   1      41.874  26.148  27.683  1.00  0.00     0.009 A 
ATOM     72  C   UNL A   1      42.666  27.901  26.220  1.00  0.00     0.009 A 
ATOM     73  C   UNL A   1      42.081  25.211  26.668  1.00  0.00     0.001 A 
ATOM     74  C   UNL A   1      42.839  26.967  25.197  1.00  0.00     0.001 A 
ATOM     75  C   UNL A   1      42.560  25.622  25.426  1.00  0.00     0.000 A 
ENDBRANCH  56  70
BRANCH  57  76
ATOM     76  C   UNL A   1      40.300  34.018  34.806  1.00  0.00    -0.014 A 
ATOM     77  C   UNL A   1      39.661  33.566  35.969  1.00  0.00     0.009 A 
ATOM     78  C   UNL A   1      40.673  35.369  34.719  1.00  0.00     0.009 A 
ATOM     79  C   UNL A   1      39.382  34.451  37.015  1.00  0.00     0.001 A 
ATOM     80  C   UNL A   1      40.422  36.244  35.778  1.00  0.00     0.001 A 
ATOM     81  C   UNL A   1      39.770  35.787  36.920  1.00  0.00     0.000 A 
ENDBRANCH  57  76
BRANCH  69  82
ATOM     82  C   UNL A   1      45.812  30.076  33.169  1.00  0.00    -0.014 A 
ATOM     83  C   UNL A   1      46.047  29.081  34.130  1.00  0.00     0.009 A 
ATOM     84  C   UNL A   1      46.877  30.900  32.770  1.00  0.00     0.009 A 
ATOM     85  C   UNL A   1      47.313  28.939  34.704  1.00  0.00     0.001 A 
ATOM     86  C   UNL A   1      48.147  30.734  33.320  1.00  0.00     0.001 A 
ATOM     87  C   UNL A   1      48.362  29.761  34.294  1.00  0.00     0.000 A 
ENDBRANCH  69  82
ENDBRANCH  43  44
ENDBRANCH  35  38
ENDBRANCH  33  34
ENDBRANCH  32  33
ENDBRANCH   1  32
TORSDOF 15
ENDMDL
