MODEL 1
REMARK VINA RESULT:     -11.7      0.000      0.000
REMARK SMILES CC(C)[C@H](NC(=O)/C(=C\c1ccc(Cl)cc1)NC(=O)c1ccco1)C(=O)NCCCNC(=O)c1ccc(-c2c3nc(c(-c4ccccc4)c4ccc([nH]4)c(-c4ccccc4)c4nc(c(-c5ccccc5)c5ccc2[nH]5)C=C4)C=C3)cc1
REMARK SMILES IDX 28 1 27 2 25 3 26 4 4 6 2 7 1 8 3 9 5 10 6 11 7 13 8 14 9 15
REMARK SMILES IDX 17 16 18 17 19 19 20 20 21 21 24 22 22 23 23 24 10 25 11 26
REMARK SMILES IDX 16 27 12 28 15 29 13 30 14 31 29 32 30 33 31 34 32 35 33 37
REMARK SMILES IDX 34 38 35 39 81 40 36 41 80 42 37 43 38 44 39 45 74 46 40 47
REMARK SMILES IDX 79 48 73 49 75 50 41 51 78 52 72 53 71 54 42 56 64 57 49 58
REMARK SMILES IDX 63 59 50 60 53 61 62 62 76 63 51 64 52 65 61 67 77 68 54 69
REMARK SMILES IDX 43 70 44 71 48 72 45 73 47 74 46 75 65 76 66 77 70 78 67 79
REMARK SMILES IDX 69 80 68 81 55 82 56 83 60 84 57 85 59 86 58 87
REMARK H PARENT 27 5 5 12 17 18 31 36 75 55 53 66
REMARK Flexibility Score: inf
ROOT
ATOM      1  C   UNL A   1      31.574  27.515  25.987  1.00  0.00     0.117 C 
ENDROOT
BRANCH   1   2
ATOM      2  N   UNL A   1      30.626  26.406  25.964  1.00  0.00    -0.354 N 
ATOM      3  C   UNL A   1      30.896  25.061  26.039  1.00  0.00     0.242 C 
ATOM      4  O   UNL A   1      30.173  24.346  26.735  1.00  0.00    -0.273 OA
ATOM      5  H   UNL A   1      29.677  26.653  25.882  1.00  0.00     0.163 HD
BRANCH   3   6
ATOM      6  C   UNL A   1      32.162  24.471  25.470  1.00  0.00     0.174 C 
BRANCH   6   7
ATOM      7  C   UNL A   1      31.955  24.328  23.898  1.00  0.00     0.015 C 
ATOM      8  C   UNL A   1      30.547  23.968  23.402  1.00  0.00     0.010 C 
ATOM      9  C   UNL A   1      32.436  25.529  23.041  1.00  0.00     0.010 C 
ENDBRANCH   6   7
BRANCH   6  10
ATOM     10  N   UNL A   1      32.476  23.268  26.207  1.00  0.00    -0.339 N 
ATOM     11  C   UNL A   1      33.108  22.097  26.000  1.00  0.00     0.268 C 
ATOM     12  H   UNL A   1      32.129  23.320  27.126  1.00  0.00     0.164 HD
ATOM     13  O   UNL A   1      33.197  21.582  27.121  1.00  0.00    -0.268 OA
BRANCH  11  14
ATOM     14  C   UNL A   1      33.888  21.441  24.814  1.00  0.00     0.107 C 
ATOM     15  C   UNL A   1      34.084  20.163  24.366  1.00  0.00     0.040 C 
BRANCH  14  16
ATOM     16  N   UNL A   1      34.500  22.345  23.907  1.00  0.00    -0.315 N 
ATOM     17  C   UNL A   1      35.648  23.115  23.814  1.00  0.00     0.291 C 
ATOM     18  H   UNL A   1      33.941  22.459  23.104  1.00  0.00     0.170 HD
ATOM     19  O   UNL A   1      35.580  24.026  22.982  1.00  0.00    -0.265 OA
BRANCH  17  20
ATOM     20  C   UNL A   1      36.850  22.838  24.558  1.00  0.00     0.191 A 
ATOM     21  C   UNL A   1      37.593  21.689  24.774  1.00  0.00     0.056 A 
ATOM     22  O   UNL A   1      37.375  23.863  25.302  1.00  0.00    -0.459 OA
ATOM     23  C   UNL A   1      38.511  21.996  25.811  1.00  0.00     0.043 A 
ATOM     24  C   UNL A   1      38.334  23.329  26.100  1.00  0.00     0.196 A 
ENDBRANCH  17  20
ENDBRANCH  14  16
BRANCH  15  25
ATOM     25  C   UNL A   1      33.813  18.761  24.721  1.00  0.00    -0.023 A 
ATOM     26  C   UNL A   1      34.691  17.724  24.374  1.00  0.00     0.010 A 
ATOM     27  C   UNL A   1      32.769  18.457  25.595  1.00  0.00     0.010 A 
ATOM     28  C   UNL A   1      34.330  16.385  24.590  1.00  0.00     0.021 A 
ATOM     29  C   UNL A   1      32.444  17.125  25.877  1.00  0.00     0.021 A 
ATOM     30  C   UNL A   1      33.166  16.094  25.286  1.00  0.00     0.041 A 
ATOM     31  Cl  UNL A   1      32.585  14.478  25.371  1.00  0.00    -0.084 Cl
ENDBRANCH  15  25
ENDBRANCH  11  14
ENDBRANCH   6  10
ENDBRANCH   3   6
ENDBRANCH   1   2
BRANCH   1  32
ATOM     32  C   UNL A   1      32.305  27.792  27.299  1.00  0.00     0.042 C 
BRANCH  32  33
ATOM     33  C   UNL A   1      33.668  28.453  27.179  1.00  0.00     0.118 C 
BRANCH  33  34
ATOM     34  N   UNL A   1      33.620  29.868  27.492  1.00  0.00    -0.352 N 
ATOM     35  C   UNL A   1      34.522  30.666  28.155  1.00  0.00     0.251 C 
ATOM     36  H   UNL A   1      32.809  30.333  27.180  1.00  0.00     0.163 HD
ATOM     37  O   UNL A   1      34.163  31.778  28.528  1.00  0.00    -0.269 OA
BRANCH  35  38
ATOM     38  C   UNL A   1      35.906  30.212  28.450  1.00  0.00     0.039 A 
ATOM     39  C   UNL A   1      36.868  30.319  27.439  1.00  0.00     0.014 A 
ATOM     40  C   UNL A   1      36.252  29.602  29.657  1.00  0.00     0.014 A 
ATOM     41  C   UNL A   1      38.172  29.857  27.651  1.00  0.00     0.010 A 
ATOM     42  C   UNL A   1      37.574  29.210  29.898  1.00  0.00     0.010 A 
ATOM     43  C   UNL A   1      38.548  29.320  28.894  1.00  0.00    -0.014 A 
BRANCH  43  44
ATOM     44  C   UNL A   1      39.944  28.867  29.147  1.00  0.00     0.031 A 
ATOM     45  C   UNL A   1      40.947  29.783  29.799  1.00  0.00     0.074 A 
ATOM     46  C   UNL A   1      40.332  27.637  28.752  1.00  0.00     0.049 A 
ATOM     47  N   UNL A   1      42.214  29.571  30.064  1.00  0.00    -0.248 NA
ATOM     48  C   UNL A   1      40.472  31.119  30.192  1.00  0.00     0.031 C 
ATOM     49  C   UNL A   1      39.478  26.656  28.081  1.00  0.00     0.029 A 
ATOM     50  N   UNL A   1      41.547  27.005  28.854  1.00  0.00    -0.354 N 
ATOM     51  C   UNL A   1      42.688  30.748  30.632  1.00  0.00     0.074 A 
ATOM     52  C   UNL A   1      41.585  31.684  30.635  1.00  0.00     0.031 C 
ATOM     53  C   UNL A   1      40.187  25.538  27.855  1.00  0.00     0.029 A 
ATOM     54  C   UNL A   1      41.555  25.738  28.321  1.00  0.00     0.049 A 
ATOM     55  H   UNL A   1      42.337  27.420  29.267  1.00  0.00     0.167 HD
ATOM     56  C   UNL A   1      43.922  31.024  31.120  1.00  0.00     0.031 A 
ATOM     57  C   UNL A   1      42.551  24.839  28.209  1.00  0.00     0.031 A 
ATOM     58  C   UNL A   1      45.023  30.096  31.122  1.00  0.00     0.049 A 
ATOM     59  C   UNL A   1      43.920  25.178  28.734  1.00  0.00     0.074 A 
ATOM     60  C   UNL A   1      46.295  30.269  31.644  1.00  0.00     0.029 A 
ATOM     61  N   UNL A   1      44.988  28.826  30.570  1.00  0.00    -0.354 N 
ATOM     62  N   UNL A   1      44.329  26.270  29.330  1.00  0.00    -0.248 NA
ATOM     63  C   UNL A   1      44.960  24.151  28.578  1.00  0.00     0.031 C 
ATOM     64  C   UNL A   1      47.046  29.124  31.357  1.00  0.00     0.029 A 
ATOM     65  C   UNL A   1      46.222  28.214  30.715  1.00  0.00     0.049 A 
ATOM     66  H   UNL A   1      44.203  28.419  30.139  1.00  0.00     0.167 HD
ATOM     67  C   UNL A   1      45.664  26.052  29.646  1.00  0.00     0.074 A 
ATOM     68  C   UNL A   1      45.990  24.716  29.191  1.00  0.00     0.031 C 
ATOM     69  C   UNL A   1      46.540  26.885  30.259  1.00  0.00     0.031 A 
BRANCH  56  70
ATOM     70  C   UNL A   1      44.154  32.399  31.688  1.00  0.00    -0.014 A 
ATOM     71  C   UNL A   1      44.590  33.459  30.877  1.00  0.00     0.009 A 
ATOM     72  C   UNL A   1      43.892  32.648  33.045  1.00  0.00     0.009 A 
ATOM     73  C   UNL A   1      44.797  34.729  31.420  1.00  0.00     0.001 A 
ATOM     74  C   UNL A   1      44.071  33.926  33.579  1.00  0.00     0.001 A 
ATOM     75  C   UNL A   1      44.534  34.963  32.770  1.00  0.00     0.000 A 
ENDBRANCH  56  70
BRANCH  57  76
ATOM     76  C   UNL A   1      42.293  23.516  27.576  1.00  0.00    -0.014 A 
ATOM     77  C   UNL A   1      41.835  22.436  28.345  1.00  0.00     0.009 A 
ATOM     78  C   UNL A   1      42.516  23.326  26.204  1.00  0.00     0.009 A 
ATOM     79  C   UNL A   1      41.631  21.185  27.757  1.00  0.00     0.001 A 
ATOM     80  C   UNL A   1      42.282  22.083  25.613  1.00  0.00     0.001 A 
ATOM     81  C   UNL A   1      41.849  21.012  26.392  1.00  0.00     0.000 A 
ENDBRANCH  57  76
BRANCH  69  82
ATOM     82  C   UNL A   1      47.928  26.363  30.513  1.00  0.00    -0.014 A 
ATOM     83  C   UNL A   1      48.946  26.495  29.556  1.00  0.00     0.009 A 
ATOM     84  C   UNL A   1      48.227  25.763  31.746  1.00  0.00     0.009 A 
ATOM     85  C   UNL A   1      50.228  26.005  29.817  1.00  0.00     0.001 A 
ATOM     86  C   UNL A   1      49.517  25.302  32.016  1.00  0.00     0.001 A 
ATOM     87  C   UNL A   1      50.513  25.415  31.048  1.00  0.00     0.000 A 
ENDBRANCH  69  82
ENDBRANCH  43  44
ENDBRANCH  35  38
ENDBRANCH  33  34
ENDBRANCH  32  33
ENDBRANCH   1  32
TORSDOF 16
ENDMDL
MODEL 2
REMARK VINA RESULT:     -11.7      1.056      1.484
REMARK SMILES CC(C)[C@H](NC(=O)/C(=C\c1ccc(Cl)cc1)NC(=O)c1ccco1)C(=O)NCCCNC(=O)c1ccc(-c2c3nc(c(-c4ccccc4)c4ccc([nH]4)c(-c4ccccc4)c4nc(c(-c5ccccc5)c5ccc2[nH]5)C=C4)C=C3)cc1
REMARK SMILES IDX 28 1 27 2 25 3 26 4 4 6 2 7 1 8 3 9 5 10 6 11 7 13 8 14 9 15
REMARK SMILES IDX 17 16 18 17 19 19 20 20 21 21 24 22 22 23 23 24 10 25 11 26
REMARK SMILES IDX 16 27 12 28 15 29 13 30 14 31 29 32 30 33 31 34 32 35 33 37
REMARK SMILES IDX 34 38 35 39 81 40 36 41 80 42 37 43 38 44 39 45 74 46 40 47
REMARK SMILES IDX 79 48 73 49 75 50 41 51 78 52 72 53 71 54 42 56 64 57 49 58
REMARK SMILES IDX 63 59 50 60 53 61 62 62 76 63 51 64 52 65 61 67 77 68 54 69
REMARK SMILES IDX 43 70 44 71 48 72 45 73 47 74 46 75 65 76 66 77 70 78 67 79
REMARK SMILES IDX 69 80 68 81 55 82 56 83 60 84 57 85 59 86 58 87
REMARK H PARENT 27 5 5 12 17 18 31 36 75 55 53 66
REMARK Flexibility Score: inf
ROOT
ATOM      1  C   UNL A   1      32.127  27.225  26.880  1.00  0.00     0.117 C 
ENDROOT
BRANCH   1   2
ATOM      2  N   UNL A   1      31.064  26.292  26.522  1.00  0.00    -0.354 N 
ATOM      3  C   UNL A   1      31.171  24.946  26.271  1.00  0.00     0.242 C 
ATOM      4  O   UNL A   1      30.311  24.186  26.719  1.00  0.00    -0.273 OA
ATOM      5  H   UNL A   1      30.161  26.675  26.450  1.00  0.00     0.163 HD
BRANCH   3   6
ATOM      6  C   UNL A   1      32.406  24.348  25.646  1.00  0.00     0.174 C 
BRANCH   6   7
ATOM      7  C   UNL A   1      32.152  24.262  24.077  1.00  0.00     0.015 C 
ATOM      8  C   UNL A   1      30.801  23.703  23.612  1.00  0.00     0.010 C 
ATOM      9  C   UNL A   1      32.390  25.573  23.281  1.00  0.00     0.010 C 
ENDBRANCH   6   7
BRANCH   6  10
ATOM     10  N   UNL A   1      32.715  23.115  26.334  1.00  0.00    -0.339 N 
ATOM     11  C   UNL A   1      33.297  21.931  26.065  1.00  0.00     0.268 C 
ATOM     12  H   UNL A   1      32.412  23.151  27.270  1.00  0.00     0.164 HD
ATOM     13  O   UNL A   1      33.421  21.381  27.166  1.00  0.00    -0.268 OA
BRANCH  11  14
ATOM     14  C   UNL A   1      33.999  21.285  24.826  1.00  0.00     0.107 C 
ATOM     15  C   UNL A   1      34.053  20.032  24.281  1.00  0.00     0.040 C 
BRANCH  14  16
ATOM     16  N   UNL A   1      34.706  22.183  23.984  1.00  0.00    -0.315 N 
ATOM     17  C   UNL A   1      35.823  23.001  24.033  1.00  0.00     0.291 C 
ATOM     18  H   UNL A   1      34.274  22.241  23.101  1.00  0.00     0.170 HD
ATOM     19  O   UNL A   1      35.847  23.877  23.162  1.00  0.00    -0.265 OA
BRANCH  17  20
ATOM     20  C   UNL A   1      36.907  22.808  24.962  1.00  0.00     0.191 A 
ATOM     21  C   UNL A   1      37.570  23.651  25.839  1.00  0.00     0.056 A 
ATOM     22  O   UNL A   1      37.513  21.578  24.970  1.00  0.00    -0.459 OA
ATOM     23  C   UNL A   1      38.719  22.944  26.279  1.00  0.00     0.043 A 
ATOM     24  C   UNL A   1      38.640  21.692  25.717  1.00  0.00     0.196 A 
ENDBRANCH  17  20
ENDBRANCH  14  16
BRANCH  15  25
ATOM     25  C   UNL A   1      33.629  18.645  24.532  1.00  0.00    -0.023 A 
ATOM     26  C   UNL A   1      32.684  18.323  25.517  1.00  0.00     0.010 A 
ATOM     27  C   UNL A   1      34.011  17.633  23.650  1.00  0.00     0.010 A 
ATOM     28  C   UNL A   1      32.417  16.983  25.836  1.00  0.00     0.021 A 
ATOM     29  C   UNL A   1      33.690  16.298  23.918  1.00  0.00     0.021 A 
ATOM     30  C   UNL A   1      32.981  15.973  25.070  1.00  0.00     0.041 A 
ATOM     31  Cl  UNL A   1      32.855  14.332  25.569  1.00  0.00    -0.084 Cl
ENDBRANCH  15  25
ENDBRANCH  11  14
ENDBRANCH   6  10
ENDBRANCH   3   6
ENDBRANCH   1   2
BRANCH   1  32
ATOM     32  C   UNL A   1      32.606  28.197  25.805  1.00  0.00     0.042 C 
BRANCH  32  33
ATOM     33  C   UNL A   1      33.939  28.879  26.065  1.00  0.00     0.118 C 
BRANCH  33  34
ATOM     34  N   UNL A   1      33.776  30.186  26.672  1.00  0.00    -0.352 N 
ATOM     35  C   UNL A   1      34.506  30.809  27.656  1.00  0.00     0.251 C 
ATOM     36  H   UNL A   1      33.020  30.712  26.323  1.00  0.00     0.163 HD
ATOM     37  O   UNL A   1      34.039  31.808  28.194  1.00  0.00    -0.269 OA
BRANCH  35  38
ATOM     38  C   UNL A   1      35.828  30.296  28.101  1.00  0.00     0.039 A 
ATOM     39  C   UNL A   1      35.918  29.707  29.367  1.00  0.00     0.014 A 
ATOM     40  C   UNL A   1      36.990  30.467  27.345  1.00  0.00     0.014 A 
ATOM     41  C   UNL A   1      37.152  29.256  29.852  1.00  0.00     0.010 A 
ATOM     42  C   UNL A   1      38.209  29.948  27.796  1.00  0.00     0.010 A 
ATOM     43  C   UNL A   1      38.308  29.348  29.060  1.00  0.00    -0.014 A 
BRANCH  43  44
ATOM     44  C   UNL A   1      39.618  28.831  29.547  1.00  0.00     0.031 A 
ATOM     45  C   UNL A   1      40.437  29.616  30.539  1.00  0.00     0.074 A 
ATOM     46  C   UNL A   1      40.101  27.668  29.065  1.00  0.00     0.049 A 
ATOM     47  N   UNL A   1      41.615  29.338  31.045  1.00  0.00    -0.248 NA
ATOM     48  C   UNL A   1      39.868  30.886  31.016  1.00  0.00     0.031 C 
ATOM     49  C   UNL A   1      39.433  26.820  28.077  1.00  0.00     0.029 A 
ATOM     50  N   UNL A   1      41.271  27.002  29.337  1.00  0.00    -0.354 N 
ATOM     51  C   UNL A   1      41.933  30.405  31.878  1.00  0.00     0.074 A 
ATOM     52  C   UNL A   1      40.845  31.353  31.779  1.00  0.00     0.031 C 
ATOM     53  C   UNL A   1      40.190  25.735  27.846  1.00  0.00     0.029 A 
ATOM     54  C   UNL A   1      41.416  25.831  28.632  1.00  0.00     0.049 A 
ATOM     55  H   UNL A   1      41.943  27.332  29.976  1.00  0.00     0.167 HD
ATOM     56  C   UNL A   1      43.022  30.576  32.667  1.00  0.00     0.031 A 
ATOM     57  C   UNL A   1      42.424  24.939  28.609  1.00  0.00     0.031 A 
ATOM     58  C   UNL A   1      44.108  29.635  32.773  1.00  0.00     0.049 A 
ATOM     59  C   UNL A   1      43.635  25.164  29.472  1.00  0.00     0.074 A 
ATOM     60  C   UNL A   1      45.227  29.700  33.586  1.00  0.00     0.029 A 
ATOM     61  N   UNL A   1      44.215  28.465  32.039  1.00  0.00    -0.354 N 
ATOM     62  N   UNL A   1      43.885  26.143  30.305  1.00  0.00    -0.248 NA
ATOM     63  C   UNL A   1      44.698  24.151  29.397  1.00  0.00     0.031 C 
ATOM     64  C   UNL A   1      46.039  28.596  33.303  1.00  0.00     0.029 A 
ATOM     65  C   UNL A   1      45.393  27.812  32.360  1.00  0.00     0.049 A 
ATOM     66  H   UNL A   1      43.552  28.146  31.385  1.00  0.00     0.167 HD
ATOM     67  C   UNL A   1      45.118  25.851  30.875  1.00  0.00     0.074 A 
ATOM     68  C   UNL A   1      45.556  24.594  30.305  1.00  0.00     0.031 C 
ATOM     69  C   UNL A   1      45.823  26.562  31.789  1.00  0.00     0.031 A 
BRANCH  56  70
ATOM     70  C   UNL A   1      43.102  31.843  33.476  1.00  0.00    -0.014 A 
ATOM     71  C   UNL A   1      43.745  32.988  32.979  1.00  0.00     0.009 A 
ATOM     72  C   UNL A   1      42.490  31.906  34.739  1.00  0.00     0.009 A 
ATOM     73  C   UNL A   1      43.807  34.155  33.742  1.00  0.00     0.001 A 
ATOM     74  C   UNL A   1      42.527  33.084  35.488  1.00  0.00     0.001 A 
ATOM     75  C   UNL A   1      43.195  34.204  34.995  1.00  0.00     0.000 A 
ENDBRANCH  56  70
BRANCH  57  76
ATOM     76  C   UNL A   1      42.332  23.734  27.739  1.00  0.00    -0.014 A 
ATOM     77  C   UNL A   1      41.912  22.505  28.267  1.00  0.00     0.009 A 
ATOM     78  C   UNL A   1      42.677  23.807  26.380  1.00  0.00     0.009 A 
ATOM     79  C   UNL A   1      41.864  21.366  27.458  1.00  0.00     0.001 A 
ATOM     80  C   UNL A   1      42.599  22.674  25.567  1.00  0.00     0.001 A 
ATOM     81  C   UNL A   1      42.202  21.454  26.109  1.00  0.00     0.000 A 
ENDBRANCH  57  76
BRANCH  69  82
ATOM     82  C   UNL A   1      47.125  25.977  32.263  1.00  0.00    -0.014 A 
ATOM     83  C   UNL A   1      48.336  26.265  31.614  1.00  0.00     0.009 A 
ATOM     84  C   UNL A   1      47.142  25.157  33.401  1.00  0.00     0.009 A 
ATOM     85  C   UNL A   1      49.533  25.712  32.077  1.00  0.00     0.001 A 
ATOM     86  C   UNL A   1      48.344  24.632  33.880  1.00  0.00     0.001 A 
ATOM     87  C   UNL A   1      49.536  24.902  33.211  1.00  0.00     0.000 A 
ENDBRANCH  69  82
ENDBRANCH  43  44
ENDBRANCH  35  38
ENDBRANCH  33  34
ENDBRANCH  32  33
ENDBRANCH   1  32
TORSDOF 16
ENDMDL
MODEL 3
REMARK VINA RESULT:     -11.5      3.673      8.811
REMARK SMILES CC(C)[C@H](NC(=O)/C(=C\c1ccc(Cl)cc1)NC(=O)c1ccco1)C(=O)NCCCNC(=O)c1ccc(-c2c3nc(c(-c4ccccc4)c4ccc([nH]4)c(-c4ccccc4)c4nc(c(-c5ccccc5)c5ccc2[nH]5)C=C4)C=C3)cc1
REMARK SMILES IDX 28 1 27 2 25 3 26 4 4 6 2 7 1 8 3 9 5 10 6 11 7 13 8 14 9 15
REMARK SMILES IDX 17 16 18 17 19 19 20 20 21 21 24 22 22 23 23 24 10 25 11 26
REMARK SMILES IDX 16 27 12 28 15 29 13 30 14 31 29 32 30 33 31 34 32 35 33 37
REMARK SMILES IDX 34 38 35 39 81 40 36 41 80 42 37 43 38 44 39 45 74 46 40 47
REMARK SMILES IDX 79 48 73 49 75 50 41 51 78 52 72 53 71 54 42 56 64 57 49 58
REMARK SMILES IDX 63 59 50 60 53 61 62 62 76 63 51 64 52 65 61 67 77 68 54 69
REMARK SMILES IDX 43 70 44 71 48 72 45 73 47 74 46 75 65 76 66 77 70 78 67 79
REMARK SMILES IDX 69 80 68 81 55 82 56 83 60 84 57 85 59 86 58 87
REMARK H PARENT 27 5 5 12 17 18 31 36 75 55 53 66
REMARK Flexibility Score: inf
ROOT
ATOM      1  C   UNL A   1      35.578  24.097  24.515  1.00  0.00     0.117 C 
ENDROOT
BRANCH   1   2
ATOM      2  N   UNL A   1      34.734  23.505  23.483  1.00  0.00    -0.354 N 
ATOM      3  C   UNL A   1      33.660  24.071  22.842  1.00  0.00     0.242 C 
ATOM      4  O   UNL A   1      33.532  23.900  21.628  1.00  0.00    -0.273 OA
ATOM      5  H   UNL A   1      34.963  22.586  23.215  1.00  0.00     0.163 HD
BRANCH   3   6
ATOM      6  C   UNL A   1      32.753  25.060  23.530  1.00  0.00     0.174 C 
BRANCH   6   7
ATOM      7  C   UNL A   1      31.888  24.251  24.594  1.00  0.00     0.015 C 
ATOM      8  C   UNL A   1      31.308  25.040  25.776  1.00  0.00     0.010 C 
ATOM      9  C   UNL A   1      30.726  23.400  24.014  1.00  0.00     0.010 C 
ENDBRANCH   6   7
BRANCH   6  10
ATOM     10  N   UNL A   1      32.032  25.800  22.519  1.00  0.00    -0.339 N 
ATOM     11  C   UNL A   1      31.102  26.770  22.454  1.00  0.00     0.268 C 
ATOM     12  H   UNL A   1      32.301  25.512  21.617  1.00  0.00     0.164 HD
ATOM     13  O   UNL A   1      31.062  27.093  21.261  1.00  0.00    -0.268 OA
BRANCH  11  14
ATOM     14  C   UNL A   1      30.327  27.650  23.490  1.00  0.00     0.107 C 
ATOM     15  C   UNL A   1      30.679  28.454  24.539  1.00  0.00     0.040 C 
BRANCH  14  16
ATOM     16  N   UNL A   1      28.923  27.729  23.300  1.00  0.00    -0.315 N 
ATOM     17  C   UNL A   1      27.954  28.690  23.058  1.00  0.00     0.291 C 
ATOM     18  H   UNL A   1      28.516  26.835  23.357  1.00  0.00     0.170 HD
ATOM     19  O   UNL A   1      26.804  28.325  23.322  1.00  0.00    -0.265 OA
BRANCH  17  20
ATOM     20  C   UNL A   1      28.241  29.975  22.475  1.00  0.00     0.191 A 
ATOM     21  C   UNL A   1      28.531  31.220  23.010  1.00  0.00     0.056 A 
ATOM     22  O   UNL A   1      28.135  30.082  21.112  1.00  0.00    -0.459 OA
ATOM     23  C   UNL A   1      28.446  32.145  21.937  1.00  0.00     0.043 A 
ATOM     24  C   UNL A   1      28.198  31.402  20.807  1.00  0.00     0.196 A 
ENDBRANCH  17  20
ENDBRANCH  14  16
BRANCH  15  25
ATOM     25  C   UNL A   1      31.845  28.874  25.332  1.00  0.00    -0.023 A 
ATOM     26  C   UNL A   1      33.090  28.238  25.215  1.00  0.00     0.010 A 
ATOM     27  C   UNL A   1      31.790  30.053  26.075  1.00  0.00     0.010 A 
ATOM     28  C   UNL A   1      34.137  28.559  26.093  1.00  0.00     0.021 A 
ATOM     29  C   UNL A   1      32.857  30.423  26.900  1.00  0.00     0.021 A 
ATOM     30  C   UNL A   1      33.985  29.613  26.982  1.00  0.00     0.041 A 
ATOM     31  Cl  UNL A   1      35.153  29.885  28.215  1.00  0.00    -0.084 Cl
ENDBRANCH  15  25
ENDBRANCH  11  14
ENDBRANCH   6  10
ENDBRANCH   3   6
ENDBRANCH   1   2
BRANCH   1  32
ATOM     32  C   UNL A   1      36.968  23.500  24.722  1.00  0.00     0.042 C 
BRANCH  32  33
ATOM     33  C   UNL A   1      37.265  22.959  26.110  1.00  0.00     0.118 C 
BRANCH  33  34
ATOM     34  N   UNL A   1      38.468  22.149  26.136  1.00  0.00    -0.352 N 
ATOM     35  C   UNL A   1      39.779  22.506  26.344  1.00  0.00     0.251 C 
ATOM     36  H   UNL A   1      38.322  21.187  25.979  1.00  0.00     0.163 HD
ATOM     37  O   UNL A   1      40.660  21.698  26.071  1.00  0.00    -0.269 OA
BRANCH  35  38
ATOM     38  C   UNL A   1      40.157  23.846  26.865  1.00  0.00     0.039 A 
ATOM     39  C   UNL A   1      40.120  24.933  25.985  1.00  0.00     0.014 A 
ATOM     40  C   UNL A   1      40.636  24.036  28.163  1.00  0.00     0.014 A 
ATOM     41  C   UNL A   1      40.517  26.205  26.414  1.00  0.00     0.010 A 
ATOM     42  C   UNL A   1      40.961  25.320  28.615  1.00  0.00     0.010 A 
ATOM     43  C   UNL A   1      40.918  26.418  27.744  1.00  0.00    -0.014 A 
BRANCH  43  44
ATOM     44  C   UNL A   1      41.300  27.776  28.225  1.00  0.00     0.031 A 
ATOM     45  C   UNL A   1      42.746  28.200  28.268  1.00  0.00     0.074 A 
ATOM     46  C   UNL A   1      40.349  28.623  28.668  1.00  0.00     0.049 A 
ATOM     47  N   UNL A   1      43.266  29.328  28.691  1.00  0.00    -0.248 NA
ATOM     48  C   UNL A   1      43.740  27.227  27.790  1.00  0.00     0.031 C 
ATOM     49  C   UNL A   1      38.915  28.335  28.714  1.00  0.00     0.029 A 
ATOM     50  N   UNL A   1      40.448  29.898  29.169  1.00  0.00    -0.354 N 
ATOM     51  C   UNL A   1      44.642  29.191  28.548  1.00  0.00     0.074 A 
ATOM     52  C   UNL A   1      44.879  27.857  28.040  1.00  0.00     0.031 C 
ATOM     53  C   UNL A   1      38.266  29.409  29.191  1.00  0.00     0.029 A 
ATOM     54  C   UNL A   1      39.238  30.444  29.527  1.00  0.00     0.049 A 
ATOM     55  H   UNL A   1      41.304  30.374  29.264  1.00  0.00     0.167 HD
ATOM     56  C   UNL A   1      45.621  30.093  28.801  1.00  0.00     0.031 A 
ATOM     57  C   UNL A   1      38.942  31.638  30.074  1.00  0.00     0.031 A 
ATOM     58  C   UNL A   1      45.392  31.423  29.304  1.00  0.00     0.049 A 
ATOM     59  C   UNL A   1      40.048  32.614  30.371  1.00  0.00     0.074 A 
ATOM     60  C   UNL A   1      46.317  32.426  29.541  1.00  0.00     0.029 A 
ATOM     61  N   UNL A   1      44.152  31.934  29.656  1.00  0.00    -0.354 N 
ATOM     62  N   UNL A   1      41.336  32.491  30.165  1.00  0.00    -0.248 NA
ATOM     63  C   UNL A   1      39.653  33.898  30.970  1.00  0.00     0.031 C 
ATOM     64  C   UNL A   1      45.644  33.524  30.089  1.00  0.00     0.029 A 
ATOM     65  C   UNL A   1      44.292  33.227  30.133  1.00  0.00     0.049 A 
ATOM     66  H   UNL A   1      43.299  31.448  29.579  1.00  0.00     0.167 HD
ATOM     67  C   UNL A   1      41.901  33.690  30.579  1.00  0.00     0.074 A 
ATOM     68  C   UNL A   1      40.815  34.533  31.032  1.00  0.00     0.031 C 
ATOM     69  C   UNL A   1      43.206  34.059  30.582  1.00  0.00     0.031 A 
BRANCH  56  70
ATOM     70  C   UNL A   1      47.042  29.668  28.548  1.00  0.00    -0.014 A 
ATOM     71  C   UNL A   1      47.812  29.058  29.551  1.00  0.00     0.009 A 
ATOM     72  C   UNL A   1      47.607  29.842  27.274  1.00  0.00     0.009 A 
ATOM     73  C   UNL A   1      49.128  28.667  29.297  1.00  0.00     0.001 A 
ATOM     74  C   UNL A   1      48.913  29.422  27.013  1.00  0.00     0.001 A 
ATOM     75  C   UNL A   1      49.677  28.845  28.028  1.00  0.00     0.000 A 
ENDBRANCH  56  70
BRANCH  57  76
ATOM     76  C   UNL A   1      37.527  31.989  30.374  1.00  0.00    -0.014 A 
ATOM     77  C   UNL A   1      36.783  32.772  29.478  1.00  0.00     0.009 A 
ATOM     78  C   UNL A   1      36.919  31.554  31.561  1.00  0.00     0.009 A 
ATOM     79  C   UNL A   1      35.467  33.133  29.779  1.00  0.00     0.001 A 
ATOM     80  C   UNL A   1      35.594  31.891  31.845  1.00  0.00     0.001 A 
ATOM     81  C   UNL A   1      34.873  32.688  30.959  1.00  0.00     0.000 A 
ENDBRANCH  57  76
BRANCH  69  82
ATOM     82  C   UNL A   1      43.529  35.451  31.054  1.00  0.00    -0.014 A 
ATOM     83  C   UNL A   1      43.606  35.762  32.420  1.00  0.00     0.009 A 
ATOM     84  C   UNL A   1      43.799  36.456  30.111  1.00  0.00     0.009 A 
ATOM     85  C   UNL A   1      43.911  37.061  32.832  1.00  0.00     0.001 A 
ATOM     86  C   UNL A   1      44.135  37.745  30.526  1.00  0.00     0.001 A 
ATOM     87  C   UNL A   1      44.181  38.049  31.885  1.00  0.00     0.000 A 
ENDBRANCH  69  82
ENDBRANCH  43  44
ENDBRANCH  35  38
ENDBRANCH  33  34
ENDBRANCH  32  33
ENDBRANCH   1  32
TORSDOF 16
ENDMDL
