MODEL 1
REMARK VINA RESULT:     -10.9      0.000      0.000
REMARK SMILES CCC(CC)(NC(=O)c1c(C)noc1C)C(=O)NCCCNC(=O)c1ccc(-c2c3nc(c(-c4ccccc4)c4ccc([nH]4)c(-c4ccccc4)c4nc(c(-c5ccccc5)c5ccc2[nH]5)C=C4)C=C3)cc1
REMARK SMILES IDX 20 1 19 2 18 3 16 4 17 5 3 7 2 8 1 9 4 10 5 11 6 12 7 13
REMARK SMILES IDX 8 15 9 16 10 17 14 18 11 19 12 20 13 21 15 22 21 23 22 24
REMARK SMILES IDX 23 25 24 27 25 28 26 29 72 30 27 31 71 32 28 33 29 34 30 35
REMARK SMILES IDX 65 36 31 37 70 38 64 39 66 40 32 41 69 42 63 43 62 44 33 46
REMARK SMILES IDX 55 47 40 48 54 49 41 50 44 51 53 52 67 53 42 54 43 55 52 57
REMARK SMILES IDX 68 58 45 59 34 60 35 61 39 62 36 63 38 64 37 65 56 66 57 67
REMARK SMILES IDX 61 68 58 69 60 70 59 71 46 72 47 73 51 74 48 75 50 76 49 77
REMARK H PARENT 18 6 6 14 22 26 66 45 44 56
REMARK Flexibility Score: inf
ROOT
ATOM      1  C   UNL A   1      37.515  20.419  24.880  1.00  0.00     0.042 C 
ENDROOT
BRANCH   1   2
ATOM      2  C   UNL A   1      36.257  21.283  25.019  1.00  0.00     0.117 C 
BRANCH   2   3
ATOM      3  N   UNL A   1      35.546  21.374  26.295  1.00  0.00    -0.354 N 
ATOM      4  C   UNL A   1      34.340  21.915  26.690  1.00  0.00     0.245 C 
ATOM      5  O   UNL A   1      33.872  21.504  27.756  1.00  0.00    -0.272 OA
ATOM      6  H   UNL A   1      36.039  20.956  27.038  1.00  0.00     0.163 HD
BRANCH   4   7
ATOM      7  C   UNL A   1      33.517  22.830  25.762  1.00  0.00     0.118 C 
BRANCH   7   8
ATOM      8  C   UNL A   1      33.396  22.416  24.271  1.00  0.00     0.035 C 
ATOM      9  C   UNL A   1      32.703  21.099  23.939  1.00  0.00     0.007 C 
ENDBRANCH   7   8
BRANCH   7  10
ATOM     10  C   UNL A   1      34.279  24.203  25.879  1.00  0.00     0.035 C 
ATOM     11  C   UNL A   1      34.503  25.018  24.617  1.00  0.00     0.007 C 
ENDBRANCH   7  10
BRANCH   7  12
ATOM     12  N   UNL A   1      32.151  22.879  26.315  1.00  0.00    -0.337 N 
ATOM     13  C   UNL A   1      31.176  23.848  26.438  1.00  0.00     0.257 C 
ATOM     14  H   UNL A   1      31.866  22.014  26.688  1.00  0.00     0.164 HD
ATOM     15  O   UNL A   1      30.331  23.530  27.284  1.00  0.00    -0.269 OA
BRANCH  13  16
ATOM     16  C   UNL A   1      31.021  25.139  25.743  1.00  0.00     0.105 A 
ATOM     17  C   UNL A   1      30.696  25.182  24.325  1.00  0.00     0.093 A 
ATOM     18  C   UNL A   1      31.285  26.488  25.993  1.00  0.00     0.146 A 
ATOM     19  C   UNL A   1      30.466  24.068  23.372  1.00  0.00     0.071 C 
ATOM     20  N   UNL A   1      30.648  26.423  23.845  1.00  0.00    -0.084 NA
ATOM     21  O   UNL A   1      30.991  27.225  24.883  1.00  0.00    -0.361 OA
ATOM     22  C   UNL A   1      31.867  27.390  27.008  1.00  0.00     0.092 C 
ENDBRANCH  13  16
ENDBRANCH   7  12
ENDBRANCH   4   7
ENDBRANCH   2   3
ENDBRANCH   1   2
BRANCH   1  23
ATOM     23  C   UNL A   1      38.736  20.678  25.750  1.00  0.00     0.118 C 
BRANCH  23  24
ATOM     24  N   UNL A   1      39.768  19.666  25.665  1.00  0.00    -0.352 N 
ATOM     25  C   UNL A   1      41.086  19.747  26.049  1.00  0.00     0.251 C 
ATOM     26  H   UNL A   1      39.489  18.803  25.283  1.00  0.00     0.163 HD
ATOM     27  O   UNL A   1      41.837  18.791  25.867  1.00  0.00    -0.269 OA
BRANCH  25  28
ATOM     28  C   UNL A   1      41.622  21.001  26.624  1.00  0.00     0.039 A 
ATOM     29  C   UNL A   1      42.151  21.955  25.749  1.00  0.00     0.014 A 
ATOM     30  C   UNL A   1      41.595  21.252  27.999  1.00  0.00     0.014 A 
ATOM     31  C   UNL A   1      42.577  23.191  26.241  1.00  0.00     0.010 A 
ATOM     32  C   UNL A   1      41.983  22.505  28.484  1.00  0.00     0.010 A 
ATOM     33  C   UNL A   1      42.457  23.494  27.607  1.00  0.00    -0.014 A 
BRANCH  33  34
ATOM     34  C   UNL A   1      42.763  24.859  28.109  1.00  0.00     0.031 A 
ATOM     35  C   UNL A   1      44.160  25.247  28.504  1.00  0.00     0.074 A 
ATOM     36  C   UNL A   1      41.760  25.748  28.251  1.00  0.00     0.049 A 
ATOM     37  N   UNL A   1      44.594  26.389  28.974  1.00  0.00    -0.248 NA
ATOM     38  C   UNL A   1      45.199  24.217  28.359  1.00  0.00     0.031 C 
ATOM     39  C   UNL A   1      40.354  25.495  27.929  1.00  0.00     0.029 A 
ATOM     40  N   UNL A   1      41.768  27.044  28.706  1.00  0.00    -0.354 N 
ATOM     41  C   UNL A   1      45.956  26.216  29.189  1.00  0.00     0.074 A 
ATOM     42  C   UNL A   1      46.267  24.849  28.830  1.00  0.00     0.031 C 
ATOM     43  C   UNL A   1      39.639  26.604  28.179  1.00  0.00     0.029 A 
ATOM     44  C   UNL A   1      40.526  27.633  28.714  1.00  0.00     0.049 A 
ATOM     45  H   UNL A   1      42.586  27.506  29.000  1.00  0.00     0.167 HD
ATOM     46  C   UNL A   1      46.866  27.117  29.632  1.00  0.00     0.031 A 
ATOM     47  C   UNL A   1      40.139  28.858  29.116  1.00  0.00     0.031 A 
ATOM     48  C   UNL A   1      46.562  28.475  30.000  1.00  0.00     0.049 A 
ATOM     49  C   UNL A   1      41.162  29.822  29.648  1.00  0.00     0.074 A 
ATOM     50  C   UNL A   1      47.431  29.471  30.413  1.00  0.00     0.029 A 
ATOM     51  N   UNL A   1      45.291  29.025  30.014  1.00  0.00    -0.354 N 
ATOM     52  N   UNL A   1      42.457  29.665  29.774  1.00  0.00    -0.248 NA
ATOM     53  C   UNL A   1      40.669  31.136  30.087  1.00  0.00     0.031 C 
ATOM     54  C   UNL A   1      46.678  30.608  30.728  1.00  0.00     0.029 A 
ATOM     55  C   UNL A   1      45.346  30.335  30.460  1.00  0.00     0.049 A 
ATOM     56  H   UNL A   1      44.468  28.554  29.747  1.00  0.00     0.167 HD
ATOM     57  C   UNL A   1      42.935  30.864  30.287  1.00  0.00     0.074 A 
ATOM     58  C   UNL A   1      41.795  31.745  30.431  1.00  0.00     0.031 C 
ATOM     59  C   UNL A   1      44.206  31.203  30.608  1.00  0.00     0.031 A 
BRANCH  46  60
ATOM     60  C   UNL A   1      48.291  26.653  29.759  1.00  0.00    -0.014 A 
ATOM     61  C   UNL A   1      48.743  26.004  30.919  1.00  0.00     0.009 A 
ATOM     62  C   UNL A   1      49.181  26.828  28.687  1.00  0.00     0.009 A 
ATOM     63  C   UNL A   1      50.066  25.570  31.017  1.00  0.00     0.001 A 
ATOM     64  C   UNL A   1      50.497  26.370  28.778  1.00  0.00     0.001 A 
ATOM     65  C   UNL A   1      50.941  25.749  29.945  1.00  0.00     0.000 A 
ENDBRANCH  46  60
BRANCH  47  66
ATOM     66  C   UNL A   1      38.708  29.250  29.032  1.00  0.00    -0.014 A 
ATOM     67  C   UNL A   1      37.872  29.135  30.153  1.00  0.00     0.009 A 
ATOM     68  C   UNL A   1      38.169  29.730  27.828  1.00  0.00     0.009 A 
ATOM     69  C   UNL A   1      36.519  29.471  30.062  1.00  0.00     0.001 A 
ATOM     70  C   UNL A   1      36.823  30.091  27.749  1.00  0.00     0.001 A 
ATOM     71  C   UNL A   1      35.997  29.954  28.863  1.00  0.00     0.000 A 
ENDBRANCH  47  66
BRANCH  59  72
ATOM     72  C   UNL A   1      44.438  32.593  31.127  1.00  0.00    -0.014 A 
ATOM     73  C   UNL A   1      44.416  32.869  32.503  1.00  0.00     0.009 A 
ATOM     74  C   UNL A   1      44.724  33.635  30.229  1.00  0.00     0.009 A 
ATOM     75  C   UNL A   1      44.647  34.166  32.967  1.00  0.00     0.001 A 
ATOM     76  C   UNL A   1      44.981  34.924  30.698  1.00  0.00     0.001 A 
ATOM     77  C   UNL A   1      44.935  35.190  32.066  1.00  0.00     0.000 A 
ENDBRANCH  59  72
ENDBRANCH  33  34
ENDBRANCH  25  28
ENDBRANCH  23  24
ENDBRANCH   1  23
TORSDOF 14
ENDMDL
MODEL 2
REMARK VINA RESULT:     -10.8      0.296      5.988
REMARK SMILES CCC(CC)(NC(=O)c1c(C)noc1C)C(=O)NCCCNC(=O)c1ccc(-c2c3nc(c(-c4ccccc4)c4ccc([nH]4)c(-c4ccccc4)c4nc(c(-c5ccccc5)c5ccc2[nH]5)C=C4)C=C3)cc1
REMARK SMILES IDX 20 1 19 2 18 3 16 4 17 5 3 7 2 8 1 9 4 10 5 11 6 12 7 13
REMARK SMILES IDX 8 15 9 16 10 17 14 18 11 19 12 20 13 21 15 22 21 23 22 24
REMARK SMILES IDX 23 25 24 27 25 28 26 29 72 30 27 31 71 32 28 33 29 34 30 35
REMARK SMILES IDX 65 36 31 37 70 38 64 39 66 40 32 41 69 42 63 43 62 44 33 46
REMARK SMILES IDX 55 47 40 48 54 49 41 50 44 51 53 52 67 53 42 54 43 55 52 57
REMARK SMILES IDX 68 58 45 59 34 60 35 61 39 62 36 63 38 64 37 65 56 66 57 67
REMARK SMILES IDX 61 68 58 69 60 70 59 71 46 72 47 73 51 74 48 75 50 76 49 77
REMARK H PARENT 18 6 6 14 22 26 66 45 44 56
REMARK Flexibility Score: inf
ROOT
ATOM      1  C   UNL A   1      37.477  20.485  24.930  1.00  0.00     0.042 C 
ENDROOT
BRANCH   1   2
ATOM      2  C   UNL A   1      36.255  21.399  25.074  1.00  0.00     0.117 C 
BRANCH   2   3
ATOM      3  N   UNL A   1      35.515  21.469  26.334  1.00  0.00    -0.354 N 
ATOM      4  C   UNL A   1      34.286  21.977  26.703  1.00  0.00     0.245 C 
ATOM      5  O   UNL A   1      33.807  21.551  27.758  1.00  0.00    -0.272 OA
ATOM      6  H   UNL A   1      36.002  21.061  27.087  1.00  0.00     0.163 HD
BRANCH   4   7
ATOM      7  C   UNL A   1      33.460  22.872  25.760  1.00  0.00     0.118 C 
BRANCH   7   8
ATOM      8  C   UNL A   1      33.354  22.439  24.273  1.00  0.00     0.035 C 
ATOM      9  C   UNL A   1      32.541  21.193  23.937  1.00  0.00     0.007 C 
ENDBRANCH   7   8
BRANCH   7  10
ATOM     10  C   UNL A   1      34.208  24.254  25.865  1.00  0.00     0.035 C 
ATOM     11  C   UNL A   1      34.466  25.038  24.590  1.00  0.00     0.007 C 
ENDBRANCH   7  10
BRANCH   7  12
ATOM     12  N   UNL A   1      32.090  22.914  26.303  1.00  0.00    -0.337 N 
ATOM     13  C   UNL A   1      31.114  23.880  26.429  1.00  0.00     0.257 C 
ATOM     14  H   UNL A   1      31.804  22.044  26.664  1.00  0.00     0.164 HD
ATOM     15  O   UNL A   1      30.263  23.552  27.266  1.00  0.00    -0.269 OA
BRANCH  13  16
ATOM     16  C   UNL A   1      30.963  25.179  25.748  1.00  0.00     0.105 A 
ATOM     17  C   UNL A   1      30.650  25.238  24.328  1.00  0.00     0.093 A 
ATOM     18  C   UNL A   1      31.222  26.526  26.015  1.00  0.00     0.146 A 
ATOM     19  C   UNL A   1      30.431  24.134  23.360  1.00  0.00     0.071 C 
ATOM     20  N   UNL A   1      30.605  26.483  23.861  1.00  0.00    -0.084 NA
ATOM     21  O   UNL A   1      30.936  27.274  24.911  1.00  0.00    -0.361 OA
ATOM     22  C   UNL A   1      31.793  27.417  27.046  1.00  0.00     0.092 C 
ENDBRANCH  13  16
ENDBRANCH   7  12
ENDBRANCH   4   7
ENDBRANCH   2   3
ENDBRANCH   1   2
BRANCH   1  23
ATOM     23  C   UNL A   1      38.752  20.762  25.713  1.00  0.00     0.118 C 
BRANCH  23  24
ATOM     24  N   UNL A   1      39.749  19.714  25.641  1.00  0.00    -0.352 N 
ATOM     25  C   UNL A   1      41.065  19.750  26.038  1.00  0.00     0.251 C 
ATOM     26  H   UNL A   1      39.443  18.861  25.259  1.00  0.00     0.163 HD
ATOM     27  O   UNL A   1      41.784  18.768  25.866  1.00  0.00    -0.269 OA
BRANCH  25  28
ATOM     28  C   UNL A   1      41.639  20.987  26.614  1.00  0.00     0.039 A 
ATOM     29  C   UNL A   1      42.124  21.961  25.736  1.00  0.00     0.014 A 
ATOM     30  C   UNL A   1      41.689  21.202  27.995  1.00  0.00     0.014 A 
ATOM     31  C   UNL A   1      42.583  23.182  26.236  1.00  0.00     0.010 A 
ATOM     32  C   UNL A   1      42.111  22.439  28.491  1.00  0.00     0.010 A 
ATOM     33  C   UNL A   1      42.541  23.449  27.615  1.00  0.00    -0.014 A 
BRANCH  33  34
ATOM     34  C   UNL A   1      42.882  24.800  28.134  1.00  0.00     0.031 A 
ATOM     35  C   UNL A   1      41.822  25.844  28.336  1.00  0.00     0.074 A 
ATOM     36  C   UNL A   1      44.171  25.101  28.386  1.00  0.00     0.049 A 
ATOM     37  N   UNL A   1      41.951  27.075  28.765  1.00  0.00    -0.248 NA
ATOM     38  C   UNL A   1      40.442  25.461  28.006  1.00  0.00     0.031 C 
ATOM     39  C   UNL A   1      45.303  24.189  28.210  1.00  0.00     0.029 A 
ATOM     40  N   UNL A   1      44.748  26.262  28.841  1.00  0.00    -0.354 N 
ATOM     41  C   UNL A   1      40.672  27.616  28.751  1.00  0.00     0.074 A 
ATOM     42  C   UNL A   1      39.788  26.591  28.238  1.00  0.00     0.031 C 
ATOM     43  C   UNL A   1      46.434  24.818  28.570  1.00  0.00     0.029 A 
ATOM     44  C   UNL A   1      46.115  26.186  28.965  1.00  0.00     0.049 A 
ATOM     45  H   UNL A   1      44.230  27.071  29.057  1.00  0.00     0.167 HD
ATOM     46  C   UNL A   1      40.268  28.850  29.142  1.00  0.00     0.031 A 
ATOM     47  C   UNL A   1      47.014  27.114  29.343  1.00  0.00     0.031 A 
ATOM     48  C   UNL A   1      41.143  29.877  29.643  1.00  0.00     0.049 A 
ATOM     49  C   UNL A   1      46.544  28.490  29.726  1.00  0.00     0.074 A 
ATOM     50  C   UNL A   1      40.813  31.139  30.107  1.00  0.00     0.029 A 
ATOM     51  N   UNL A   1      42.521  29.768  29.732  1.00  0.00    -0.354 N 
ATOM     52  N   UNL A   1      45.322  28.960  29.777  1.00  0.00    -0.248 NA
ATOM     53  C   UNL A   1      47.580  29.460  30.110  1.00  0.00     0.031 C 
ATOM     54  C   UNL A   1      41.997  31.813  30.428  1.00  0.00     0.029 A 
ATOM     55  C   UNL A   1      43.060  30.950  30.213  1.00  0.00     0.049 A 
ATOM     56  H   UNL A   1      43.042  28.968  29.490  1.00  0.00     0.167 HD
ATOM     57  C   UNL A   1      45.439  30.272  30.217  1.00  0.00     0.074 A 
ATOM     58  C   UNL A   1      46.850  30.518  30.436  1.00  0.00     0.031 C 
ATOM     59  C   UNL A   1      44.464  31.189  30.421  1.00  0.00     0.031 A 
BRANCH  46  60
ATOM     60  C   UNL A   1      38.802  29.165  29.027  1.00  0.00    -0.014 A 
ATOM     61  C   UNL A   1      37.947  29.055  30.135  1.00  0.00     0.009 A 
ATOM     62  C   UNL A   1      38.279  29.622  27.807  1.00  0.00     0.009 A 
ATOM     63  C   UNL A   1      36.590  29.361  30.014  1.00  0.00     0.001 A 
ATOM     64  C   UNL A   1      36.927  29.953  27.695  1.00  0.00     0.001 A 
ATOM     65  C   UNL A   1      36.082  29.815  28.796  1.00  0.00     0.000 A 
ENDBRANCH  46  60
BRANCH  47  66
ATOM     66  C   UNL A   1      48.460  26.776  29.379  1.00  0.00    -0.014 A 
ATOM     67  C   UNL A   1      49.036  26.231  30.536  1.00  0.00     0.009 A 
ATOM     68  C   UNL A   1      49.274  27.008  28.259  1.00  0.00     0.009 A 
ATOM     69  C   UNL A   1      50.403  25.947  30.578  1.00  0.00     0.001 A 
ATOM     70  C   UNL A   1      50.635  26.697  28.296  1.00  0.00     0.001 A 
ATOM     71  C   UNL A   1      51.200  26.174  29.458  1.00  0.00     0.000 A 
ENDBRANCH  47  66
BRANCH  59  72
ATOM     72  C   UNL A   1      44.884  32.540  30.929  1.00  0.00    -0.014 A 
ATOM     73  C   UNL A   1      45.022  32.790  32.303  1.00  0.00     0.009 A 
ATOM     74  C   UNL A   1      45.187  33.564  30.017  1.00  0.00     0.009 A 
ATOM     75  C   UNL A   1      45.426  34.048  32.755  1.00  0.00     0.001 A 
ATOM     76  C   UNL A   1      45.617  34.812  30.471  1.00  0.00     0.001 A 
ATOM     77  C   UNL A   1      45.728  35.055  31.839  1.00  0.00     0.000 A 
ENDBRANCH  59  72
ENDBRANCH  33  34
ENDBRANCH  25  28
ENDBRANCH  23  24
ENDBRANCH   1  23
TORSDOF 14
ENDMDL
MODEL 3
REMARK VINA RESULT:     -10.6      3.602      8.920
REMARK SMILES CCC(CC)(NC(=O)c1c(C)noc1C)C(=O)NCCCNC(=O)c1ccc(-c2c3nc(c(-c4ccccc4)c4ccc([nH]4)c(-c4ccccc4)c4nc(c(-c5ccccc5)c5ccc2[nH]5)C=C4)C=C3)cc1
REMARK SMILES IDX 20 1 19 2 18 3 16 4 17 5 3 7 2 8 1 9 4 10 5 11 6 12 7 13
REMARK SMILES IDX 8 15 9 16 10 17 14 18 11 19 12 20 13 21 15 22 21 23 22 24
REMARK SMILES IDX 23 25 24 27 25 28 26 29 72 30 27 31 71 32 28 33 29 34 30 35
REMARK SMILES IDX 65 36 31 37 70 38 64 39 66 40 32 41 69 42 63 43 62 44 33 46
REMARK SMILES IDX 55 47 40 48 54 49 41 50 44 51 53 52 67 53 42 54 43 55 52 57
REMARK SMILES IDX 68 58 45 59 34 60 35 61 39 62 36 63 38 64 37 65 56 66 57 67
REMARK SMILES IDX 61 68 58 69 60 70 59 71 46 72 47 73 51 74 48 75 50 76 49 77
REMARK H PARENT 18 6 6 14 22 26 66 45 44 56
REMARK Flexibility Score: inf
ROOT
ATOM      1  C   UNL A   1      31.758  31.361  26.306  1.00  0.00     0.042 C 
ENDROOT
BRANCH   1   2
ATOM      2  C   UNL A   1      32.033  29.945  25.787  1.00  0.00     0.117 C 
BRANCH   2   3
ATOM      3  N   UNL A   1      33.072  29.702  24.785  1.00  0.00    -0.354 N 
ATOM      4  C   UNL A   1      33.345  28.671  23.910  1.00  0.00     0.245 C 
ATOM      5  O   UNL A   1      34.077  28.938  22.953  1.00  0.00    -0.272 OA
ATOM      6  H   UNL A   1      33.722  30.440  24.721  1.00  0.00     0.163 HD
BRANCH   4   7
ATOM      7  C   UNL A   1      32.619  27.315  24.000  1.00  0.00     0.118 C 
BRANCH   7   8
ATOM      8  C   UNL A   1      31.128  27.328  24.432  1.00  0.00     0.035 C 
ATOM      9  C   UNL A   1      30.069  27.615  23.373  1.00  0.00     0.007 C 
ENDBRANCH   7   8
BRANCH   7  10
ATOM     10  C   UNL A   1      33.481  26.542  25.067  1.00  0.00     0.035 C 
ATOM     11  C   UNL A   1      32.761  25.747  26.143  1.00  0.00     0.007 C 
ENDBRANCH   7  10
BRANCH   7  12
ATOM     12  N   UNL A   1      32.681  26.708  22.658  1.00  0.00    -0.337 N 
ATOM     13  C   UNL A   1      33.063  25.483  22.152  1.00  0.00     0.257 C 
ATOM     14  H   UNL A   1      32.379  27.326  21.953  1.00  0.00     0.164 HD
ATOM     15  O   UNL A   1      33.282  25.548  20.935  1.00  0.00    -0.269 OA
BRANCH  13  16
ATOM     16  C   UNL A   1      33.243  24.185  22.828  1.00  0.00     0.105 A 
ATOM     17  C   UNL A   1      32.099  23.471  23.375  1.00  0.00     0.093 A 
ATOM     18  C   UNL A   1      34.297  23.412  23.322  1.00  0.00     0.146 A 
ATOM     19  C   UNL A   1      30.662  23.840  23.371  1.00  0.00     0.071 C 
ATOM     20  N   UNL A   1      32.444  22.347  23.999  1.00  0.00    -0.084 NA
ATOM     21  O   UNL A   1      33.799  22.305  23.943  1.00  0.00    -0.361 OA
ATOM     22  C   UNL A   1      35.764  23.422  23.495  1.00  0.00     0.092 C 
ENDBRANCH  13  16
ENDBRANCH   7  12
ENDBRANCH   4   7
ENDBRANCH   2   3
ENDBRANCH   1   2
BRANCH   1  23
ATOM     23  C   UNL A   1      32.851  32.162  26.998  1.00  0.00     0.118 C 
BRANCH  23  24
ATOM     24  N   UNL A   1      32.432  33.455  27.499  1.00  0.00    -0.352 N 
ATOM     25  C   UNL A   1      33.054  34.262  28.423  1.00  0.00     0.251 C 
ATOM     26  H   UNL A   1      31.591  33.803  27.127  1.00  0.00     0.163 HD
ATOM     27  O   UNL A   1      32.531  35.321  28.761  1.00  0.00    -0.269 OA
BRANCH  25  28
ATOM     28  C   UNL A   1      34.319  33.832  29.059  1.00  0.00     0.039 A 
ATOM     29  C   UNL A   1      34.244  33.045  30.212  1.00  0.00     0.014 A 
ATOM     30  C   UNL A   1      35.566  34.180  28.529  1.00  0.00     0.014 A 
ATOM     31  C   UNL A   1      35.412  32.538  30.787  1.00  0.00     0.010 A 
ATOM     32  C   UNL A   1      36.731  33.639  29.081  1.00  0.00     0.010 A 
ATOM     33  C   UNL A   1      36.663  32.796  30.202  1.00  0.00    -0.014 A 
BRANCH  33  34
ATOM     34  C   UNL A   1      37.890  32.133  30.719  1.00  0.00     0.031 A 
ATOM     35  C   UNL A   1      38.668  32.722  31.861  1.00  0.00     0.074 A 
ATOM     36  C   UNL A   1      38.331  31.008  30.121  1.00  0.00     0.049 A 
ATOM     37  N   UNL A   1      39.766  32.280  32.422  1.00  0.00    -0.248 NA
ATOM     38  C   UNL A   1      38.152  33.970  32.441  1.00  0.00     0.031 C 
ATOM     39  C   UNL A   1      37.686  30.344  28.988  1.00  0.00     0.029 A 
ATOM     40  N   UNL A   1      39.429  30.226  30.383  1.00  0.00    -0.354 N 
ATOM     41  C   UNL A   1      40.078  33.197  33.417  1.00  0.00     0.074 A 
ATOM     42  C   UNL A   1      39.072  34.237  33.359  1.00  0.00     0.031 C 
ATOM     43  C   UNL A   1      38.388  29.246  28.663  1.00  0.00     0.029 A 
ATOM     44  C   UNL A   1      39.552  29.149  29.538  1.00  0.00     0.049 A 
ATOM     45  H   UNL A   1      40.068  30.420  31.107  1.00  0.00     0.167 HD
ATOM     46  C   UNL A   1      41.100  33.171  34.306  1.00  0.00     0.031 A 
ATOM     47  C   UNL A   1      40.499  28.194  29.466  1.00  0.00     0.031 A 
ATOM     48  C   UNL A   1      42.109  32.145  34.363  1.00  0.00     0.049 A 
ATOM     49  C   UNL A   1      41.648  28.214  30.434  1.00  0.00     0.074 A 
ATOM     50  C   UNL A   1      43.153  32.013  35.263  1.00  0.00     0.029 A 
ATOM     51  N   UNL A   1      42.210  31.085  33.478  1.00  0.00    -0.354 N 
ATOM     52  N   UNL A   1      41.886  29.049  31.416  1.00  0.00    -0.248 NA
ATOM     53  C   UNL A   1      42.657  27.155  30.287  1.00  0.00     0.031 C 
ATOM     54  C   UNL A   1      43.917  30.901  34.889  1.00  0.00     0.029 A 
ATOM     55  C   UNL A   1      43.317  30.312  33.788  1.00  0.00     0.049 A 
ATOM     56  H   UNL A   1      41.587  30.906  32.736  1.00  0.00     0.167 HD
ATOM     57  C   UNL A   1      43.057  28.605  32.016  1.00  0.00     0.074 A 
ATOM     58  C   UNL A   1      43.472  27.417  31.299  1.00  0.00     0.031 C 
ATOM     59  C   UNL A   1      43.727  29.136  33.066  1.00  0.00     0.031 A 
BRANCH  46  60
ATOM     60  C   UNL A   1      41.188  34.303  35.292  1.00  0.00    -0.014 A 
ATOM     61  C   UNL A   1      41.945  35.452  35.011  1.00  0.00     0.009 A 
ATOM     62  C   UNL A   1      40.469  34.240  36.496  1.00  0.00     0.009 A 
ATOM     63  C   UNL A   1      42.008  36.499  35.932  1.00  0.00     0.001 A 
ATOM     64  C   UNL A   1      40.513  35.300  37.403  1.00  0.00     0.001 A 
ATOM     65  C   UNL A   1      41.289  36.425  37.125  1.00  0.00     0.000 A 
ENDBRANCH  46  60
BRANCH  47  66
ATOM     66  C   UNL A   1      40.405  27.131  28.432  1.00  0.00    -0.014 A 
ATOM     67  C   UNL A   1      40.999  27.306  27.173  1.00  0.00     0.009 A 
ATOM     68  C   UNL A   1      39.711  25.939  28.697  1.00  0.00     0.009 A 
ATOM     69  C   UNL A   1      40.879  26.319  26.192  1.00  0.00     0.001 A 
ATOM     70  C   UNL A   1      39.617  24.944  27.723  1.00  0.00     0.001 A 
ATOM     71  C   UNL A   1      40.193  25.138  26.469  1.00  0.00     0.000 A 
ENDBRANCH  47  66
BRANCH  59  72
ATOM     72  C   UNL A   1      44.969  28.423  33.522  1.00  0.00    -0.014 A 
ATOM     73  C   UNL A   1      44.905  27.367  34.443  1.00  0.00     0.009 A 
ATOM     74  C   UNL A   1      46.217  28.788  32.991  1.00  0.00     0.009 A 
ATOM     75  C   UNL A   1      46.069  26.708  34.845  1.00  0.00     0.001 A 
ATOM     76  C   UNL A   1      47.375  28.110  33.373  1.00  0.00     0.001 A 
ATOM     77  C   UNL A   1      47.301  27.076  34.306  1.00  0.00     0.000 A 
ENDBRANCH  59  72
ENDBRANCH  33  34
ENDBRANCH  25  28
ENDBRANCH  23  24
ENDBRANCH   1  23
TORSDOF 14
ENDMDL
