MODEL 1
REMARK VINA RESULT:     -12.7      0.000      0.000
REMARK SMILES Cc1ccc(NC(=O)[C@H]2CC(Cl)=CC[C@@H]2C(=O)NCCCNC(=O)c2ccc(-c3c4nc(c(-c5ccccc5)c5ccc([nH]5)c(-c5ccccc5)c5nc(c(-c6ccccc6)c6ccc3[nH]6)C=C5)C=C4)cc2)cc1[N+](=O)[O-]
REMARK SMILES IDX 19 1 18 2 16 3 17 4 15 6 9 7 10 8 11 9 14 10 12 11 13 12
REMARK SMILES IDX 7 13 6 14 8 16 5 17 1 18 2 19 3 20 74 21 4 22 73 23 75 24
REMARK SMILES IDX 76 25 77 26 20 27 21 28 22 29 23 30 24 32 25 33 26 34 72 35
REMARK SMILES IDX 27 36 71 37 28 38 29 39 30 40 65 41 31 42 70 43 64 44 66 45
REMARK SMILES IDX 32 46 69 47 63 48 62 49 33 51 55 52 40 53 54 54 41 55 44 56
REMARK SMILES IDX 53 57 67 58 42 59 43 60 52 62 68 63 45 64 34 65 35 66 39 67
REMARK SMILES IDX 36 68 38 69 37 70 56 71 57 72 61 73 58 74 60 75 59 76 46 77
REMARK SMILES IDX 47 78 51 79 48 80 50 81 49 82
REMARK H PARENT 18 5 6 15 22 31 66 50 44 61
REMARK Flexibility Score: inf
ROOT
ATOM      1  C   UNL A   1      34.501  29.012  27.139  1.00  0.00     0.117 C 
ENDROOT
BRANCH   1   2
ATOM      2  N   UNL A   1      33.175  28.438  26.971  1.00  0.00    -0.356 N 
ATOM      3  C   UNL A   1      32.738  27.344  26.292  1.00  0.00     0.224 C 
ATOM      4  O   UNL A   1      31.557  27.029  26.462  1.00  0.00    -0.275 OA
ATOM      5  H   UNL A   1      32.462  28.935  27.433  1.00  0.00     0.163 HD
BRANCH   3   6
ATOM      6  C   UNL A   1      33.632  26.560  25.323  1.00  0.00     0.095 C 
ATOM      7  C   UNL A   1      33.098  26.751  23.885  1.00  0.00     0.097 C 
ATOM      8  C   UNL A   1      33.755  25.801  22.876  1.00  0.00     0.062 C 
ATOM      9  C   UNL A   1      33.619  24.386  23.326  1.00  0.00     0.015 C 
ATOM     10  C   UNL A   1      33.581  25.059  25.737  1.00  0.00     0.043 C 
ATOM     11  Cl  UNL A   1      33.498  23.193  22.089  1.00  0.00    -0.089 Cl
ATOM     12  C   UNL A   1      33.537  24.053  24.619  1.00  0.00    -0.010 C 
BRANCH   7  13
ATOM     13  C   UNL A   1      33.335  28.158  23.368  1.00  0.00     0.228 C 
ATOM     14  N   UNL A   1      32.344  28.880  22.767  1.00  0.00    -0.326 N 
ATOM     15  H   UNL A   1      32.628  29.705  22.312  1.00  0.00     0.169 HD
ATOM     16  O   UNL A   1      34.418  28.723  23.550  1.00  0.00    -0.274 OA
BRANCH  14  17
ATOM     17  C   UNL A   1      30.976  28.595  22.718  1.00  0.00     0.048 A 
ATOM     18  C   UNL A   1      26.723  28.479  23.455  1.00  0.00     0.052 C 
ATOM     19  C   UNL A   1      28.173  28.474  23.066  1.00  0.00     0.027 A 
ATOM     20  C   UNL A   1      28.983  27.399  23.439  1.00  0.00     0.012 A 
ATOM     21  C   UNL A   1      28.809  29.531  22.409  1.00  0.00     0.274 A 
ATOM     22  C   UNL A   1      30.373  27.454  23.251  1.00  0.00     0.027 A 
ATOM     23  C   UNL A   1      30.185  29.592  22.189  1.00  0.00     0.112 A 
BRANCH  21  24
ATOM     24  N   UNL A   1      28.091  30.677  21.957  1.00  0.00     0.063 N 
ATOM     25  O   UNL A   1      27.894  31.568  22.800  1.00  0.00    -0.258 OA
ATOM     26  O   UNL A   1      27.880  30.734  20.740  1.00  0.00    -0.258 OA
ENDBRANCH  21  24
ENDBRANCH  14  17
ENDBRANCH   7  13
ENDBRANCH   3   6
ENDBRANCH   1   2
BRANCH   1  27
ATOM     27  C   UNL A   1      34.480  30.534  27.274  1.00  0.00     0.042 C 
BRANCH  27  28
ATOM     28  C   UNL A   1      34.585  31.048  28.717  1.00  0.00     0.118 C 
BRANCH  28  29
ATOM     29  N   UNL A   1      35.698  31.976  28.915  1.00  0.00    -0.352 N 
ATOM     30  C   UNL A   1      37.066  31.757  28.875  1.00  0.00     0.251 C 
ATOM     31  H   UNL A   1      35.433  32.904  29.106  1.00  0.00     0.163 HD
ATOM     32  O   UNL A   1      37.831  32.702  28.900  1.00  0.00    -0.269 OA
BRANCH  30  33
ATOM     33  C   UNL A   1      37.599  30.381  28.704  1.00  0.00     0.039 A 
ATOM     34  C   UNL A   1      37.622  29.538  29.820  1.00  0.00     0.014 A 
ATOM     35  C   UNL A   1      38.148  29.950  27.500  1.00  0.00     0.014 A 
ATOM     36  C   UNL A   1      38.396  28.376  29.793  1.00  0.00     0.010 A 
ATOM     37  C   UNL A   1      38.962  28.822  27.489  1.00  0.00     0.010 A 
ATOM     38  C   UNL A   1      39.164  28.082  28.663  1.00  0.00    -0.014 A 
BRANCH  38  39
ATOM     39  C   UNL A   1      40.387  27.270  28.768  1.00  0.00     0.031 A 
ATOM     40  C   UNL A   1      40.488  25.825  28.477  1.00  0.00     0.074 A 
ATOM     41  C   UNL A   1      41.560  27.923  28.954  1.00  0.00     0.049 A 
ATOM     42  N   UNL A   1      41.423  25.075  28.975  1.00  0.00    -0.248 NA
ATOM     43  C   UNL A   1      39.581  25.102  27.595  1.00  0.00     0.031 C 
ATOM     44  C   UNL A   1      42.911  27.435  28.668  1.00  0.00     0.029 A 
ATOM     45  N   UNL A   1      41.770  29.210  29.446  1.00  0.00    -0.354 N 
ATOM     46  C   UNL A   1      41.457  23.925  28.228  1.00  0.00     0.074 A 
ATOM     47  C   UNL A   1      40.225  23.935  27.465  1.00  0.00     0.031 C 
ATOM     48  C   UNL A   1      43.807  28.303  29.156  1.00  0.00     0.029 A 
ATOM     49  C   UNL A   1      43.083  29.283  29.940  1.00  0.00     0.049 A 
ATOM     50  H   UNL A   1      41.111  29.943  29.447  1.00  0.00     0.167 HD
ATOM     51  C   UNL A   1      42.576  23.146  28.187  1.00  0.00     0.031 A 
ATOM     52  C   UNL A   1      43.298  29.538  31.263  1.00  0.00     0.031 A 
ATOM     53  C   UNL A   1      43.721  23.705  28.912  1.00  0.00     0.049 A 
ATOM     54  C   UNL A   1      43.886  28.363  32.023  1.00  0.00     0.074 A 
ATOM     55  C   UNL A   1      44.962  24.198  28.534  1.00  0.00     0.029 A 
ATOM     56  N   UNL A   1      43.590  24.031  30.254  1.00  0.00    -0.354 N 
ATOM     57  N   UNL A   1      44.324  27.265  31.470  1.00  0.00    -0.248 NA
ATOM     58  C   UNL A   1      43.920  28.293  33.485  1.00  0.00     0.031 C 
ATOM     59  C   UNL A   1      45.592  24.770  29.674  1.00  0.00     0.029 A 
ATOM     60  C   UNL A   1      44.732  24.636  30.746  1.00  0.00     0.049 A 
ATOM     61  H   UNL A   1      42.783  23.856  30.790  1.00  0.00     0.167 HD
ATOM     62  C   UNL A   1      44.531  26.321  32.440  1.00  0.00     0.074 A 
ATOM     63  C   UNL A   1      44.317  27.024  33.690  1.00  0.00     0.031 C 
ATOM     64  C   UNL A   1      44.780  25.013  32.148  1.00  0.00     0.031 A 
BRANCH  51  65
ATOM     65  C   UNL A   1      42.683  21.950  27.270  1.00  0.00    -0.014 A 
ATOM     66  C   UNL A   1      41.929  20.786  27.509  1.00  0.00     0.009 A 
ATOM     67  C   UNL A   1      43.505  21.930  26.130  1.00  0.00     0.009 A 
ATOM     68  C   UNL A   1      42.065  19.637  26.719  1.00  0.00     0.001 A 
ATOM     69  C   UNL A   1      43.676  20.772  25.358  1.00  0.00     0.001 A 
ATOM     70  C   UNL A   1      42.963  19.620  25.661  1.00  0.00     0.000 A 
ENDBRANCH  51  65
BRANCH  52  71
ATOM     71  C   UNL A   1      42.327  30.524  31.814  1.00  0.00    -0.014 A 
ATOM     72  C   UNL A   1      42.386  31.845  31.324  1.00  0.00     0.009 A 
ATOM     73  C   UNL A   1      41.164  30.105  32.474  1.00  0.00     0.009 A 
ATOM     74  C   UNL A   1      41.274  32.687  31.400  1.00  0.00     0.001 A 
ATOM     75  C   UNL A   1      40.055  30.956  32.557  1.00  0.00     0.001 A 
ATOM     76  C   UNL A   1      40.100  32.231  31.993  1.00  0.00     0.000 A 
ENDBRANCH  52  71
BRANCH  64  77
ATOM     77  C   UNL A   1      45.045  23.958  33.185  1.00  0.00    -0.014 A 
ATOM     78  C   UNL A   1      44.061  23.059  33.617  1.00  0.00     0.009 A 
ATOM     79  C   UNL A   1      46.282  23.925  33.862  1.00  0.00     0.009 A 
ATOM     80  C   UNL A   1      44.322  22.129  34.631  1.00  0.00     0.001 A 
ATOM     81  C   UNL A   1      46.540  23.016  34.889  1.00  0.00     0.001 A 
ATOM     82  C   UNL A   1      45.561  22.107  35.266  1.00  0.00     0.000 A 
ENDBRANCH  64  77
ENDBRANCH  38  39
ENDBRANCH  30  33
ENDBRANCH  28  29
ENDBRANCH  27  28
ENDBRANCH   1  27
TORSDOF 13
ENDMDL
MODEL 2
REMARK VINA RESULT:     -12.6      2.456      4.125
REMARK SMILES Cc1ccc(NC(=O)[C@H]2CC(Cl)=CC[C@@H]2C(=O)NCCCNC(=O)c2ccc(-c3c4nc(c(-c5ccccc5)c5ccc([nH]5)c(-c5ccccc5)c5nc(c(-c6ccccc6)c6ccc3[nH]6)C=C5)C=C4)cc2)cc1[N+](=O)[O-]
REMARK SMILES IDX 19 1 18 2 16 3 17 4 15 6 9 7 10 8 11 9 14 10 12 11 13 12
REMARK SMILES IDX 7 13 6 14 8 16 5 17 1 18 2 19 3 20 74 21 4 22 73 23 75 24
REMARK SMILES IDX 76 25 77 26 20 27 21 28 22 29 23 30 24 32 25 33 26 34 72 35
REMARK SMILES IDX 27 36 71 37 28 38 29 39 30 40 65 41 31 42 70 43 64 44 66 45
REMARK SMILES IDX 32 46 69 47 63 48 62 49 33 51 55 52 40 53 54 54 41 55 44 56
REMARK SMILES IDX 53 57 67 58 42 59 43 60 52 62 68 63 45 64 34 65 35 66 39 67
REMARK SMILES IDX 36 68 38 69 37 70 56 71 57 72 61 73 58 74 60 75 59 76 46 77
REMARK SMILES IDX 47 78 51 79 48 80 50 81 49 82
REMARK H PARENT 18 5 6 15 22 31 66 50 44 61
REMARK Flexibility Score: inf
ROOT
ATOM      1  C   UNL A   1      34.188  30.193  27.100  1.00  0.00     0.117 C 
ENDROOT
BRANCH   1   2
ATOM      2  N   UNL A   1      32.883  29.667  26.734  1.00  0.00    -0.356 N 
ATOM      3  C   UNL A   1      32.510  28.528  26.091  1.00  0.00     0.224 C 
ATOM      4  O   UNL A   1      31.300  28.288  26.058  1.00  0.00    -0.275 OA
ATOM      5  H   UNL A   1      32.130  30.243  26.999  1.00  0.00     0.163 HD
BRANCH   3   6
ATOM      6  C   UNL A   1      33.516  27.605  25.393  1.00  0.00     0.095 C 
ATOM      7  C   UNL A   1      33.081  27.410  23.923  1.00  0.00     0.097 C 
ATOM      8  C   UNL A   1      33.863  26.299  23.213  1.00  0.00     0.062 C 
ATOM      9  C   UNL A   1      33.776  25.025  23.982  1.00  0.00     0.015 C 
ATOM     10  C   UNL A   1      33.521  26.245  26.153  1.00  0.00     0.043 C 
ATOM     11  Cl  UNL A   1      33.815  23.567  23.064  1.00  0.00    -0.089 Cl
ATOM     12  C   UNL A   1      33.617  25.002  25.310  1.00  0.00    -0.010 C 
BRANCH   7  13
ATOM     13  C   UNL A   1      33.274  28.668  23.097  1.00  0.00     0.228 C 
ATOM     14  N   UNL A   1      32.260  29.208  22.359  1.00  0.00    -0.326 N 
ATOM     15  H   UNL A   1      32.518  29.915  21.725  1.00  0.00     0.169 HD
ATOM     16  O   UNL A   1      34.342  29.289  23.132  1.00  0.00    -0.274 OA
BRANCH  14  17
ATOM     17  C   UNL A   1      30.901  28.884  22.393  1.00  0.00     0.048 A 
ATOM     18  C   UNL A   1      26.717  28.598  23.426  1.00  0.00     0.052 C 
ATOM     19  C   UNL A   1      28.134  28.659  22.934  1.00  0.00     0.027 A 
ATOM     20  C   UNL A   1      28.999  27.592  23.191  1.00  0.00     0.012 A 
ATOM     21  C   UNL A   1      28.692  29.766  22.290  1.00  0.00     0.274 A 
ATOM     22  C   UNL A   1      30.369  27.699  22.907  1.00  0.00     0.027 A 
ATOM     23  C   UNL A   1      30.045  29.882  21.976  1.00  0.00     0.112 A 
BRANCH  21  24
ATOM     24  N   UNL A   1      27.911  30.911  21.951  1.00  0.00     0.063 N 
ATOM     25  O   UNL A   1      27.757  31.754  22.850  1.00  0.00    -0.258 OA
ATOM     26  O   UNL A   1      27.606  31.019  20.758  1.00  0.00    -0.258 OA
ENDBRANCH  21  24
ENDBRANCH  14  17
ENDBRANCH   7  13
ENDBRANCH   3   6
ENDBRANCH   1   2
BRANCH   1  27
ATOM     27  C   UNL A   1      34.108  31.342  28.105  1.00  0.00     0.042 C 
BRANCH  27  28
ATOM     28  C   UNL A   1      33.797  32.711  27.486  1.00  0.00     0.118 C 
BRANCH  28  29
ATOM     29  N   UNL A   1      33.136  33.625  28.417  1.00  0.00    -0.352 N 
ATOM     30  C   UNL A   1      33.630  34.280  29.534  1.00  0.00     0.251 C 
ATOM     31  H   UNL A   1      32.190  33.804  28.219  1.00  0.00     0.163 HD
ATOM     32  O   UNL A   1      32.959  35.134  30.081  1.00  0.00    -0.269 OA
BRANCH  30  33
ATOM     33  C   UNL A   1      35.013  34.012  30.007  1.00  0.00     0.039 A 
ATOM     34  C   UNL A   1      36.078  34.376  29.176  1.00  0.00     0.014 A 
ATOM     35  C   UNL A   1      35.265  33.338  31.198  1.00  0.00     0.014 A 
ATOM     36  C   UNL A   1      37.353  33.861  29.420  1.00  0.00     0.010 A 
ATOM     37  C   UNL A   1      36.521  32.782  31.412  1.00  0.00     0.010 A 
ATOM     38  C   UNL A   1      37.547  32.964  30.473  1.00  0.00    -0.014 A 
BRANCH  38  39
ATOM     39  C   UNL A   1      38.635  31.973  30.435  1.00  0.00     0.031 A 
ATOM     40  C   UNL A   1      38.533  30.605  29.888  1.00  0.00     0.074 A 
ATOM     41  C   UNL A   1      39.884  32.399  30.742  1.00  0.00     0.049 A 
ATOM     42  N   UNL A   1      39.331  29.646  30.247  1.00  0.00    -0.248 NA
ATOM     43  C   UNL A   1      37.558  30.194  28.886  1.00  0.00     0.031 C 
ATOM     44  C   UNL A   1      41.157  31.774  30.380  1.00  0.00     0.029 A 
ATOM     45  N   UNL A   1      40.263  33.532  31.461  1.00  0.00    -0.354 N 
ATOM     46  C   UNL A   1      39.221  28.656  29.304  1.00  0.00     0.074 A 
ATOM     47  C   UNL A   1      38.028  28.987  28.549  1.00  0.00     0.031 C 
ATOM     48  C   UNL A   1      42.155  32.397  31.022  1.00  0.00     0.029 A 
ATOM     49  C   UNL A   1      41.557  33.319  31.966  1.00  0.00     0.049 A 
ATOM     50  H   UNL A   1      39.719  34.343  31.591  1.00  0.00     0.167 HD
ATOM     51  C   UNL A   1      40.215  27.739  29.127  1.00  0.00     0.031 A 
ATOM     52  C   UNL A   1      41.764  33.298  33.315  1.00  0.00     0.031 A 
ATOM     53  C   UNL A   1      41.406  27.981  29.948  1.00  0.00     0.049 A 
ATOM     54  C   UNL A   1      42.150  31.933  33.852  1.00  0.00     0.074 A 
ATOM     55  C   UNL A   1      42.717  28.343  29.671  1.00  0.00     0.029 A 
ATOM     56  N   UNL A   1      41.281  28.080  31.326  1.00  0.00    -0.354 N 
ATOM     57  N   UNL A   1      42.440  30.897  33.112  1.00  0.00    -0.248 NA
ATOM     58  C   UNL A   1      42.127  31.598  35.277  1.00  0.00     0.031 C 
ATOM     59  C   UNL A   1      43.386  28.602  30.900  1.00  0.00     0.029 A 
ATOM     60  C   UNL A   1      42.483  28.409  31.925  1.00  0.00     0.049 A 
ATOM     61  H   UNL A   1      40.440  27.934  31.817  1.00  0.00     0.167 HD
ATOM     62  C   UNL A   1      42.476  29.776  33.895  1.00  0.00     0.074 A 
ATOM     63  C   UNL A   1      42.328  30.268  35.251  1.00  0.00     0.031 C 
ATOM     64  C   UNL A   1      42.541  28.518  33.372  1.00  0.00     0.031 A 
BRANCH  51  65
ATOM     65  C   UNL A   1      40.175  26.723  28.009  1.00  0.00    -0.014 A 
ATOM     66  C   UNL A   1      39.311  25.614  28.071  1.00  0.00     0.009 A 
ATOM     67  C   UNL A   1      40.962  26.830  26.850  1.00  0.00     0.009 A 
ATOM     68  C   UNL A   1      39.307  24.619  27.085  1.00  0.00     0.001 A 
ATOM     69  C   UNL A   1      40.994  25.819  25.878  1.00  0.00     0.001 A 
ATOM     70  C   UNL A   1      40.173  24.706  26.003  1.00  0.00     0.000 A 
ENDBRANCH  51  65
BRANCH  52  71
ATOM     71  C   UNL A   1      40.931  34.304  34.030  1.00  0.00    -0.014 A 
ATOM     72  C   UNL A   1      39.757  33.850  34.665  1.00  0.00     0.009 A 
ATOM     73  C   UNL A   1      41.458  35.548  34.405  1.00  0.00     0.009 A 
ATOM     74  C   UNL A   1      39.188  34.572  35.718  1.00  0.00     0.001 A 
ATOM     75  C   UNL A   1      40.879  36.272  35.453  1.00  0.00     0.001 A 
ATOM     76  C   UNL A   1      39.767  35.769  36.129  1.00  0.00     0.000 A 
ENDBRANCH  52  71
BRANCH  64  77
ATOM     77  C   UNL A   1      42.616  27.268  34.202  1.00  0.00    -0.014 A 
ATOM     78  C   UNL A   1      43.715  26.399  34.161  1.00  0.00     0.009 A 
ATOM     79  C   UNL A   1      41.503  26.855  34.964  1.00  0.00     0.009 A 
ATOM     80  C   UNL A   1      43.727  25.209  34.900  1.00  0.00     0.001 A 
ATOM     81  C   UNL A   1      41.501  25.659  35.683  1.00  0.00     0.001 A 
ATOM     82  C   UNL A   1      42.621  24.839  35.661  1.00  0.00     0.000 A 
ENDBRANCH  64  77
ENDBRANCH  38  39
ENDBRANCH  30  33
ENDBRANCH  28  29
ENDBRANCH  27  28
ENDBRANCH   1  27
TORSDOF 13
ENDMDL
MODEL 3
REMARK VINA RESULT:     -12.4      4.299      8.900
REMARK SMILES Cc1ccc(NC(=O)[C@H]2CC(Cl)=CC[C@@H]2C(=O)NCCCNC(=O)c2ccc(-c3c4nc(c(-c5ccccc5)c5ccc([nH]5)c(-c5ccccc5)c5nc(c(-c6ccccc6)c6ccc3[nH]6)C=C5)C=C4)cc2)cc1[N+](=O)[O-]
REMARK SMILES IDX 19 1 18 2 16 3 17 4 15 6 9 7 10 8 11 9 14 10 12 11 13 12
REMARK SMILES IDX 7 13 6 14 8 16 5 17 1 18 2 19 3 20 74 21 4 22 73 23 75 24
REMARK SMILES IDX 76 25 77 26 20 27 21 28 22 29 23 30 24 32 25 33 26 34 72 35
REMARK SMILES IDX 27 36 71 37 28 38 29 39 30 40 65 41 31 42 70 43 64 44 66 45
REMARK SMILES IDX 32 46 69 47 63 48 62 49 33 51 55 52 40 53 54 54 41 55 44 56
REMARK SMILES IDX 53 57 67 58 42 59 43 60 52 62 68 63 45 64 34 65 35 66 39 67
REMARK SMILES IDX 36 68 38 69 37 70 56 71 57 72 61 73 58 74 60 75 59 76 46 77
REMARK SMILES IDX 47 78 51 79 48 80 50 81 49 82
REMARK H PARENT 18 5 6 15 22 31 66 50 44 61
REMARK Flexibility Score: inf
ROOT
ATOM      1  C   UNL A   1      37.403  22.438  25.266  1.00  0.00     0.117 C 
ENDROOT
BRANCH   1   2
ATOM      2  N   UNL A   1      36.494  22.400  24.132  1.00  0.00    -0.356 N 
ATOM      3  C   UNL A   1      35.360  23.098  23.852  1.00  0.00     0.224 C 
ATOM      4  O   UNL A   1      34.885  22.942  22.724  1.00  0.00    -0.275 OA
ATOM      5  H   UNL A   1      36.746  21.749  23.438  1.00  0.00     0.163 HD
BRANCH   3   6
ATOM      6  C   UNL A   1      34.663  23.992  24.885  1.00  0.00     0.095 C 
ATOM      7  C   UNL A   1      33.544  23.181  25.576  1.00  0.00     0.097 C 
ATOM      8  C   UNL A   1      32.617  24.055  26.430  1.00  0.00     0.062 C 
ATOM      9  C   UNL A   1      32.060  25.174  25.618  1.00  0.00     0.015 C 
ATOM     10  C   UNL A   1      34.073  25.220  24.130  1.00  0.00     0.043 C 
ATOM     11  Cl  UNL A   1      30.482  25.722  26.041  1.00  0.00    -0.089 Cl
ATOM     12  C   UNL A   1      32.717  25.697  24.577  1.00  0.00    -0.010 C 
BRANCH   7  13
ATOM     13  C   UNL A   1      34.097  22.111  26.498  1.00  0.00     0.228 C 
ATOM     14  N   UNL A   1      33.772  20.793  26.348  1.00  0.00    -0.326 N 
ATOM     15  H   UNL A   1      34.034  20.199  27.087  1.00  0.00     0.169 HD
ATOM     16  O   UNL A   1      34.926  22.395  27.369  1.00  0.00    -0.274 OA
BRANCH  14  17
ATOM     17  C   UNL A   1      33.116  20.183  25.275  1.00  0.00     0.048 A 
ATOM     18  C   UNL A   1      32.181  18.223  21.542  1.00  0.00     0.052 C 
ATOM     19  C   UNL A   1      32.383  18.851  22.891  1.00  0.00     0.027 A 
ATOM     20  C   UNL A   1      32.076  20.201  23.075  1.00  0.00     0.012 A 
ATOM     21  C   UNL A   1      32.946  18.189  23.985  1.00  0.00     0.274 A 
ATOM     22  C   UNL A   1      32.426  20.857  24.266  1.00  0.00     0.027 A 
ATOM     23  C   UNL A   1      33.277  18.816  25.186  1.00  0.00     0.112 A 
BRANCH  21  24
ATOM     24  N   UNL A   1      33.285  16.804  23.934  1.00  0.00     0.063 N 
ATOM     25  O   UNL A   1      32.664  16.059  24.710  1.00  0.00    -0.258 OA
ATOM     26  O   UNL A   1      34.042  16.471  23.015  1.00  0.00    -0.258 OA
ENDBRANCH  21  24
ENDBRANCH  14  17
ENDBRANCH   7  13
ENDBRANCH   3   6
ENDBRANCH   1   2
BRANCH   1  27
ATOM     27  C   UNL A   1      38.267  21.182  25.381  1.00  0.00     0.042 C 
BRANCH  27  28
ATOM     28  C   UNL A   1      39.517  21.344  26.256  1.00  0.00     0.118 C 
BRANCH  28  29
ATOM     29  N   UNL A   1      40.546  20.343  25.978  1.00  0.00    -0.352 N 
ATOM     30  C   UNL A   1      41.898  20.338  26.283  1.00  0.00     0.251 C 
ATOM     31  H   UNL A   1      40.227  19.545  25.499  1.00  0.00     0.163 HD
ATOM     32  O   UNL A   1      42.552  19.328  26.112  1.00  0.00    -0.269 OA
BRANCH  30  33
ATOM     33  C   UNL A   1      42.528  21.529  26.907  1.00  0.00     0.039 A 
ATOM     34  C   UNL A   1      42.434  21.676  28.295  1.00  0.00     0.014 A 
ATOM     35  C   UNL A   1      43.123  22.531  26.145  1.00  0.00     0.014 A 
ATOM     36  C   UNL A   1      42.715  22.911  28.881  1.00  0.00     0.010 A 
ATOM     37  C   UNL A   1      43.351  23.777  26.720  1.00  0.00     0.010 A 
ATOM     38  C   UNL A   1      43.059  23.999  28.074  1.00  0.00    -0.014 A 
BRANCH  38  39
ATOM     39  C   UNL A   1      42.795  25.380  28.507  1.00  0.00     0.031 A 
ATOM     40  C   UNL A   1      41.587  26.167  28.185  1.00  0.00     0.074 A 
ATOM     41  C   UNL A   1      43.624  25.916  29.436  1.00  0.00     0.049 A 
ATOM     42  N   UNL A   1      41.572  27.465  28.203  1.00  0.00    -0.248 NA
ATOM     43  C   UNL A   1      40.297  25.583  27.843  1.00  0.00     0.031 C 
ATOM     44  C   UNL A   1      43.357  27.046  30.329  1.00  0.00     0.029 A 
ATOM     45  N   UNL A   1      44.917  25.521  29.778  1.00  0.00    -0.354 N 
ATOM     46  C   UNL A   1      40.257  27.852  28.239  1.00  0.00     0.074 A 
ATOM     47  C   UNL A   1      39.504  26.661  27.895  1.00  0.00     0.031 C 
ATOM     48  C   UNL A   1      44.486  27.381  30.967  1.00  0.00     0.029 A 
ATOM     49  C   UNL A   1      45.564  26.614  30.379  1.00  0.00     0.049 A 
ATOM     50  H   UNL A   1      45.308  24.631  29.626  1.00  0.00     0.167 HD
ATOM     51  C   UNL A   1      39.898  29.081  28.708  1.00  0.00     0.031 A 
ATOM     52  C   UNL A   1      46.675  27.150  29.794  1.00  0.00     0.031 A 
ATOM     53  C   UNL A   1      41.014  29.867  29.242  1.00  0.00     0.049 A 
ATOM     54  C   UNL A   1      46.461  28.549  29.247  1.00  0.00     0.074 A 
ATOM     55  C   UNL A   1      41.365  30.318  30.507  1.00  0.00     0.029 A 
ATOM     56  N   UNL A   1      42.118  30.123  28.443  1.00  0.00    -0.354 N 
ATOM     57  N   UNL A   1      45.394  29.273  29.453  1.00  0.00    -0.248 NA
ATOM     58  C   UNL A   1      47.395  29.200  28.326  1.00  0.00     0.031 C 
ATOM     59  C   UNL A   1      42.664  30.893  30.442  1.00  0.00     0.029 A 
ATOM     60  C   UNL A   1      43.110  30.787  29.140  1.00  0.00     0.049 A 
ATOM     61  H   UNL A   1      42.187  29.862  27.495  1.00  0.00     0.167 HD
ATOM     62  C   UNL A   1      45.409  30.351  28.611  1.00  0.00     0.074 A 
ATOM     63  C   UNL A   1      46.704  30.295  27.962  1.00  0.00     0.031 C 
ATOM     64  C   UNL A   1      44.327  31.165  28.443  1.00  0.00     0.031 A 
BRANCH  51  65
ATOM     65  C   UNL A   1      38.450  29.479  28.881  1.00  0.00    -0.014 A 
ATOM     66  C   UNL A   1      37.837  29.442  30.146  1.00  0.00     0.009 A 
ATOM     67  C   UNL A   1      37.647  29.925  27.817  1.00  0.00     0.009 A 
ATOM     68  C   UNL A   1      36.478  29.733  30.323  1.00  0.00     0.001 A 
ATOM     69  C   UNL A   1      36.277  30.180  27.978  1.00  0.00     0.001 A 
ATOM     70  C   UNL A   1      35.690  30.072  29.231  1.00  0.00     0.000 A 
ENDBRANCH  51  65
BRANCH  52  71
ATOM     71  C   UNL A   1      47.552  26.111  29.188  1.00  0.00    -0.014 A 
ATOM     72  C   UNL A   1      47.398  25.844  27.812  1.00  0.00     0.009 A 
ATOM     73  C   UNL A   1      48.732  25.697  29.823  1.00  0.00     0.009 A 
ATOM     74  C   UNL A   1      48.438  25.274  27.072  1.00  0.00     0.001 A 
ATOM     75  C   UNL A   1      49.766  25.117  29.080  1.00  0.00     0.001 A 
ATOM     76  C   UNL A   1      49.632  24.936  27.703  1.00  0.00     0.000 A 
ENDBRANCH  52  71
BRANCH  64  77
ATOM     77  C   UNL A   1      44.319  32.376  27.553  1.00  0.00    -0.014 A 
ATOM     78  C   UNL A   1      44.203  33.680  28.053  1.00  0.00     0.009 A 
ATOM     79  C   UNL A   1      44.297  32.225  26.151  1.00  0.00     0.009 A 
ATOM     80  C   UNL A   1      44.136  34.784  27.194  1.00  0.00     0.001 A 
ATOM     81  C   UNL A   1      44.205  33.321  25.290  1.00  0.00     0.001 A 
ATOM     82  C   UNL A   1      44.137  34.604  25.814  1.00  0.00     0.000 A 
ENDBRANCH  64  77
ENDBRANCH  38  39
ENDBRANCH  30  33
ENDBRANCH  28  29
ENDBRANCH  27  28
ENDBRANCH   1  27
TORSDOF 13
ENDMDL
