MODEL 1
REMARK VINA RESULT:      -9.5      0.000      0.000
REMARK SMILES C[C@H]([NH2+]C1C(C)(C)C1(C)C)[C@H](C)C(=O)NCCCNC(=O)c1ccc(-c2c3nc(c(-c4ccccc4)c4ccc([nH]4)c(-c4ccccc4)c4nc(c(-c5ccccc5)c5ccc2[nH]5)C=C4)C=C3)cc1
REMARK SMILES IDX 16 1 15 2 13 3 14 4 11 6 12 7 2 8 1 9 3 10 4 13 5 14 8 15
REMARK SMILES IDX 6 16 7 17 9 18 10 19 17 20 18 21 19 22 20 23 21 25 22 26
REMARK SMILES IDX 23 27 69 28 24 29 68 30 25 31 26 32 27 33 62 34 28 35 67 36
REMARK SMILES IDX 61 37 63 38 29 39 66 40 60 41 59 42 30 44 52 45 37 46 51 47
REMARK SMILES IDX 38 48 41 49 50 50 64 51 39 52 40 53 49 55 65 56 42 57 31 58
REMARK SMILES IDX 32 59 36 60 33 61 35 62 34 63 53 64 54 65 58 66 55 67 57 68
REMARK SMILES IDX 56 69 43 70 44 71 48 72 45 73 47 74 46 75
REMARK H PARENT 15 5 3 11 3 12 19 24 63 43 41 54
REMARK Flexibility Score: inf
ROOT
ATOM      1  C   UNL A   1      34.153  35.101  29.140  1.00  0.00     0.117 C 
ENDROOT
BRANCH   1   2
ATOM      2  N   UNL A   1      33.132  35.111  30.165  1.00  0.00    -0.356 N 
ATOM      3  C   UNL A   1      33.106  35.483  31.462  1.00  0.00     0.228 C 
ATOM      4  O   UNL A   1      31.981  35.435  31.983  1.00  0.00    -0.275 OA
ATOM      5  H   UNL A   1      32.264  34.774  29.846  1.00  0.00     0.163 HD
BRANCH   3   6
ATOM      6  C   UNL A   1      34.295  35.858  32.353  1.00  0.00     0.133 C 
ATOM      7  C   UNL A   1      33.821  36.868  33.407  1.00  0.00     0.024 C 
BRANCH   6   8
ATOM      8  C   UNL A   1      35.355  34.854  32.875  1.00  0.00     0.191 C 
ATOM      9  C   UNL A   1      35.189  34.650  34.394  1.00  0.00     0.076 C 
BRANCH   8  10
ATOM     10  N   UNL A   1      36.794  34.983  32.589  1.00  0.00    -0.340 N 
ATOM     11  H   UNL A   1      37.095  35.873  32.985  1.00  0.00     0.346 HD
ATOM     12  H   UNL A   1      36.845  34.885  31.575  1.00  0.00     0.346 HD
BRANCH  10  13
ATOM     13  C   UNL A   1      37.722  33.967  33.076  1.00  0.00     0.195 C 
ATOM     14  C   UNL A   1      37.968  32.703  32.259  1.00  0.00     0.028 C 
ATOM     15  C   UNL A   1      39.103  33.711  32.517  1.00  0.00     0.028 C 
ATOM     16  C   UNL A   1      37.969  31.380  33.000  1.00  0.00     0.018 C 
ATOM     17  C   UNL A   1      37.394  32.552  30.865  1.00  0.00     0.018 C 
ATOM     18  C   UNL A   1      39.646  34.546  31.382  1.00  0.00     0.018 C 
ATOM     19  C   UNL A   1      40.186  33.350  33.517  1.00  0.00     0.018 C 
ENDBRANCH  10  13
ENDBRANCH   8  10
ENDBRANCH   6   8
ENDBRANCH   3   6
ENDBRANCH   1   2
BRANCH   1  20
ATOM     20  C   UNL A   1      33.976  33.958  28.153  1.00  0.00     0.042 C 
BRANCH  20  21
ATOM     21  C   UNL A   1      34.754  32.709  28.531  1.00  0.00     0.118 C 
BRANCH  21  22
ATOM     22  N   UNL A   1      34.015  31.488  28.236  1.00  0.00    -0.352 N 
ATOM     23  C   UNL A   1      34.464  30.215  27.994  1.00  0.00     0.251 C 
ATOM     24  H   UNL A   1      33.037  31.595  28.205  1.00  0.00     0.163 HD
ATOM     25  O   UNL A   1      33.691  29.374  27.547  1.00  0.00    -0.269 OA
BRANCH  23  26
ATOM     26  C   UNL A   1      35.873  29.850  28.261  1.00  0.00     0.039 A 
ATOM     27  C   UNL A   1      36.211  29.333  29.515  1.00  0.00     0.014 A 
ATOM     28  C   UNL A   1      36.865  30.048  27.298  1.00  0.00     0.014 A 
ATOM     29  C   UNL A   1      37.531  28.968  29.782  1.00  0.00     0.010 A 
ATOM     30  C   UNL A   1      38.158  29.595  27.529  1.00  0.00     0.010 A 
ATOM     31  C   UNL A   1      38.510  29.067  28.780  1.00  0.00    -0.014 A 
BRANCH  31  32
ATOM     32  C   UNL A   1      39.916  28.661  29.024  1.00  0.00     0.031 A 
ATOM     33  C   UNL A   1      40.883  29.637  29.639  1.00  0.00     0.074 A 
ATOM     34  C   UNL A   1      40.339  27.443  28.633  1.00  0.00     0.049 A 
ATOM     35  N   UNL A   1      42.167  29.506  29.851  1.00  0.00    -0.248 NA
ATOM     36  C   UNL A   1      40.339  30.947  30.043  1.00  0.00     0.031 C 
ATOM     37  C   UNL A   1      39.510  26.420  27.992  1.00  0.00     0.029 A 
ATOM     38  N   UNL A   1      41.579  26.862  28.714  1.00  0.00    -0.354 N 
ATOM     39  C   UNL A   1      42.587  30.718  30.385  1.00  0.00     0.074 A 
ATOM     40  C   UNL A   1      41.434  31.591  30.418  1.00  0.00     0.031 C 
ATOM     41  C   UNL A   1      40.258  25.327  27.765  1.00  0.00     0.029 A 
ATOM     42  C   UNL A   1      41.624  25.588  28.203  1.00  0.00     0.049 A 
ATOM     43  H   UNL A   1      42.362  27.315  29.101  1.00  0.00     0.167 HD
ATOM     44  C   UNL A   1      43.816  31.069  30.830  1.00  0.00     0.031 A 
ATOM     45  C   UNL A   1      42.654  24.728  28.095  1.00  0.00     0.031 A 
ATOM     46  C   UNL A   1      44.957  30.194  30.820  1.00  0.00     0.049 A 
ATOM     47  C   UNL A   1      44.010  25.143  28.593  1.00  0.00     0.074 A 
ATOM     48  C   UNL A   1      46.233  30.436  31.299  1.00  0.00     0.029 A 
ATOM     49  N   UNL A   1      44.955  28.906  30.310  1.00  0.00    -0.354 N 
ATOM     50  N   UNL A   1      44.376  26.274  29.148  1.00  0.00    -0.248 NA
ATOM     51  C   UNL A   1      45.093  24.157  28.461  1.00  0.00     0.031 C 
ATOM     52  C   UNL A   1      47.016  29.306  31.039  1.00  0.00     0.029 A 
ATOM     53  C   UNL A   1      46.212  28.345  30.446  1.00  0.00     0.049 A 
ATOM     54  H   UNL A   1      44.175  28.457  29.909  1.00  0.00     0.167 HD
ATOM     55  C   UNL A   1      45.721  26.124  29.457  1.00  0.00     0.074 A 
ATOM     56  C   UNL A   1      46.103  24.790  29.043  1.00  0.00     0.031 C 
ATOM     57  C   UNL A   1      46.568  27.013  30.032  1.00  0.00     0.031 A 
BRANCH  44  58
ATOM     58  C   UNL A   1      43.988  32.462  31.369  1.00  0.00    -0.014 A 
ATOM     59  C   UNL A   1      43.763  32.748  32.726  1.00  0.00     0.009 A 
ATOM     60  C   UNL A   1      44.414  33.494  30.519  1.00  0.00     0.009 A 
ATOM     61  C   UNL A   1      43.929  34.046  33.212  1.00  0.00     0.001 A 
ATOM     62  C   UNL A   1      44.607  34.786  31.015  1.00  0.00     0.001 A 
ATOM     63  C   UNL A   1      44.356  35.063  32.358  1.00  0.00     0.000 A 
ENDBRANCH  44  58
BRANCH  45  64
ATOM     64  C   UNL A   1      42.446  23.381  27.502  1.00  0.00    -0.014 A 
ATOM     65  C   UNL A   1      42.717  23.153  26.143  1.00  0.00     0.009 A 
ATOM     66  C   UNL A   1      41.964  22.321  28.284  1.00  0.00     0.009 A 
ATOM     67  C   UNL A   1      42.480  21.900  25.574  1.00  0.00     0.001 A 
ATOM     68  C   UNL A   1      41.755  21.061  27.719  1.00  0.00     0.001 A 
ATOM     69  C   UNL A   1      42.002  20.855  26.362  1.00  0.00     0.000 A 
ENDBRANCH  45  64
BRANCH  57  70
ATOM     70  C   UNL A   1      47.976  26.555  30.283  1.00  0.00    -0.014 A 
ATOM     71  C   UNL A   1      48.997  26.795  29.352  1.00  0.00     0.009 A 
ATOM     72  C   UNL A   1      48.290  25.910  31.489  1.00  0.00     0.009 A 
ATOM     73  C   UNL A   1      50.301  26.369  29.611  1.00  0.00     0.001 A 
ATOM     74  C   UNL A   1      49.599  25.510  31.758  1.00  0.00     0.001 A 
ATOM     75  C   UNL A   1      50.601  25.732  30.815  1.00  0.00     0.000 A 
ENDBRANCH  57  70
ENDBRANCH  31  32
ENDBRANCH  23  26
ENDBRANCH  21  22
ENDBRANCH  20  21
ENDBRANCH   1  20
TORSDOF 13
ENDMDL
MODEL 2
REMARK VINA RESULT:      -9.2      4.187      9.831
REMARK SMILES C[C@H]([NH2+]C1C(C)(C)C1(C)C)[C@H](C)C(=O)NCCCNC(=O)c1ccc(-c2c3nc(c(-c4ccccc4)c4ccc([nH]4)c(-c4ccccc4)c4nc(c(-c5ccccc5)c5ccc2[nH]5)C=C4)C=C3)cc1
REMARK SMILES IDX 16 1 15 2 13 3 14 4 11 6 12 7 2 8 1 9 3 10 4 13 5 14 8 15
REMARK SMILES IDX 6 16 7 17 9 18 10 19 17 20 18 21 19 22 20 23 21 25 22 26
REMARK SMILES IDX 23 27 69 28 24 29 68 30 25 31 26 32 27 33 62 34 28 35 67 36
REMARK SMILES IDX 61 37 63 38 29 39 66 40 60 41 59 42 30 44 52 45 37 46 51 47
REMARK SMILES IDX 38 48 41 49 50 50 64 51 39 52 40 53 49 55 65 56 42 57 31 58
REMARK SMILES IDX 32 59 36 60 33 61 35 62 34 63 53 64 54 65 58 66 55 67 57 68
REMARK SMILES IDX 56 69 43 70 44 71 48 72 45 73 47 74 46 75
REMARK H PARENT 15 5 3 11 3 12 19 24 63 43 41 54
REMARK Flexibility Score: inf
ROOT
ATOM      1  C   UNL A   1      36.432  20.597  24.927  1.00  0.00     0.117 C 
ENDROOT
BRANCH   1   2
ATOM      2  N   UNL A   1      35.199  19.844  25.011  1.00  0.00    -0.356 N 
ATOM      3  C   UNL A   1      33.899  20.180  25.144  1.00  0.00     0.228 C 
ATOM      4  O   UNL A   1      33.114  19.221  25.070  1.00  0.00    -0.275 OA
ATOM      5  H   UNL A   1      35.339  18.870  24.960  1.00  0.00     0.163 HD
BRANCH   3   6
ATOM      6  C   UNL A   1      33.316  21.563  25.457  1.00  0.00     0.133 C 
ATOM      7  C   UNL A   1      31.785  21.469  25.431  1.00  0.00     0.024 C 
BRANCH   6   8
ATOM      8  C   UNL A   1      33.870  22.526  26.539  1.00  0.00     0.191 C 
ATOM      9  C   UNL A   1      33.094  22.343  27.859  1.00  0.00     0.076 C 
BRANCH   8  10
ATOM     10  N   UNL A   1      34.045  23.971  26.313  1.00  0.00    -0.340 N 
ATOM     11  H   UNL A   1      35.048  24.155  26.340  1.00  0.00     0.346 HD
ATOM     12  H   UNL A   1      33.475  24.396  27.045  1.00  0.00     0.346 HD
BRANCH  10  13
ATOM     13  C   UNL A   1      33.534  24.578  25.088  1.00  0.00     0.195 C 
ATOM     14  C   UNL A   1      32.113  25.129  25.044  1.00  0.00     0.028 C 
ATOM     15  C   UNL A   1      33.328  26.061  24.874  1.00  0.00     0.028 C 
ATOM     16  C   UNL A   1      31.266  24.786  23.834  1.00  0.00     0.018 C 
ATOM     17  C   UNL A   1      31.269  25.211  26.300  1.00  0.00     0.018 C 
ATOM     18  C   UNL A   1      33.676  27.056  25.954  1.00  0.00     0.018 C 
ATOM     19  C   UNL A   1      33.645  26.599  23.490  1.00  0.00     0.018 C 
ENDBRANCH  10  13
ENDBRANCH   8  10
ENDBRANCH   6   8
ENDBRANCH   3   6
ENDBRANCH   1   2
BRANCH   1  20
ATOM     20  C   UNL A   1      37.661  19.704  24.933  1.00  0.00     0.042 C 
BRANCH  20  21
ATOM     21  C   UNL A   1      38.822  20.282  25.724  1.00  0.00     0.118 C 
BRANCH  21  22
ATOM     22  N   UNL A   1      39.952  19.365  25.798  1.00  0.00    -0.352 N 
ATOM     23  C   UNL A   1      41.274  19.604  26.073  1.00  0.00     0.251 C 
ATOM     24  H   UNL A   1      39.731  18.422  25.620  1.00  0.00     0.163 HD
ATOM     25  O   UNL A   1      42.106  18.726  25.866  1.00  0.00    -0.269 OA
BRANCH  23  26
ATOM     26  C   UNL A   1      41.707  20.914  26.608  1.00  0.00     0.039 A 
ATOM     27  C   UNL A   1      42.147  21.896  25.717  1.00  0.00     0.014 A 
ATOM     28  C   UNL A   1      41.716  21.165  27.982  1.00  0.00     0.014 A 
ATOM     29  C   UNL A   1      42.546  23.144  26.200  1.00  0.00     0.010 A 
ATOM     30  C   UNL A   1      42.019  22.436  28.454  1.00  0.00     0.010 A 
ATOM     31  C   UNL A   1      42.455  23.434  27.570  1.00  0.00    -0.014 A 
BRANCH  31  32
ATOM     32  C   UNL A   1      42.844  24.760  28.112  1.00  0.00     0.031 A 
ATOM     33  C   UNL A   1      41.793  25.814  28.340  1.00  0.00     0.074 A 
ATOM     34  C   UNL A   1      44.143  25.039  28.333  1.00  0.00     0.049 A 
ATOM     35  N   UNL A   1      41.939  27.057  28.720  1.00  0.00    -0.248 NA
ATOM     36  C   UNL A   1      40.395  25.427  28.079  1.00  0.00     0.031 C 
ATOM     37  C   UNL A   1      45.260  24.116  28.115  1.00  0.00     0.029 A 
ATOM     38  N   UNL A   1      44.743  26.186  28.786  1.00  0.00    -0.354 N 
ATOM     39  C   UNL A   1      40.662  27.604  28.718  1.00  0.00     0.074 A 
ATOM     40  C   UNL A   1      39.759  26.576  28.250  1.00  0.00     0.031 C 
ATOM     41  C   UNL A   1      46.406  24.725  28.462  1.00  0.00     0.029 A 
ATOM     42  C   UNL A   1      46.110  26.090  28.884  1.00  0.00     0.049 A 
ATOM     43  H   UNL A   1      44.243  27.001  29.018  1.00  0.00     0.167 HD
ATOM     44  C   UNL A   1      40.270  28.844  29.093  1.00  0.00     0.031 A 
ATOM     45  C   UNL A   1      47.023  27.001  29.266  1.00  0.00     0.031 A 
ATOM     46  C   UNL A   1      41.162  29.859  29.582  1.00  0.00     0.049 A 
ATOM     47  C   UNL A   1      46.562  28.373  29.675  1.00  0.00     0.074 A 
ATOM     48  C   UNL A   1      40.857  31.129  30.039  1.00  0.00     0.029 A 
ATOM     49  N   UNL A   1      42.537  29.714  29.682  1.00  0.00    -0.354 N 
ATOM     50  N   UNL A   1      45.343  28.855  29.721  1.00  0.00    -0.248 NA
ATOM     51  C   UNL A   1      47.603  29.322  30.095  1.00  0.00     0.031 C 
ATOM     52  C   UNL A   1      42.055  31.769  30.376  1.00  0.00     0.029 A 
ATOM     53  C   UNL A   1      43.097  30.878  30.177  1.00  0.00     0.049 A 
ATOM     54  H   UNL A   1      43.040  28.904  29.436  1.00  0.00     0.167 HD
ATOM     55  C   UNL A   1      45.468  30.151  30.202  1.00  0.00     0.074 A 
ATOM     56  C   UNL A   1      46.878  30.375  30.448  1.00  0.00     0.031 C 
ATOM     57  C   UNL A   1      44.503  31.076  30.420  1.00  0.00     0.031 A 
BRANCH  44  58
ATOM     58  C   UNL A   1      38.806  29.169  28.991  1.00  0.00    -0.014 A 
ATOM     59  C   UNL A   1      37.947  29.009  30.092  1.00  0.00     0.009 A 
ATOM     60  C   UNL A   1      38.282  29.677  27.791  1.00  0.00     0.009 A 
ATOM     61  C   UNL A   1      36.590  29.317  29.982  1.00  0.00     0.001 A 
ATOM     62  C   UNL A   1      36.930  30.012  27.694  1.00  0.00     0.001 A 
ATOM     63  C   UNL A   1      36.084  29.824  28.785  1.00  0.00     0.000 A 
ENDBRANCH  44  58
BRANCH  45  64
ATOM     64  C   UNL A   1      48.467  26.649  29.297  1.00  0.00    -0.014 A 
ATOM     65  C   UNL A   1      49.294  26.946  28.201  1.00  0.00     0.009 A 
ATOM     66  C   UNL A   1      49.023  26.004  30.411  1.00  0.00     0.009 A 
ATOM     67  C   UNL A   1      50.640  26.576  28.210  1.00  0.00     0.001 A 
ATOM     68  C   UNL A   1      50.377  25.660  30.429  1.00  0.00     0.001 A 
ATOM     69  C   UNL A   1      51.181  25.936  29.324  1.00  0.00     0.000 A 
ENDBRANCH  45  64
BRANCH  57  70
ATOM     70  C   UNL A   1      44.934  32.397  30.990  1.00  0.00    -0.014 A 
ATOM     71  C   UNL A   1      45.021  32.600  32.375  1.00  0.00     0.009 A 
ATOM     72  C   UNL A   1      45.299  33.439  30.123  1.00  0.00     0.009 A 
ATOM     73  C   UNL A   1      45.435  33.833  32.882  1.00  0.00     0.001 A 
ATOM     74  C   UNL A   1      45.738  34.661  30.633  1.00  0.00     0.001 A 
ATOM     75  C   UNL A   1      45.797  34.860  32.011  1.00  0.00     0.000 A 
ENDBRANCH  57  70
ENDBRANCH  31  32
ENDBRANCH  23  26
ENDBRANCH  21  22
ENDBRANCH  20  21
ENDBRANCH   1  20
TORSDOF 13
ENDMDL
MODEL 3
REMARK VINA RESULT:      -9.2      3.828      7.158
REMARK SMILES C[C@H]([NH2+]C1C(C)(C)C1(C)C)[C@H](C)C(=O)NCCCNC(=O)c1ccc(-c2c3nc(c(-c4ccccc4)c4ccc([nH]4)c(-c4ccccc4)c4nc(c(-c5ccccc5)c5ccc2[nH]5)C=C4)C=C3)cc1
REMARK SMILES IDX 16 1 15 2 13 3 14 4 11 6 12 7 2 8 1 9 3 10 4 13 5 14 8 15
REMARK SMILES IDX 6 16 7 17 9 18 10 19 17 20 18 21 19 22 20 23 21 25 22 26
REMARK SMILES IDX 23 27 69 28 24 29 68 30 25 31 26 32 27 33 62 34 28 35 67 36
REMARK SMILES IDX 61 37 63 38 29 39 66 40 60 41 59 42 30 44 52 45 37 46 51 47
REMARK SMILES IDX 38 48 41 49 50 50 64 51 39 52 40 53 49 55 65 56 42 57 31 58
REMARK SMILES IDX 32 59 36 60 33 61 35 62 34 63 53 64 54 65 58 66 55 67 57 68
REMARK SMILES IDX 56 69 43 70 44 71 48 72 45 73 47 74 46 75
REMARK H PARENT 15 5 3 11 3 12 19 24 63 43 41 54
REMARK Flexibility Score: inf
ROOT
ATOM      1  C   UNL A   1      31.312  27.255  26.476  1.00  0.00     0.117 C 
ENDROOT
BRANCH   1   2
ATOM      2  N   UNL A   1      31.167  25.873  26.881  1.00  0.00    -0.356 N 
ATOM      3  C   UNL A   1      31.718  24.711  26.473  1.00  0.00     0.228 C 
ATOM      4  O   UNL A   1      31.402  23.728  27.162  1.00  0.00    -0.275 OA
ATOM      5  H   UNL A   1      30.524  25.754  27.618  1.00  0.00     0.163 HD
BRANCH   3   6
ATOM      6  C   UNL A   1      32.590  24.471  25.236  1.00  0.00     0.133 C 
ATOM      7  C   UNL A   1      34.057  24.721  25.612  1.00  0.00     0.024 C 
BRANCH   6   8
ATOM      8  C   UNL A   1      32.386  23.311  24.228  1.00  0.00     0.191 C 
ATOM      9  C   UNL A   1      31.132  23.569  23.369  1.00  0.00     0.076 C 
BRANCH   8  10
ATOM     10  N   UNL A   1      32.378  21.893  24.627  1.00  0.00    -0.340 N 
ATOM     11  H   UNL A   1      31.675  21.428  24.053  1.00  0.00     0.346 HD
ATOM     12  H   UNL A   1      32.207  21.930  25.632  1.00  0.00     0.346 HD
BRANCH  10  13
ATOM     13  C   UNL A   1      33.603  21.105  24.519  1.00  0.00     0.195 C 
ATOM     14  C   UNL A   1      34.518  20.947  25.728  1.00  0.00     0.028 C 
ATOM     15  C   UNL A   1      33.806  19.728  25.111  1.00  0.00     0.028 C 
ATOM     16  C   UNL A   1      36.007  21.125  25.506  1.00  0.00     0.018 C 
ATOM     17  C   UNL A   1      34.101  21.454  27.093  1.00  0.00     0.018 C 
ATOM     18  C   UNL A   1      32.696  19.038  25.866  1.00  0.00     0.018 C 
ATOM     19  C   UNL A   1      34.620  18.747  24.288  1.00  0.00     0.018 C 
ENDBRANCH  10  13
ENDBRANCH   8  10
ENDBRANCH   6   8
ENDBRANCH   3   6
ENDBRANCH   1   2
BRANCH   1  20
ATOM     20  C   UNL A   1      31.864  28.133  27.586  1.00  0.00     0.042 C 
BRANCH  20  21
ATOM     21  C   UNL A   1      33.276  28.626  27.319  1.00  0.00     0.118 C 
BRANCH  21  22
ATOM     22  N   UNL A   1      33.370  30.079  27.357  1.00  0.00    -0.352 N 
ATOM     23  C   UNL A   1      34.343  30.893  27.878  1.00  0.00     0.251 C 
ATOM     24  H   UNL A   1      32.613  30.553  26.942  1.00  0.00     0.163 HD
ATOM     25  O   UNL A   1      34.126  32.094  28.005  1.00  0.00    -0.269 OA
BRANCH  23  26
ATOM     26  C   UNL A   1      35.648  30.335  28.295  1.00  0.00     0.039 A 
ATOM     27  C   UNL A   1      36.713  30.357  27.389  1.00  0.00     0.014 A 
ATOM     28  C   UNL A   1      35.817  29.758  29.555  1.00  0.00     0.014 A 
ATOM     29  C   UNL A   1      37.956  29.849  27.768  1.00  0.00     0.010 A 
ATOM     30  C   UNL A   1      37.078  29.342  29.966  1.00  0.00     0.010 A 
ATOM     31  C   UNL A   1      38.157  29.366  29.071  1.00  0.00    -0.014 A 
BRANCH  31  32
ATOM     32  C   UNL A   1      39.475  28.845  29.512  1.00  0.00     0.031 A 
ATOM     33  C   UNL A   1      40.336  29.668  30.433  1.00  0.00     0.074 A 
ATOM     34  C   UNL A   1      39.925  27.669  29.034  1.00  0.00     0.049 A 
ATOM     35  N   UNL A   1      41.549  29.432  30.861  1.00  0.00    -0.248 NA
ATOM     36  C   UNL A   1      39.768  30.940  30.915  1.00  0.00     0.031 C 
ATOM     37  C   UNL A   1      39.203  26.796  28.107  1.00  0.00     0.029 A 
ATOM     38  N   UNL A   1      41.107  27.009  29.261  1.00  0.00    -0.354 N 
ATOM     39  C   UNL A   1      41.897  30.532  31.635  1.00  0.00     0.074 A 
ATOM     40  C   UNL A   1      40.789  31.459  31.579  1.00  0.00     0.031 C 
ATOM     41  C   UNL A   1      39.945  25.701  27.866  1.00  0.00     0.029 A 
ATOM     42  C   UNL A   1      41.208  25.816  28.586  1.00  0.00     0.049 A 
ATOM     43  H   UNL A   1      41.814  27.356  29.850  1.00  0.00     0.167 HD
ATOM     44  C   UNL A   1      43.027  30.743  32.350  1.00  0.00     0.031 A 
ATOM     45  C   UNL A   1      42.210  24.919  28.549  1.00  0.00     0.031 A 
ATOM     46  C   UNL A   1      44.118  29.811  32.427  1.00  0.00     0.049 A 
ATOM     47  C   UNL A   1      43.456  25.179  29.348  1.00  0.00     0.074 A 
ATOM     48  C   UNL A   1      45.284  29.907  33.166  1.00  0.00     0.029 A 
ATOM     49  N   UNL A   1      44.173  28.607  31.742  1.00  0.00    -0.354 N 
ATOM     50  N   UNL A   1      43.745  26.198  30.121  1.00  0.00    -0.248 NA
ATOM     51  C   UNL A   1      44.511  24.157  29.278  1.00  0.00     0.031 C 
ATOM     52  C   UNL A   1      46.065  28.778  32.895  1.00  0.00     0.029 A 
ATOM     53  C   UNL A   1      45.361  27.958  32.028  1.00  0.00     0.049 A 
ATOM     54  H   UNL A   1      43.472  28.265  31.141  1.00  0.00     0.167 HD
ATOM     55  C   UNL A   1      44.999  25.927  30.652  1.00  0.00     0.074 A 
ATOM     56  C   UNL A   1      45.409  24.642  30.126  1.00  0.00     0.031 C 
ATOM     57  C   UNL A   1      45.746  26.676  31.498  1.00  0.00     0.031 A 
BRANCH  44  58
ATOM     58  C   UNL A   1      43.137  32.036  33.109  1.00  0.00    -0.014 A 
ATOM     59  C   UNL A   1      43.698  33.180  32.517  1.00  0.00     0.009 A 
ATOM     60  C   UNL A   1      42.641  32.123  34.419  1.00  0.00     0.009 A 
ATOM     61  C   UNL A   1      43.791  34.374  33.235  1.00  0.00     0.001 A 
ATOM     62  C   UNL A   1      42.709  33.328  35.124  1.00  0.00     0.001 A 
ATOM     63  C   UNL A   1      43.292  34.449  34.535  1.00  0.00     0.000 A 
ENDBRANCH  44  58
BRANCH  45  64
ATOM     64  C   UNL A   1      42.077  23.680  27.737  1.00  0.00    -0.014 A 
ATOM     65  C   UNL A   1      42.538  23.647  26.411  1.00  0.00     0.009 A 
ATOM     66  C   UNL A   1      41.478  22.532  28.276  1.00  0.00     0.009 A 
ATOM     67  C   UNL A   1      42.373  22.500  25.633  1.00  0.00     0.001 A 
ATOM     68  C   UNL A   1      41.341  21.376  27.504  1.00  0.00     0.001 A 
ATOM     69  C   UNL A   1      41.778  21.365  26.180  1.00  0.00     0.000 A 
ENDBRANCH  45  64
BRANCH  57  70
ATOM     70  C   UNL A   1      47.063  26.103  31.939  1.00  0.00    -0.014 A 
ATOM     71  C   UNL A   1      47.176  25.366  33.127  1.00  0.00     0.009 A 
ATOM     72  C   UNL A   1      48.196  26.271  31.130  1.00  0.00     0.009 A 
ATOM     73  C   UNL A   1      48.407  24.835  33.512  1.00  0.00     0.001 A 
ATOM     74  C   UNL A   1      49.421  25.716  31.503  1.00  0.00     0.001 A 
ATOM     75  C   UNL A   1      49.527  25.006  32.699  1.00  0.00     0.000 A 
ENDBRANCH  57  70
ENDBRANCH  31  32
ENDBRANCH  23  26
ENDBRANCH  21  22
ENDBRANCH  20  21
ENDBRANCH   1  20
TORSDOF 13
ENDMDL
