MODEL 1
REMARK VINA RESULT:     -11.6      0.000      0.000
REMARK SMILES Cc1ccc(C(=O)N[C@@H]2C=C[C@H](C(=O)NCCCNC(=O)c3ccc(-c4c5nc(c(-c6ccccc6)c6ccc([nH]6)c(-c6ccccc6)c6nc(c(-c7ccccc7)c7ccc4[nH]7)C=C6)C=C5)cc3)C2)c(F)c1
REMARK SMILES IDX 17 1 16 2 15 3 13 4 14 5 12 7 9 8 10 9 70 10 11 11 8 12 6 13
REMARK SMILES IDX 7 14 5 16 1 17 2 18 3 19 73 20 4 21 71 22 72 23 18 24 19 25
REMARK SMILES IDX 20 26 21 28 22 29 23 30 69 31 24 32 68 33 25 34 26 35 27 36
REMARK SMILES IDX 62 37 28 38 67 39 61 40 63 41 29 42 66 43 60 44 59 45 30 47
REMARK SMILES IDX 52 48 37 49 51 50 38 51 41 52 50 53 64 54 39 55 40 56 49 58
REMARK SMILES IDX 65 59 42 60 31 61 32 62 36 63 33 64 35 65 34 66 53 67 54 68
REMARK SMILES IDX 58 69 55 70 57 71 56 72 43 73 44 74 48 75 45 76 47 77 46 78
REMARK H PARENT 15 6 8 15 19 27 63 46 41 57
REMARK Flexibility Score: inf
ROOT
ATOM      1  C   UNL A   1      37.738  19.983  24.927  1.00  0.00     0.042 C 
ENDROOT
BRANCH   1   2
ATOM      2  C   UNL A   1      36.941  21.130  24.318  1.00  0.00     0.117 C 
BRANCH   2   3
ATOM      3  N   UNL A   1      35.557  21.160  24.754  1.00  0.00    -0.356 N 
ATOM      4  C   UNL A   1      34.598  22.110  24.529  1.00  0.00     0.227 C 
ATOM      5  O   UNL A   1      33.444  21.852  24.870  1.00  0.00    -0.274 OA
ATOM      6  H   UNL A   1      35.266  20.387  25.289  1.00  0.00     0.163 HD
BRANCH   4   7
ATOM      7  C   UNL A   1      35.017  23.458  23.944  1.00  0.00     0.103 C 
ATOM      8  C   UNL A   1      33.967  25.446  24.987  1.00  0.00     0.106 C 
ATOM      9  C   UNL A   1      33.447  25.173  23.608  1.00  0.00    -0.006 C 
ATOM     10  C   UNL A   1      35.153  24.470  25.084  1.00  0.00     0.047 C 
ATOM     11  C   UNL A   1      33.996  24.088  23.055  1.00  0.00    -0.016 C 
BRANCH   8  12
ATOM     12  N   UNL A   1      32.851  25.292  25.907  1.00  0.00    -0.346 N 
ATOM     13  C   UNL A   1      31.845  26.137  26.309  1.00  0.00     0.254 C 
ATOM     14  O   UNL A   1      30.838  25.670  26.831  1.00  0.00    -0.269 OA
ATOM     15  H   UNL A   1      32.808  24.403  26.327  1.00  0.00     0.164 HD
BRANCH  13  16
ATOM     16  C   UNL A   1      32.006  27.597  26.215  1.00  0.00     0.075 A 
ATOM     17  C   UNL A   1      31.404  31.845  26.242  1.00  0.00     0.044 C 
ATOM     18  C   UNL A   1      31.714  30.379  26.188  1.00  0.00    -0.048 A 
ATOM     19  C   UNL A   1      32.398  29.749  27.238  1.00  0.00     0.004 A 
ATOM     20  C   UNL A   1      31.317  29.620  25.081  1.00  0.00     0.043 A 
ATOM     21  C   UNL A   1      32.568  28.360  27.242  1.00  0.00     0.017 A 
ATOM     22  C   UNL A   1      31.454  28.236  25.104  1.00  0.00     0.136 A 
ATOM     23  F   UNL A   1      30.971  27.539  24.066  1.00  0.00    -0.206 F 
ENDBRANCH  13  16
ENDBRANCH   8  12
ENDBRANCH   4   7
ENDBRANCH   2   3
ENDBRANCH   1   2
BRANCH   1  24
ATOM     24  C   UNL A   1      38.904  20.401  25.813  1.00  0.00     0.118 C 
BRANCH  24  25
ATOM     25  N   UNL A   1      39.982  19.424  25.847  1.00  0.00    -0.352 N 
ATOM     26  C   UNL A   1      41.322  19.583  26.107  1.00  0.00     0.251 C 
ATOM     27  H   UNL A   1      39.706  18.499  25.650  1.00  0.00     0.163 HD
ATOM     28  O   UNL A   1      42.093  18.648  25.922  1.00  0.00    -0.269 OA
BRANCH  26  29
ATOM     29  C   UNL A   1      41.847  20.883  26.584  1.00  0.00     0.039 A 
ATOM     30  C   UNL A   1      42.243  21.837  25.641  1.00  0.00     0.014 A 
ATOM     31  C   UNL A   1      41.970  21.159  27.947  1.00  0.00     0.014 A 
ATOM     32  C   UNL A   1      42.691  23.090  26.065  1.00  0.00     0.010 A 
ATOM     33  C   UNL A   1      42.332  22.436  28.367  1.00  0.00     0.010 A 
ATOM     34  C   UNL A   1      42.700  23.415  27.431  1.00  0.00    -0.014 A 
BRANCH  34  35
ATOM     35  C   UNL A   1      43.086  24.770  27.903  1.00  0.00     0.031 A 
ATOM     36  C   UNL A   1      42.031  25.804  28.188  1.00  0.00     0.074 A 
ATOM     37  C   UNL A   1      44.390  25.093  28.011  1.00  0.00     0.049 A 
ATOM     38  N   UNL A   1      42.176  27.058  28.540  1.00  0.00    -0.248 NA
ATOM     39  C   UNL A   1      40.629  25.384  28.033  1.00  0.00     0.031 C 
ATOM     40  C   UNL A   1      45.514  24.194  27.739  1.00  0.00     0.029 A 
ATOM     41  N   UNL A   1      44.991  26.273  28.375  1.00  0.00    -0.354 N 
ATOM     42  C   UNL A   1      40.890  27.577  28.626  1.00  0.00     0.074 A 
ATOM     43  C   UNL A   1      39.981  26.519  28.242  1.00  0.00     0.031 C 
ATOM     44  C   UNL A   1      46.665  24.844  27.976  1.00  0.00     0.029 A 
ATOM     45  C   UNL A   1      46.365  26.216  28.368  1.00  0.00     0.049 A 
ATOM     46  H   UNL A   1      44.487  27.083  28.617  1.00  0.00     0.167 HD
ATOM     47  C   UNL A   1      40.499  28.816  29.005  1.00  0.00     0.031 A 
ATOM     48  C   UNL A   1      47.281  27.166  28.638  1.00  0.00     0.031 A 
ATOM     49  C   UNL A   1      41.402  29.866  29.395  1.00  0.00     0.049 A 
ATOM     50  C   UNL A   1      46.821  28.544  29.025  1.00  0.00     0.074 A 
ATOM     51  C   UNL A   1      41.099  31.137  29.853  1.00  0.00     0.029 A 
ATOM     52  N   UNL A   1      42.784  29.770  29.366  1.00  0.00    -0.354 N 
ATOM     53  N   UNL A   1      45.599  28.998  29.168  1.00  0.00    -0.248 NA
ATOM     54  C   UNL A   1      47.869  29.539  29.297  1.00  0.00     0.031 C 
ATOM     55  C   UNL A   1      42.298  31.831  30.039  1.00  0.00     0.029 A 
ATOM     56  C   UNL A   1      43.348  30.969  29.767  1.00  0.00     0.049 A 
ATOM     57  H   UNL A   1      43.289  28.967  29.101  1.00  0.00     0.167 HD
ATOM     58  C   UNL A   1      45.732  30.318  29.581  1.00  0.00     0.074 A 
ATOM     59  C   UNL A   1      47.151  30.586  29.677  1.00  0.00     0.031 C 
ATOM     60  C   UNL A   1      44.763  31.224  29.860  1.00  0.00     0.031 A 
BRANCH  47  61
ATOM     61  C   UNL A   1      39.022  29.112  28.998  1.00  0.00    -0.014 A 
ATOM     62  C   UNL A   1      38.246  28.990  30.161  1.00  0.00     0.009 A 
ATOM     63  C   UNL A   1      38.407  29.556  27.818  1.00  0.00     0.009 A 
ATOM     64  C   UNL A   1      36.876  29.264  30.131  1.00  0.00     0.001 A 
ATOM     65  C   UNL A   1      37.045  29.862  27.798  1.00  0.00     0.001 A 
ATOM     66  C   UNL A   1      36.278  29.706  28.952  1.00  0.00     0.000 A 
ENDBRANCH  47  61
BRANCH  48  67
ATOM     67  C   UNL A   1      48.732  26.846  28.568  1.00  0.00    -0.014 A 
ATOM     68  C   UNL A   1      49.437  27.009  27.365  1.00  0.00     0.009 A 
ATOM     69  C   UNL A   1      49.418  26.366  29.695  1.00  0.00     0.009 A 
ATOM     70  C   UNL A   1      50.790  26.668  27.285  1.00  0.00     0.001 A 
ATOM     71  C   UNL A   1      50.778  26.056  29.620  1.00  0.00     0.001 A 
ATOM     72  C   UNL A   1      51.459  26.196  28.413  1.00  0.00     0.000 A 
ENDBRANCH  48  67
BRANCH  60  73
ATOM     73  C   UNL A   1      45.202  32.579  30.342  1.00  0.00    -0.014 A 
ATOM     74  C   UNL A   1      45.424  32.839  31.702  1.00  0.00     0.009 A 
ATOM     75  C   UNL A   1      45.442  33.600  29.408  1.00  0.00     0.009 A 
ATOM     76  C   UNL A   1      45.844  34.105  32.121  1.00  0.00     0.001 A 
ATOM     77  C   UNL A   1      45.894  34.852  29.824  1.00  0.00     0.001 A 
ATOM     78  C   UNL A   1      46.085  35.106  31.181  1.00  0.00     0.000 A 
ENDBRANCH  60  73
ENDBRANCH  34  35
ENDBRANCH  26  29
ENDBRANCH  24  25
ENDBRANCH   1  24
TORSDOF 12
ENDMDL
MODEL 2
REMARK VINA RESULT:     -11.5      0.814      6.045
REMARK SMILES Cc1ccc(C(=O)N[C@@H]2C=C[C@H](C(=O)NCCCNC(=O)c3ccc(-c4c5nc(c(-c6ccccc6)c6ccc([nH]6)c(-c6ccccc6)c6nc(c(-c7ccccc7)c7ccc4[nH]7)C=C6)C=C5)cc3)C2)c(F)c1
REMARK SMILES IDX 17 1 16 2 15 3 13 4 14 5 12 7 9 8 10 9 70 10 11 11 8 12 6 13
REMARK SMILES IDX 7 14 5 16 1 17 2 18 3 19 73 20 4 21 71 22 72 23 18 24 19 25
REMARK SMILES IDX 20 26 21 28 22 29 23 30 69 31 24 32 68 33 25 34 26 35 27 36
REMARK SMILES IDX 62 37 28 38 67 39 61 40 63 41 29 42 66 43 60 44 59 45 30 47
REMARK SMILES IDX 52 48 37 49 51 50 38 51 41 52 50 53 64 54 39 55 40 56 49 58
REMARK SMILES IDX 65 59 42 60 31 61 32 62 36 63 33 64 35 65 34 66 53 67 54 68
REMARK SMILES IDX 58 69 55 70 57 71 56 72 43 73 44 74 48 75 45 76 47 77 46 78
REMARK H PARENT 15 6 8 15 19 27 63 46 41 57
REMARK Flexibility Score: inf
ROOT
ATOM      1  C   UNL A   1      37.780  19.591  25.046  1.00  0.00     0.042 C 
ENDROOT
BRANCH   1   2
ATOM      2  C   UNL A   1      36.706  20.597  24.650  1.00  0.00     0.117 C 
BRANCH   2   3
ATOM      3  N   UNL A   1      35.919  21.068  25.774  1.00  0.00    -0.356 N 
ATOM      4  C   UNL A   1      35.176  22.211  25.895  1.00  0.00     0.227 C 
ATOM      5  O   UNL A   1      34.466  22.331  26.892  1.00  0.00    -0.274 OA
ATOM      6  H   UNL A   1      35.920  20.482  26.565  1.00  0.00     0.163 HD
BRANCH   4   7
ATOM      7  C   UNL A   1      35.324  23.302  24.834  1.00  0.00     0.103 C 
ATOM      8  C   UNL A   1      33.684  25.155  24.975  1.00  0.00     0.106 C 
ATOM      9  C   UNL A   1      33.438  24.252  23.804  1.00  0.00    -0.006 C 
ATOM     10  C   UNL A   1      35.050  24.661  25.482  1.00  0.00     0.047 C 
ATOM     11  C   UNL A   1      34.309  23.240  23.741  1.00  0.00    -0.016 C 
BRANCH   8  12
ATOM     12  N   UNL A   1      32.528  25.049  25.850  1.00  0.00    -0.346 N 
ATOM     13  C   UNL A   1      31.571  25.951  26.250  1.00  0.00     0.254 C 
ATOM     14  O   UNL A   1      30.515  25.540  26.720  1.00  0.00    -0.269 OA
ATOM     15  H   UNL A   1      32.406  24.151  26.234  1.00  0.00     0.164 HD
BRANCH  13  16
ATOM     16  C   UNL A   1      31.839  27.398  26.219  1.00  0.00     0.075 A 
ATOM     17  C   UNL A   1      31.542  31.674  26.385  1.00  0.00     0.044 C 
ATOM     18  C   UNL A   1      31.748  30.192  26.287  1.00  0.00    -0.048 A 
ATOM     19  C   UNL A   1      32.340  29.478  27.338  1.00  0.00     0.004 A 
ATOM     20  C   UNL A   1      31.346  29.504  25.137  1.00  0.00     0.043 A 
ATOM     21  C   UNL A   1      32.410  28.081  27.296  1.00  0.00     0.017 A 
ATOM     22  C   UNL A   1      31.382  28.113  25.113  1.00  0.00     0.136 A 
ATOM     23  F   UNL A   1      30.895  27.491  24.030  1.00  0.00    -0.206 F 
ENDBRANCH  13  16
ENDBRANCH   8  12
ENDBRANCH   4   7
ENDBRANCH   2   3
ENDBRANCH   1   2
BRANCH   1  24
ATOM     24  C   UNL A   1      38.978  20.178  25.782  1.00  0.00     0.118 C 
BRANCH  24  25
ATOM     25  N   UNL A   1      40.132  19.291  25.804  1.00  0.00    -0.352 N 
ATOM     26  C   UNL A   1      41.451  19.551  26.087  1.00  0.00     0.251 C 
ATOM     27  H   UNL A   1      39.935  18.353  25.577  1.00  0.00     0.163 HD
ATOM     28  O   UNL A   1      42.298  18.688  25.886  1.00  0.00    -0.269 OA
BRANCH  26  29
ATOM     29  C   UNL A   1      41.862  20.876  26.607  1.00  0.00     0.039 A 
ATOM     30  C   UNL A   1      42.314  21.843  25.704  1.00  0.00     0.014 A 
ATOM     31  C   UNL A   1      41.825  21.162  27.973  1.00  0.00     0.014 A 
ATOM     32  C   UNL A   1      42.657  23.117  26.164  1.00  0.00     0.010 A 
ATOM     33  C   UNL A   1      42.082  22.455  28.419  1.00  0.00     0.010 A 
ATOM     34  C   UNL A   1      42.503  23.447  27.520  1.00  0.00    -0.014 A 
BRANCH  34  35
ATOM     35  C   UNL A   1      42.775  24.820  28.020  1.00  0.00     0.031 A 
ATOM     36  C   UNL A   1      44.169  25.216  28.428  1.00  0.00     0.074 A 
ATOM     37  C   UNL A   1      41.758  25.690  28.172  1.00  0.00     0.049 A 
ATOM     38  N   UNL A   1      44.588  26.341  28.952  1.00  0.00    -0.248 NA
ATOM     39  C   UNL A   1      45.226  24.208  28.249  1.00  0.00     0.031 C 
ATOM     40  C   UNL A   1      40.356  25.424  27.840  1.00  0.00     0.029 A 
ATOM     41  N   UNL A   1      41.746  26.976  28.650  1.00  0.00    -0.354 N 
ATOM     42  C   UNL A   1      45.947  26.167  29.183  1.00  0.00     0.074 A 
ATOM     43  C   UNL A   1      46.272  24.813  28.790  1.00  0.00     0.031 C 
ATOM     44  C   UNL A   1      39.628  26.523  28.095  1.00  0.00     0.029 A 
ATOM     45  C   UNL A   1      40.498  27.552  28.652  1.00  0.00     0.049 A 
ATOM     46  H   UNL A   1      42.555  27.443  28.962  1.00  0.00     0.167 HD
ATOM     47  C   UNL A   1      46.847  27.057  29.664  1.00  0.00     0.031 A 
ATOM     48  C   UNL A   1      40.096  28.771  29.065  1.00  0.00     0.031 A 
ATOM     49  C   UNL A   1      46.526  28.406  30.047  1.00  0.00     0.049 A 
ATOM     50  C   UNL A   1      41.111  29.729  29.625  1.00  0.00     0.074 A 
ATOM     51  C   UNL A   1      47.379  29.403  30.488  1.00  0.00     0.029 A 
ATOM     52  N   UNL A   1      45.249  28.946  30.041  1.00  0.00    -0.354 N 
ATOM     53  N   UNL A   1      42.403  29.571  29.773  1.00  0.00    -0.248 NA
ATOM     54  C   UNL A   1      40.608  31.037  30.068  1.00  0.00     0.031 C 
ATOM     55  C   UNL A   1      46.610  30.524  30.811  1.00  0.00     0.029 A 
ATOM     56  C   UNL A   1      45.287  30.251  30.502  1.00  0.00     0.049 A 
ATOM     57  H   UNL A   1      44.436  28.472  29.751  1.00  0.00     0.167 HD
ATOM     58  C   UNL A   1      42.874  30.772  30.290  1.00  0.00     0.074 A 
ATOM     59  C   UNL A   1      41.730  31.650  30.419  1.00  0.00     0.031 C 
ATOM     60  C   UNL A   1      44.142  31.116  30.625  1.00  0.00     0.031 A 
BRANCH  47  61
ATOM     61  C   UNL A   1      48.270  26.591  29.821  1.00  0.00    -0.014 A 
ATOM     62  C   UNL A   1      49.218  26.777  28.803  1.00  0.00     0.009 A 
ATOM     63  C   UNL A   1      48.677  25.990  31.022  1.00  0.00     0.009 A 
ATOM     64  C   UNL A   1      50.532  26.332  28.968  1.00  0.00     0.001 A 
ATOM     65  C   UNL A   1      49.998  25.576  31.198  1.00  0.00     0.001 A 
ATOM     66  C   UNL A   1      50.922  25.738  30.167  1.00  0.00     0.000 A 
ENDBRANCH  47  61
BRANCH  48  67
ATOM     67  C   UNL A   1      38.667  29.164  28.952  1.00  0.00    -0.014 A 
ATOM     68  C   UNL A   1      38.163  29.670  27.743  1.00  0.00     0.009 A 
ATOM     69  C   UNL A   1      37.801  29.050  30.051  1.00  0.00     0.009 A 
ATOM     70  C   UNL A   1      36.831  30.081  27.648  1.00  0.00     0.001 A 
ATOM     71  C   UNL A   1      36.462  29.433  29.943  1.00  0.00     0.001 A 
ATOM     72  C   UNL A   1      35.981  29.958  28.745  1.00  0.00     0.000 A 
ENDBRANCH  48  67
BRANCH  60  73
ATOM     73  C   UNL A   1      44.370  32.518  31.118  1.00  0.00    -0.014 A 
ATOM     74  C   UNL A   1      44.772  33.546  30.252  1.00  0.00     0.009 A 
ATOM     75  C   UNL A   1      44.133  32.821  32.469  1.00  0.00     0.009 A 
ATOM     76  C   UNL A   1      44.965  34.842  30.737  1.00  0.00     0.001 A 
ATOM     77  C   UNL A   1      44.292  34.124  32.943  1.00  0.00     0.001 A 
ATOM     78  C   UNL A   1      44.718  35.130  32.079  1.00  0.00     0.000 A 
ENDBRANCH  60  73
ENDBRANCH  34  35
ENDBRANCH  26  29
ENDBRANCH  24  25
ENDBRANCH   1  24
TORSDOF 12
ENDMDL
MODEL 3
REMARK VINA RESULT:     -11.5      1.267      1.799
REMARK SMILES Cc1ccc(C(=O)N[C@@H]2C=C[C@H](C(=O)NCCCNC(=O)c3ccc(-c4c5nc(c(-c6ccccc6)c6ccc([nH]6)c(-c6ccccc6)c6nc(c(-c7ccccc7)c7ccc4[nH]7)C=C6)C=C5)cc3)C2)c(F)c1
REMARK SMILES IDX 17 1 16 2 15 3 13 4 14 5 12 7 9 8 10 9 70 10 11 11 8 12 6 13
REMARK SMILES IDX 7 14 5 16 1 17 2 18 3 19 73 20 4 21 71 22 72 23 18 24 19 25
REMARK SMILES IDX 20 26 21 28 22 29 23 30 69 31 24 32 68 33 25 34 26 35 27 36
REMARK SMILES IDX 62 37 28 38 67 39 61 40 63 41 29 42 66 43 60 44 59 45 30 47
REMARK SMILES IDX 52 48 37 49 51 50 38 51 41 52 50 53 64 54 39 55 40 56 49 58
REMARK SMILES IDX 65 59 42 60 31 61 32 62 36 63 33 64 35 65 34 66 53 67 54 68
REMARK SMILES IDX 58 69 55 70 57 71 56 72 43 73 44 74 48 75 45 76 47 77 46 78
REMARK H PARENT 15 6 8 15 19 27 63 46 41 57
REMARK Flexibility Score: inf
ROOT
ATOM      1  C   UNL A   1      37.765  19.793  24.990  1.00  0.00     0.042 C 
ENDROOT
BRANCH   1   2
ATOM      2  C   UNL A   1      36.666  20.840  24.855  1.00  0.00     0.117 C 
BRANCH   2   3
ATOM      3  N   UNL A   1      35.424  20.453  25.497  1.00  0.00    -0.356 N 
ATOM      4  C   UNL A   1      34.134  20.653  25.084  1.00  0.00     0.227 C 
ATOM      5  O   UNL A   1      33.236  20.101  25.719  1.00  0.00    -0.274 OA
ATOM      6  H   UNL A   1      35.522  19.977  26.353  1.00  0.00     0.163 HD
BRANCH   4   7
ATOM      7  C   UNL A   1      33.873  21.604  23.917  1.00  0.00     0.103 C 
ATOM      8  C   UNL A   1      32.457  23.570  24.439  1.00  0.00     0.106 C 
ATOM      9  C   UNL A   1      31.753  22.560  23.585  1.00  0.00    -0.006 C 
ATOM     10  C   UNL A   1      33.903  23.043  24.436  1.00  0.00     0.047 C 
ATOM     11  C   UNL A   1      32.508  21.489  23.323  1.00  0.00    -0.016 C 
BRANCH   8  12
ATOM     12  N   UNL A   1      31.738  23.645  25.700  1.00  0.00    -0.346 N 
ATOM     13  C   UNL A   1      30.702  24.431  26.142  1.00  0.00     0.254 C 
ATOM     14  O   UNL A   1      30.052  24.078  27.121  1.00  0.00    -0.269 OA
ATOM     15  H   UNL A   1      32.059  23.003  26.374  1.00  0.00     0.164 HD
BRANCH  13  16
ATOM     16  C   UNL A   1      30.429  25.738  25.521  1.00  0.00     0.075 A 
ATOM     17  C   UNL A   1      30.525  29.279  23.101  1.00  0.00     0.044 C 
ATOM     18  C   UNL A   1      30.413  28.089  24.007  1.00  0.00    -0.048 A 
ATOM     19  C   UNL A   1      29.477  27.077  23.751  1.00  0.00     0.004 A 
ATOM     20  C   UNL A   1      31.250  27.978  25.122  1.00  0.00     0.043 A 
ATOM     21  C   UNL A   1      29.465  25.910  24.523  1.00  0.00     0.017 A 
ATOM     22  C   UNL A   1      31.263  26.801  25.865  1.00  0.00     0.136 A 
ATOM     23  F   UNL A   1      32.149  26.699  26.865  1.00  0.00    -0.206 F 
ENDBRANCH  13  16
ENDBRANCH   8  12
ENDBRANCH   4   7
ENDBRANCH   2   3
ENDBRANCH   1   2
BRANCH   1  24
ATOM     24  C   UNL A   1      38.995  20.241  25.769  1.00  0.00     0.118 C 
BRANCH  24  25
ATOM     25  N   UNL A   1      40.026  19.217  25.855  1.00  0.00    -0.352 N 
ATOM     26  C   UNL A   1      41.374  19.327  26.099  1.00  0.00     0.251 C 
ATOM     27  H   UNL A   1      39.705  18.296  25.715  1.00  0.00     0.163 HD
ATOM     28  O   UNL A   1      42.098  18.347  25.966  1.00  0.00    -0.269 OA
BRANCH  26  29
ATOM     29  C   UNL A   1      41.963  20.627  26.495  1.00  0.00     0.039 A 
ATOM     30  C   UNL A   1      42.357  21.521  25.495  1.00  0.00     0.014 A 
ATOM     31  C   UNL A   1      42.148  20.960  27.838  1.00  0.00     0.014 A 
ATOM     32  C   UNL A   1      42.866  22.774  25.843  1.00  0.00     0.010 A 
ATOM     33  C   UNL A   1      42.572  22.240  28.184  1.00  0.00     0.010 A 
ATOM     34  C   UNL A   1      42.938  23.161  27.190  1.00  0.00    -0.014 A 
BRANCH  34  35
ATOM     35  C   UNL A   1      43.392  24.520  27.584  1.00  0.00     0.031 A 
ATOM     36  C   UNL A   1      42.388  25.570  27.979  1.00  0.00     0.074 A 
ATOM     37  C   UNL A   1      44.701  24.833  27.521  1.00  0.00     0.049 A 
ATOM     38  N   UNL A   1      42.585  26.828  28.285  1.00  0.00    -0.248 NA
ATOM     39  C   UNL A   1      40.975  25.160  28.009  1.00  0.00     0.031 C 
ATOM     40  C   UNL A   1      45.775  23.918  27.128  1.00  0.00     0.029 A 
ATOM     41  N   UNL A   1      45.352  26.012  27.783  1.00  0.00    -0.354 N 
ATOM     42  C   UNL A   1      41.324  27.361  28.522  1.00  0.00     0.074 A 
ATOM     43  C   UNL A   1      40.366  26.306  28.276  1.00  0.00     0.031 C 
ATOM     44  C   UNL A   1      46.951  24.560  27.206  1.00  0.00     0.029 A 
ATOM     45  C   UNL A   1      46.713  25.942  27.606  1.00  0.00     0.049 A 
ATOM     46  H   UNL A   1      44.888  26.832  28.072  1.00  0.00     0.167 HD
ATOM     47  C   UNL A   1      40.993  28.611  28.923  1.00  0.00     0.031 A 
ATOM     48  C   UNL A   1      47.664  26.888  27.740  1.00  0.00     0.031 A 
ATOM     49  C   UNL A   1      41.946  29.659  29.177  1.00  0.00     0.049 A 
ATOM     50  C   UNL A   1      47.265  28.277  28.155  1.00  0.00     0.074 A 
ATOM     51  C   UNL A   1      41.713  30.941  29.645  1.00  0.00     0.029 A 
ATOM     52  N   UNL A   1      43.313  29.549  28.976  1.00  0.00    -0.354 N 
ATOM     53  N   UNL A   1      46.075  28.745  28.442  1.00  0.00    -0.248 NA
ATOM     54  C   UNL A   1      48.347  29.266  28.274  1.00  0.00     0.031 C 
ATOM     55  C   UNL A   1      42.931  31.626  29.665  1.00  0.00     0.029 A 
ATOM     56  C   UNL A   1      43.932  30.749  29.280  1.00  0.00     0.049 A 
ATOM     57  H   UNL A   1      43.775  28.736  28.666  1.00  0.00     0.167 HD
ATOM     58  C   UNL A   1      46.268  30.071  28.809  1.00  0.00     0.074 A 
ATOM     59  C   UNL A   1      47.690  30.328  28.721  1.00  0.00     0.031 C 
ATOM     60  C   UNL A   1      45.349  30.992  29.190  1.00  0.00     0.031 A 
BRANCH  47  61
ATOM     61  C   UNL A   1      39.530  28.921  29.096  1.00  0.00    -0.014 A 
ATOM     62  C   UNL A   1      38.755  29.414  28.034  1.00  0.00     0.009 A 
ATOM     63  C   UNL A   1      38.908  28.680  30.331  1.00  0.00     0.009 A 
ATOM     64  C   UNL A   1      37.400  29.699  28.218  1.00  0.00     0.001 A 
ATOM     65  C   UNL A   1      37.547  28.934  30.503  1.00  0.00     0.001 A 
ATOM     66  C   UNL A   1      36.796  29.454  29.450  1.00  0.00     0.000 A 
ENDBRANCH  47  61
BRANCH  48  67
ATOM     67  C   UNL A   1      49.091  26.553  27.494  1.00  0.00    -0.014 A 
ATOM     68  C   UNL A   1      49.627  26.635  26.200  1.00  0.00     0.009 A 
ATOM     69  C   UNL A   1      49.923  26.137  28.546  1.00  0.00     0.009 A 
ATOM     70  C   UNL A   1      50.957  26.278  25.959  1.00  0.00     0.001 A 
ATOM     71  C   UNL A   1      51.261  25.812  28.307  1.00  0.00     0.001 A 
ATOM     72  C   UNL A   1      51.773  25.872  27.013  1.00  0.00     0.000 A 
ENDBRANCH  48  67
BRANCH  60  73
ATOM     73  C   UNL A   1      45.856  32.352  29.587  1.00  0.00    -0.014 A 
ATOM     74  C   UNL A   1      45.951  33.399  28.659  1.00  0.00     0.009 A 
ATOM     75  C   UNL A   1      46.199  32.596  30.926  1.00  0.00     0.009 A 
ATOM     76  C   UNL A   1      46.414  34.656  29.058  1.00  0.00     0.001 A 
ATOM     77  C   UNL A   1      46.628  33.861  31.330  1.00  0.00     0.001 A 
ATOM     78  C   UNL A   1      46.745  34.886  30.393  1.00  0.00     0.000 A 
ENDBRANCH  60  73
ENDBRANCH  34  35
ENDBRANCH  26  29
ENDBRANCH  24  25
ENDBRANCH   1  24
TORSDOF 12
ENDMDL
