MODEL 1
REMARK VINA RESULT:     -12.4      0.000      0.000
REMARK SMILES Cc1nc(-c2ccccc2)sc1C(=O)N[C@@H](CC1=c2ccccc2=NC1)C(=O)NCCCNC(=O)c1ccc(-c2c3nc(c(-c4ccccc4)c4ccc([nH]4)c(-c4ccccc4)c4nc(c(-c5ccccc5)c5ccc2[nH]5)C=C4)C=C3)cc1
REMARK SMILES IDX 30 1 29 2 27 3 28 4 16 6 15 7 13 8 14 9 12 11 1 12 2 13 3 14
REMARK SMILES IDX 4 15 11 16 5 17 6 18 10 19 7 20 9 21 8 22 17 23 18 24 19 25
REMARK SMILES IDX 26 26 20 27 24 28 25 29 21 30 23 31 22 32 31 33 32 34 33 35
REMARK SMILES IDX 34 36 35 38 36 39 37 40 83 41 38 42 82 43 39 44 40 45 41 46
REMARK SMILES IDX 76 47 42 48 81 49 75 50 77 51 43 52 80 53 74 54 73 55 44 57
REMARK SMILES IDX 66 58 51 59 65 60 52 61 55 62 64 63 78 64 53 65 54 66 63 68
REMARK SMILES IDX 79 69 56 70 45 71 46 72 50 73 47 74 49 75 48 76 67 77 68 78
REMARK SMILES IDX 72 79 69 80 71 81 70 82 57 83 58 84 62 85 59 86 61 87 60 88
REMARK H PARENT 29 5 15 10 33 37 77 56 55 67
REMARK Flexibility Score: inf
ROOT
ATOM      1  C   UNL A   1      32.580  27.459  25.390  1.00  0.00     0.117 C 
ENDROOT
BRANCH   1   2
ATOM      2  N   UNL A   1      31.530  26.919  26.209  1.00  0.00    -0.354 N 
ATOM      3  C   UNL A   1      30.467  26.169  25.821  1.00  0.00     0.242 C 
ATOM      4  O   UNL A   1      29.861  25.557  26.707  1.00  0.00    -0.273 OA
ATOM      5  H   UNL A   1      31.588  27.118  27.171  1.00  0.00     0.163 HD
BRANCH   3   6
ATOM      6  C   UNL A   1      30.024  26.039  24.347  1.00  0.00     0.175 C 
BRANCH   6   7
ATOM      7  N   UNL A   1      29.956  24.678  23.852  1.00  0.00    -0.339 N 
ATOM      8  C   UNL A   1      30.897  23.810  23.366  1.00  0.00     0.263 C 
ATOM      9  O   UNL A   1      30.382  22.761  22.955  1.00  0.00    -0.268 OA
ATOM     10  H   UNL A   1      29.047  24.302  23.867  1.00  0.00     0.164 HD
BRANCH   8  11
ATOM     11  C   UNL A   1      32.344  24.037  23.334  1.00  0.00     0.115 A 
ATOM     12  C   UNL A   1      33.186  25.962  21.698  1.00  0.00     0.068 C 
ATOM     13  C   UNL A   1      33.272  24.884  22.718  1.00  0.00     0.062 A 
ATOM     14  N   UNL A   1      34.580  24.710  23.127  1.00  0.00    -0.241 NA
ATOM     15  C   UNL A   1      34.704  23.712  23.958  1.00  0.00     0.124 A 
ATOM     16  S   UNL A   1      33.261  22.922  24.351  1.00  0.00    -0.108 S 
BRANCH  15  17
ATOM     17  C   UNL A   1      36.001  23.340  24.499  1.00  0.00     0.010 A 
ATOM     18  C   UNL A   1      36.549  22.106  24.119  1.00  0.00     0.011 A 
ATOM     19  C   UNL A   1      36.600  24.074  25.528  1.00  0.00     0.011 A 
ATOM     20  C   UNL A   1      37.668  21.598  24.774  1.00  0.00     0.001 A 
ATOM     21  C   UNL A   1      37.716  23.559  26.189  1.00  0.00     0.001 A 
ATOM     22  C   UNL A   1      38.242  22.320  25.819  1.00  0.00     0.000 A 
ENDBRANCH  15  17
ENDBRANCH   8  11
ENDBRANCH   6   7
BRANCH   6  23
ATOM     23  C   UNL A   1      28.849  26.934  23.865  1.00  0.00     0.068 C 
BRANCH  23  24
ATOM     24  C   UNL A   1      29.147  28.142  23.029  1.00  0.00    -0.037 C 
ATOM     25  C   UNL A   1      28.515  29.317  22.974  1.00  0.00     0.001 A 
ATOM     26  C   UNL A   1      30.374  28.172  22.160  1.00  0.00     0.174 C 
ATOM     27  C   UNL A   1      27.344  29.871  23.574  1.00  0.00     0.010 A 
ATOM     28  C   UNL A   1      29.504  30.171  22.288  1.00  0.00     0.065 A 
ATOM     29  N   UNL A   1      30.554  29.595  21.791  1.00  0.00    -0.280 NA
ATOM     30  C   UNL A   1      27.198  31.205  23.599  1.00  0.00     0.001 A 
ATOM     31  C   UNL A   1      29.272  31.631  22.355  1.00  0.00     0.028 A 
ATOM     32  C   UNL A   1      28.194  32.088  23.015  1.00  0.00     0.002 A 
ENDBRANCH  23  24
ENDBRANCH   6  23
ENDBRANCH   3   6
ENDBRANCH   1   2
BRANCH   1  33
ATOM     33  C   UNL A   1      33.057  28.828  25.792  1.00  0.00     0.042 C 
BRANCH  33  34
ATOM     34  C   UNL A   1      33.765  28.842  27.128  1.00  0.00     0.118 C 
BRANCH  34  35
ATOM     35  N   UNL A   1      33.821  30.163  27.746  1.00  0.00    -0.352 N 
ATOM     36  C   UNL A   1      34.828  30.788  28.447  1.00  0.00     0.251 C 
ATOM     37  H   UNL A   1      33.000  30.696  27.646  1.00  0.00     0.163 HD
ATOM     38  O   UNL A   1      34.624  31.853  29.004  1.00  0.00    -0.269 OA
BRANCH  36  39
ATOM     39  C   UNL A   1      36.150  30.137  28.555  1.00  0.00     0.039 A 
ATOM     40  C   UNL A   1      37.051  30.246  27.495  1.00  0.00     0.014 A 
ATOM     41  C   UNL A   1      36.514  29.464  29.718  1.00  0.00     0.014 A 
ATOM     42  C   UNL A   1      38.349  29.759  27.650  1.00  0.00     0.010 A 
ATOM     43  C   UNL A   1      37.843  29.135  29.932  1.00  0.00     0.010 A 
ATOM     44  C   UNL A   1      38.771  29.253  28.891  1.00  0.00    -0.014 A 
BRANCH  44  45
ATOM     45  C   UNL A   1      40.171  28.825  29.117  1.00  0.00     0.031 A 
ATOM     46  C   UNL A   1      40.616  27.449  28.693  1.00  0.00     0.074 A 
ATOM     47  C   UNL A   1      41.023  29.653  29.752  1.00  0.00     0.049 A 
ATOM     48  N   UNL A   1      41.795  26.893  28.810  1.00  0.00    -0.248 NA
ATOM     49  C   UNL A   1      39.598  26.566  28.098  1.00  0.00     0.031 C 
ATOM     50  C   UNL A   1      40.686  30.977  30.284  1.00  0.00     0.029 A 
ATOM     51  N   UNL A   1      42.353  29.506  30.051  1.00  0.00    -0.354 N 
ATOM     52  C   UNL A   1      41.648  25.599  28.327  1.00  0.00     0.074 A 
ATOM     53  C   UNL A   1      40.255  25.423  27.990  1.00  0.00     0.031 C 
ATOM     54  C   UNL A   1      41.795  31.546  30.783  1.00  0.00     0.029 A 
ATOM     55  C   UNL A   1      42.907  30.613  30.647  1.00  0.00     0.049 A 
ATOM     56  H   UNL A   1      42.863  28.686  29.856  1.00  0.00     0.167 HD
ATOM     57  C   UNL A   1      42.594  24.649  28.143  1.00  0.00     0.031 A 
ATOM     58  C   UNL A   1      44.176  30.853  31.027  1.00  0.00     0.031 A 
ATOM     59  C   UNL A   1      43.984  24.838  28.454  1.00  0.00     0.049 A 
ATOM     60  C   UNL A   1      45.214  29.796  30.786  1.00  0.00     0.074 A 
ATOM     61  C   UNL A   1      45.041  23.971  28.242  1.00  0.00     0.029 A 
ATOM     62  N   UNL A   1      44.509  25.978  29.043  1.00  0.00    -0.354 N 
ATOM     63  N   UNL A   1      45.076  28.608  30.245  1.00  0.00    -0.248 NA
ATOM     64  C   UNL A   1      46.587  30.118  31.197  1.00  0.00     0.031 C 
ATOM     65  C   UNL A   1      46.200  24.568  28.752  1.00  0.00     0.029 A 
ATOM     66  C   UNL A   1      45.872  25.830  29.225  1.00  0.00     0.049 A 
ATOM     67  H   UNL A   1      43.988  26.774  29.293  1.00  0.00     0.167 HD
ATOM     68  C   UNL A   1      46.347  28.049  30.232  1.00  0.00     0.074 A 
ATOM     69  C   UNL A   1      47.244  29.040  30.792  1.00  0.00     0.031 C 
ATOM     70  C   UNL A   1      46.739  26.825  29.801  1.00  0.00     0.031 A 
BRANCH  57  71
ATOM     71  C   UNL A   1      42.147  23.329  27.574  1.00  0.00    -0.014 A 
ATOM     72  C   UNL A   1      42.310  23.031  26.211  1.00  0.00     0.009 A 
ATOM     73  C   UNL A   1      41.564  22.368  28.413  1.00  0.00     0.009 A 
ATOM     74  C   UNL A   1      41.857  21.815  25.692  1.00  0.00     0.001 A 
ATOM     75  C   UNL A   1      41.144  21.140  27.898  1.00  0.00     0.001 A 
ATOM     76  C   UNL A   1      41.279  20.869  26.537  1.00  0.00     0.000 A 
ENDBRANCH  57  71
BRANCH  58  77
ATOM     77  C   UNL A   1      44.539  32.162  31.632  1.00  0.00    -0.014 A 
ATOM     78  C   UNL A   1      44.933  33.236  30.819  1.00  0.00     0.009 A 
ATOM     79  C   UNL A   1      44.490  32.346  33.022  1.00  0.00     0.009 A 
ATOM     80  C   UNL A   1      45.300  34.458  31.389  1.00  0.00     0.001 A 
ATOM     81  C   UNL A   1      44.827  33.578  33.587  1.00  0.00     0.001 A 
ATOM     82  C   UNL A   1      45.242  34.630  32.770  1.00  0.00     0.000 A 
ENDBRANCH  58  77
BRANCH  70  83
ATOM     83  C   UNL A   1      48.202  26.506  29.909  1.00  0.00    -0.014 A 
ATOM     84  C   UNL A   1      49.103  26.874  28.898  1.00  0.00     0.009 A 
ATOM     85  C   UNL A   1      48.687  25.845  31.048  1.00  0.00     0.009 A 
ATOM     86  C   UNL A   1      50.455  26.543  29.004  1.00  0.00     0.001 A 
ATOM     87  C   UNL A   1      50.046  25.546  31.168  1.00  0.00     0.001 A 
ATOM     88  C   UNL A   1      50.924  25.883  30.140  1.00  0.00     0.000 A 
ENDBRANCH  70  83
ENDBRANCH  44  45
ENDBRANCH  36  39
ENDBRANCH  34  35
ENDBRANCH  33  34
ENDBRANCH   1  33
TORSDOF 15
ENDMDL
MODEL 2
REMARK VINA RESULT:     -12.4      2.853      6.020
REMARK SMILES Cc1nc(-c2ccccc2)sc1C(=O)N[C@@H](CC1=c2ccccc2=NC1)C(=O)NCCCNC(=O)c1ccc(-c2c3nc(c(-c4ccccc4)c4ccc([nH]4)c(-c4ccccc4)c4nc(c(-c5ccccc5)c5ccc2[nH]5)C=C4)C=C3)cc1
REMARK SMILES IDX 30 1 29 2 27 3 28 4 16 6 15 7 13 8 14 9 12 11 1 12 2 13 3 14
REMARK SMILES IDX 4 15 11 16 5 17 6 18 10 19 7 20 9 21 8 22 17 23 18 24 19 25
REMARK SMILES IDX 26 26 20 27 24 28 25 29 21 30 23 31 22 32 31 33 32 34 33 35
REMARK SMILES IDX 34 36 35 38 36 39 37 40 83 41 38 42 82 43 39 44 40 45 41 46
REMARK SMILES IDX 76 47 42 48 81 49 75 50 77 51 43 52 80 53 74 54 73 55 44 57
REMARK SMILES IDX 66 58 51 59 65 60 52 61 55 62 64 63 78 64 53 65 54 66 63 68
REMARK SMILES IDX 79 69 56 70 45 71 46 72 50 73 47 74 49 75 48 76 67 77 68 78
REMARK SMILES IDX 72 79 69 80 71 81 70 82 57 83 58 84 62 85 59 86 61 87 60 88
REMARK H PARENT 29 5 15 10 33 37 77 56 55 67
REMARK Flexibility Score: inf
ROOT
ATOM      1  C   UNL A   1      32.108  27.427  26.167  1.00  0.00     0.117 C 
ENDROOT
BRANCH   1   2
ATOM      2  N   UNL A   1      31.109  26.561  26.729  1.00  0.00    -0.354 N 
ATOM      3  C   UNL A   1      30.319  25.664  26.085  1.00  0.00     0.242 C 
ATOM      4  O   UNL A   1      29.754  24.816  26.781  1.00  0.00    -0.273 OA
ATOM      5  H   UNL A   1      30.979  26.627  27.703  1.00  0.00     0.163 HD
BRANCH   3   6
ATOM      6  C   UNL A   1      30.135  25.657  24.552  1.00  0.00     0.175 C 
BRANCH   6   7
ATOM      7  N   UNL A   1      30.273  24.354  23.930  1.00  0.00    -0.339 N 
ATOM      8  C   UNL A   1      31.357  23.595  23.577  1.00  0.00     0.263 C 
ATOM      9  O   UNL A   1      31.018  22.569  22.972  1.00  0.00    -0.268 OA
ATOM     10  H   UNL A   1      29.412  23.929  23.719  1.00  0.00     0.164 HD
BRANCH   8  11
ATOM     11  C   UNL A   1      32.758  23.905  23.871  1.00  0.00     0.115 A 
ATOM     12  C   UNL A   1      33.579  26.349  23.208  1.00  0.00     0.068 C 
ATOM     13  C   UNL A   1      33.654  24.974  23.768  1.00  0.00     0.062 A 
ATOM     14  N   UNL A   1      34.907  24.738  24.299  1.00  0.00    -0.241 NA
ATOM     15  C   UNL A   1      35.036  23.510  24.721  1.00  0.00     0.124 A 
ATOM     16  S   UNL A   1      33.656  22.545  24.554  1.00  0.00    -0.108 S 
BRANCH  15  17
ATOM     17  C   UNL A   1      36.284  23.039  25.300  1.00  0.00     0.010 A 
ATOM     18  C   UNL A   1      37.074  23.956  26.008  1.00  0.00     0.011 A 
ATOM     19  C   UNL A   1      36.799  21.776  24.994  1.00  0.00     0.011 A 
ATOM     20  C   UNL A   1      38.373  23.626  26.386  1.00  0.00     0.001 A 
ATOM     21  C   UNL A   1      38.105  21.450  25.366  1.00  0.00     0.001 A 
ATOM     22  C   UNL A   1      38.891  22.377  26.051  1.00  0.00     0.000 A 
ENDBRANCH  15  17
ENDBRANCH   8  11
ENDBRANCH   6   7
BRANCH   6  23
ATOM     23  C   UNL A   1      28.977  26.507  23.959  1.00  0.00     0.068 C 
BRANCH  23  24
ATOM     24  C   UNL A   1      29.306  27.706  23.122  1.00  0.00    -0.037 C 
ATOM     25  C   UNL A   1      28.647  28.860  22.991  1.00  0.00     0.001 A 
ATOM     26  C   UNL A   1      30.596  27.756  22.352  1.00  0.00     0.174 C 
ATOM     27  C   UNL A   1      27.418  29.391  23.485  1.00  0.00     0.010 A 
ATOM     28  C   UNL A   1      29.663  29.729  22.366  1.00  0.00     0.065 A 
ATOM     29  N   UNL A   1      30.765  29.175  21.965  1.00  0.00    -0.280 NA
ATOM     30  C   UNL A   1      27.232  30.720  23.467  1.00  0.00     0.001 A 
ATOM     31  C   UNL A   1      29.386  31.183  22.380  1.00  0.00     0.028 A 
ATOM     32  C   UNL A   1      28.246  31.621  22.943  1.00  0.00     0.002 A 
ENDBRANCH  23  24
ENDBRANCH   6  23
ENDBRANCH   3   6
ENDBRANCH   1   2
BRANCH   1  33
ATOM     33  C   UNL A   1      31.655  28.840  25.914  1.00  0.00     0.042 C 
BRANCH  33  34
ATOM     34  C   UNL A   1      32.801  29.813  25.763  1.00  0.00     0.118 C 
BRANCH  34  35
ATOM     35  N   UNL A   1      32.531  31.128  26.335  1.00  0.00    -0.352 N 
ATOM     36  C   UNL A   1      33.230  31.869  27.262  1.00  0.00     0.251 C 
ATOM     37  H   UNL A   1      31.710  31.558  26.003  1.00  0.00     0.163 HD
ATOM     38  O   UNL A   1      32.757  32.898  27.713  1.00  0.00    -0.269 OA
BRANCH  36  39
ATOM     39  C   UNL A   1      34.542  31.385  27.739  1.00  0.00     0.039 A 
ATOM     40  C   UNL A   1      35.577  32.300  27.931  1.00  0.00     0.014 A 
ATOM     41  C   UNL A   1      34.732  30.038  28.039  1.00  0.00     0.014 A 
ATOM     42  C   UNL A   1      36.767  31.871  28.518  1.00  0.00     0.010 A 
ATOM     43  C   UNL A   1      35.842  29.650  28.770  1.00  0.00     0.010 A 
ATOM     44  C   UNL A   1      36.886  30.555  28.995  1.00  0.00    -0.014 A 
BRANCH  44  45
ATOM     45  C   UNL A   1      38.098  30.099  29.714  1.00  0.00     0.031 A 
ATOM     46  C   UNL A   1      38.323  30.506  31.147  1.00  0.00     0.074 A 
ATOM     47  C   UNL A   1      39.021  29.367  29.059  1.00  0.00     0.049 A 
ATOM     48  N   UNL A   1      39.322  30.211  31.939  1.00  0.00    -0.248 NA
ATOM     49  C   UNL A   1      37.318  31.392  31.760  1.00  0.00     0.031 C 
ATOM     50  C   UNL A   1      38.956  28.980  27.646  1.00  0.00     0.029 A 
ATOM     51  N   UNL A   1      40.193  28.809  29.500  1.00  0.00    -0.354 N 
ATOM     52  C   UNL A   1      39.073  30.893  33.124  1.00  0.00     0.074 A 
ATOM     53  C   UNL A   1      37.877  31.675  32.925  1.00  0.00     0.031 C 
ATOM     54  C   UNL A   1      40.005  28.195  27.356  1.00  0.00     0.029 A 
ATOM     55  C   UNL A   1      40.836  28.058  28.546  1.00  0.00     0.049 A 
ATOM     56  H   UNL A   1      40.541  28.933  30.413  1.00  0.00     0.167 HD
ATOM     57  C   UNL A   1      39.756  30.843  34.291  1.00  0.00     0.031 A 
ATOM     58  C   UNL A   1      41.965  27.329  28.627  1.00  0.00     0.031 A 
ATOM     59  C   UNL A   1      40.931  30.041  34.494  1.00  0.00     0.049 A 
ATOM     60  C   UNL A   1      42.691  27.266  29.940  1.00  0.00     0.074 A 
ATOM     61  C   UNL A   1      41.662  29.860  35.654  1.00  0.00     0.029 A 
ATOM     62  N   UNL A   1      41.543  29.283  33.508  1.00  0.00    -0.354 N 
ATOM     63  N   UNL A   1      42.392  27.846  31.079  1.00  0.00    -0.248 NA
ATOM     64  C   UNL A   1      43.902  26.437  29.982  1.00  0.00     0.031 C 
ATOM     65  C   UNL A   1      42.750  29.031  35.355  1.00  0.00     0.029 A 
ATOM     66  C   UNL A   1      42.659  28.650  34.025  1.00  0.00     0.049 A 
ATOM     67  H   UNL A   1      41.230  29.208  32.578  1.00  0.00     0.167 HD
ATOM     68  C   UNL A   1      43.368  27.436  31.978  1.00  0.00     0.074 A 
ATOM     69  C   UNL A   1      44.247  26.537  31.258  1.00  0.00     0.031 C 
ATOM     70  C   UNL A   1      43.527  27.774  33.281  1.00  0.00     0.031 A 
BRANCH  57  71
ATOM     71  C   UNL A   1      39.239  31.679  35.431  1.00  0.00    -0.014 A 
ATOM     72  C   UNL A   1      39.680  32.998  35.627  1.00  0.00     0.009 A 
ATOM     73  C   UNL A   1      38.291  31.144  36.316  1.00  0.00     0.009 A 
ATOM     74  C   UNL A   1      39.217  33.748  36.710  1.00  0.00     0.001 A 
ATOM     75  C   UNL A   1      37.803  31.907  37.379  1.00  0.00     0.001 A 
ATOM     76  C   UNL A   1      38.275  33.204  37.583  1.00  0.00     0.000 A 
ENDBRANCH  57  71
BRANCH  58  77
ATOM     77  C   UNL A   1      42.450  26.568  27.446  1.00  0.00    -0.014 A 
ATOM     78  C   UNL A   1      43.360  27.151  26.550  1.00  0.00     0.009 A 
ATOM     79  C   UNL A   1      42.011  25.257  27.208  1.00  0.00     0.009 A 
ATOM     80  C   UNL A   1      43.797  26.446  25.425  1.00  0.00     0.001 A 
ATOM     81  C   UNL A   1      42.473  24.544  26.100  1.00  0.00     0.001 A 
ATOM     82  C   UNL A   1      43.357  25.143  25.204  1.00  0.00     0.000 A 
ENDBRANCH  58  77
BRANCH  70  83
ATOM     83  C   UNL A   1      44.688  27.153  34.004  1.00  0.00    -0.014 A 
ATOM     84  C   UNL A   1      44.561  25.918  34.658  1.00  0.00     0.009 A 
ATOM     85  C   UNL A   1      45.930  27.807  34.015  1.00  0.00     0.009 A 
ATOM     86  C   UNL A   1      45.645  25.372  35.348  1.00  0.00     0.001 A 
ATOM     87  C   UNL A   1      47.021  27.242  34.677  1.00  0.00     0.001 A 
ATOM     88  C   UNL A   1      46.873  26.033  35.354  1.00  0.00     0.000 A 
ENDBRANCH  70  83
ENDBRANCH  44  45
ENDBRANCH  36  39
ENDBRANCH  34  35
ENDBRANCH  33  34
ENDBRANCH   1  33
TORSDOF 15
ENDMDL
MODEL 3
REMARK VINA RESULT:     -12.3      2.830      7.152
REMARK SMILES Cc1nc(-c2ccccc2)sc1C(=O)N[C@@H](CC1=c2ccccc2=NC1)C(=O)NCCCNC(=O)c1ccc(-c2c3nc(c(-c4ccccc4)c4ccc([nH]4)c(-c4ccccc4)c4nc(c(-c5ccccc5)c5ccc2[nH]5)C=C4)C=C3)cc1
REMARK SMILES IDX 30 1 29 2 27 3 28 4 16 6 15 7 13 8 14 9 12 11 1 12 2 13 3 14
REMARK SMILES IDX 4 15 11 16 5 17 6 18 10 19 7 20 9 21 8 22 17 23 18 24 19 25
REMARK SMILES IDX 26 26 20 27 24 28 25 29 21 30 23 31 22 32 31 33 32 34 33 35
REMARK SMILES IDX 34 36 35 38 36 39 37 40 83 41 38 42 82 43 39 44 40 45 41 46
REMARK SMILES IDX 76 47 42 48 81 49 75 50 77 51 43 52 80 53 74 54 73 55 44 57
REMARK SMILES IDX 66 58 51 59 65 60 52 61 55 62 64 63 78 64 53 65 54 66 63 68
REMARK SMILES IDX 79 69 56 70 45 71 46 72 50 73 47 74 49 75 48 76 67 77 68 78
REMARK SMILES IDX 72 79 69 80 71 81 70 82 57 83 58 84 62 85 59 86 61 87 60 88
REMARK H PARENT 29 5 15 10 33 37 77 56 55 67
REMARK Flexibility Score: inf
ROOT
ATOM      1  C   UNL A   1      36.143  21.444  24.929  1.00  0.00     0.117 C 
ENDROOT
BRANCH   1   2
ATOM      2  N   UNL A   1      35.820  21.926  26.243  1.00  0.00    -0.354 N 
ATOM      3  C   UNL A   1      34.869  22.829  26.594  1.00  0.00     0.242 C 
ATOM      4  O   UNL A   1      34.552  22.872  27.787  1.00  0.00    -0.273 OA
ATOM      5  H   UNL A   1      36.355  21.555  26.982  1.00  0.00     0.163 HD
BRANCH   3   6
ATOM      6  C   UNL A   1      34.174  23.755  25.573  1.00  0.00     0.175 C 
BRANCH   6   7
ATOM      7  N   UNL A   1      32.725  23.705  25.597  1.00  0.00    -0.339 N 
ATOM      8  C   UNL A   1      31.810  22.813  25.103  1.00  0.00     0.263 C 
ATOM      9  O   UNL A   1      30.649  23.214  25.266  1.00  0.00    -0.268 OA
ATOM     10  H   UNL A   1      32.315  24.468  26.063  1.00  0.00     0.164 HD
BRANCH   8  11
ATOM     11  C   UNL A   1      32.114  21.528  24.470  1.00  0.00     0.115 A 
ATOM     12  C   UNL A   1      31.885  21.446  21.819  1.00  0.00     0.068 C 
ATOM     13  C   UNL A   1      32.182  20.962  23.193  1.00  0.00     0.062 A 
ATOM     14  N   UNL A   1      32.624  19.654  23.157  1.00  0.00    -0.241 NA
ATOM     15  C   UNL A   1      32.811  19.168  24.354  1.00  0.00     0.124 A 
ATOM     16  S   UNL A   1      32.511  20.247  25.621  1.00  0.00    -0.108 S 
BRANCH  15  17
ATOM     17  C   UNL A   1      33.257  17.799  24.549  1.00  0.00     0.010 A 
ATOM     18  C   UNL A   1      32.378  16.896  25.166  1.00  0.00     0.011 A 
ATOM     19  C   UNL A   1      34.587  17.426  24.330  1.00  0.00     0.011 A 
ATOM     20  C   UNL A   1      32.828  15.645  25.582  1.00  0.00     0.001 A 
ATOM     21  C   UNL A   1      35.037  16.175  24.756  1.00  0.00     0.001 A 
ATOM     22  C   UNL A   1      34.161  15.293  25.389  1.00  0.00     0.000 A 
ENDBRANCH  15  17
ENDBRANCH   8  11
ENDBRANCH   6   7
BRANCH   6  23
ATOM     23  C   UNL A   1      34.741  25.190  25.396  1.00  0.00     0.068 C 
BRANCH  23  24
ATOM     24  C   UNL A   1      33.845  26.270  24.867  1.00  0.00    -0.037 C 
ATOM     25  C   UNL A   1      33.242  27.269  25.515  1.00  0.00     0.001 A 
ATOM     26  C   UNL A   1      33.603  26.390  23.388  1.00  0.00     0.174 C 
ATOM     27  C   UNL A   1      33.131  27.677  26.878  1.00  0.00     0.010 A 
ATOM     28  C   UNL A   1      32.857  28.169  24.410  1.00  0.00     0.065 A 
ATOM     29  N   UNL A   1      33.011  27.734  23.198  1.00  0.00    -0.280 NA
ATOM     30  C   UNL A   1      32.764  28.940  27.149  1.00  0.00     0.001 A 
ATOM     31  C   UNL A   1      32.460  29.544  24.788  1.00  0.00     0.028 A 
ATOM     32  C   UNL A   1      32.464  29.886  26.088  1.00  0.00     0.002 A 
ENDBRANCH  23  24
ENDBRANCH   6  23
ENDBRANCH   3   6
ENDBRANCH   1   2
BRANCH   1  33
ATOM     33  C   UNL A   1      37.201  20.374  24.887  1.00  0.00     0.042 C 
BRANCH  33  34
ATOM     34  C   UNL A   1      38.495  20.793  25.545  1.00  0.00     0.118 C 
BRANCH  34  35
ATOM     35  N   UNL A   1      39.501  19.735  25.582  1.00  0.00    -0.352 N 
ATOM     36  C   UNL A   1      40.822  19.760  25.971  1.00  0.00     0.251 C 
ATOM     37  H   UNL A   1      39.181  18.856  25.277  1.00  0.00     0.163 HD
ATOM     38  O   UNL A   1      41.535  18.788  25.796  1.00  0.00    -0.269 OA
BRANCH  36  39
ATOM     39  C   UNL A   1      41.380  20.992  26.566  1.00  0.00     0.039 A 
ATOM     40  C   UNL A   1      41.947  21.955  25.730  1.00  0.00     0.014 A 
ATOM     41  C   UNL A   1      41.301  21.215  27.938  1.00  0.00     0.014 A 
ATOM     42  C   UNL A   1      42.342  23.180  26.269  1.00  0.00     0.010 A 
ATOM     43  C   UNL A   1      41.536  22.484  28.441  1.00  0.00     0.010 A 
ATOM     44  C   UNL A   1      42.085  23.474  27.619  1.00  0.00    -0.014 A 
BRANCH  44  45
ATOM     45  C   UNL A   1      42.399  24.802  28.194  1.00  0.00     0.031 A 
ATOM     46  C   UNL A   1      43.808  25.126  28.618  1.00  0.00     0.074 A 
ATOM     47  C   UNL A   1      41.406  25.693  28.387  1.00  0.00     0.049 A 
ATOM     48  N   UNL A   1      44.276  26.229  29.144  1.00  0.00    -0.248 NA
ATOM     49  C   UNL A   1      44.816  24.063  28.470  1.00  0.00     0.031 C 
ATOM     50  C   UNL A   1      39.987  25.463  28.094  1.00  0.00     0.029 A 
ATOM     51  N   UNL A   1      41.440  26.976  28.867  1.00  0.00    -0.354 N 
ATOM     52  C   UNL A   1      45.616  25.979  29.408  1.00  0.00     0.074 A 
ATOM     53  C   UNL A   1      45.871  24.601  29.059  1.00  0.00     0.031 C 
ATOM     54  C   UNL A   1      39.300  26.589  28.338  1.00  0.00     0.029 A 
ATOM     55  C   UNL A   1      40.217  27.603  28.844  1.00  0.00     0.049 A 
ATOM     56  H   UNL A   1      42.262  27.408  29.196  1.00  0.00     0.167 HD
ATOM     57  C   UNL A   1      46.565  26.828  29.864  1.00  0.00     0.031 A 
ATOM     58  C   UNL A   1      39.879  28.862  29.180  1.00  0.00     0.031 A 
ATOM     59  C   UNL A   1      46.314  28.207  30.183  1.00  0.00     0.049 A 
ATOM     60  C   UNL A   1      40.954  29.796  29.657  1.00  0.00     0.074 A 
ATOM     61  C   UNL A   1      47.213  29.177  30.585  1.00  0.00     0.029 A 
ATOM     62  N   UNL A   1      45.066  28.808  30.134  1.00  0.00    -0.354 N 
ATOM     63  N   UNL A   1      42.236  29.569  29.816  1.00  0.00    -0.248 NA
ATOM     64  C   UNL A   1      40.535  31.164  29.988  1.00  0.00     0.031 C 
ATOM     65  C   UNL A   1      46.499  30.356  30.829  1.00  0.00     0.029 A 
ATOM     66  C   UNL A   1      45.165  30.133  30.521  1.00  0.00     0.049 A 
ATOM     67  H   UNL A   1      44.233  28.359  29.863  1.00  0.00     0.167 HD
ATOM     68  C   UNL A   1      42.782  30.771  30.246  1.00  0.00     0.074 A 
ATOM     69  C   UNL A   1      41.695  31.728  30.293  1.00  0.00     0.031 C 
ATOM     70  C   UNL A   1      44.065  31.059  30.577  1.00  0.00     0.031 A 
BRANCH  57  71
ATOM     71  C   UNL A   1      47.958  26.283  30.034  1.00  0.00    -0.014 A 
ATOM     72  C   UNL A   1      48.394  25.770  31.267  1.00  0.00     0.009 A 
ATOM     73  C   UNL A   1      48.843  26.274  28.946  1.00  0.00     0.009 A 
ATOM     74  C   UNL A   1      49.700  25.301  31.418  1.00  0.00     0.001 A 
ATOM     75  C   UNL A   1      50.138  25.772  29.091  1.00  0.00     0.001 A 
ATOM     76  C   UNL A   1      50.570  25.298  30.329  1.00  0.00     0.000 A 
ENDBRANCH  57  71
BRANCH  58  77
ATOM     77  C   UNL A   1      38.472  29.320  29.037  1.00  0.00    -0.014 A 
ATOM     78  C   UNL A   1      38.002  29.798  27.805  1.00  0.00     0.009 A 
ATOM     79  C   UNL A   1      37.591  29.279  30.128  1.00  0.00     0.009 A 
ATOM     80  C   UNL A   1      36.687  30.254  27.675  1.00  0.00     0.001 A 
ATOM     81  C   UNL A   1      36.268  29.706  29.989  1.00  0.00     0.001 A 
ATOM     82  C   UNL A   1      35.821  30.203  28.765  1.00  0.00     0.000 A 
ENDBRANCH  58  77
BRANCH  70  83
ATOM     83  C   UNL A   1      44.353  32.470  31.003  1.00  0.00    -0.014 A 
ATOM     84  C   UNL A   1      44.689  33.459  30.065  1.00  0.00     0.009 A 
ATOM     85  C   UNL A   1      44.268  32.817  32.360  1.00  0.00     0.009 A 
ATOM     86  C   UNL A   1      44.981  34.758  30.485  1.00  0.00     0.001 A 
ATOM     87  C   UNL A   1      44.527  34.125  32.773  1.00  0.00     0.001 A 
ATOM     88  C   UNL A   1      44.897  35.089  31.837  1.00  0.00     0.000 A 
ENDBRANCH  70  83
ENDBRANCH  44  45
ENDBRANCH  36  39
ENDBRANCH  34  35
ENDBRANCH  33  34
ENDBRANCH   1  33
TORSDOF 15
ENDMDL
