MODEL 1
REMARK VINA RESULT:     -12.0      0.000      0.000
REMARK SMILES Cc1c(Cl)cc2c(c1C)O[C@@H](C(F)(F)F)C(C(=O)NCCCNC(=O)c1ccc(-c3c4nc(c(-c5ccccc5)c5ccc([nH]5)c(-c5ccccc5)c5nc(c(-c6ccccc6)c6ccc3[nH]6)C=C5)C=C4)cc1)=C2
REMARK SMILES IDX 21 1 20 2 19 3 17 4 18 5 16 7 1 8 2 9 3 10 8 11 4 12 5 13
REMARK SMILES IDX 7 14 9 15 6 16 10 17 74 18 11 19 12 20 13 21 14 22 15 23
REMARK SMILES IDX 22 24 23 25 24 26 25 28 26 29 27 30 73 31 28 32 72 33 29 34
REMARK SMILES IDX 30 35 31 36 66 37 32 38 71 39 65 40 67 41 33 42 70 43 64 44
REMARK SMILES IDX 63 45 34 47 56 48 41 49 55 50 42 51 45 52 54 53 68 54 43 55
REMARK SMILES IDX 44 56 53 58 69 59 46 60 35 61 36 62 40 63 37 64 39 65 38 66
REMARK SMILES IDX 57 67 58 68 62 69 59 70 61 71 60 72 47 73 48 74 52 75 49 76
REMARK SMILES IDX 51 77 50 78
REMARK H PARENT 19 6 23 27 67 46 45 57
REMARK Flexibility Score: inf
ROOT
ATOM      1  C   UNL A   1      31.364  32.326  26.510  1.00  0.00     0.042 C 
ENDROOT
BRANCH   1   2
ATOM      2  C   UNL A   1      31.410  30.817  26.289  1.00  0.00     0.118 C 
BRANCH   2   3
ATOM      3  N   UNL A   1      31.042  30.468  24.927  1.00  0.00    -0.352 N 
ATOM      4  C   UNL A   1      31.097  29.374  24.134  1.00  0.00     0.251 C 
ATOM      5  O   UNL A   1      30.599  29.515  23.012  1.00  0.00    -0.270 OA
ATOM      6  H   UNL A   1      30.644  31.235  24.454  1.00  0.00     0.163 HD
BRANCH   4   7
ATOM      7  C   UNL A   1      31.695  28.064  24.514  1.00  0.00     0.067 C 
ATOM      8  C   UNL A   1      32.909  22.066  26.833  1.00  0.00     0.046 C 
ATOM      9  C   UNL A   1      32.358  23.390  26.368  1.00  0.00    -0.026 A 
ATOM     10  C   UNL A   1      30.985  23.697  26.464  1.00  0.00     0.045 A 
ATOM     11  C   UNL A   1      33.230  24.359  25.814  1.00  0.00    -0.004 A 
ATOM     12  Cl  UNL A   1      29.824  22.577  27.090  1.00  0.00    -0.084 Cl
ATOM     13  C   UNL A   1      30.493  24.943  26.057  1.00  0.00     0.032 A 
ATOM     14  C   UNL A   1      32.711  25.605  25.408  1.00  0.00     0.131 A 
ATOM     15  C   UNL A   1      34.710  24.121  25.636  1.00  0.00     0.049 C 
ATOM     16  C   UNL A   1      31.357  25.905  25.539  1.00  0.00     0.019 A 
ATOM     17  O   UNL A   1      33.608  26.525  24.930  1.00  0.00    -0.475 OA
ATOM     18  C   UNL A   1      30.872  27.229  25.174  1.00  0.00     0.025 C 
ATOM     19  C   UNL A   1      33.074  27.612  24.130  1.00  0.00     0.314 C 
BRANCH  19  20
ATOM     20  C   UNL A   1      33.225  27.289  22.635  1.00  0.00     0.429 C 
ATOM     21  F   UNL A   1      33.756  28.355  21.981  1.00  0.00    -0.167 F 
ATOM     22  F   UNL A   1      34.035  26.233  22.403  1.00  0.00    -0.167 F 
ATOM     23  F   UNL A   1      32.042  27.020  22.036  1.00  0.00    -0.167 F 
ENDBRANCH  19  20
ENDBRANCH   4   7
ENDBRANCH   2   3
ENDBRANCH   1   2
BRANCH   1  24
ATOM     24  C   UNL A   1      32.703  32.882  26.983  1.00  0.00     0.118 C 
BRANCH  24  25
ATOM     25  N   UNL A   1      32.535  34.140  27.700  1.00  0.00    -0.352 N 
ATOM     26  C   UNL A   1      33.181  34.607  28.814  1.00  0.00     0.251 C 
ATOM     27  H   UNL A   1      31.855  34.747  27.326  1.00  0.00     0.163 HD
ATOM     28  O   UNL A   1      32.702  35.551  29.444  1.00  0.00    -0.269 OA
BRANCH  26  29
ATOM     29  C   UNL A   1      34.444  33.989  29.269  1.00  0.00     0.039 A 
ATOM     30  C   UNL A   1      35.646  34.375  28.670  1.00  0.00     0.014 A 
ATOM     31  C   UNL A   1      34.439  32.987  30.243  1.00  0.00     0.014 A 
ATOM     32  C   UNL A   1      36.844  33.785  29.078  1.00  0.00     0.010 A 
ATOM     33  C   UNL A   1      35.640  32.469  30.716  1.00  0.00     0.010 A 
ATOM     34  C   UNL A   1      36.852  32.842  30.119  1.00  0.00    -0.014 A 
BRANCH  34  35
ATOM     35  C   UNL A   1      38.113  32.197  30.556  1.00  0.00     0.031 A 
ATOM     36  C   UNL A   1      38.903  32.785  31.693  1.00  0.00     0.074 A 
ATOM     37  C   UNL A   1      38.559  31.097  29.922  1.00  0.00     0.049 A 
ATOM     38  N   UNL A   1      40.016  32.355  32.233  1.00  0.00    -0.248 NA
ATOM     39  C   UNL A   1      38.389  34.029  32.289  1.00  0.00     0.031 C 
ATOM     40  C   UNL A   1      37.897  30.449  28.788  1.00  0.00     0.029 A 
ATOM     41  N   UNL A   1      39.665  30.320  30.153  1.00  0.00    -0.354 N 
ATOM     42  C   UNL A   1      40.329  33.274  33.226  1.00  0.00     0.074 A 
ATOM     43  C   UNL A   1      39.338  34.323  33.164  1.00  0.00     0.031 C 
ATOM     44  C   UNL A   1      38.578  29.339  28.462  1.00  0.00     0.029 A 
ATOM     45  C   UNL A   1      39.742  29.220  29.335  1.00  0.00     0.049 A 
ATOM     46  H   UNL A   1      40.340  30.532  30.838  1.00  0.00     0.167 HD
ATOM     47  C   UNL A   1      41.331  33.233  34.136  1.00  0.00     0.031 A 
ATOM     48  C   UNL A   1      40.641  28.217  29.302  1.00  0.00     0.031 A 
ATOM     49  C   UNL A   1      42.318  32.191  34.199  1.00  0.00     0.049 A 
ATOM     50  C   UNL A   1      41.782  28.221  30.279  1.00  0.00     0.074 A 
ATOM     51  C   UNL A   1      43.352  32.035  35.104  1.00  0.00     0.029 A 
ATOM     52  N   UNL A   1      42.394  31.127  33.312  1.00  0.00    -0.354 N 
ATOM     53  N   UNL A   1      42.032  29.065  31.251  1.00  0.00    -0.248 NA
ATOM     54  C   UNL A   1      42.764  27.135  30.155  1.00  0.00     0.031 C 
ATOM     55  C   UNL A   1      44.087  30.905  34.732  1.00  0.00     0.029 A 
ATOM     56  C   UNL A   1      43.478  30.328  33.629  1.00  0.00     0.049 A 
ATOM     57  H   UNL A   1      41.769  30.964  32.569  1.00  0.00     0.167 HD
ATOM     58  C   UNL A   1      43.191  28.608  31.862  1.00  0.00     0.074 A 
ATOM     59  C   UNL A   1      43.587  27.403  31.161  1.00  0.00     0.031 C 
ATOM     60  C   UNL A   1      43.866  29.141  32.910  1.00  0.00     0.031 A 
BRANCH  47  61
ATOM     61  C   UNL A   1      41.393  34.353  35.137  1.00  0.00    -0.014 A 
ATOM     62  C   UNL A   1      40.709  34.266  36.362  1.00  0.00     0.009 A 
ATOM     63  C   UNL A   1      42.140  35.507  34.859  1.00  0.00     0.009 A 
ATOM     64  C   UNL A   1      40.734  35.329  37.265  1.00  0.00     0.001 A 
ATOM     65  C   UNL A   1      42.190  36.557  35.779  1.00  0.00     0.001 A 
ATOM     66  C   UNL A   1      41.476  36.473  36.975  1.00  0.00     0.000 A 
ENDBRANCH  47  61
BRANCH  48  67
ATOM     67  C   UNL A   1      40.454  27.102  28.340  1.00  0.00    -0.014 A 
ATOM     68  C   UNL A   1      39.674  25.992  28.696  1.00  0.00     0.009 A 
ATOM     69  C   UNL A   1      40.996  27.165  27.046  1.00  0.00     0.009 A 
ATOM     70  C   UNL A   1      39.439  24.967  27.776  1.00  0.00     0.001 A 
ATOM     71  C   UNL A   1      40.742  26.149  26.122  1.00  0.00     0.001 A 
ATOM     72  C   UNL A   1      39.966  25.050  26.489  1.00  0.00     0.000 A 
ENDBRANCH  48  67
BRANCH  60  73
ATOM     73  C   UNL A   1      45.112  28.438  33.367  1.00  0.00    -0.014 A 
ATOM     74  C   UNL A   1      45.044  27.388  34.296  1.00  0.00     0.009 A 
ATOM     75  C   UNL A   1      46.349  28.757  32.786  1.00  0.00     0.009 A 
ATOM     76  C   UNL A   1      46.195  26.677  34.640  1.00  0.00     0.001 A 
ATOM     77  C   UNL A   1      47.493  28.028  33.114  1.00  0.00     0.001 A 
ATOM     78  C   UNL A   1      47.415  26.991  34.042  1.00  0.00     0.000 A 
ENDBRANCH  60  73
ENDBRANCH  34  35
ENDBRANCH  26  29
ENDBRANCH  24  25
ENDBRANCH   1  24
TORSDOF 11
ENDMDL
MODEL 2
REMARK VINA RESULT:     -12.0      3.206      7.877
REMARK SMILES Cc1c(Cl)cc2c(c1C)O[C@@H](C(F)(F)F)C(C(=O)NCCCNC(=O)c1ccc(-c3c4nc(c(-c5ccccc5)c5ccc([nH]5)c(-c5ccccc5)c5nc(c(-c6ccccc6)c6ccc3[nH]6)C=C5)C=C4)cc1)=C2
REMARK SMILES IDX 21 1 20 2 19 3 17 4 18 5 16 7 1 8 2 9 3 10 8 11 4 12 5 13
REMARK SMILES IDX 7 14 9 15 6 16 10 17 74 18 11 19 12 20 13 21 14 22 15 23
REMARK SMILES IDX 22 24 23 25 24 26 25 28 26 29 27 30 73 31 28 32 72 33 29 34
REMARK SMILES IDX 30 35 31 36 66 37 32 38 71 39 65 40 67 41 33 42 70 43 64 44
REMARK SMILES IDX 63 45 34 47 56 48 41 49 55 50 42 51 45 52 54 53 68 54 43 55
REMARK SMILES IDX 44 56 53 58 69 59 46 60 35 61 36 62 40 63 37 64 39 65 38 66
REMARK SMILES IDX 57 67 58 68 62 69 59 70 61 71 60 72 47 73 48 74 52 75 49 76
REMARK SMILES IDX 51 77 50 78
REMARK H PARENT 19 6 23 27 67 46 45 57
REMARK Flexibility Score: inf
ROOT
ATOM      1  C   UNL A   1      36.692  23.708  24.424  1.00  0.00     0.042 C 
ENDROOT
BRANCH   1   2
ATOM      2  C   UNL A   1      35.708  22.966  23.524  1.00  0.00     0.118 C 
BRANCH   2   3
ATOM      3  N   UNL A   1      34.604  22.410  24.290  1.00  0.00    -0.352 N 
ATOM      4  C   UNL A   1      33.433  22.849  24.804  1.00  0.00     0.251 C 
ATOM      5  O   UNL A   1      32.747  21.983  25.360  1.00  0.00    -0.270 OA
ATOM      6  H   UNL A   1      34.747  21.455  24.485  1.00  0.00     0.163 HD
BRANCH   4   7
ATOM      7  C   UNL A   1      32.938  24.252  24.744  1.00  0.00     0.067 C 
ATOM      8  C   UNL A   1      31.689  30.598  25.742  1.00  0.00     0.046 C 
ATOM      9  C   UNL A   1      32.183  29.174  25.707  1.00  0.00    -0.026 A 
ATOM     10  C   UNL A   1      33.260  28.742  26.508  1.00  0.00     0.045 A 
ATOM     11  C   UNL A   1      31.561  28.236  24.846  1.00  0.00    -0.004 A 
ATOM     12  Cl  UNL A   1      34.116  29.810  27.567  1.00  0.00    -0.084 Cl
ATOM     13  C   UNL A   1      33.687  27.410  26.487  1.00  0.00     0.032 A 
ATOM     14  C   UNL A   1      32.011  26.900  24.840  1.00  0.00     0.131 A 
ATOM     15  C   UNL A   1      30.423  28.600  23.925  1.00  0.00     0.049 C 
ATOM     16  C   UNL A   1      33.056  26.482  25.662  1.00  0.00     0.019 A 
ATOM     17  O   UNL A   1      31.339  26.023  24.030  1.00  0.00    -0.475 OA
ATOM     18  C   UNL A   1      33.444  25.078  25.679  1.00  0.00     0.025 C 
ATOM     19  C   UNL A   1      32.021  24.790  23.684  1.00  0.00     0.314 C 
BRANCH  19  20
ATOM     20  C   UNL A   1      32.685  24.925  22.303  1.00  0.00     0.429 C 
ATOM     21  F   UNL A   1      32.890  23.695  21.764  1.00  0.00    -0.167 F 
ATOM     22  F   UNL A   1      31.936  25.628  21.425  1.00  0.00    -0.167 F 
ATOM     23  F   UNL A   1      33.896  25.526  22.362  1.00  0.00    -0.167 F 
ENDBRANCH  19  20
ENDBRANCH   4   7
ENDBRANCH   2   3
ENDBRANCH   1   2
BRANCH   1  24
ATOM     24  C   UNL A   1      36.727  23.136  25.837  1.00  0.00     0.118 C 
BRANCH  24  25
ATOM     25  N   UNL A   1      37.865  22.244  26.022  1.00  0.00    -0.352 N 
ATOM     26  C   UNL A   1      39.168  22.536  26.333  1.00  0.00     0.251 C 
ATOM     27  H   UNL A   1      37.667  21.285  25.909  1.00  0.00     0.163 HD
ATOM     28  O   UNL A   1      40.040  21.685  26.156  1.00  0.00    -0.269 OA
BRANCH  26  29
ATOM     29  C   UNL A   1      39.535  23.861  26.873  1.00  0.00     0.039 A 
ATOM     30  C   UNL A   1      40.081  24.820  26.015  1.00  0.00     0.014 A 
ATOM     31  C   UNL A   1      39.398  24.141  28.235  1.00  0.00     0.014 A 
ATOM     32  C   UNL A   1      40.448  26.069  26.516  1.00  0.00     0.010 A 
ATOM     33  C   UNL A   1      39.675  25.416  28.716  1.00  0.00     0.010 A 
ATOM     34  C   UNL A   1      40.229  26.385  27.868  1.00  0.00    -0.014 A 
BRANCH  34  35
ATOM     35  C   UNL A   1      40.625  27.702  28.420  1.00  0.00     0.031 A 
ATOM     36  C   UNL A   1      42.070  27.985  28.725  1.00  0.00     0.074 A 
ATOM     37  C   UNL A   1      39.687  28.636  28.665  1.00  0.00     0.049 A 
ATOM     38  N   UNL A   1      42.615  29.081  29.190  1.00  0.00    -0.248 NA
ATOM     39  C   UNL A   1      43.027  26.890  28.496  1.00  0.00     0.031 C 
ATOM     40  C   UNL A   1      38.250  28.471  28.438  1.00  0.00     0.029 A 
ATOM     41  N   UNL A   1      39.806  29.915  29.143  1.00  0.00    -0.354 N 
ATOM     42  C   UNL A   1      43.971  28.803  29.309  1.00  0.00     0.074 A 
ATOM     43  C   UNL A   1      44.155  27.418  28.943  1.00  0.00     0.031 C 
ATOM     44  C   UNL A   1      37.628  29.626  28.719  1.00  0.00     0.029 A 
ATOM     45  C   UNL A   1      38.615  30.598  29.183  1.00  0.00     0.049 A 
ATOM     46  H   UNL A   1      40.662  30.307  29.431  1.00  0.00     0.167 HD
ATOM     47  C   UNL A   1      44.981  29.635  29.655  1.00  0.00     0.031 A 
ATOM     48  C   UNL A   1      38.349  31.870  29.538  1.00  0.00     0.031 A 
ATOM     49  C   UNL A   1      44.800  31.013  30.019  1.00  0.00     0.049 A 
ATOM     50  C   UNL A   1      39.474  32.760  29.980  1.00  0.00     0.074 A 
ATOM     51  C   UNL A   1      45.759  31.952  30.350  1.00  0.00     0.029 A 
ATOM     52  N   UNL A   1      43.568  31.647  30.105  1.00  0.00    -0.354 N 
ATOM     53  N   UNL A   1      40.758  32.501  30.030  1.00  0.00    -0.248 NA
ATOM     54  C   UNL A   1      39.114  34.118  30.413  1.00  0.00     0.031 C 
ATOM     55  C   UNL A   1      45.104  33.140  30.688  1.00  0.00     0.029 A 
ATOM     56  C   UNL A   1      43.742  32.956  30.516  1.00  0.00     0.049 A 
ATOM     57  H   UNL A   1      42.701  31.227  29.902  1.00  0.00     0.167 HD
ATOM     58  C   UNL A   1      41.363  33.664  30.488  1.00  0.00     0.074 A 
ATOM     59  C   UNL A   1      40.305  34.635  30.686  1.00  0.00     0.031 C 
ATOM     60  C   UNL A   1      42.676  33.903  30.724  1.00  0.00     0.031 A 
BRANCH  47  61
ATOM     61  C   UNL A   1      46.372  29.064  29.645  1.00  0.00    -0.014 A 
ATOM     62  C   UNL A   1      47.155  29.091  28.479  1.00  0.00     0.009 A 
ATOM     63  C   UNL A   1      46.909  28.494  30.809  1.00  0.00     0.009 A 
ATOM     64  C   UNL A   1      48.427  28.517  28.466  1.00  0.00     0.001 A 
ATOM     65  C   UNL A   1      48.194  27.950  30.802  1.00  0.00     0.001 A 
ATOM     66  C   UNL A   1      48.948  27.949  29.628  1.00  0.00     0.000 A 
ENDBRANCH  47  61
BRANCH  48  67
ATOM     67  C   UNL A   1      36.958  32.380  29.432  1.00  0.00    -0.014 A 
ATOM     68  C   UNL A   1      36.082  32.258  30.520  1.00  0.00     0.009 A 
ATOM     69  C   UNL A   1      36.517  33.044  28.276  1.00  0.00     0.009 A 
ATOM     70  C   UNL A   1      34.792  32.791  30.454  1.00  0.00     0.001 A 
ATOM     71  C   UNL A   1      35.235  33.594  28.221  1.00  0.00     0.001 A 
ATOM     72  C   UNL A   1      34.373  33.465  29.309  1.00  0.00     0.000 A 
ENDBRANCH  48  67
BRANCH  60  73
ATOM     73  C   UNL A   1      43.056  35.264  31.233  1.00  0.00    -0.014 A 
ATOM     74  C   UNL A   1      43.083  35.533  32.610  1.00  0.00     0.009 A 
ATOM     75  C   UNL A   1      43.491  36.251  30.335  1.00  0.00     0.009 A 
ATOM     76  C   UNL A   1      43.531  36.770  33.077  1.00  0.00     0.001 A 
ATOM     77  C   UNL A   1      43.961  37.478  30.806  1.00  0.00     0.001 A 
ATOM     78  C   UNL A   1      43.978  37.737  32.176  1.00  0.00     0.000 A 
ENDBRANCH  60  73
ENDBRANCH  34  35
ENDBRANCH  26  29
ENDBRANCH  24  25
ENDBRANCH   1  24
TORSDOF 11
ENDMDL
MODEL 3
REMARK VINA RESULT:     -12.0      4.625      9.414
REMARK SMILES Cc1c(Cl)cc2c(c1C)O[C@@H](C(F)(F)F)C(C(=O)NCCCNC(=O)c1ccc(-c3c4nc(c(-c5ccccc5)c5ccc([nH]5)c(-c5ccccc5)c5nc(c(-c6ccccc6)c6ccc3[nH]6)C=C5)C=C4)cc1)=C2
REMARK SMILES IDX 21 1 20 2 19 3 17 4 18 5 16 7 1 8 2 9 3 10 8 11 4 12 5 13
REMARK SMILES IDX 7 14 9 15 6 16 10 17 74 18 11 19 12 20 13 21 14 22 15 23
REMARK SMILES IDX 22 24 23 25 24 26 25 28 26 29 27 30 73 31 28 32 72 33 29 34
REMARK SMILES IDX 30 35 31 36 66 37 32 38 71 39 65 40 67 41 33 42 70 43 64 44
REMARK SMILES IDX 63 45 34 47 56 48 41 49 55 50 42 51 45 52 54 53 68 54 43 55
REMARK SMILES IDX 44 56 53 58 69 59 46 60 35 61 36 62 40 63 37 64 39 65 38 66
REMARK SMILES IDX 57 67 58 68 62 69 59 70 61 71 60 72 47 73 48 74 52 75 49 76
REMARK SMILES IDX 51 77 50 78
REMARK H PARENT 19 6 23 27 67 46 45 57
REMARK Flexibility Score: inf
ROOT
ATOM      1  C   UNL A   1      38.111  19.301  25.043  1.00  0.00     0.042 C 
ENDROOT
BRANCH   1   2
ATOM      2  C   UNL A   1      37.065  20.332  24.630  1.00  0.00     0.118 C 
BRANCH   2   3
ATOM      3  N   UNL A   1      35.730  19.927  25.037  1.00  0.00    -0.352 N 
ATOM      4  C   UNL A   1      34.519  20.510  25.186  1.00  0.00     0.251 C 
ATOM      5  O   UNL A   1      33.606  19.745  25.515  1.00  0.00    -0.270 OA
ATOM      6  H   UNL A   1      35.698  18.969  25.265  1.00  0.00     0.163 HD
BRANCH   4   7
ATOM      7  C   UNL A   1      34.229  21.957  24.986  1.00  0.00     0.067 C 
ATOM      8  C   UNL A   1      32.874  27.895  22.593  1.00  0.00     0.046 C 
ATOM      9  C   UNL A   1      33.123  26.436  22.881  1.00  0.00    -0.026 A 
ATOM     10  C   UNL A   1      32.955  25.446  21.891  1.00  0.00     0.045 A 
ATOM     11  C   UNL A   1      33.531  26.035  24.176  1.00  0.00    -0.004 A 
ATOM     12  Cl  UNL A   1      32.424  25.816  20.286  1.00  0.00    -0.084 Cl
ATOM     13  C   UNL A   1      33.219  24.099  22.165  1.00  0.00     0.032 A 
ATOM     14  C   UNL A   1      33.789  24.672  24.429  1.00  0.00     0.131 A 
ATOM     15  C   UNL A   1      33.710  27.009  25.316  1.00  0.00     0.049 C 
ATOM     16  C   UNL A   1      33.649  23.710  23.432  1.00  0.00     0.019 A 
ATOM     17  O   UNL A   1      34.234  24.348  25.684  1.00  0.00    -0.475 OA
ATOM     18  C   UNL A   1      33.993  22.323  23.713  1.00  0.00     0.025 C 
ATOM     19  C   UNL A   1      34.097  22.962  26.094  1.00  0.00     0.314 C 
BRANCH  19  20
ATOM     20  C   UNL A   1      32.826  22.787  26.940  1.00  0.00     0.429 C 
ATOM     21  F   UNL A   1      31.857  22.183  26.204  1.00  0.00    -0.167 F 
ATOM     22  F   UNL A   1      33.025  22.026  28.039  1.00  0.00    -0.167 F 
ATOM     23  F   UNL A   1      32.311  23.965  27.362  1.00  0.00    -0.167 F 
ENDBRANCH  19  20
ENDBRANCH   4   7
ENDBRANCH   2   3
ENDBRANCH   1   2
BRANCH   1  24
ATOM     24  C   UNL A   1      39.160  19.887  25.983  1.00  0.00     0.118 C 
BRANCH  24  25
ATOM     25  N   UNL A   1      40.372  19.078  26.000  1.00  0.00    -0.352 N 
ATOM     26  C   UNL A   1      41.683  19.464  26.100  1.00  0.00     0.251 C 
ATOM     27  H   UNL A   1      40.227  18.106  25.931  1.00  0.00     0.163 HD
ATOM     28  O   UNL A   1      42.575  18.670  25.800  1.00  0.00    -0.269 OA
BRANCH  26  29
ATOM     29  C   UNL A   1      42.036  20.823  26.560  1.00  0.00     0.039 A 
ATOM     30  C   UNL A   1      42.049  21.097  27.931  1.00  0.00     0.014 A 
ATOM     31  C   UNL A   1      42.296  21.844  25.643  1.00  0.00     0.014 A 
ATOM     32  C   UNL A   1      42.363  22.381  28.378  1.00  0.00     0.010 A 
ATOM     33  C   UNL A   1      42.702  23.097  26.090  1.00  0.00     0.010 A 
ATOM     34  C   UNL A   1      42.713  23.387  27.461  1.00  0.00    -0.014 A 
BRANCH  34  35
ATOM     35  C   UNL A   1      43.037  24.759  27.918  1.00  0.00     0.031 A 
ATOM     36  C   UNL A   1      44.472  25.190  28.042  1.00  0.00     0.074 A 
ATOM     37  C   UNL A   1      42.045  25.611  28.239  1.00  0.00     0.049 A 
ATOM     38  N   UNL A   1      44.955  26.352  28.403  1.00  0.00    -0.248 NA
ATOM     39  C   UNL A   1      45.500  24.180  27.742  1.00  0.00     0.031 C 
ATOM     40  C   UNL A   1      40.615  25.301  28.186  1.00  0.00     0.029 A 
ATOM     41  N   UNL A   1      42.091  26.916  28.656  1.00  0.00    -0.354 N 
ATOM     42  C   UNL A   1      46.337  26.209  28.372  1.00  0.00     0.074 A 
ATOM     43  C   UNL A   1      46.614  24.832  28.035  1.00  0.00     0.031 C 
ATOM     44  C   UNL A   1      39.918  26.405  28.499  1.00  0.00     0.029 A 
ATOM     45  C   UNL A   1      40.850  27.485  28.811  1.00  0.00     0.049 A 
ATOM     46  H   UNL A   1      42.931  27.399  28.829  1.00  0.00     0.167 HD
ATOM     47  C   UNL A   1      47.293  27.146  28.570  1.00  0.00     0.031 A 
ATOM     48  C   UNL A   1      40.502  28.741  29.151  1.00  0.00     0.031 A 
ATOM     49  C   UNL A   1      47.019  28.516  28.906  1.00  0.00     0.049 A 
ATOM     50  C   UNL A   1      41.576  29.752  29.427  1.00  0.00     0.074 A 
ATOM     51  C   UNL A   1      47.912  29.555  29.090  1.00  0.00     0.029 A 
ATOM     52  N   UNL A   1      45.749  29.035  29.112  1.00  0.00    -0.354 N 
ATOM     53  N   UNL A   1      42.878  29.617  29.336  1.00  0.00    -0.248 NA
ATOM     54  C   UNL A   1      41.136  31.088  29.853  1.00  0.00     0.031 C 
ATOM     55  C   UNL A   1      47.186  30.691  29.462  1.00  0.00     0.029 A 
ATOM     56  C   UNL A   1      45.837  30.372  29.456  1.00  0.00     0.049 A 
ATOM     57  H   UNL A   1      44.909  28.527  29.027  1.00  0.00     0.167 HD
ATOM     58  C   UNL A   1      43.412  30.852  29.681  1.00  0.00     0.074 A 
ATOM     59  C   UNL A   1      42.293  31.727  29.968  1.00  0.00     0.031 C 
ATOM     60  C   UNL A   1      44.714  31.223  29.753  1.00  0.00     0.031 A 
BRANCH  47  61
ATOM     61  C   UNL A   1      48.723  26.708  28.417  1.00  0.00    -0.014 A 
ATOM     62  C   UNL A   1      49.466  26.266  29.524  1.00  0.00     0.009 A 
ATOM     63  C   UNL A   1      49.337  26.735  27.156  1.00  0.00     0.009 A 
ATOM     64  C   UNL A   1      50.806  25.905  29.381  1.00  0.00     0.001 A 
ATOM     65  C   UNL A   1      50.669  26.344  27.010  1.00  0.00     0.001 A 
ATOM     66  C   UNL A   1      51.407  25.942  28.124  1.00  0.00     0.000 A 
ENDBRANCH  47  61
BRANCH  48  67
ATOM     67  C   UNL A   1      39.065  29.113  29.190  1.00  0.00    -0.014 A 
ATOM     68  C   UNL A   1      38.438  29.612  28.038  1.00  0.00     0.009 A 
ATOM     69  C   UNL A   1      38.297  28.915  30.349  1.00  0.00     0.009 A 
ATOM     70  C   UNL A   1      37.073  29.906  28.046  1.00  0.00     0.001 A 
ATOM     71  C   UNL A   1      36.928  29.189  30.347  1.00  0.00     0.001 A 
ATOM     72  C   UNL A   1      36.318  29.686  29.196  1.00  0.00     0.000 A 
ENDBRANCH  48  67
BRANCH  60  73
ATOM     73  C   UNL A   1      45.013  32.636  30.168  1.00  0.00    -0.014 A 
ATOM     74  C   UNL A   1      45.247  32.954  31.515  1.00  0.00     0.009 A 
ATOM     75  C   UNL A   1      45.164  33.634  29.193  1.00  0.00     0.009 A 
ATOM     76  C   UNL A   1      45.620  34.249  31.877  1.00  0.00     0.001 A 
ATOM     77  C   UNL A   1      45.561  34.922  29.557  1.00  0.00     0.001 A 
ATOM     78  C   UNL A   1      45.786  35.229  30.898  1.00  0.00     0.000 A 
ENDBRANCH  60  73
ENDBRANCH  34  35
ENDBRANCH  26  29
ENDBRANCH  24  25
ENDBRANCH   1  24
TORSDOF 11
ENDMDL
