MODEL 1
REMARK VINA RESULT:     -11.8      0.000      0.000
REMARK SMILES O=C(NCCCNC(=O)c1ccc(C[N@H+]2CC[N@H+]3CCCC[C@@H]3C2)c(F)c1)c1ccc(-c2c3nc(c(-c4ccccc4)c4ccc([nH]4)c(-c4ccccc4)c4nc(c(-c5ccccc5)c5ccc2[nH]5)C=C4)C=C3)cc1
REMARK SMILES IDX 5 1 4 2 3 3 1 4 2 5 28 7 29 8 75 9 30 10 74 11 31 12 32 13
REMARK SMILES IDX 33 14 68 15 34 16 73 17 67 18 69 19 35 20 72 21 66 22 65 23
REMARK SMILES IDX 36 25 58 26 43 27 57 28 44 29 47 30 56 31 70 32 45 33 46 34
REMARK SMILES IDX 55 36 71 37 48 38 37 39 38 40 42 41 39 42 41 43 40 44 59 45
REMARK SMILES IDX 60 46 64 47 61 48 63 49 62 50 49 51 50 52 54 53 51 54 53 55
REMARK SMILES IDX 52 56 6 57 7 58 8 59 9 61 10 62 11 63 27 64 12 65 25 66
REMARK SMILES IDX 13 67 26 68 14 69 15 70 16 71 24 72 17 74 23 75 18 76 22 77
REMARK SMILES IDX 19 78 21 80 20 81
REMARK H PARENT 3 6 69 24 47 35 7 60 15 73 18 79
REMARK Flexibility Score: inf
ROOT
ATOM      1  C   UNL A   1      32.390  28.131  26.280  1.00  0.00     0.042 C 
ENDROOT
BRANCH   1   2
ATOM      2  C   UNL A   1      33.548  28.501  27.196  1.00  0.00     0.118 C 
BRANCH   2   3
ATOM      3  N   UNL A   1      33.523  29.900  27.609  1.00  0.00    -0.352 N 
ATOM      4  O   UNL A   1      34.140  31.815  28.600  1.00  0.00    -0.269 OA
ATOM      5  C   UNL A   1      34.468  30.695  28.211  1.00  0.00     0.251 C 
ATOM      6  H   UNL A   1      32.672  30.359  27.420  1.00  0.00     0.163 HD
BRANCH   5   7
ATOM      7  C   UNL A   1      35.861  30.234  28.420  1.00  0.00     0.039 A 
ATOM      8  C   UNL A   1      36.838  30.390  27.437  1.00  0.00     0.014 A 
ATOM      9  C   UNL A   1      36.218  29.687  29.660  1.00  0.00     0.014 A 
ATOM     10  C   UNL A   1      38.107  29.851  27.622  1.00  0.00     0.010 A 
ATOM     11  C   UNL A   1      37.528  29.248  29.887  1.00  0.00     0.010 A 
ATOM     12  C   UNL A   1      38.477  29.297  28.857  1.00  0.00    -0.014 A 
BRANCH  12  13
ATOM     13  C   UNL A   1      39.881  28.856  29.061  1.00  0.00     0.031 A 
ATOM     14  C   UNL A   1      40.891  29.742  29.735  1.00  0.00     0.074 A 
ATOM     15  C   UNL A   1      40.232  27.616  28.663  1.00  0.00     0.049 A 
ATOM     16  N   UNL A   1      42.145  29.489  30.022  1.00  0.00    -0.248 NA
ATOM     17  C   UNL A   1      40.446  31.086  30.134  1.00  0.00     0.031 C 
ATOM     18  C   UNL A   1      39.342  26.661  27.997  1.00  0.00     0.029 A 
ATOM     19  N   UNL A   1      41.416  26.935  28.783  1.00  0.00    -0.354 N 
ATOM     20  C   UNL A   1      42.640  30.640  30.621  1.00  0.00     0.074 A 
ATOM     21  C   UNL A   1      41.561  31.605  30.630  1.00  0.00     0.031 C 
ATOM     22  C   UNL A   1      39.991  25.501  27.823  1.00  0.00     0.029 A 
ATOM     23  C   UNL A   1      41.362  25.652  28.293  1.00  0.00     0.049 A 
ATOM     24  H   UNL A   1      42.227  27.327  29.181  1.00  0.00     0.167 HD
ATOM     25  C   UNL A   1      43.878  30.870  31.124  1.00  0.00     0.031 A 
ATOM     26  C   UNL A   1      42.313  24.705  28.209  1.00  0.00     0.031 A 
ATOM     27  C   UNL A   1      44.952  29.910  31.104  1.00  0.00     0.049 A 
ATOM     28  C   UNL A   1      43.690  25.008  28.720  1.00  0.00     0.074 A 
ATOM     29  C   UNL A   1      46.236  30.043  31.606  1.00  0.00     0.029 A 
ATOM     30  N   UNL A   1      44.873  28.644  30.545  1.00  0.00    -0.354 N 
ATOM     31  N   UNL A   1      44.130  26.091  29.311  1.00  0.00    -0.248 NA
ATOM     32  C   UNL A   1      44.701  23.956  28.551  1.00  0.00     0.031 C 
ATOM     33  C   UNL A   1      46.950  28.881  31.299  1.00  0.00     0.029 A 
ATOM     34  C   UNL A   1      46.093  27.997  30.664  1.00  0.00     0.049 A 
ATOM     35  H   UNL A   1      44.069  28.261  30.126  1.00  0.00     0.167 HD
ATOM     36  C   UNL A   1      45.464  25.847  29.603  1.00  0.00     0.074 A 
ATOM     37  C   UNL A   1      45.753  24.502  29.144  1.00  0.00     0.031 C 
ATOM     38  C   UNL A   1      46.369  26.663  30.195  1.00  0.00     0.031 A 
BRANCH  25  39
ATOM     39  C   UNL A   1      44.150  32.228  31.714  1.00  0.00    -0.014 A 
ATOM     40  C   UNL A   1      44.618  33.290  30.923  1.00  0.00     0.009 A 
ATOM     41  C   UNL A   1      43.887  32.462  33.073  1.00  0.00     0.009 A 
ATOM     42  C   UNL A   1      44.848  34.546  31.489  1.00  0.00     0.001 A 
ATOM     43  C   UNL A   1      44.091  33.727  33.629  1.00  0.00     0.001 A 
ATOM     44  C   UNL A   1      44.579  34.765  32.839  1.00  0.00     0.000 A 
ENDBRANCH  25  39
BRANCH  26  45
ATOM     45  C   UNL A   1      41.994  23.388  27.596  1.00  0.00    -0.014 A 
ATOM     46  C   UNL A   1      42.286  23.135  26.248  1.00  0.00     0.009 A 
ATOM     47  C   UNL A   1      41.405  22.372  28.365  1.00  0.00     0.009 A 
ATOM     48  C   UNL A   1      41.972  21.901  25.677  1.00  0.00     0.001 A 
ATOM     49  C   UNL A   1      41.124  21.126  27.800  1.00  0.00     0.001 A 
ATOM     50  C   UNL A   1      41.399  20.895  26.454  1.00  0.00     0.000 A 
ENDBRANCH  26  45
BRANCH  38  51
ATOM     51  C   UNL A   1      47.750  26.109  30.411  1.00  0.00    -0.014 A 
ATOM     52  C   UNL A   1      48.666  26.000  29.352  1.00  0.00     0.009 A 
ATOM     53  C   UNL A   1      48.147  25.717  31.698  1.00  0.00     0.009 A 
ATOM     54  C   UNL A   1      49.941  25.475  29.575  1.00  0.00     0.001 A 
ATOM     55  C   UNL A   1      49.432  25.222  31.923  1.00  0.00     0.001 A 
ATOM     56  C   UNL A   1      50.324  25.092  30.861  1.00  0.00     0.000 A 
ENDBRANCH  38  51
ENDBRANCH  12  13
ENDBRANCH   5   7
ENDBRANCH   2   3
ENDBRANCH   1   2
BRANCH   1  57
ATOM     57  C   UNL A   1      32.804  27.440  24.983  1.00  0.00     0.118 C 
BRANCH  57  58
ATOM     58  N   UNL A   1      31.900  27.760  23.890  1.00  0.00    -0.352 N 
ATOM     59  C   UNL A   1      31.424  26.941  22.897  1.00  0.00     0.251 C 
ATOM     60  H   UNL A   1      31.586  28.692  23.857  1.00  0.00     0.163 HD
ATOM     61  O   UNL A   1      30.827  27.415  21.929  1.00  0.00    -0.269 OA
BRANCH  59  62
ATOM     62  C   UNL A   1      31.641  25.485  22.972  1.00  0.00     0.042 A 
ATOM     63  C   UNL A   1      30.677  24.654  23.553  1.00  0.00     0.014 A 
ATOM     64  C   UNL A   1      32.805  24.945  22.433  1.00  0.00     0.053 A 
ATOM     65  C   UNL A   1      30.926  23.283  23.671  1.00  0.00     0.013 A 
ATOM     66  C   UNL A   1      33.053  23.584  22.584  1.00  0.00     0.132 A 
ATOM     67  C   UNL A   1      32.155  22.743  23.251  1.00  0.00     0.042 A 
ATOM     68  F   UNL A   1      34.208  23.088  22.115  1.00  0.00    -0.206 F 
BRANCH  67  69
ATOM     69  C   UNL A   1      32.518  21.305  23.546  1.00  0.00     0.302 C 
BRANCH  69  70
ATOM     70  N   UNL A   1      33.009  20.968  24.892  1.00  0.00    -0.322 N 
ATOM     71  C   UNL A   1      33.764  19.713  25.016  1.00  0.00     0.324 C 
ATOM     72  C   UNL A   1      33.676  22.045  25.633  1.00  0.00     0.328 C 
ATOM     73  H   UNL A   1      32.112  20.815  25.351  1.00  0.00     0.348 HD
ATOM     74  C   UNL A   1      35.302  19.812  24.847  1.00  0.00     0.324 C 
ATOM     75  C   UNL A   1      35.186  22.185  25.327  1.00  0.00     0.239 C 
ATOM     76  N   UNL A   1      35.941  20.937  25.570  1.00  0.00    -0.323 N 
ATOM     77  C   UNL A   1      35.800  23.354  26.104  1.00  0.00     0.071 C 
ATOM     78  C   UNL A   1      37.337  21.086  25.128  1.00  0.00     0.262 C 
ATOM     79  H   UNL A   1      35.933  20.741  26.571  1.00  0.00     0.348 HD
ATOM     80  C   UNL A   1      37.231  23.578  25.626  1.00  0.00     0.012 C 
ATOM     81  C   UNL A   1      38.037  22.291  25.769  1.00  0.00     0.062 C 
ENDBRANCH  69  70
ENDBRANCH  67  69
ENDBRANCH  59  62
ENDBRANCH  57  58
ENDBRANCH   1  57
TORSDOF 12
ENDMDL
MODEL 2
REMARK VINA RESULT:     -11.7      0.270      5.934
REMARK SMILES O=C(NCCCNC(=O)c1ccc(C[N@H+]2CC[N@H+]3CCCC[C@@H]3C2)c(F)c1)c1ccc(-c2c3nc(c(-c4ccccc4)c4ccc([nH]4)c(-c4ccccc4)c4nc(c(-c5ccccc5)c5ccc2[nH]5)C=C4)C=C3)cc1
REMARK SMILES IDX 5 1 4 2 3 3 1 4 2 5 28 7 29 8 75 9 30 10 74 11 31 12 32 13
REMARK SMILES IDX 33 14 68 15 34 16 73 17 67 18 69 19 35 20 72 21 66 22 65 23
REMARK SMILES IDX 36 25 58 26 43 27 57 28 44 29 47 30 56 31 70 32 45 33 46 34
REMARK SMILES IDX 55 36 71 37 48 38 37 39 38 40 42 41 39 42 41 43 40 44 59 45
REMARK SMILES IDX 60 46 64 47 61 48 63 49 62 50 49 51 50 52 54 53 51 54 53 55
REMARK SMILES IDX 52 56 6 57 7 58 8 59 9 61 10 62 11 63 27 64 12 65 25 66
REMARK SMILES IDX 13 67 26 68 14 69 15 70 16 71 24 72 17 74 23 75 18 76 22 77
REMARK SMILES IDX 19 78 21 80 20 81
REMARK H PARENT 3 6 69 24 47 35 7 60 15 73 18 79
REMARK Flexibility Score: inf
ROOT
ATOM      1  C   UNL A   1      32.347  28.310  26.387  1.00  0.00     0.042 C 
ENDROOT
BRANCH   1   2
ATOM      2  C   UNL A   1      33.593  28.670  27.184  1.00  0.00     0.118 C 
BRANCH   2   3
ATOM      3  N   UNL A   1      33.592  30.052  27.650  1.00  0.00    -0.352 N 
ATOM      4  O   UNL A   1      34.234  31.914  28.724  1.00  0.00    -0.269 OA
ATOM      5  C   UNL A   1      34.543  30.802  28.299  1.00  0.00     0.251 C 
ATOM      6  H   UNL A   1      32.756  30.538  27.463  1.00  0.00     0.163 HD
BRANCH   5   7
ATOM      7  C   UNL A   1      35.921  30.300  28.516  1.00  0.00     0.039 A 
ATOM      8  C   UNL A   1      36.916  30.458  27.553  1.00  0.00     0.014 A 
ATOM      9  C   UNL A   1      36.245  29.710  29.745  1.00  0.00     0.014 A 
ATOM     10  C   UNL A   1      38.169  29.883  27.742  1.00  0.00     0.010 A 
ATOM     11  C   UNL A   1      37.539  29.232  29.980  1.00  0.00     0.010 A 
ATOM     12  C   UNL A   1      38.506  29.286  28.967  1.00  0.00    -0.014 A 
BRANCH  12  13
ATOM     13  C   UNL A   1      39.895  28.804  29.179  1.00  0.00     0.031 A 
ATOM     14  C   UNL A   1      40.324  27.432  28.741  1.00  0.00     0.074 A 
ATOM     15  C   UNL A   1      40.790  29.642  29.741  1.00  0.00     0.049 A 
ATOM     16  N   UNL A   1      41.509  26.877  28.819  1.00  0.00    -0.248 NA
ATOM     17  C   UNL A   1      39.296  26.565  28.144  1.00  0.00     0.031 C 
ATOM     18  C   UNL A   1      40.496  31.000  30.209  1.00  0.00     0.029 A 
ATOM     19  N   UNL A   1      42.130  29.490  29.991  1.00  0.00    -0.354 N 
ATOM     20  C   UNL A   1      41.368  25.598  28.296  1.00  0.00     0.074 A 
ATOM     21  C   UNL A   1      39.975  25.446  27.931  1.00  0.00     0.031 C 
ATOM     22  C   UNL A   1      41.630  31.576  30.630  1.00  0.00     0.029 A 
ATOM     23  C   UNL A   1      42.715  30.608  30.537  1.00  0.00     0.049 A 
ATOM     24  H   UNL A   1      42.625  28.661  29.799  1.00  0.00     0.167 HD
ATOM     25  C   UNL A   1      42.312  24.640  28.130  1.00  0.00     0.031 A 
ATOM     26  C   UNL A   1      43.980  30.828  30.937  1.00  0.00     0.031 A 
ATOM     27  C   UNL A   1      43.695  24.791  28.503  1.00  0.00     0.049 A 
ATOM     28  C   UNL A   1      44.991  29.729  30.795  1.00  0.00     0.074 A 
ATOM     29  C   UNL A   1      44.732  23.885  28.356  1.00  0.00     0.029 A 
ATOM     30  N   UNL A   1      44.234  25.917  29.107  1.00  0.00    -0.354 N 
ATOM     31  N   UNL A   1      44.845  28.538  30.271  1.00  0.00    -0.248 NA
ATOM     32  C   UNL A   1      46.341  30.007  31.302  1.00  0.00     0.031 C 
ATOM     33  C   UNL A   1      45.884  24.440  28.924  1.00  0.00     0.029 A 
ATOM     34  C   UNL A   1      45.581  25.718  29.365  1.00  0.00     0.049 A 
ATOM     35  H   UNL A   1      43.733  26.738  29.321  1.00  0.00     0.167 HD
ATOM     36  C   UNL A   1      46.087  27.929  30.365  1.00  0.00     0.074 A 
ATOM     37  C   UNL A   1      46.980  28.893  30.977  1.00  0.00     0.031 C 
ATOM     38  C   UNL A   1      46.455  26.682  29.982  1.00  0.00     0.031 A 
BRANCH  25  39
ATOM     39  C   UNL A   1      41.876  23.324  27.541  1.00  0.00    -0.014 A 
ATOM     40  C   UNL A   1      42.070  23.029  26.183  1.00  0.00     0.009 A 
ATOM     41  C   UNL A   1      41.305  22.346  28.371  1.00  0.00     0.009 A 
ATOM     42  C   UNL A   1      41.672  21.795  25.662  1.00  0.00     0.001 A 
ATOM     43  C   UNL A   1      40.935  21.103  27.854  1.00  0.00     0.001 A 
ATOM     44  C   UNL A   1      41.110  20.832  26.499  1.00  0.00     0.000 A 
ENDBRANCH  25  39
BRANCH  26  45
ATOM     45  C   UNL A   1      44.350  32.139  31.532  1.00  0.00    -0.014 A 
ATOM     46  C   UNL A   1      44.241  32.357  32.914  1.00  0.00     0.009 A 
ATOM     47  C   UNL A   1      44.826  33.179  30.717  1.00  0.00     0.009 A 
ATOM     48  C   UNL A   1      44.580  33.595  33.463  1.00  0.00     0.001 A 
ATOM     49  C   UNL A   1      45.197  34.405  31.274  1.00  0.00     0.001 A 
ATOM     50  C   UNL A   1      45.063  34.615  32.644  1.00  0.00     0.000 A 
ENDBRANCH  26  45
BRANCH  38  51
ATOM     51  C   UNL A   1      47.896  26.304  30.184  1.00  0.00    -0.014 A 
ATOM     52  C   UNL A   1      48.346  25.764  31.400  1.00  0.00     0.009 A 
ATOM     53  C   UNL A   1      48.810  26.464  29.131  1.00  0.00     0.009 A 
ATOM     54  C   UNL A   1      49.690  25.427  31.567  1.00  0.00     0.001 A 
ATOM     55  C   UNL A   1      50.147  26.097  29.291  1.00  0.00     0.001 A 
ATOM     56  C   UNL A   1      50.587  25.588  30.511  1.00  0.00     0.000 A 
ENDBRANCH  38  51
ENDBRANCH  12  13
ENDBRANCH   5   7
ENDBRANCH   2   3
ENDBRANCH   1   2
BRANCH   1  57
ATOM     57  C   UNL A   1      32.608  27.441  25.161  1.00  0.00     0.118 C 
BRANCH  57  58
ATOM     58  N   UNL A   1      31.743  27.803  24.049  1.00  0.00    -0.352 N 
ATOM     59  C   UNL A   1      31.302  27.023  23.011  1.00  0.00     0.251 C 
ATOM     60  H   UNL A   1      31.431  28.736  24.040  1.00  0.00     0.163 HD
ATOM     61  O   UNL A   1      30.740  27.534  22.041  1.00  0.00    -0.269 OA
BRANCH  59  62
ATOM     62  C   UNL A   1      31.515  25.564  23.039  1.00  0.00     0.042 A 
ATOM     63  C   UNL A   1      30.541  24.716  23.576  1.00  0.00     0.014 A 
ATOM     64  C   UNL A   1      32.687  25.041  22.499  1.00  0.00     0.053 A 
ATOM     65  C   UNL A   1      30.786  23.341  23.650  1.00  0.00     0.013 A 
ATOM     66  C   UNL A   1      32.929  23.674  22.606  1.00  0.00     0.132 A 
ATOM     67  C   UNL A   1      32.020  22.813  23.231  1.00  0.00     0.042 A 
ATOM     68  F   UNL A   1      34.091  23.193  22.139  1.00  0.00    -0.206 F 
BRANCH  67  69
ATOM     69  C   UNL A   1      32.376  21.365  23.481  1.00  0.00     0.302 C 
BRANCH  69  70
ATOM     70  N   UNL A   1      32.847  20.981  24.822  1.00  0.00    -0.322 N 
ATOM     71  C   UNL A   1      33.536  19.687  24.926  1.00  0.00     0.324 C 
ATOM     72  C   UNL A   1      33.566  22.010  25.583  1.00  0.00     0.328 C 
ATOM     73  H   UNL A   1      31.941  20.866  25.277  1.00  0.00     0.348 HD
ATOM     74  C   UNL A   1      35.078  19.711  24.761  1.00  0.00     0.324 C 
ATOM     75  C   UNL A   1      35.081  22.078  25.281  1.00  0.00     0.239 C 
ATOM     76  N   UNL A   1      35.771  20.790  25.505  1.00  0.00    -0.323 N 
ATOM     77  C   UNL A   1      35.752  23.201  26.079  1.00  0.00     0.071 C 
ATOM     78  C   UNL A   1      37.174  20.876  25.067  1.00  0.00     0.262 C 
ATOM     79  H   UNL A   1      35.751  20.578  26.502  1.00  0.00     0.348 HD
ATOM     80  C   UNL A   1      37.194  23.361  25.607  1.00  0.00     0.012 C 
ATOM     81  C   UNL A   1      37.933  22.032  25.729  1.00  0.00     0.062 C 
ENDBRANCH  69  70
ENDBRANCH  67  69
ENDBRANCH  59  62
ENDBRANCH  57  58
ENDBRANCH   1  57
TORSDOF 12
ENDMDL
MODEL 3
REMARK VINA RESULT:     -11.6      2.634      7.918
REMARK SMILES O=C(NCCCNC(=O)c1ccc(C[N@H+]2CC[N@H+]3CCCC[C@@H]3C2)c(F)c1)c1ccc(-c2c3nc(c(-c4ccccc4)c4ccc([nH]4)c(-c4ccccc4)c4nc(c(-c5ccccc5)c5ccc2[nH]5)C=C4)C=C3)cc1
REMARK SMILES IDX 5 1 4 2 3 3 1 4 2 5 28 7 29 8 75 9 30 10 74 11 31 12 32 13
REMARK SMILES IDX 33 14 68 15 34 16 73 17 67 18 69 19 35 20 72 21 66 22 65 23
REMARK SMILES IDX 36 25 58 26 43 27 57 28 44 29 47 30 56 31 70 32 45 33 46 34
REMARK SMILES IDX 55 36 71 37 48 38 37 39 38 40 42 41 39 42 41 43 40 44 59 45
REMARK SMILES IDX 60 46 64 47 61 48 63 49 62 50 49 51 50 52 54 53 51 54 53 55
REMARK SMILES IDX 52 56 6 57 7 58 8 59 9 61 10 62 11 63 27 64 12 65 25 66
REMARK SMILES IDX 13 67 26 68 14 69 15 70 16 71 24 72 17 74 23 75 18 76 22 77
REMARK SMILES IDX 19 78 21 80 20 81
REMARK H PARENT 3 6 69 24 47 35 7 60 15 73 18 79
REMARK Flexibility Score: inf
ROOT
ATOM      1  C   UNL A   1      35.516  23.020  24.686  1.00  0.00     0.042 C 
ENDROOT
BRANCH   1   2
ATOM      2  C   UNL A   1      36.826  23.688  25.080  1.00  0.00     0.118 C 
BRANCH   2   3
ATOM      3  N   UNL A   1      37.882  22.731  25.391  1.00  0.00    -0.352 N 
ATOM      4  O   UNL A   1      39.870  21.928  26.050  1.00  0.00    -0.269 OA
ATOM      5  C   UNL A   1      39.076  22.868  26.057  1.00  0.00     0.251 C 
ATOM      6  H   UNL A   1      37.706  21.819  25.065  1.00  0.00     0.163 HD
BRANCH   5   7
ATOM      7  C   UNL A   1      39.439  24.119  26.763  1.00  0.00     0.039 A 
ATOM      8  C   UNL A   1      39.117  24.322  28.104  1.00  0.00     0.014 A 
ATOM      9  C   UNL A   1      40.182  25.094  26.083  1.00  0.00     0.014 A 
ATOM     10  C   UNL A   1      39.376  25.547  28.708  1.00  0.00     0.010 A 
ATOM     11  C   UNL A   1      40.543  26.284  26.726  1.00  0.00     0.010 A 
ATOM     12  C   UNL A   1      40.115  26.534  28.037  1.00  0.00    -0.014 A 
BRANCH  12  13
ATOM     13  C   UNL A   1      40.489  27.776  28.762  1.00  0.00     0.031 A 
ATOM     14  C   UNL A   1      41.874  27.976  29.312  1.00  0.00     0.074 A 
ATOM     15  C   UNL A   1      39.569  28.753  28.886  1.00  0.00     0.049 A 
ATOM     16  N   UNL A   1      42.369  29.018  29.935  1.00  0.00    -0.248 NA
ATOM     17  C   UNL A   1      42.826  26.867  29.153  1.00  0.00     0.031 C 
ATOM     18  C   UNL A   1      38.190  28.680  28.393  1.00  0.00     0.029 A 
ATOM     19  N   UNL A   1      39.655  30.006  29.436  1.00  0.00    -0.354 N 
ATOM     20  C   UNL A   1      43.680  28.687  30.252  1.00  0.00     0.074 A 
ATOM     21  C   UNL A   1      43.897  27.335  29.779  1.00  0.00     0.031 C 
ATOM     22  C   UNL A   1      37.582  29.855  28.608  1.00  0.00     0.029 A 
ATOM     23  C   UNL A   1      38.497  30.737  29.321  1.00  0.00     0.049 A 
ATOM     24  H   UNL A   1      40.469  30.350  29.872  1.00  0.00     0.167 HD
ATOM     25  C   UNL A   1      44.619  29.442  30.873  1.00  0.00     0.031 A 
ATOM     26  C   UNL A   1      38.193  31.973  29.755  1.00  0.00     0.031 A 
ATOM     27  C   UNL A   1      44.397  30.783  31.350  1.00  0.00     0.049 A 
ATOM     28  C   UNL A   1      39.234  32.763  30.491  1.00  0.00     0.074 A 
ATOM     29  C   UNL A   1      45.292  31.635  31.974  1.00  0.00     0.029 A 
ATOM     30  N   UNL A   1      43.191  31.463  31.266  1.00  0.00    -0.354 N 
ATOM     31  N   UNL A   1      40.477  32.445  30.754  1.00  0.00    -0.248 NA
ATOM     32  C   UNL A   1      38.828  34.082  30.991  1.00  0.00     0.031 C 
ATOM     33  C   UNL A   1      44.613  32.808  32.320  1.00  0.00     0.029 A 
ATOM     34  C   UNL A   1      43.312  32.713  31.852  1.00  0.00     0.049 A 
ATOM     35  H   UNL A   1      42.372  31.111  30.850  1.00  0.00     0.167 HD
ATOM     36  C   UNL A   1      41.010  33.531  31.432  1.00  0.00     0.074 A 
ATOM     37  C   UNL A   1      39.959  34.526  31.520  1.00  0.00     0.031 C 
ATOM     38  C   UNL A   1      42.256  33.689  31.939  1.00  0.00     0.031 A 
BRANCH  25  39
ATOM     39  C   UNL A   1      45.973  28.822  31.101  1.00  0.00    -0.014 A 
ATOM     40  C   UNL A   1      46.247  28.066  32.251  1.00  0.00     0.009 A 
ATOM     41  C   UNL A   1      46.974  28.957  30.126  1.00  0.00     0.009 A 
ATOM     42  C   UNL A   1      47.506  27.487  32.434  1.00  0.00     0.001 A 
ATOM     43  C   UNL A   1      48.221  28.353  30.298  1.00  0.00     0.001 A 
ATOM     44  C   UNL A   1      48.489  27.627  31.456  1.00  0.00     0.000 A 
ENDBRANCH  25  39
BRANCH  26  45
ATOM     45  C   UNL A   1      36.833  32.526  29.521  1.00  0.00    -0.014 A 
ATOM     46  C   UNL A   1      35.826  32.388  30.489  1.00  0.00     0.009 A 
ATOM     47  C   UNL A   1      36.539  33.206  28.329  1.00  0.00     0.009 A 
ATOM     48  C   UNL A   1      34.549  32.900  30.257  1.00  0.00     0.001 A 
ATOM     49  C   UNL A   1      35.270  33.747  28.114  1.00  0.00     0.001 A 
ATOM     50  C   UNL A   1      34.273  33.585  29.073  1.00  0.00     0.000 A 
ENDBRANCH  26  45
BRANCH  38  51
ATOM     51  C   UNL A   1      42.560  35.002  32.606  1.00  0.00    -0.014 A 
ATOM     52  C   UNL A   1      43.287  36.006  31.945  1.00  0.00     0.009 A 
ATOM     53  C   UNL A   1      42.087  35.248  33.904  1.00  0.00     0.009 A 
ATOM     54  C   UNL A   1      43.564  37.215  32.587  1.00  0.00     0.001 A 
ATOM     55  C   UNL A   1      42.338  36.469  34.531  1.00  0.00     0.001 A 
ATOM     56  C   UNL A   1      43.084  37.446  33.876  1.00  0.00     0.000 A 
ENDBRANCH  38  51
ENDBRANCH  12  13
ENDBRANCH   5   7
ENDBRANCH   2   3
ENDBRANCH   1   2
BRANCH   1  57
ATOM     57  C   UNL A   1      34.613  22.653  25.860  1.00  0.00     0.118 C 
BRANCH  57  58
ATOM     58  N   UNL A   1      33.763  21.514  25.551  1.00  0.00    -0.352 N 
ATOM     59  C   UNL A   1      32.442  21.500  25.183  1.00  0.00     0.251 C 
ATOM     60  H   UNL A   1      34.194  20.632  25.614  1.00  0.00     0.163 HD
ATOM     61  O   UNL A   1      31.813  20.441  25.153  1.00  0.00    -0.269 OA
BRANCH  59  62
ATOM     62  C   UNL A   1      31.757  22.758  24.836  1.00  0.00     0.042 A 
ATOM     63  C   UNL A   1      31.653  23.166  23.502  1.00  0.00     0.014 A 
ATOM     64  C   UNL A   1      31.191  23.523  25.853  1.00  0.00     0.053 A 
ATOM     65  C   UNL A   1      31.054  24.392  23.197  1.00  0.00     0.013 A 
ATOM     66  C   UNL A   1      30.624  24.755  25.538  1.00  0.00     0.132 A 
ATOM     67  C   UNL A   1      30.597  25.237  24.224  1.00  0.00     0.042 A 
ATOM     68  F   UNL A   1      30.140  25.510  26.535  1.00  0.00    -0.206 F 
BRANCH  67  69
ATOM     69  C   UNL A   1      30.127  26.643  23.927  1.00  0.00     0.302 C 
BRANCH  69  70
ATOM     70  N   UNL A   1      31.109  27.621  23.432  1.00  0.00    -0.322 N 
ATOM     71  C   UNL A   1      30.635  29.005  23.284  1.00  0.00     0.324 C 
ATOM     72  C   UNL A   1      32.433  27.596  24.065  1.00  0.00     0.328 C 
ATOM     73  H   UNL A   1      31.233  27.253  22.490  1.00  0.00     0.348 HD
ATOM     74  C   UNL A   1      30.828  29.936  24.509  1.00  0.00     0.324 C 
ATOM     75  C   UNL A   1      32.534  28.438  25.359  1.00  0.00     0.239 C 
ATOM     76  N   UNL A   1      32.161  29.854  25.154  1.00  0.00    -0.323 N 
ATOM     77  C   UNL A   1      33.930  28.327  25.981  1.00  0.00     0.071 C 
ATOM     78  C   UNL A   1      32.137  30.570  26.440  1.00  0.00     0.262 C 
ATOM     79  H   UNL A   1      32.855  30.290  24.549  1.00  0.00     0.348 HD
ATOM     80  C   UNL A   1      33.926  29.006  27.347  1.00  0.00     0.012 C 
ATOM     81  C   UNL A   1      33.458  30.451  27.210  1.00  0.00     0.062 C 
ENDBRANCH  69  70
ENDBRANCH  67  69
ENDBRANCH  59  62
ENDBRANCH  57  58
ENDBRANCH   1  57
TORSDOF 12
ENDMDL
