MODEL 1
REMARK VINA RESULT:     -11.2      0.000      0.000
REMARK SMILES CSc1cccc([C@@H](C(=O)NCCCNC(=O)c2ccc(-c3c4nc(c(-c5ccccc5)c5ccc([nH]5)c(-c5ccccc5)c5nc(c(-c6ccccc6)c6ccc3[nH]6)C=C5)C=C4)cc2)[N@@H+](C)Cc2ccon2)c1
REMARK SMILES IDX 12 1 11 2 9 3 10 4 8 6 7 7 3 8 4 9 74 10 5 11 6 12 2 13 1 14
REMARK SMILES IDX 66 15 67 16 68 18 69 19 70 20 73 21 71 22 72 23 13 24 14 25
REMARK SMILES IDX 15 26 16 27 17 29 18 30 19 31 65 32 20 33 64 34 21 35 22 36
REMARK SMILES IDX 23 37 58 38 24 39 63 40 57 41 59 42 25 43 62 44 56 45 55 46
REMARK SMILES IDX 26 48 48 49 33 50 47 51 34 52 37 53 46 54 60 55 35 56 36 57
REMARK SMILES IDX 45 59 61 60 38 61 27 62 28 63 32 64 29 65 31 66 30 67 49 68
REMARK SMILES IDX 50 69 54 70 51 71 53 72 52 73 39 74 40 75 44 76 41 77 43 78
REMARK SMILES IDX 42 79
REMARK H PARENT 11 5 66 17 15 28 59 47 37 58
REMARK Flexibility Score: inf
ROOT
ATOM      1  C   UNL A   1      36.009  20.689  24.775  1.00  0.00     0.118 C 
ENDROOT
BRANCH   1   2
ATOM      2  N   UNL A   1      35.492  21.095  26.061  1.00  0.00    -0.351 N 
ATOM      3  C   UNL A   1      34.239  21.403  26.489  1.00  0.00     0.283 C 
ATOM      4  O   UNL A   1      34.178  21.553  27.712  1.00  0.00    -0.268 OA
ATOM      5  H   UNL A   1      36.179  21.163  26.763  1.00  0.00     0.163 HD
BRANCH   3   6
ATOM      6  C   UNL A   1      32.997  21.412  25.541  1.00  0.00     0.305 C 
BRANCH   6   7
ATOM      7  C   UNL A   1      32.767  20.129  24.723  1.00  0.00     0.020 A 
ATOM      8  C   UNL A   1      32.798  17.659  24.630  1.00  0.00     0.007 A 
ATOM      9  C   UNL A   1      32.507  17.713  23.268  1.00  0.00     0.015 A 
ATOM     10  C   UNL A   1      32.877  18.867  25.349  1.00  0.00     0.025 A 
ATOM     11  C   UNL A   1      32.338  18.943  22.636  1.00  0.00     0.002 A 
ATOM     12  C   UNL A   1      32.495  20.130  23.353  1.00  0.00     0.010 A 
BRANCH   8  13
ATOM     13  S   UNL A   1      33.160  16.156  25.530  1.00  0.00    -0.130 SA
ATOM     14  C   UNL A   1      34.925  15.885  25.211  1.00  0.00     0.091 C 
ENDBRANCH   8  13
ENDBRANCH   6   7
BRANCH   6  15
ATOM     15  N   UNL A   1      32.815  22.672  24.759  1.00  0.00    -0.318 N 
ATOM     16  C   UNL A   1      31.502  23.286  24.968  1.00  0.00     0.334 C 
ATOM     17  H   UNL A   1      32.888  22.279  23.821  1.00  0.00     0.349 HD
BRANCH  15  18
ATOM     18  C   UNL A   1      33.888  23.685  24.701  1.00  0.00     0.324 C 
BRANCH  18  19
ATOM     19  C   UNL A   1      33.776  24.763  23.659  1.00  0.00     0.138 A 
ATOM     20  C   UNL A   1      33.641  26.165  23.835  1.00  0.00     0.075 A 
ATOM     21  N   UNL A   1      33.874  24.465  22.352  1.00  0.00    -0.079 NA
ATOM     22  C   UNL A   1      33.529  26.663  22.565  1.00  0.00     0.231 A 
ATOM     23  O   UNL A   1      33.672  25.655  21.674  1.00  0.00    -0.364 OA
ENDBRANCH  18  19
ENDBRANCH  15  18
ENDBRANCH   6  15
ENDBRANCH   3   6
ENDBRANCH   1   2
BRANCH   1  24
ATOM     24  C   UNL A   1      37.180  19.726  24.911  1.00  0.00     0.042 C 
BRANCH  24  25
ATOM     25  C   UNL A   1      38.434  20.361  25.507  1.00  0.00     0.118 C 
BRANCH  25  26
ATOM     26  N   UNL A   1      39.528  19.412  25.664  1.00  0.00    -0.352 N 
ATOM     27  C   UNL A   1      40.829  19.620  26.035  1.00  0.00     0.251 C 
ATOM     28  H   UNL A   1      39.295  18.476  25.472  1.00  0.00     0.163 HD
ATOM     29  O   UNL A   1      41.651  18.710  25.911  1.00  0.00    -0.269 OA
BRANCH  27  30
ATOM     30  C   UNL A   1      41.258  20.924  26.576  1.00  0.00     0.039 A 
ATOM     31  C   UNL A   1      41.802  21.870  25.703  1.00  0.00     0.014 A 
ATOM     32  C   UNL A   1      41.167  21.203  27.942  1.00  0.00     0.014 A 
ATOM     33  C   UNL A   1      42.216  23.109  26.195  1.00  0.00     0.010 A 
ATOM     34  C   UNL A   1      41.495  22.468  28.416  1.00  0.00     0.010 A 
ATOM     35  C   UNL A   1      42.044  23.426  27.551  1.00  0.00    -0.014 A 
BRANCH  35  36
ATOM     36  C   UNL A   1      42.473  24.740  28.092  1.00  0.00     0.031 A 
ATOM     37  C   UNL A   1      41.461  25.834  28.305  1.00  0.00     0.074 A 
ATOM     38  C   UNL A   1      43.774  24.964  28.354  1.00  0.00     0.049 A 
ATOM     39  N   UNL A   1      41.643  27.054  28.743  1.00  0.00    -0.248 NA
ATOM     40  C   UNL A   1      40.067  25.525  27.950  1.00  0.00     0.031 C 
ATOM     41  C   UNL A   1      44.858  23.999  28.161  1.00  0.00     0.029 A 
ATOM     42  N   UNL A   1      44.405  26.081  28.843  1.00  0.00    -0.354 N 
ATOM     43  C   UNL A   1      40.392  27.659  28.701  1.00  0.00     0.074 A 
ATOM     44  C   UNL A   1      39.475  26.695  28.133  1.00  0.00     0.031 C 
ATOM     45  C   UNL A   1      46.013  24.550  28.568  1.00  0.00     0.029 A 
ATOM     46  C   UNL A   1      45.758  25.917  29.011  1.00  0.00     0.049 A 
ATOM     47  H   UNL A   1      43.933  26.918  29.054  1.00  0.00     0.167 HD
ATOM     48  C   UNL A   1      40.030  28.895  29.118  1.00  0.00     0.031 A 
ATOM     49  C   UNL A   1      46.689  26.771  29.474  1.00  0.00     0.031 A 
ATOM     50  C   UNL A   1      40.941  29.853  29.687  1.00  0.00     0.049 A 
ATOM     51  C   UNL A   1      46.269  28.147  29.912  1.00  0.00     0.074 A 
ATOM     52  C   UNL A   1      40.669  31.116  30.182  1.00  0.00     0.029 A 
ATOM     53  N   UNL A   1      42.306  29.651  29.831  1.00  0.00    -0.354 N 
ATOM     54  N   UNL A   1      45.073  28.683  29.923  1.00  0.00    -0.248 NA
ATOM     55  C   UNL A   1      47.331  29.027  30.420  1.00  0.00     0.031 C 
ATOM     56  C   UNL A   1      41.878  31.699  30.577  1.00  0.00     0.029 A 
ATOM     57  C   UNL A   1      42.893  30.774  30.388  1.00  0.00     0.049 A 
ATOM     58  H   UNL A   1      42.785  28.830  29.576  1.00  0.00     0.167 HD
ATOM     59  C   UNL A   1      45.231  29.951  30.469  1.00  0.00     0.074 A 
ATOM     60  C   UNL A   1      46.637  30.096  30.788  1.00  0.00     0.031 C 
ATOM     61  C   UNL A   1      44.295  30.905  30.695  1.00  0.00     0.031 A 
BRANCH  48  62
ATOM     62  C   UNL A   1      38.582  29.277  28.957  1.00  0.00    -0.014 A 
ATOM     63  C   UNL A   1      38.096  29.803  27.749  1.00  0.00     0.009 A 
ATOM     64  C   UNL A   1      37.692  29.113  30.031  1.00  0.00     0.009 A 
ATOM     65  C   UNL A   1      36.763  30.206  27.637  1.00  0.00     0.001 A 
ATOM     66  C   UNL A   1      36.352  29.484  29.903  1.00  0.00     0.001 A 
ATOM     67  C   UNL A   1      35.893  30.044  28.712  1.00  0.00     0.000 A 
ENDBRANCH  48  62
BRANCH  49  68
ATOM     68  C   UNL A   1      48.105  26.335  29.586  1.00  0.00    -0.014 A 
ATOM     69  C   UNL A   1      48.986  26.505  28.506  1.00  0.00     0.009 A 
ATOM     70  C   UNL A   1      48.586  25.755  30.769  1.00  0.00     0.009 A 
ATOM     71  C   UNL A   1      50.313  26.083  28.602  1.00  0.00     0.001 A 
ATOM     72  C   UNL A   1      49.922  25.359  30.872  1.00  0.00     0.001 A 
ATOM     73  C   UNL A   1      50.782  25.515  29.787  1.00  0.00     0.000 A 
ENDBRANCH  49  68
BRANCH  61  74
ATOM     74  C   UNL A   1      44.754  32.174  31.359  1.00  0.00    -0.014 A 
ATOM     75  C   UNL A   1      44.843  32.283  32.755  1.00  0.00     0.009 A 
ATOM     76  C   UNL A   1      45.133  33.269  30.566  1.00  0.00     0.009 A 
ATOM     77  C   UNL A   1      45.265  33.478  33.345  1.00  0.00     0.001 A 
ATOM     78  C   UNL A   1      45.585  34.450  31.157  1.00  0.00     0.001 A 
ATOM     79  C   UNL A   1      45.639  34.557  32.545  1.00  0.00     0.000 A 
ENDBRANCH  61  74
ENDBRANCH  35  36
ENDBRANCH  27  30
ENDBRANCH  25  26
ENDBRANCH  24  25
ENDBRANCH   1  24
TORSDOF 15
ENDMDL
MODEL 2
REMARK VINA RESULT:     -11.1      4.298      9.369
REMARK SMILES CSc1cccc([C@@H](C(=O)NCCCNC(=O)c2ccc(-c3c4nc(c(-c5ccccc5)c5ccc([nH]5)c(-c5ccccc5)c5nc(c(-c6ccccc6)c6ccc3[nH]6)C=C5)C=C4)cc2)[N@@H+](C)Cc2ccon2)c1
REMARK SMILES IDX 12 1 11 2 9 3 10 4 8 6 7 7 3 8 4 9 74 10 5 11 6 12 2 13 1 14
REMARK SMILES IDX 66 15 67 16 68 18 69 19 70 20 73 21 71 22 72 23 13 24 14 25
REMARK SMILES IDX 15 26 16 27 17 29 18 30 19 31 65 32 20 33 64 34 21 35 22 36
REMARK SMILES IDX 23 37 58 38 24 39 63 40 57 41 59 42 25 43 62 44 56 45 55 46
REMARK SMILES IDX 26 48 48 49 33 50 47 51 34 52 37 53 46 54 60 55 35 56 36 57
REMARK SMILES IDX 45 59 61 60 38 61 27 62 28 63 32 64 29 65 31 66 30 67 49 68
REMARK SMILES IDX 50 69 54 70 51 71 53 72 52 73 39 74 40 75 44 76 41 77 43 78
REMARK SMILES IDX 42 79
REMARK H PARENT 11 5 66 17 15 28 59 47 37 58
REMARK Flexibility Score: inf
ROOT
ATOM      1  C   UNL A   1      31.434  29.775  25.447  1.00  0.00     0.118 C 
ENDROOT
BRANCH   1   2
ATOM      2  N   UNL A   1      32.512  29.671  24.493  1.00  0.00    -0.351 N 
ATOM      3  C   UNL A   1      32.670  28.927  23.366  1.00  0.00     0.283 C 
ATOM      4  O   UNL A   1      33.681  29.237  22.730  1.00  0.00    -0.268 OA
ATOM      5  H   UNL A   1      33.282  30.249  24.698  1.00  0.00     0.163 HD
BRANCH   3   6
ATOM      6  C   UNL A   1      31.600  27.902  22.869  1.00  0.00     0.305 C 
BRANCH   6   7
ATOM      7  C   UNL A   1      30.160  28.432  22.763  1.00  0.00     0.020 A 
ATOM      8  C   UNL A   1      28.635  30.262  22.102  1.00  0.00     0.007 A 
ATOM      9  C   UNL A   1      27.564  29.558  22.649  1.00  0.00     0.015 A 
ATOM     10  C   UNL A   1      29.911  29.668  22.124  1.00  0.00     0.025 A 
ATOM     11  C   UNL A   1      27.771  28.312  23.235  1.00  0.00     0.002 A 
ATOM     12  C   UNL A   1      29.057  27.775  23.313  1.00  0.00     0.010 A 
BRANCH   8  13
ATOM     13  S   UNL A   1      28.526  31.919  21.436  1.00  0.00    -0.130 SA
ATOM     14  C   UNL A   1      28.823  32.978  22.879  1.00  0.00     0.091 C 
ENDBRANCH   8  13
ENDBRANCH   6   7
BRANCH   6  15
ATOM     15  N   UNL A   1      31.704  26.543  23.482  1.00  0.00    -0.318 N 
ATOM     16  C   UNL A   1      31.854  25.480  22.485  1.00  0.00     0.334 C 
ATOM     17  H   UNL A   1      30.783  26.504  23.919  1.00  0.00     0.349 HD
BRANCH  15  18
ATOM     18  C   UNL A   1      32.561  26.310  24.661  1.00  0.00     0.324 C 
BRANCH  18  19
ATOM     19  C   UNL A   1      32.167  25.210  25.606  1.00  0.00     0.138 A 
ATOM     20  C   UNL A   1      32.602  23.858  25.635  1.00  0.00     0.075 A 
ATOM     21  N   UNL A   1      31.346  25.457  26.641  1.00  0.00    -0.079 NA
ATOM     22  C   UNL A   1      31.893  23.289  26.657  1.00  0.00     0.231 A 
ATOM     23  O   UNL A   1      31.144  24.237  27.266  1.00  0.00    -0.364 OA
ENDBRANCH  18  19
ENDBRANCH  15  18
ENDBRANCH   6  15
ENDBRANCH   3   6
ENDBRANCH   1   2
BRANCH   1  24
ATOM     24  C   UNL A   1      31.252  31.202  25.947  1.00  0.00     0.042 C 
BRANCH  24  25
ATOM     25  C   UNL A   1      32.315  31.642  26.950  1.00  0.00     0.118 C 
BRANCH  25  26
ATOM     26  N   UNL A   1      32.207  33.050  27.306  1.00  0.00    -0.352 N 
ATOM     27  C   UNL A   1      33.000  33.818  28.116  1.00  0.00     0.251 C 
ATOM     28  H   UNL A   1      31.445  33.522  26.901  1.00  0.00     0.163 HD
ATOM     29  O   UNL A   1      32.621  34.943  28.450  1.00  0.00    -0.269 OA
BRANCH  27  30
ATOM     30  C   UNL A   1      34.299  33.312  28.597  1.00  0.00     0.039 A 
ATOM     31  C   UNL A   1      35.446  33.572  27.842  1.00  0.00     0.014 A 
ATOM     32  C   UNL A   1      34.387  32.546  29.762  1.00  0.00     0.014 A 
ATOM     33  C   UNL A   1      36.685  33.100  28.279  1.00  0.00     0.010 A 
ATOM     34  C   UNL A   1      35.631  32.153  30.244  1.00  0.00     0.010 A 
ATOM     35  C   UNL A   1      36.790  32.407  29.495  1.00  0.00    -0.014 A 
BRANCH  35  36
ATOM     36  C   UNL A   1      38.099  31.902  29.980  1.00  0.00     0.031 A 
ATOM     37  C   UNL A   1      38.637  30.592  29.470  1.00  0.00     0.074 A 
ATOM     38  C   UNL A   1      38.784  32.599  30.906  1.00  0.00     0.049 A 
ATOM     39  N   UNL A   1      39.746  29.973  29.790  1.00  0.00    -0.248 NA
ATOM     40  C   UNL A   1      37.806  29.868  28.495  1.00  0.00     0.031 C 
ATOM     41  C   UNL A   1      38.357  33.865  31.504  1.00  0.00     0.029 A 
ATOM     42  N   UNL A   1      39.991  32.337  31.505  1.00  0.00    -0.354 N 
ATOM     43  C   UNL A   1      39.735  28.785  29.069  1.00  0.00     0.074 A 
ATOM     44  C   UNL A   1      38.482  28.740  28.348  1.00  0.00     0.031 C 
ATOM     45  C   UNL A   1      39.307  34.292  32.351  1.00  0.00     0.029 A 
ATOM     46  C   UNL A   1      40.388  33.311  32.387  1.00  0.00     0.049 A 
ATOM     47  H   UNL A   1      40.522  31.530  31.318  1.00  0.00     0.167 HD
ATOM     48  C   UNL A   1      40.689  27.828  28.991  1.00  0.00     0.031 A 
ATOM     49  C   UNL A   1      41.500  33.407  33.139  1.00  0.00     0.031 A 
ATOM     50  C   UNL A   1      41.937  27.875  29.705  1.00  0.00     0.049 A 
ATOM     51  C   UNL A   1      42.538  32.322  33.054  1.00  0.00     0.074 A 
ATOM     52  C   UNL A   1      42.992  26.979  29.663  1.00  0.00     0.029 A 
ATOM     53  N   UNL A   1      42.297  28.875  30.597  1.00  0.00    -0.354 N 
ATOM     54  N   UNL A   1      42.541  31.235  32.322  1.00  0.00    -0.248 NA
ATOM     55  C   UNL A   1      43.735  32.491  33.889  1.00  0.00     0.031 C 
ATOM     56  C   UNL A   1      43.966  27.410  30.570  1.00  0.00     0.029 A 
ATOM     57  C   UNL A   1      43.547  28.607  31.128  1.00  0.00     0.049 A 
ATOM     58  H   UNL A   1      41.745  29.659  30.819  1.00  0.00     0.167 HD
ATOM     59  C   UNL A   1      43.753  30.607  32.581  1.00  0.00     0.074 A 
ATOM     60  C   UNL A   1      44.462  31.443  33.528  1.00  0.00     0.031 C 
ATOM     61  C   UNL A   1      44.238  29.448  32.074  1.00  0.00     0.031 A 
BRANCH  48  62
ATOM     62  C   UNL A   1      40.402  26.643  28.108  1.00  0.00    -0.014 A 
ATOM     63  C   UNL A   1      40.845  26.601  26.775  1.00  0.00     0.009 A 
ATOM     64  C   UNL A   1      39.674  25.554  28.614  1.00  0.00     0.009 A 
ATOM     65  C   UNL A   1      40.519  25.519  25.954  1.00  0.00     0.001 A 
ATOM     66  C   UNL A   1      39.381  24.458  27.799  1.00  0.00     0.001 A 
ATOM     67  C   UNL A   1      39.790  24.449  26.467  1.00  0.00     0.000 A 
ENDBRANCH  48  62
BRANCH  49  68
ATOM     68  C   UNL A   1      41.709  34.595  34.006  1.00  0.00    -0.014 A 
ATOM     69  C   UNL A   1      41.239  34.598  35.329  1.00  0.00     0.009 A 
ATOM     70  C   UNL A   1      42.383  35.727  33.523  1.00  0.00     0.009 A 
ATOM     71  C   UNL A   1      41.421  35.718  36.142  1.00  0.00     0.001 A 
ATOM     72  C   UNL A   1      42.588  36.836  34.347  1.00  0.00     0.001 A 
ATOM     73  C   UNL A   1      42.100  36.834  35.653  1.00  0.00     0.000 A 
ENDBRANCH  49  68
BRANCH  61  74
ATOM     74  C   UNL A   1      45.622  29.037  32.498  1.00  0.00    -0.014 A 
ATOM     75  C   UNL A   1      46.762  29.463  31.800  1.00  0.00     0.009 A 
ATOM     76  C   UNL A   1      45.783  28.234  33.638  1.00  0.00     0.009 A 
ATOM     77  C   UNL A   1      48.034  29.060  32.213  1.00  0.00     0.001 A 
ATOM     78  C   UNL A   1      47.057  27.859  34.067  1.00  0.00     0.001 A 
ATOM     79  C   UNL A   1      48.180  28.263  33.348  1.00  0.00     0.000 A 
ENDBRANCH  61  74
ENDBRANCH  35  36
ENDBRANCH  27  30
ENDBRANCH  25  26
ENDBRANCH  24  25
ENDBRANCH   1  24
TORSDOF 15
ENDMDL
MODEL 3
REMARK VINA RESULT:     -10.9      4.401      9.187
REMARK SMILES CSc1cccc([C@@H](C(=O)NCCCNC(=O)c2ccc(-c3c4nc(c(-c5ccccc5)c5ccc([nH]5)c(-c5ccccc5)c5nc(c(-c6ccccc6)c6ccc3[nH]6)C=C5)C=C4)cc2)[N@@H+](C)Cc2ccon2)c1
REMARK SMILES IDX 12 1 11 2 9 3 10 4 8 6 7 7 3 8 4 9 74 10 5 11 6 12 2 13 1 14
REMARK SMILES IDX 66 15 67 16 68 18 69 19 70 20 73 21 71 22 72 23 13 24 14 25
REMARK SMILES IDX 15 26 16 27 17 29 18 30 19 31 65 32 20 33 64 34 21 35 22 36
REMARK SMILES IDX 23 37 58 38 24 39 63 40 57 41 59 42 25 43 62 44 56 45 55 46
REMARK SMILES IDX 26 48 48 49 33 50 47 51 34 52 37 53 46 54 60 55 35 56 36 57
REMARK SMILES IDX 45 59 61 60 38 61 27 62 28 63 32 64 29 65 31 66 30 67 49 68
REMARK SMILES IDX 50 69 54 70 51 71 53 72 52 73 39 74 40 75 44 76 41 77 43 78
REMARK SMILES IDX 42 79
REMARK H PARENT 11 5 66 17 15 28 59 47 37 58
REMARK Flexibility Score: inf
ROOT
ATOM      1  C   UNL A   1      31.397  29.857  25.416  1.00  0.00     0.118 C 
ENDROOT
BRANCH   1   2
ATOM      2  N   UNL A   1      32.493  29.723  24.486  1.00  0.00    -0.351 N 
ATOM      3  C   UNL A   1      32.684  28.921  23.405  1.00  0.00     0.283 C 
ATOM      4  O   UNL A   1      33.698  29.217  22.768  1.00  0.00    -0.268 OA
ATOM      5  H   UNL A   1      33.247  30.328  24.670  1.00  0.00     0.163 HD
BRANCH   3   6
ATOM      6  C   UNL A   1      31.644  27.847  22.950  1.00  0.00     0.305 C 
BRANCH   6   7
ATOM      7  C   UNL A   1      30.192  28.336  22.809  1.00  0.00     0.020 A 
ATOM      8  C   UNL A   1      28.628  30.095  22.052  1.00  0.00     0.007 A 
ATOM      9  C   UNL A   1      27.570  29.390  22.623  1.00  0.00     0.015 A 
ATOM     10  C   UNL A   1      29.919  29.534  22.111  1.00  0.00     0.025 A 
ATOM     11  C   UNL A   1      27.803  28.178  23.268  1.00  0.00     0.002 A 
ATOM     12  C   UNL A   1      29.101  27.678  23.380  1.00  0.00     0.010 A 
BRANCH   8  13
ATOM     13  S   UNL A   1      28.484  31.715  21.308  1.00  0.00    -0.130 SA
ATOM     14  C   UNL A   1      28.790  32.847  22.693  1.00  0.00     0.091 C 
ENDBRANCH   8  13
ENDBRANCH   6   7
BRANCH   6  15
ATOM     15  N   UNL A   1      31.776  26.522  23.627  1.00  0.00    -0.318 N 
ATOM     16  C   UNL A   1      32.036  25.427  22.689  1.00  0.00     0.334 C 
ATOM     17  H   UNL A   1      30.834  26.455  24.012  1.00  0.00     0.349 HD
BRANCH  15  18
ATOM     18  C   UNL A   1      32.572  26.382  24.863  1.00  0.00     0.324 C 
BRANCH  18  19
ATOM     19  C   UNL A   1      32.223  25.256  25.796  1.00  0.00     0.138 A 
ATOM     20  C   UNL A   1      32.940  24.059  26.060  1.00  0.00     0.075 A 
ATOM     21  N   UNL A   1      31.136  25.331  26.583  1.00  0.00    -0.079 NA
ATOM     22  C   UNL A   1      32.151  23.372  26.941  1.00  0.00     0.231 A 
ATOM     23  O   UNL A   1      31.075  24.126  27.262  1.00  0.00    -0.364 OA
ENDBRANCH  18  19
ENDBRANCH  15  18
ENDBRANCH   6  15
ENDBRANCH   3   6
ENDBRANCH   1   2
BRANCH   1  24
ATOM     24  C   UNL A   1      31.251  31.285  25.922  1.00  0.00     0.042 C 
BRANCH  24  25
ATOM     25  C   UNL A   1      32.286  31.674  26.974  1.00  0.00     0.118 C 
BRANCH  25  26
ATOM     26  N   UNL A   1      32.245  33.091  27.311  1.00  0.00    -0.352 N 
ATOM     27  C   UNL A   1      33.070  33.831  28.115  1.00  0.00     0.251 C 
ATOM     28  H   UNL A   1      31.508  33.594  26.896  1.00  0.00     0.163 HD
ATOM     29  O   UNL A   1      32.744  34.976  28.432  1.00  0.00    -0.269 OA
BRANCH  27  30
ATOM     30  C   UNL A   1      34.341  33.268  28.609  1.00  0.00     0.039 A 
ATOM     31  C   UNL A   1      35.527  33.600  27.949  1.00  0.00     0.014 A 
ATOM     32  C   UNL A   1      34.366  32.384  29.691  1.00  0.00     0.014 A 
ATOM     33  C   UNL A   1      36.740  33.077  28.399  1.00  0.00     0.010 A 
ATOM     34  C   UNL A   1      35.582  31.936  30.194  1.00  0.00     0.010 A 
ATOM     35  C   UNL A   1      36.780  32.260  29.540  1.00  0.00    -0.014 A 
BRANCH  35  36
ATOM     36  C   UNL A   1      38.061  31.699  30.038  1.00  0.00     0.031 A 
ATOM     37  C   UNL A   1      38.814  32.401  31.135  1.00  0.00     0.074 A 
ATOM     38  C   UNL A   1      38.566  30.583  29.478  1.00  0.00     0.049 A 
ATOM     39  N   UNL A   1      39.959  32.082  31.686  1.00  0.00    -0.248 NA
ATOM     40  C   UNL A   1      38.220  33.640  31.661  1.00  0.00     0.031 C 
ATOM     41  C   UNL A   1      37.949  29.827  28.387  1.00  0.00     0.029 A 
ATOM     42  N   UNL A   1      39.717  29.890  29.756  1.00  0.00    -0.354 N 
ATOM     43  C   UNL A   1      40.225  33.087  32.609  1.00  0.00     0.074 A 
ATOM     44  C   UNL A   1      39.158  34.057  32.495  1.00  0.00     0.031 C 
ATOM     45  C   UNL A   1      38.706  28.751  28.118  1.00  0.00     0.029 A 
ATOM     46  C   UNL A   1      39.879  28.765  28.986  1.00  0.00     0.049 A 
ATOM     47  H   UNL A   1      40.364  30.172  30.442  1.00  0.00     0.167 HD
ATOM     48  C   UNL A   1      41.248  33.185  33.489  1.00  0.00     0.031 A 
ATOM     49  C   UNL A   1      40.861  27.844  28.983  1.00  0.00     0.031 A 
ATOM     50  C   UNL A   1      42.307  32.218  33.605  1.00  0.00     0.049 A 
ATOM     51  C   UNL A   1      42.000  27.983  29.955  1.00  0.00     0.074 A 
ATOM     52  C   UNL A   1      43.368  32.200  34.493  1.00  0.00     0.029 A 
ATOM     53  N   UNL A   1      42.440  31.096  32.799  1.00  0.00    -0.354 N 
ATOM     54  N   UNL A   1      42.206  28.907  30.862  1.00  0.00    -0.248 NA
ATOM     55  C   UNL A   1      43.033  26.938  29.910  1.00  0.00     0.031 C 
ATOM     56  C   UNL A   1      44.172  31.095  34.190  1.00  0.00     0.029 A 
ATOM     57  C   UNL A   1      43.576  30.390  33.156  1.00  0.00     0.049 A 
ATOM     58  H   UNL A   1      41.817  30.840  32.081  1.00  0.00     0.167 HD
ATOM     59  C   UNL A   1      43.373  28.537  31.520  1.00  0.00     0.074 A 
ATOM     60  C   UNL A   1      43.820  27.299  30.914  1.00  0.00     0.031 C 
ATOM     61  C   UNL A   1      44.010  29.162  32.540  1.00  0.00     0.031 A 
BRANCH  48  62
ATOM     62  C   UNL A   1      41.269  34.395  34.385  1.00  0.00    -0.014 A 
ATOM     63  C   UNL A   1      40.583  34.409  35.611  1.00  0.00     0.009 A 
ATOM     64  C   UNL A   1      41.982  35.540  33.997  1.00  0.00     0.009 A 
ATOM     65  C   UNL A   1      40.565  35.560  36.401  1.00  0.00     0.001 A 
ATOM     66  C   UNL A   1      41.992  36.678  34.807  1.00  0.00     0.001 A 
ATOM     67  C   UNL A   1      41.271  36.692  36.000  1.00  0.00     0.000 A 
ENDBRANCH  48  62
BRANCH  49  68
ATOM     68  C   UNL A   1      40.787  26.685  28.056  1.00  0.00    -0.014 A 
ATOM     69  C   UNL A   1      40.170  25.492  28.463  1.00  0.00     0.009 A 
ATOM     70  C   UNL A   1      41.321  26.766  26.762  1.00  0.00     0.009 A 
ATOM     71  C   UNL A   1      40.110  24.396  27.600  1.00  0.00     0.001 A 
ATOM     72  C   UNL A   1      41.236  25.677  25.890  1.00  0.00     0.001 A 
ATOM     73  C   UNL A   1      40.638  24.491  26.312  1.00  0.00     0.000 A 
ENDBRANCH  49  68
BRANCH  61  74
ATOM     74  C   UNL A   1      45.237  28.492  33.096  1.00  0.00    -0.014 A 
ATOM     75  C   UNL A   1      45.154  27.541  34.124  1.00  0.00     0.009 A 
ATOM     76  C   UNL A   1      46.496  28.800  32.556  1.00  0.00     0.009 A 
ATOM     77  C   UNL A   1      46.311  26.941  34.626  1.00  0.00     0.001 A 
ATOM     78  C   UNL A   1      47.647  28.176  33.037  1.00  0.00     0.001 A 
ATOM     79  C   UNL A   1      47.555  27.255  34.080  1.00  0.00     0.000 A 
ENDBRANCH  61  74
ENDBRANCH  35  36
ENDBRANCH  27  30
ENDBRANCH  25  26
ENDBRANCH  24  25
ENDBRANCH   1  24
TORSDOF 15
ENDMDL
