MODEL 1
REMARK VINA RESULT:     -11.3      0.000      0.000
REMARK SMILES C[C@@H]1CN(c2cc(C(=O)NCCCNC(=O)c3ccc(-c4c5nc(c(-c6ccccc6)c6ccc([nH]6)c(-c6ccccc6)c6nc(c(-c7ccccc7)c7ccc4[nH]7)C=C6)C=C5)cc3)c(F)cc2F)S(=O)(=O)C1
REMARK SMILES IDX 12 1 11 2 10 3 8 4 9 5 7 7 5 8 6 9 68 10 67 11 69 12 65 13
REMARK SMILES IDX 66 14 4 15 1 16 2 17 3 18 73 19 70 20 71 21 72 22 13 23
REMARK SMILES IDX 14 24 15 25 16 27 17 28 18 29 64 30 19 31 63 32 20 33 21 34
REMARK SMILES IDX 22 35 57 36 23 37 62 38 56 39 58 40 24 41 61 42 55 43 54 44
REMARK SMILES IDX 25 46 47 47 32 48 46 49 33 50 36 51 45 52 59 53 34 54 35 55
REMARK SMILES IDX 44 57 60 58 37 59 26 60 27 61 31 62 28 63 30 64 29 65 48 66
REMARK SMILES IDX 49 67 53 68 50 69 52 70 51 71 38 72 39 73 43 74 40 75 42 76
REMARK SMILES IDX 41 77
REMARK H PARENT 10 6 14 26 58 45 36 56
REMARK Flexibility Score: inf
ROOT
ATOM      1  C   UNL A   1      32.487  28.286  26.380  1.00  0.00     0.042 C 
ENDROOT
BRANCH   1   2
ATOM      2  C   UNL A   1      32.130  29.333  25.325  1.00  0.00     0.118 C 
BRANCH   2   3
ATOM      3  N   UNL A   1      33.151  29.384  24.300  1.00  0.00    -0.352 N 
ATOM      4  C   UNL A   1      33.582  28.477  23.376  1.00  0.00     0.254 C 
ATOM      5  O   UNL A   1      34.528  28.828  22.665  1.00  0.00    -0.269 OA
ATOM      6  H   UNL A   1      33.628  30.244  24.262  1.00  0.00     0.163 HD
BRANCH   4   7
ATOM      7  C   UNL A   1      32.979  27.144  23.127  1.00  0.00     0.077 A 
ATOM      8  C   UNL A   1      33.230  24.750  23.572  1.00  0.00     0.088 A 
ATOM      9  C   UNL A   1      33.705  26.059  23.654  1.00  0.00     0.047 A 
ATOM     10  C   UNL A   1      31.983  24.517  22.990  1.00  0.00     0.150 A 
ATOM     11  C   UNL A   1      31.260  25.565  22.434  1.00  0.00     0.081 A 
ATOM     12  F   UNL A   1      31.423  23.300  23.026  1.00  0.00    -0.205 F 
ATOM     13  C   UNL A   1      31.749  26.870  22.526  1.00  0.00     0.139 A 
ATOM     14  F   UNL A   1      30.937  27.838  22.088  1.00  0.00    -0.206 F 
BRANCH   8  15
ATOM     15  N   UNL A   1      33.994  23.758  24.264  1.00  0.00    -0.267 N 
ATOM     16  C   UNL A   1      37.421  23.444  25.826  1.00  0.00     0.011 C 
ATOM     17  C   UNL A   1      35.997  23.082  25.441  1.00  0.00     0.023 C 
ATOM     18  C   UNL A   1      35.472  23.917  24.267  1.00  0.00     0.140 C 
ATOM     19  C   UNL A   1      34.998  23.311  26.573  1.00  0.00     0.165 C 
ATOM     20  S   UNL A   1      33.416  23.161  25.762  1.00  0.00     0.235 S 
ATOM     21  O   UNL A   1      32.464  24.061  26.365  1.00  0.00    -0.206 OA
ATOM     22  O   UNL A   1      33.131  21.752  25.584  1.00  0.00    -0.206 OA
ENDBRANCH   8  15
ENDBRANCH   4   7
ENDBRANCH   2   3
ENDBRANCH   1   2
BRANCH   1  23
ATOM     23  C   UNL A   1      33.697  28.673  27.225  1.00  0.00     0.118 C 
BRANCH  23  24
ATOM     24  N   UNL A   1      33.660  30.078  27.609  1.00  0.00    -0.352 N 
ATOM     25  C   UNL A   1      34.561  30.825  28.322  1.00  0.00     0.251 C 
ATOM     26  H   UNL A   1      32.861  30.568  27.310  1.00  0.00     0.163 HD
ATOM     27  O   UNL A   1      34.221  31.917  28.768  1.00  0.00    -0.269 OA
BRANCH  25  28
ATOM     28  C   UNL A   1      35.934  30.332  28.552  1.00  0.00     0.039 A 
ATOM     29  C   UNL A   1      36.862  30.415  27.510  1.00  0.00     0.014 A 
ATOM     30  C   UNL A   1      36.294  29.734  29.762  1.00  0.00     0.014 A 
ATOM     31  C   UNL A   1      38.157  29.931  27.695  1.00  0.00     0.010 A 
ATOM     32  C   UNL A   1      37.609  29.333  29.976  1.00  0.00     0.010 A 
ATOM     33  C   UNL A   1      38.549  29.409  28.939  1.00  0.00    -0.014 A 
BRANCH  33  34
ATOM     34  C   UNL A   1      39.930  28.916  29.161  1.00  0.00     0.031 A 
ATOM     35  C   UNL A   1      40.963  29.817  29.782  1.00  0.00     0.074 A 
ATOM     36  C   UNL A   1      40.265  27.675  28.762  1.00  0.00     0.049 A 
ATOM     37  N   UNL A   1      42.228  29.579  30.025  1.00  0.00    -0.248 NA
ATOM     38  C   UNL A   1      40.527  31.172  30.158  1.00  0.00     0.031 C 
ATOM     39  C   UNL A   1      39.362  26.720  28.113  1.00  0.00     0.029 A 
ATOM     40  N   UNL A   1      41.457  27.000  28.844  1.00  0.00    -0.354 N 
ATOM     41  C   UNL A   1      42.738  30.755  30.562  1.00  0.00     0.074 A 
ATOM     42  C   UNL A   1      41.664  31.723  30.557  1.00  0.00     0.031 C 
ATOM     43  C   UNL A   1      40.022  25.573  27.890  1.00  0.00     0.029 A 
ATOM     44  C   UNL A   1      41.404  25.725  28.335  1.00  0.00     0.049 A 
ATOM     45  H   UNL A   1      42.272  27.392  29.229  1.00  0.00     0.167 HD
ATOM     46  C   UNL A   1      43.981  31.001  31.038  1.00  0.00     0.031 A 
ATOM     47  C   UNL A   1      42.361  24.785  28.233  1.00  0.00     0.031 A 
ATOM     48  C   UNL A   1      45.045  30.032  31.045  1.00  0.00     0.049 A 
ATOM     49  C   UNL A   1      43.739  25.091  28.752  1.00  0.00     0.074 A 
ATOM     50  C   UNL A   1      46.327  30.165  31.549  1.00  0.00     0.029 A 
ATOM     51  N   UNL A   1      44.951  28.753  30.522  1.00  0.00    -0.354 N 
ATOM     52  N   UNL A   1      44.187  26.186  29.319  1.00  0.00    -0.248 NA
ATOM     53  C   UNL A   1      44.740  24.023  28.632  1.00  0.00     0.031 C 
ATOM     54  C   UNL A   1      47.027  28.986  31.276  1.00  0.00     0.029 A 
ATOM     55  C   UNL A   1      46.160  28.093  30.668  1.00  0.00     0.049 A 
ATOM     56  H   UNL A   1      44.143  28.370  30.107  1.00  0.00     0.167 HD
ATOM     57  C   UNL A   1      45.509  25.924  29.656  1.00  0.00     0.074 A 
ATOM     58  C   UNL A   1      45.783  24.563  29.245  1.00  0.00     0.031 C 
ATOM     59  C   UNL A   1      46.414  26.737  30.254  1.00  0.00     0.031 A 
BRANCH  46  60
ATOM     60  C   UNL A   1      44.260  32.378  31.579  1.00  0.00    -0.014 A 
ATOM     61  C   UNL A   1      44.063  32.683  32.936  1.00  0.00     0.009 A 
ATOM     62  C   UNL A   1      44.759  33.375  30.728  1.00  0.00     0.009 A 
ATOM     63  C   UNL A   1      44.325  33.968  33.419  1.00  0.00     0.001 A 
ATOM     64  C   UNL A   1      45.052  34.648  31.219  1.00  0.00     0.001 A 
ATOM     65  C   UNL A   1      44.825  34.947  32.562  1.00  0.00     0.000 A 
ENDBRANCH  46  60
BRANCH  47  66
ATOM     66  C   UNL A   1      42.051  23.462  27.631  1.00  0.00    -0.014 A 
ATOM     67  C   UNL A   1      42.311  23.216  26.273  1.00  0.00     0.009 A 
ATOM     68  C   UNL A   1      41.478  22.441  28.405  1.00  0.00     0.009 A 
ATOM     69  C   UNL A   1      41.970  21.991  25.696  1.00  0.00     0.001 A 
ATOM     70  C   UNL A   1      41.170  21.204  27.834  1.00  0.00     0.001 A 
ATOM     71  C   UNL A   1      41.404  20.984  26.477  1.00  0.00     0.000 A 
ENDBRANCH  47  66
BRANCH  59  72
ATOM     72  C   UNL A   1      47.771  26.155  30.548  1.00  0.00    -0.014 A 
ATOM     73  C   UNL A   1      48.767  26.075  29.563  1.00  0.00     0.009 A 
ATOM     74  C   UNL A   1      48.060  25.706  31.846  1.00  0.00     0.009 A 
ATOM     75  C   UNL A   1      50.011  25.515  29.862  1.00  0.00     0.001 A 
ATOM     76  C   UNL A   1      49.316  25.181  32.151  1.00  0.00     0.001 A 
ATOM     77  C   UNL A   1      50.286  25.074  31.157  1.00  0.00     0.000 A 
ENDBRANCH  59  72
ENDBRANCH  33  34
ENDBRANCH  25  28
ENDBRANCH  23  24
ENDBRANCH   1  23
TORSDOF 11
ENDMDL
MODEL 2
REMARK VINA RESULT:     -11.2      2.265      7.526
REMARK SMILES C[C@@H]1CN(c2cc(C(=O)NCCCNC(=O)c3ccc(-c4c5nc(c(-c6ccccc6)c6ccc([nH]6)c(-c6ccccc6)c6nc(c(-c7ccccc7)c7ccc4[nH]7)C=C6)C=C5)cc3)c(F)cc2F)S(=O)(=O)C1
REMARK SMILES IDX 12 1 11 2 10 3 8 4 9 5 7 7 5 8 6 9 68 10 67 11 69 12 65 13
REMARK SMILES IDX 66 14 4 15 1 16 2 17 3 18 73 19 70 20 71 21 72 22 13 23
REMARK SMILES IDX 14 24 15 25 16 27 17 28 18 29 64 30 19 31 63 32 20 33 21 34
REMARK SMILES IDX 22 35 57 36 23 37 62 38 56 39 58 40 24 41 61 42 55 43 54 44
REMARK SMILES IDX 25 46 47 47 32 48 46 49 33 50 36 51 45 52 59 53 34 54 35 55
REMARK SMILES IDX 44 57 60 58 37 59 26 60 27 61 31 62 28 63 30 64 29 65 48 66
REMARK SMILES IDX 49 67 53 68 50 69 52 70 51 71 38 72 39 73 43 74 40 75 42 76
REMARK SMILES IDX 41 77
REMARK H PARENT 10 6 14 26 58 45 36 56
REMARK Flexibility Score: inf
ROOT
ATOM      1  C   UNL A   1      38.035  19.786  24.863  1.00  0.00     0.042 C 
ENDROOT
BRANCH   1   2
ATOM      2  C   UNL A   1      37.057  20.934  24.610  1.00  0.00     0.118 C 
BRANCH   2   3
ATOM      3  N   UNL A   1      37.524  22.145  25.250  1.00  0.00    -0.352 N 
ATOM      4  C   UNL A   1      36.876  23.209  25.805  1.00  0.00     0.254 C 
ATOM      5  O   UNL A   1      37.588  24.122  26.232  1.00  0.00    -0.269 OA
ATOM      6  H   UNL A   1      38.505  22.214  25.293  1.00  0.00     0.163 HD
BRANCH   4   7
ATOM      7  C   UNL A   1      35.406  23.330  25.981  1.00  0.00     0.077 A 
ATOM      8  C   UNL A   1      33.425  24.563  25.243  1.00  0.00     0.088 A 
ATOM      9  C   UNL A   1      34.807  24.370  25.246  1.00  0.00     0.047 A 
ATOM     10  C   UNL A   1      32.616  23.676  25.955  1.00  0.00     0.150 A 
ATOM     11  C   UNL A   1      33.184  22.660  26.713  1.00  0.00     0.081 A 
ATOM     12  F   UNL A   1      31.280  23.734  25.857  1.00  0.00    -0.205 F 
ATOM     13  C   UNL A   1      34.568  22.479  26.704  1.00  0.00     0.139 A 
ATOM     14  F   UNL A   1      35.028  21.403  27.349  1.00  0.00    -0.206 F 
BRANCH   8  15
ATOM     15  N   UNL A   1      32.932  25.566  24.351  1.00  0.00    -0.267 N 
ATOM     16  C   UNL A   1      34.214  28.696  22.665  1.00  0.00     0.011 C 
ATOM     17  C   UNL A   1      33.278  27.551  23.011  1.00  0.00     0.023 C 
ATOM     18  C   UNL A   1      33.638  26.874  24.339  1.00  0.00     0.140 C 
ATOM     19  C   UNL A   1      33.299  26.431  21.973  1.00  0.00     0.165 C 
ATOM     20  S   UNL A   1      32.424  25.103  22.782  1.00  0.00     0.235 S 
ATOM     21  O   UNL A   1      32.983  23.833  22.391  1.00  0.00    -0.206 OA
ATOM     22  O   UNL A   1      31.004  25.376  22.690  1.00  0.00    -0.206 OA
ENDBRANCH   8  15
ENDBRANCH   4   7
ENDBRANCH   2   3
ENDBRANCH   1   2
BRANCH   1  23
ATOM     23  C   UNL A   1      38.985  20.054  26.028  1.00  0.00     0.118 C 
BRANCH  23  24
ATOM     24  N   UNL A   1      40.209  19.274  25.916  1.00  0.00    -0.352 N 
ATOM     25  C   UNL A   1      41.520  19.671  25.973  1.00  0.00     0.251 C 
ATOM     26  H   UNL A   1      40.075  18.309  25.778  1.00  0.00     0.163 HD
ATOM     27  O   UNL A   1      42.400  18.906  25.589  1.00  0.00    -0.269 OA
BRANCH  25  28
ATOM     28  C   UNL A   1      41.882  21.005  26.495  1.00  0.00     0.039 A 
ATOM     29  C   UNL A   1      41.883  21.209  27.877  1.00  0.00     0.014 A 
ATOM     30  C   UNL A   1      42.157  22.068  25.631  1.00  0.00     0.014 A 
ATOM     31  C   UNL A   1      42.195  22.467  28.392  1.00  0.00     0.010 A 
ATOM     32  C   UNL A   1      42.555  23.297  26.147  1.00  0.00     0.010 A 
ATOM     33  C   UNL A   1      42.558  23.516  27.531  1.00  0.00    -0.014 A 
BRANCH  33  34
ATOM     34  C   UNL A   1      42.921  24.852  28.064  1.00  0.00     0.031 A 
ATOM     35  C   UNL A   1      41.854  25.887  28.298  1.00  0.00     0.074 A 
ATOM     36  C   UNL A   1      44.214  25.147  28.293  1.00  0.00     0.049 A 
ATOM     37  N   UNL A   1      41.979  27.119  28.725  1.00  0.00    -0.248 NA
ATOM     38  C   UNL A   1      40.468  25.499  27.989  1.00  0.00     0.031 C 
ATOM     39  C   UNL A   1      45.343  24.240  28.070  1.00  0.00     0.029 A 
ATOM     40  N   UNL A   1      44.799  26.294  28.767  1.00  0.00    -0.354 N 
ATOM     41  C   UNL A   1      40.696  27.653  28.718  1.00  0.00     0.074 A 
ATOM     42  C   UNL A   1      39.815  26.634  28.191  1.00  0.00     0.031 C 
ATOM     43  C   UNL A   1      46.478  24.853  28.439  1.00  0.00     0.029 A 
ATOM     44  C   UNL A   1      46.166  26.208  28.881  1.00  0.00     0.049 A 
ATOM     45  H   UNL A   1      44.289  27.102  29.001  1.00  0.00     0.167 HD
ATOM     46  C   UNL A   1      40.283  28.874  29.133  1.00  0.00     0.031 A 
ATOM     47  C   UNL A   1      47.066  27.120  29.291  1.00  0.00     0.031 A 
ATOM     48  C   UNL A   1      41.161  29.883  29.662  1.00  0.00     0.049 A 
ATOM     49  C   UNL A   1      46.583  28.474  29.729  1.00  0.00     0.074 A 
ATOM     50  C   UNL A   1      40.837  31.134  30.157  1.00  0.00     0.029 A 
ATOM     51  N   UNL A   1      42.538  29.756  29.762  1.00  0.00    -0.354 N 
ATOM     52  N   UNL A   1      45.358  28.941  29.780  1.00  0.00    -0.248 NA
ATOM     53  C   UNL A   1      47.607  29.423  30.184  1.00  0.00     0.031 C 
ATOM     54  C   UNL A   1      42.024  31.788  30.500  1.00  0.00     0.029 A 
ATOM     55  C   UNL A   1      43.081  30.917  30.288  1.00  0.00     0.049 A 
ATOM     56  H   UNL A   1      43.053  28.959  29.499  1.00  0.00     0.167 HD
ATOM     57  C   UNL A   1      45.462  30.222  30.306  1.00  0.00     0.074 A 
ATOM     58  C   UNL A   1      46.866  30.451  30.573  1.00  0.00     0.031 C 
ATOM     59  C   UNL A   1      44.482  31.127  30.549  1.00  0.00     0.031 A 
BRANCH  46  60
ATOM     60  C   UNL A   1      38.814  29.187  29.021  1.00  0.00    -0.014 A 
ATOM     61  C   UNL A   1      37.944  29.014  30.110  1.00  0.00     0.009 A 
ATOM     62  C   UNL A   1      38.299  29.697  27.820  1.00  0.00     0.009 A 
ATOM     63  C   UNL A   1      36.584  29.308  29.985  1.00  0.00     0.001 A 
ATOM     64  C   UNL A   1      36.946  30.023  27.707  1.00  0.00     0.001 A 
ATOM     65  C   UNL A   1      36.088  29.818  28.786  1.00  0.00     0.000 A 
ENDBRANCH  46  60
BRANCH  47  66
ATOM     66  C   UNL A   1      48.514  26.781  29.322  1.00  0.00    -0.014 A 
ATOM     67  C   UNL A   1      49.334  27.045  28.214  1.00  0.00     0.009 A 
ATOM     68  C   UNL A   1      49.082  26.177  30.455  1.00  0.00     0.009 A 
ATOM     69  C   UNL A   1      50.681  26.678  28.225  1.00  0.00     0.001 A 
ATOM     70  C   UNL A   1      50.437  25.843  30.477  1.00  0.00     0.001 A 
ATOM     71  C   UNL A   1      51.233  26.081  29.358  1.00  0.00     0.000 A 
ENDBRANCH  47  66
BRANCH  59  72
ATOM     72  C   UNL A   1      44.891  32.429  31.183  1.00  0.00    -0.014 A 
ATOM     73  C   UNL A   1      44.924  32.592  32.576  1.00  0.00     0.009 A 
ATOM     74  C   UNL A   1      45.279  33.501  30.363  1.00  0.00     0.009 A 
ATOM     75  C   UNL A   1      45.294  33.817  33.134  1.00  0.00     0.001 A 
ATOM     76  C   UNL A   1      45.683  34.712  30.925  1.00  0.00     0.001 A 
ATOM     77  C   UNL A   1      45.678  34.874  32.308  1.00  0.00     0.000 A 
ENDBRANCH  59  72
ENDBRANCH  33  34
ENDBRANCH  25  28
ENDBRANCH  23  24
ENDBRANCH   1  23
TORSDOF 11
ENDMDL
MODEL 3
REMARK VINA RESULT:     -11.2      2.188      7.543
REMARK SMILES C[C@@H]1CN(c2cc(C(=O)NCCCNC(=O)c3ccc(-c4c5nc(c(-c6ccccc6)c6ccc([nH]6)c(-c6ccccc6)c6nc(c(-c7ccccc7)c7ccc4[nH]7)C=C6)C=C5)cc3)c(F)cc2F)S(=O)(=O)C1
REMARK SMILES IDX 12 1 11 2 10 3 8 4 9 5 7 7 5 8 6 9 68 10 67 11 69 12 65 13
REMARK SMILES IDX 66 14 4 15 1 16 2 17 3 18 73 19 70 20 71 21 72 22 13 23
REMARK SMILES IDX 14 24 15 25 16 27 17 28 18 29 64 30 19 31 63 32 20 33 21 34
REMARK SMILES IDX 22 35 57 36 23 37 62 38 56 39 58 40 24 41 61 42 55 43 54 44
REMARK SMILES IDX 25 46 47 47 32 48 46 49 33 50 36 51 45 52 59 53 34 54 35 55
REMARK SMILES IDX 44 57 60 58 37 59 26 60 27 61 31 62 28 63 30 64 29 65 48 66
REMARK SMILES IDX 49 67 53 68 50 69 52 70 51 71 38 72 39 73 43 74 40 75 42 76
REMARK SMILES IDX 41 77
REMARK H PARENT 10 6 14 26 58 45 36 56
REMARK Flexibility Score: inf
ROOT
ATOM      1  C   UNL A   1      38.462  19.509  25.007  1.00  0.00     0.042 C 
ENDROOT
BRANCH   1   2
ATOM      2  C   UNL A   1      37.241  20.425  25.096  1.00  0.00     0.118 C 
BRANCH   2   3
ATOM      3  N   UNL A   1      37.588  21.663  25.761  1.00  0.00    -0.352 N 
ATOM      4  C   UNL A   1      37.117  22.938  25.651  1.00  0.00     0.254 C 
ATOM      5  O   UNL A   1      37.678  23.792  26.345  1.00  0.00    -0.269 OA
ATOM      6  H   UNL A   1      38.308  21.565  26.426  1.00  0.00     0.163 HD
BRANCH   4   7
ATOM      7  C   UNL A   1      35.966  23.365  24.815  1.00  0.00     0.077 A 
ATOM      8  C   UNL A   1      33.834  24.566  24.856  1.00  0.00     0.088 A 
ATOM      9  C   UNL A   1      34.944  24.033  25.513  1.00  0.00     0.047 A 
ATOM     10  C   UNL A   1      33.759  24.468  23.467  1.00  0.00     0.150 A 
ATOM     11  C   UNL A   1      34.739  23.787  22.756  1.00  0.00     0.081 A 
ATOM     12  F   UNL A   1      32.791  25.096  22.784  1.00  0.00    -0.205 F 
ATOM     13  C   UNL A   1      35.844  23.262  23.428  1.00  0.00     0.139 A 
ATOM     14  F   UNL A   1      36.808  22.738  22.664  1.00  0.00    -0.206 F 
BRANCH   8  15
ATOM     15  N   UNL A   1      32.937  25.337  25.660  1.00  0.00    -0.267 N 
ATOM     16  C   UNL A   1      31.393  28.787  25.620  1.00  0.00     0.011 C 
ATOM     17  C   UNL A   1      31.660  27.356  26.052  1.00  0.00     0.023 C 
ATOM     18  C   UNL A   1      32.993  26.816  25.517  1.00  0.00     0.140 C 
ATOM     19  C   UNL A   1      30.602  26.375  25.551  1.00  0.00     0.165 C 
ATOM     20  S   UNL A   1      31.331  24.780  25.877  1.00  0.00     0.235 S 
ATOM     21  O   UNL A   1      30.947  23.842  24.852  1.00  0.00    -0.206 OA
ATOM     22  O   UNL A   1      31.163  24.486  27.286  1.00  0.00    -0.206 OA
ENDBRANCH   8  15
ENDBRANCH   4   7
ENDBRANCH   2   3
ENDBRANCH   1   2
BRANCH   1  23
ATOM     23  C   UNL A   1      39.469  19.740  26.131  1.00  0.00     0.118 C 
BRANCH  23  24
ATOM     24  N   UNL A   1      40.762  19.144  25.827  1.00  0.00    -0.352 N 
ATOM     25  C   UNL A   1      42.008  19.712  25.774  1.00  0.00     0.251 C 
ATOM     26  H   UNL A   1      40.738  18.180  25.630  1.00  0.00     0.163 HD
ATOM     27  O   UNL A   1      42.929  19.100  25.239  1.00  0.00    -0.269 OA
BRANCH  25  28
ATOM     28  C   UNL A   1      42.254  21.047  26.356  1.00  0.00     0.039 A 
ATOM     29  C   UNL A   1      42.581  22.104  25.502  1.00  0.00     0.014 A 
ATOM     30  C   UNL A   1      42.227  21.249  27.739  1.00  0.00     0.014 A 
ATOM     31  C   UNL A   1      42.844  23.367  26.031  1.00  0.00     0.010 A 
ATOM     32  C   UNL A   1      42.401  22.527  28.258  1.00  0.00     0.010 A 
ATOM     33  C   UNL A   1      42.732  23.596  27.413  1.00  0.00    -0.014 A 
BRANCH  33  34
ATOM     34  C   UNL A   1      42.981  24.940  27.989  1.00  0.00     0.031 A 
ATOM     35  C   UNL A   1      44.368  25.334  28.417  1.00  0.00     0.074 A 
ATOM     36  C   UNL A   1      41.949  25.786  28.169  1.00  0.00     0.049 A 
ATOM     37  N   UNL A   1      44.776  26.448  28.972  1.00  0.00    -0.248 NA
ATOM     38  C   UNL A   1      45.435  24.339  28.221  1.00  0.00     0.031 C 
ATOM     39  C   UNL A   1      40.552  25.505  27.828  1.00  0.00     0.029 A 
ATOM     40  N   UNL A   1      41.916  27.058  28.682  1.00  0.00    -0.354 N 
ATOM     41  C   UNL A   1      46.136  26.279  29.204  1.00  0.00     0.074 A 
ATOM     42  C   UNL A   1      46.474  24.937  28.785  1.00  0.00     0.031 C 
ATOM     43  C   UNL A   1      39.806  26.585  28.108  1.00  0.00     0.029 A 
ATOM     44  C   UNL A   1      40.660  27.615  28.689  1.00  0.00     0.049 A 
ATOM     45  H   UNL A   1      42.715  27.527  29.013  1.00  0.00     0.167 HD
ATOM     46  C   UNL A   1      47.028  27.168  29.700  1.00  0.00     0.031 A 
ATOM     47  C   UNL A   1      40.242  28.820  29.120  1.00  0.00     0.031 A 
ATOM     48  C   UNL A   1      46.689  28.504  30.111  1.00  0.00     0.049 A 
ATOM     49  C   UNL A   1      41.251  29.781  29.685  1.00  0.00     0.074 A 
ATOM     50  C   UNL A   1      47.527  29.500  30.581  1.00  0.00     0.029 A 
ATOM     51  N   UNL A   1      45.407  29.030  30.102  1.00  0.00    -0.354 N 
ATOM     52  N   UNL A   1      42.546  29.630  29.835  1.00  0.00    -0.248 NA
ATOM     53  C   UNL A   1      40.742  31.087  30.123  1.00  0.00     0.031 C 
ATOM     54  C   UNL A   1      46.743  30.608  30.914  1.00  0.00     0.029 A 
ATOM     55  C   UNL A   1      45.427  30.329  30.582  1.00  0.00     0.049 A 
ATOM     56  H   UNL A   1      44.601  28.551  29.799  1.00  0.00     0.167 HD
ATOM     57  C   UNL A   1      43.010  30.834  30.351  1.00  0.00     0.074 A 
ATOM     58  C   UNL A   1      41.861  31.708  30.470  1.00  0.00     0.031 C 
ATOM     59  C   UNL A   1      44.274  31.185  30.692  1.00  0.00     0.031 A 
BRANCH  46  60
ATOM     60  C   UNL A   1      48.458  26.716  29.837  1.00  0.00    -0.014 A 
ATOM     61  C   UNL A   1      49.393  26.928  28.810  1.00  0.00     0.009 A 
ATOM     62  C   UNL A   1      48.886  26.101  31.023  1.00  0.00     0.009 A 
ATOM     63  C   UNL A   1      50.714  26.498  28.954  1.00  0.00     0.001 A 
ATOM     64  C   UNL A   1      50.215  25.704  31.179  1.00  0.00     0.001 A 
ATOM     65  C   UNL A   1      51.126  25.893  30.140  1.00  0.00     0.000 A 
ENDBRANCH  46  60
BRANCH  47  66
ATOM     66  C   UNL A   1      38.807  29.193  29.023  1.00  0.00    -0.014 A 
ATOM     67  C   UNL A   1      37.950  29.036  30.124  1.00  0.00     0.009 A 
ATOM     68  C   UNL A   1      38.279  29.695  27.823  1.00  0.00     0.009 A 
ATOM     69  C   UNL A   1      36.591  29.337  30.015  1.00  0.00     0.001 A 
ATOM     70  C   UNL A   1      36.926  30.029  27.726  1.00  0.00     0.001 A 
ATOM     71  C   UNL A   1      36.080  29.838  28.818  1.00  0.00     0.000 A 
ENDBRANCH  47  66
BRANCH  59  72
ATOM     72  C   UNL A   1      44.487  32.593  31.177  1.00  0.00    -0.014 A 
ATOM     73  C   UNL A   1      44.757  33.646  30.289  1.00  0.00     0.009 A 
ATOM     74  C   UNL A   1      44.387  32.871  32.550  1.00  0.00     0.009 A 
ATOM     75  C   UNL A   1      44.966  34.940  30.771  1.00  0.00     0.001 A 
ATOM     76  C   UNL A   1      44.560  34.170  33.025  1.00  0.00     0.001 A 
ATOM     77  C   UNL A   1      44.862  35.201  32.138  1.00  0.00     0.000 A 
ENDBRANCH  59  72
ENDBRANCH  33  34
ENDBRANCH  25  28
ENDBRANCH  23  24
ENDBRANCH   1  23
TORSDOF 11
ENDMDL
