MODEL 1
REMARK VINA RESULT:     -11.4      0.000      0.000
REMARK SMILES COc1ccc(CCN2/C(=[NH+]/C(=O)CCC(=O)NCCCNC(=O)c3ccc(-c4c5nc(c(-c6ccccc6)c6ccc([nH]6)c(-c6ccccc6)c6nc(c(-c7ccccc7)c7ccc4[nH]7)C=C6)C=C5)cc3)S[C@@H]3CS(=O)(=O)C[C@@H]32)cc1
REMARK SMILES IDX 16 1 17 2 18 3 15 5 14 6 12 7 9 8 10 9 80 10 11 11 73 12
REMARK SMILES IDX 74 13 79 14 75 16 76 17 13 18 77 19 78 20 8 21 7 22 6 23
REMARK SMILES IDX 3 24 4 25 82 26 5 27 81 28 2 29 1 30 19 31 20 32 21 33 22 34
REMARK SMILES IDX 23 35 24 37 25 38 26 39 72 40 27 41 71 42 28 43 29 44 30 45
REMARK SMILES IDX 65 46 31 47 70 48 64 49 66 50 32 51 69 52 63 53 62 54 33 56
REMARK SMILES IDX 55 57 40 58 54 59 41 60 44 61 53 62 67 63 42 64 43 65 52 67
REMARK SMILES IDX 68 68 45 69 34 70 35 71 39 72 36 73 38 74 37 75 56 76 57 77
REMARK SMILES IDX 61 78 58 79 60 80 59 81 46 82 47 83 51 84 48 85 50 86 49 87
REMARK H PARENT 18 4 11 15 22 36 66 55 44 66
REMARK Flexibility Score: inf
ROOT
ATOM      1  C   UNL A   1      39.369  22.805  26.835  1.00  0.00     0.220 C 
ATOM      2  O   UNL A   1      39.389  23.809  27.556  1.00  0.00    -0.275 OA
ATOM      3  N   UNL A   1      40.299  21.834  27.072  1.00  0.00    -0.356 N 
ATOM      4  H   UNL A   1      40.928  22.048  27.799  1.00  0.00     0.163 HD
ENDROOT
BRANCH   1   5
ATOM      5  C   UNL A   1      38.319  22.679  25.749  1.00  0.00     0.112 C 
BRANCH   5   6
ATOM      6  C   UNL A   1      37.387  23.884  25.717  1.00  0.00     0.138 C 
BRANCH   6   7
ATOM      7  C   UNL A   1      35.968  23.411  25.867  1.00  0.00     0.308 C 
ATOM      8  N   UNL A   1      33.497  22.330  23.468  1.00  0.00    -0.251 N 
ATOM      9  C   UNL A   1      34.106  22.899  24.578  1.00  0.00     0.314 C 
ATOM     10  C   UNL A   1      32.318  21.484  23.866  1.00  0.00     0.206 C 
ATOM     11  N   UNL A   1      35.367  23.123  24.672  1.00  0.00    -0.205 N 
ATOM     12  S   UNL A   1      32.906  23.017  25.871  1.00  0.00    -0.030 SA
ATOM     13  C   UNL A   1      32.283  21.396  25.399  1.00  0.00     0.120 C 
ATOM     14  C   UNL A   1      32.326  20.049  23.383  1.00  0.00     0.187 C 
ATOM     15  H   UNL A   1      35.920  23.085  23.858  1.00  0.00     0.316 HD
ATOM     16  C   UNL A   1      33.238  20.291  25.851  1.00  0.00     0.156 C 
ATOM     17  S   UNL A   1      33.002  19.014  24.649  1.00  0.00     0.155 S 
ATOM     18  O   UNL A   1      35.538  23.143  26.987  1.00  0.00    -0.247 OA
ATOM     19  O   UNL A   1      34.281  18.501  24.198  1.00  0.00    -0.229 OA
ATOM     20  O   UNL A   1      31.953  18.131  25.106  1.00  0.00    -0.229 OA
BRANCH   8  21
ATOM     21  C   UNL A   1      33.330  23.156  22.240  1.00  0.00     0.242 C 
BRANCH  21  22
ATOM     22  C   UNL A   1      32.227  24.242  22.158  1.00  0.00     0.081 C 
BRANCH  22  23
ATOM     23  C   UNL A   1      32.436  25.620  22.745  1.00  0.00    -0.044 A 
ATOM     24  C   UNL A   1      32.890  28.213  23.805  1.00  0.00     0.118 A 
ATOM     25  C   UNL A   1      31.832  27.419  24.259  1.00  0.00     0.046 A 
ATOM     26  C   UNL A   1      33.683  27.731  22.770  1.00  0.00     0.046 A 
ATOM     27  C   UNL A   1      31.600  26.141  23.734  1.00  0.00     0.007 A 
ATOM     28  C   UNL A   1      33.449  26.454  22.238  1.00  0.00     0.007 A 
BRANCH  24  29
ATOM     29  O   UNL A   1      33.009  29.420  24.431  1.00  0.00    -0.497 OA
ATOM     30  C   UNL A   1      32.116  29.745  25.492  1.00  0.00     0.278 C 
ENDBRANCH  24  29
ENDBRANCH  22  23
ENDBRANCH  21  22
ENDBRANCH   8  21
ENDBRANCH   6   7
ENDBRANCH   5   6
ENDBRANCH   1   5
BRANCH   3  31
ATOM     31  C   UNL A   1      40.532  20.537  26.445  1.00  0.00     0.117 C 
BRANCH  31  32
ATOM     32  C   UNL A   1      41.959  20.013  26.643  1.00  0.00     0.042 C 
BRANCH  32  33
ATOM     33  C   UNL A   1      43.094  20.547  25.738  1.00  0.00     0.118 C 
BRANCH  33  34
ATOM     34  N   UNL A   1      43.165  22.028  25.788  1.00  0.00    -0.352 N 
ATOM     35  C   UNL A   1      44.237  22.750  26.288  1.00  0.00     0.251 C 
ATOM     36  H   UNL A   1      42.395  22.534  25.441  1.00  0.00     0.163 HD
ATOM     37  O   UNL A   1      45.382  22.315  26.291  1.00  0.00    -0.269 OA
BRANCH  35  38
ATOM     38  C   UNL A   1      43.930  24.000  27.088  1.00  0.00     0.039 A 
ATOM     39  C   UNL A   1      44.378  25.308  26.850  1.00  0.00     0.014 A 
ATOM     40  C   UNL A   1      43.004  23.817  28.125  1.00  0.00     0.014 A 
ATOM     41  C   UNL A   1      43.824  26.415  27.564  1.00  0.00     0.010 A 
ATOM     42  C   UNL A   1      42.441  24.907  28.813  1.00  0.00     0.010 A 
ATOM     43  C   UNL A   1      42.826  26.232  28.539  1.00  0.00    -0.014 A 
BRANCH  43  44
ATOM     44  C   UNL A   1      42.285  27.318  29.437  1.00  0.00     0.031 A 
ATOM     45  C   UNL A   1      42.998  27.553  30.749  1.00  0.00     0.074 A 
ATOM     46  C   UNL A   1      41.150  28.021  29.215  1.00  0.00     0.049 A 
ATOM     47  N   UNL A   1      42.614  28.229  31.805  1.00  0.00    -0.248 NA
ATOM     48  C   UNL A   1      44.315  26.914  30.885  1.00  0.00     0.031 C 
ATOM     49  C   UNL A   1      40.332  27.984  28.009  1.00  0.00     0.029 A 
ATOM     50  N   UNL A   1      40.469  28.902  30.038  1.00  0.00    -0.354 N 
ATOM     51  C   UNL A   1      43.622  28.056  32.745  1.00  0.00     0.074 A 
ATOM     52  C   UNL A   1      44.620  27.199  32.140  1.00  0.00     0.031 C 
ATOM     53  C   UNL A   1      39.265  28.791  28.167  1.00  0.00     0.029 A 
ATOM     54  C   UNL A   1      39.287  29.375  29.510  1.00  0.00     0.049 A 
ATOM     55  H   UNL A   1      40.802  29.168  30.926  1.00  0.00     0.167 HD
ATOM     56  C   UNL A   1      43.729  28.558  33.999  1.00  0.00     0.031 A 
ATOM     57  C   UNL A   1      38.319  30.158  30.041  1.00  0.00     0.031 A 
ATOM     58  C   UNL A   1      42.774  29.423  34.634  1.00  0.00     0.049 A 
ATOM     59  C   UNL A   1      38.417  30.648  31.471  1.00  0.00     0.074 A 
ATOM     60  C   UNL A   1      42.833  29.987  35.898  1.00  0.00     0.029 A 
ATOM     61  N   UNL A   1      41.591  29.853  34.060  1.00  0.00    -0.354 N 
ATOM     62  N   UNL A   1      39.383  30.481  32.340  1.00  0.00    -0.248 NA
ATOM     63  C   UNL A   1      37.277  31.425  31.996  1.00  0.00     0.031 C 
ATOM     64  C   UNL A   1      41.662  30.722  36.107  1.00  0.00     0.029 A 
ATOM     65  C   UNL A   1      40.901  30.655  34.953  1.00  0.00     0.049 A 
ATOM     66  H   UNL A   1      41.287  29.623  33.152  1.00  0.00     0.167 HD
ATOM     67  C   UNL A   1      38.978  31.151  33.493  1.00  0.00     0.074 A 
ATOM     68  C   UNL A   1      37.690  31.740  33.216  1.00  0.00     0.031 C 
ATOM     69  C   UNL A   1      39.625  31.260  34.679  1.00  0.00     0.031 A 
BRANCH  56  70
ATOM     70  C   UNL A   1      44.932  28.140  34.792  1.00  0.00    -0.014 A 
ATOM     71  C   UNL A   1      44.911  26.987  35.593  1.00  0.00     0.009 A 
ATOM     72  C   UNL A   1      46.102  28.912  34.733  1.00  0.00     0.009 A 
ATOM     73  C   UNL A   1      46.025  26.644  36.360  1.00  0.00     0.001 A 
ATOM     74  C   UNL A   1      47.225  28.548  35.477  1.00  0.00     0.001 A 
ATOM     75  C   UNL A   1      47.180  27.422  36.299  1.00  0.00     0.000 A 
ENDBRANCH  56  70
BRANCH  57  76
ATOM     76  C   UNL A   1      37.107  30.529  29.249  1.00  0.00    -0.014 A 
ATOM     77  C   UNL A   1      36.147  29.557  28.919  1.00  0.00     0.009 A 
ATOM     78  C   UNL A   1      36.957  31.824  28.729  1.00  0.00     0.009 A 
ATOM     79  C   UNL A   1      35.084  29.865  28.063  1.00  0.00     0.001 A 
ATOM     80  C   UNL A   1      35.878  32.137  27.897  1.00  0.00     0.001 A 
ATOM     81  C   UNL A   1      34.949  31.155  27.555  1.00  0.00     0.000 A 
ENDBRANCH  57  76
BRANCH  69  82
ATOM     82  C   UNL A   1      38.987  32.075  35.773  1.00  0.00    -0.014 A 
ATOM     83  C   UNL A   1      38.160  31.480  36.737  1.00  0.00     0.009 A 
ATOM     84  C   UNL A   1      39.292  33.441  35.891  1.00  0.00     0.009 A 
ATOM     85  C   UNL A   1      37.641  32.239  37.791  1.00  0.00     0.001 A 
ATOM     86  C   UNL A   1      38.791  34.192  36.957  1.00  0.00     0.001 A 
ATOM     87  C   UNL A   1      37.963  33.592  37.904  1.00  0.00     0.000 A 
ENDBRANCH  69  82
ENDBRANCH  43  44
ENDBRANCH  35  38
ENDBRANCH  33  34
ENDBRANCH  32  33
ENDBRANCH  31  32
ENDBRANCH   3  31
TORSDOF 16
ENDMDL
MODEL 2
REMARK VINA RESULT:     -11.2      5.519     11.828
REMARK SMILES COc1ccc(CCN2/C(=[NH+]/C(=O)CCC(=O)NCCCNC(=O)c3ccc(-c4c5nc(c(-c6ccccc6)c6ccc([nH]6)c(-c6ccccc6)c6nc(c(-c7ccccc7)c7ccc4[nH]7)C=C6)C=C5)cc3)S[C@@H]3CS(=O)(=O)C[C@@H]32)cc1
REMARK SMILES IDX 16 1 17 2 18 3 15 5 14 6 12 7 9 8 10 9 80 10 11 11 73 12
REMARK SMILES IDX 74 13 79 14 75 16 76 17 13 18 77 19 78 20 8 21 7 22 6 23
REMARK SMILES IDX 3 24 4 25 82 26 5 27 81 28 2 29 1 30 19 31 20 32 21 33 22 34
REMARK SMILES IDX 23 35 24 37 25 38 26 39 72 40 27 41 71 42 28 43 29 44 30 45
REMARK SMILES IDX 65 46 31 47 70 48 64 49 66 50 32 51 69 52 63 53 62 54 33 56
REMARK SMILES IDX 55 57 40 58 54 59 41 60 44 61 53 62 67 63 42 64 43 65 52 67
REMARK SMILES IDX 68 68 45 69 34 70 35 71 39 72 36 73 38 74 37 75 56 76 57 77
REMARK SMILES IDX 61 78 58 79 60 80 59 81 46 82 47 83 51 84 48 85 50 86 49 87
REMARK H PARENT 18 4 11 15 22 36 66 55 44 66
REMARK Flexibility Score: inf
ROOT
ATOM      1  C   UNL A   1      33.222  36.758  31.171  1.00  0.00     0.220 C 
ATOM      2  O   UNL A   1      32.901  37.950  31.113  1.00  0.00    -0.275 OA
ATOM      3  N   UNL A   1      33.627  36.150  30.017  1.00  0.00    -0.356 N 
ATOM      4  H   UNL A   1      33.597  36.734  29.224  1.00  0.00     0.163 HD
ENDROOT
BRANCH   1   5
ATOM      5  C   UNL A   1      33.178  36.031  32.501  1.00  0.00     0.112 C 
BRANCH   5   6
ATOM      6  C   UNL A   1      34.498  36.142  33.253  1.00  0.00     0.138 C 
BRANCH   6   7
ATOM      7  C   UNL A   1      35.110  34.775  33.374  1.00  0.00     0.308 C 
ATOM      8  N   UNL A   1      38.406  33.508  32.622  1.00  0.00    -0.251 N 
ATOM      9  C   UNL A   1      37.031  33.613  32.778  1.00  0.00     0.314 C 
ATOM     10  C   UNL A   1      38.929  32.237  33.234  1.00  0.00     0.206 C 
ATOM     11  N   UNL A   1      36.407  34.725  32.941  1.00  0.00    -0.205 N 
ATOM     12  S   UNL A   1      36.366  31.985  32.953  1.00  0.00    -0.030 SA
ATOM     13  C   UNL A   1      37.776  31.552  33.982  1.00  0.00     0.120 C 
ATOM     14  C   UNL A   1      40.036  32.388  34.255  1.00  0.00     0.187 C 
ATOM     15  H   UNL A   1      36.878  35.567  32.749  1.00  0.00     0.316 HD
ATOM     16  C   UNL A   1      37.651  32.178  35.372  1.00  0.00     0.156 C 
ATOM     17  S   UNL A   1      39.330  32.419  35.877  1.00  0.00     0.155 S 
ATOM     18  O   UNL A   1      34.512  33.899  33.996  1.00  0.00    -0.247 OA
ATOM     19  O   UNL A   1      39.504  33.746  36.436  1.00  0.00    -0.229 OA
ATOM     20  O   UNL A   1      39.780  31.238  36.579  1.00  0.00    -0.229 OA
BRANCH   8  21
ATOM     21  C   UNL A   1      39.014  33.913  31.324  1.00  0.00     0.242 C 
BRANCH  21  22
ATOM     22  C   UNL A   1      40.492  34.375  31.250  1.00  0.00     0.081 C 
BRANCH  22  23
ATOM     23  C   UNL A   1      41.149  34.696  29.926  1.00  0.00    -0.044 A 
ATOM     24  C   UNL A   1      42.444  35.267  27.466  1.00  0.00     0.118 A 
ATOM     25  C   UNL A   1      41.130  35.680  27.706  1.00  0.00     0.046 A 
ATOM     26  C   UNL A   1      43.088  34.509  28.436  1.00  0.00     0.046 A 
ATOM     27  C   UNL A   1      40.485  35.395  28.917  1.00  0.00     0.007 A 
ATOM     28  C   UNL A   1      42.441  34.215  29.647  1.00  0.00     0.007 A 
BRANCH  24  29
ATOM     29  O   UNL A   1      42.950  35.645  26.256  1.00  0.00    -0.497 OA
ATOM     30  C   UNL A   1      43.451  34.650  25.368  1.00  0.00     0.278 C 
ENDBRANCH  24  29
ENDBRANCH  22  23
ENDBRANCH  21  22
ENDBRANCH   8  21
ENDBRANCH   6   7
ENDBRANCH   5   6
ENDBRANCH   1   5
BRANCH   3  31
ATOM     31  C   UNL A   1      34.095  34.796  29.744  1.00  0.00     0.117 C 
BRANCH  31  32
ATOM     32  C   UNL A   1      33.883  34.361  28.289  1.00  0.00     0.042 C 
BRANCH  32  33
ATOM     33  C   UNL A   1      33.589  32.875  27.977  1.00  0.00     0.118 C 
BRANCH  33  34
ATOM     34  N   UNL A   1      34.843  32.128  27.708  1.00  0.00    -0.352 N 
ATOM     35  C   UNL A   1      34.974  30.751  27.792  1.00  0.00     0.251 C 
ATOM     36  H   UNL A   1      35.638  32.648  27.451  1.00  0.00     0.163 HD
ATOM     37  O   UNL A   1      34.033  29.986  27.621  1.00  0.00    -0.269 OA
BRANCH  35  38
ATOM     38  C   UNL A   1      36.263  30.203  28.370  1.00  0.00     0.039 A 
ATOM     39  C   UNL A   1      36.481  29.685  29.655  1.00  0.00     0.014 A 
ATOM     40  C   UNL A   1      37.324  30.122  27.458  1.00  0.00     0.014 A 
ATOM     41  C   UNL A   1      37.696  29.004  29.977  1.00  0.00     0.010 A 
ATOM     42  C   UNL A   1      38.512  29.433  27.765  1.00  0.00     0.010 A 
ATOM     43  C   UNL A   1      38.720  28.844  29.026  1.00  0.00    -0.014 A 
BRANCH  43  44
ATOM     44  C   UNL A   1      40.085  28.268  29.312  1.00  0.00     0.031 A 
ATOM     45  C   UNL A   1      41.086  29.164  30.007  1.00  0.00     0.074 A 
ATOM     46  C   UNL A   1      40.521  27.056  28.901  1.00  0.00     0.049 A 
ATOM     47  N   UNL A   1      42.381  29.025  30.148  1.00  0.00    -0.248 NA
ATOM     48  C   UNL A   1      40.540  30.394  30.598  1.00  0.00     0.031 C 
ATOM     49  C   UNL A   1      39.722  26.022  28.255  1.00  0.00     0.029 A 
ATOM     50  N   UNL A   1      41.788  26.498  28.949  1.00  0.00    -0.354 N 
ATOM     51  C   UNL A   1      42.810  30.172  30.804  1.00  0.00     0.074 A 
ATOM     52  C   UNL A   1      41.640  30.999  31.014  1.00  0.00     0.031 C 
ATOM     53  C   UNL A   1      40.507  24.967  27.961  1.00  0.00     0.029 A 
ATOM     54  C   UNL A   1      41.887  25.259  28.352  1.00  0.00     0.049 A 
ATOM     55  H   UNL A   1      42.554  26.950  29.372  1.00  0.00     0.167 HD
ATOM     56  C   UNL A   1      44.055  30.522  31.207  1.00  0.00     0.031 A 
ATOM     57  C   UNL A   1      42.956  24.461  28.119  1.00  0.00     0.031 A 
ATOM     58  C   UNL A   1      45.239  29.728  31.036  1.00  0.00     0.049 A 
ATOM     59  C   UNL A   1      44.352  24.901  28.507  1.00  0.00     0.074 A 
ATOM     60  C   UNL A   1      46.532  30.016  31.443  1.00  0.00     0.029 A 
ATOM     61  N   UNL A   1      45.282  28.495  30.412  1.00  0.00    -0.354 N 
ATOM     62  N   UNL A   1      44.734  25.985  29.135  1.00  0.00    -0.248 NA
ATOM     63  C   UNL A   1      45.467  24.007  28.137  1.00  0.00     0.031 C 
ATOM     64  C   UNL A   1      47.367  28.975  31.023  1.00  0.00     0.029 A 
ATOM     65  C   UNL A   1      46.583  28.020  30.401  1.00  0.00     0.049 A 
ATOM     66  H   UNL A   1      44.504  28.026  30.033  1.00  0.00     0.167 HD
ATOM     67  C   UNL A   1      46.119  25.887  29.257  1.00  0.00     0.074 A 
ATOM     68  C   UNL A   1      46.513  24.636  28.654  1.00  0.00     0.031 C 
ATOM     69  C   UNL A   1      46.983  26.767  29.819  1.00  0.00     0.031 A 
BRANCH  56  70
ATOM     70  C   UNL A   1      44.199  31.868  31.855  1.00  0.00    -0.014 A 
ATOM     71  C   UNL A   1      44.996  32.870  31.279  1.00  0.00     0.009 A 
ATOM     72  C   UNL A   1      43.527  32.134  33.057  1.00  0.00     0.009 A 
ATOM     73  C   UNL A   1      45.156  34.097  31.923  1.00  0.00     0.001 A 
ATOM     74  C   UNL A   1      43.664  33.374  33.682  1.00  0.00     0.001 A 
ATOM     75  C   UNL A   1      44.489  34.348  33.121  1.00  0.00     0.000 A 
ENDBRANCH  56  70
BRANCH  57  76
ATOM     76  C   UNL A   1      42.796  23.142  27.435  1.00  0.00    -0.014 A 
ATOM     77  C   UNL A   1      42.990  23.031  26.046  1.00  0.00     0.009 A 
ATOM     78  C   UNL A   1      42.345  22.015  28.141  1.00  0.00     0.009 A 
ATOM     79  C   UNL A   1      42.708  21.834  25.379  1.00  0.00     0.001 A 
ATOM     80  C   UNL A   1      42.092  20.812  27.476  1.00  0.00     0.001 A 
ATOM     81  C   UNL A   1      42.263  20.725  26.095  1.00  0.00     0.000 A 
ENDBRANCH  57  76
BRANCH  69  82
ATOM     82  C   UNL A   1      48.446  26.412  29.856  1.00  0.00    -0.014 A 
ATOM     83  C   UNL A   1      48.983  25.646  30.901  1.00  0.00     0.009 A 
ATOM     84  C   UNL A   1      49.277  26.772  28.783  1.00  0.00     0.009 A 
ATOM     85  C   UNL A   1      50.327  25.259  30.877  1.00  0.00     0.001 A 
ATOM     86  C   UNL A   1      50.613  26.364  28.749  1.00  0.00     0.001 A 
ATOM     87  C   UNL A   1      51.138  25.611  29.799  1.00  0.00     0.000 A 
ENDBRANCH  69  82
ENDBRANCH  43  44
ENDBRANCH  35  38
ENDBRANCH  33  34
ENDBRANCH  32  33
ENDBRANCH  31  32
ENDBRANCH   3  31
TORSDOF 16
ENDMDL
MODEL 3
REMARK VINA RESULT:     -10.9      4.701     10.856
REMARK SMILES COc1ccc(CCN2/C(=[NH+]/C(=O)CCC(=O)NCCCNC(=O)c3ccc(-c4c5nc(c(-c6ccccc6)c6ccc([nH]6)c(-c6ccccc6)c6nc(c(-c7ccccc7)c7ccc4[nH]7)C=C6)C=C5)cc3)S[C@@H]3CS(=O)(=O)C[C@@H]32)cc1
REMARK SMILES IDX 16 1 17 2 18 3 15 5 14 6 12 7 9 8 10 9 80 10 11 11 73 12
REMARK SMILES IDX 74 13 79 14 75 16 76 17 13 18 77 19 78 20 8 21 7 22 6 23
REMARK SMILES IDX 3 24 4 25 82 26 5 27 81 28 2 29 1 30 19 31 20 32 21 33 22 34
REMARK SMILES IDX 23 35 24 37 25 38 26 39 72 40 27 41 71 42 28 43 29 44 30 45
REMARK SMILES IDX 65 46 31 47 70 48 64 49 66 50 32 51 69 52 63 53 62 54 33 56
REMARK SMILES IDX 55 57 40 58 54 59 41 60 44 61 53 62 67 63 42 64 43 65 52 67
REMARK SMILES IDX 68 68 45 69 34 70 35 71 39 72 36 73 38 74 37 75 56 76 57 77
REMARK SMILES IDX 61 78 58 79 60 80 59 81 46 82 47 83 51 84 48 85 50 86 49 87
REMARK H PARENT 18 4 11 15 22 36 66 55 44 66
REMARK Flexibility Score: inf
ROOT
ATOM      1  C   UNL A   1      35.135  31.188  28.014  1.00  0.00     0.220 C 
ATOM      2  O   UNL A   1      34.393  30.306  27.568  1.00  0.00    -0.275 OA
ATOM      3  N   UNL A   1      34.646  32.461  28.073  1.00  0.00    -0.356 N 
ATOM      4  H   UNL A   1      33.732  32.557  27.720  1.00  0.00     0.163 HD
ENDROOT
BRANCH   1   5
ATOM      5  C   UNL A   1      36.528  30.828  28.493  1.00  0.00     0.112 C 
BRANCH   5   6
ATOM      6  C   UNL A   1      36.957  29.449  28.008  1.00  0.00     0.138 C 
BRANCH   6   7
ATOM      7  C   UNL A   1      38.402  29.232  28.363  1.00  0.00     0.308 C 
ATOM      8  N   UNL A   1      40.649  26.458  27.828  1.00  0.00    -0.251 N 
ATOM      9  C   UNL A   1      40.007  27.554  28.387  1.00  0.00     0.314 C 
ATOM     10  C   UNL A   1      42.143  26.627  27.857  1.00  0.00     0.206 C 
ATOM     11  N   UNL A   1      38.867  27.999  27.995  1.00  0.00    -0.205 N 
ATOM     12  S   UNL A   1      41.121  28.334  29.517  1.00  0.00    -0.030 SA
ATOM     13  C   UNL A   1      42.458  28.047  28.348  1.00  0.00     0.120 C 
ATOM     14  C   UNL A   1      42.861  26.494  26.530  1.00  0.00     0.187 C 
ATOM     15  H   UNL A   1      38.312  27.435  27.410  1.00  0.00     0.316 HD
ATOM     16  C   UNL A   1      42.365  29.010  27.164  1.00  0.00     0.156 C 
ATOM     17  S   UNL A   1      43.082  28.102  25.826  1.00  0.00     0.155 S 
ATOM     18  O   UNL A   1      39.076  30.183  28.752  1.00  0.00    -0.247 OA
ATOM     19  O   UNL A   1      42.254  28.210  24.641  1.00  0.00    -0.229 OA
ATOM     20  O   UNL A   1      44.501  28.376  25.783  1.00  0.00    -0.229 OA
BRANCH   8  21
ATOM     21  C   UNL A   1      40.134  25.093  28.134  1.00  0.00     0.242 C 
BRANCH  21  22
ATOM     22  C   UNL A   1      39.765  24.111  26.992  1.00  0.00     0.081 C 
BRANCH  22  23
ATOM     23  C   UNL A   1      40.612  22.893  26.701  1.00  0.00    -0.044 A 
ATOM     24  C   UNL A   1      42.142  20.562  26.171  1.00  0.00     0.118 A 
ATOM     25  C   UNL A   1      42.713  21.836  26.096  1.00  0.00     0.046 A 
ATOM     26  C   UNL A   1      40.785  20.459  26.449  1.00  0.00     0.046 A 
ATOM     27  C   UNL A   1      41.959  22.990  26.350  1.00  0.00     0.007 A 
ATOM     28  C   UNL A   1      40.025  21.614  26.697  1.00  0.00     0.007 A 
BRANCH  24  29
ATOM     29  O   UNL A   1      43.007  19.534  25.929  1.00  0.00    -0.497 OA
ATOM     30  C   UNL A   1      44.077  19.725  25.009  1.00  0.00     0.278 C 
ENDBRANCH  24  29
ENDBRANCH  22  23
ENDBRANCH  21  22
ENDBRANCH   8  21
ENDBRANCH   6   7
ENDBRANCH   5   6
ENDBRANCH   1   5
BRANCH   3  31
ATOM     31  C   UNL A   1      35.229  33.706  28.563  1.00  0.00     0.117 C 
BRANCH  31  32
ATOM     32  C   UNL A   1      34.190  34.687  29.119  1.00  0.00     0.042 C 
BRANCH  32  33
ATOM     33  C   UNL A   1      34.010  34.813  30.649  1.00  0.00     0.118 C 
BRANCH  33  34
ATOM     34  N   UNL A   1      35.040  34.030  31.375  1.00  0.00    -0.352 N 
ATOM     35  C   UNL A   1      35.958  34.566  32.265  1.00  0.00     0.251 C 
ATOM     36  H   UNL A   1      35.074  33.059  31.212  1.00  0.00     0.163 HD
ATOM     37  O   UNL A   1      35.738  35.587  32.904  1.00  0.00    -0.269 OA
BRANCH  35  38
ATOM     38  C   UNL A   1      37.368  34.010  32.240  1.00  0.00     0.039 A 
ATOM     39  C   UNL A   1      38.475  34.435  32.988  1.00  0.00     0.014 A 
ATOM     40  C   UNL A   1      37.532  32.871  31.439  1.00  0.00     0.014 A 
ATOM     41  C   UNL A   1      39.681  33.668  33.014  1.00  0.00     0.010 A 
ATOM     42  C   UNL A   1      38.710  32.103  31.481  1.00  0.00     0.010 A 
ATOM     43  C   UNL A   1      39.806  32.474  32.281  1.00  0.00    -0.014 A 
BRANCH  43  44
ATOM     44  C   UNL A   1      41.079  31.677  32.136  1.00  0.00     0.031 A 
ATOM     45  C   UNL A   1      41.995  32.032  30.987  1.00  0.00     0.074 A 
ATOM     46  C   UNL A   1      41.414  30.599  32.883  1.00  0.00     0.049 A 
ATOM     47  N   UNL A   1      43.006  31.367  30.481  1.00  0.00    -0.248 NA
ATOM     48  C   UNL A   1      41.706  33.303  30.309  1.00  0.00     0.031 C 
ATOM     49  C   UNL A   1      40.704  30.107  34.058  1.00  0.00     0.029 A 
ATOM     50  N   UNL A   1      42.451  29.695  32.733  1.00  0.00    -0.354 N 
ATOM     51  C   UNL A   1      43.442  32.119  29.398  1.00  0.00     0.074 A 
ATOM     52  C   UNL A   1      42.575  33.275  29.312  1.00  0.00     0.031 C 
ATOM     53  C   UNL A   1      41.312  28.995  34.516  1.00  0.00     0.029 A 
ATOM     54  C   UNL A   1      42.437  28.657  33.642  1.00  0.00     0.049 A 
ATOM     55  H   UNL A   1      43.141  29.784  32.035  1.00  0.00     0.167 HD
ATOM     56  C   UNL A   1      44.468  31.889  28.544  1.00  0.00     0.031 A 
ATOM     57  C   UNL A   1      43.211  27.552  33.750  1.00  0.00     0.031 A 
ATOM     58  C   UNL A   1      45.362  30.766  28.600  1.00  0.00     0.049 A 
ATOM     59  C   UNL A   1      44.305  27.270  32.741  1.00  0.00     0.074 A 
ATOM     60  C   UNL A   1      46.439  30.484  27.777  1.00  0.00     0.029 A 
ATOM     61  N   UNL A   1      45.290  29.742  29.528  1.00  0.00    -0.354 N 
ATOM     62  N   UNL A   1      44.708  27.999  31.730  1.00  0.00    -0.248 NA
ATOM     63  C   UNL A   1      45.043  25.999  32.885  1.00  0.00     0.031 C 
ATOM     64  C   UNL A   1      46.992  29.264  28.177  1.00  0.00     0.029 A 
ATOM     65  C   UNL A   1      46.288  28.815  29.281  1.00  0.00     0.049 A 
ATOM     66  H   UNL A   1      44.627  29.683  30.254  1.00  0.00     0.167 HD
ATOM     67  C   UNL A   1      45.754  27.290  31.141  1.00  0.00     0.074 A 
ATOM     68  C   UNL A   1      45.939  26.083  31.911  1.00  0.00     0.031 C 
ATOM     69  C   UNL A   1      46.491  27.618  30.053  1.00  0.00     0.031 A 
BRANCH  56  70
ATOM     70  C   UNL A   1      44.653  32.878  27.431  1.00  0.00    -0.014 A 
ATOM     71  C   UNL A   1      44.028  32.700  26.188  1.00  0.00     0.009 A 
ATOM     72  C   UNL A   1      45.465  34.005  27.635  1.00  0.00     0.009 A 
ATOM     73  C   UNL A   1      44.253  33.606  25.151  1.00  0.00     0.001 A 
ATOM     74  C   UNL A   1      45.663  34.926  26.606  1.00  0.00     0.001 A 
ATOM     75  C   UNL A   1      45.067  34.718  25.362  1.00  0.00     0.000 A 
ENDBRANCH  56  70
BRANCH  57  76
ATOM     76  C   UNL A   1      42.983  26.556  34.841  1.00  0.00    -0.014 A 
ATOM     77  C   UNL A   1      41.880  25.686  34.793  1.00  0.00     0.009 A 
ATOM     78  C   UNL A   1      43.799  26.542  35.983  1.00  0.00     0.009 A 
ATOM     79  C   UNL A   1      41.582  24.850  35.874  1.00  0.00     0.001 A 
ATOM     80  C   UNL A   1      43.516  25.684  37.050  1.00  0.00     0.001 A 
ATOM     81  C   UNL A   1      42.402  24.847  37.000  1.00  0.00     0.000 A 
ENDBRANCH  57  76
BRANCH  69  82
ATOM     82  C   UNL A   1      47.600  26.692  29.631  1.00  0.00    -0.014 A 
ATOM     83  C   UNL A   1      47.410  25.742  28.616  1.00  0.00     0.009 A 
ATOM     84  C   UNL A   1      48.879  26.833  30.195  1.00  0.00     0.009 A 
ATOM     85  C   UNL A   1      48.475  24.946  28.183  1.00  0.00     0.001 A 
ATOM     86  C   UNL A   1      49.946  26.053  29.746  1.00  0.00     0.001 A 
ATOM     87  C   UNL A   1      49.742  25.106  28.742  1.00  0.00     0.000 A 
ENDBRANCH  69  82
ENDBRANCH  43  44
ENDBRANCH  35  38
ENDBRANCH  33  34
ENDBRANCH  32  33
ENDBRANCH  31  32
ENDBRANCH   3  31
TORSDOF 16
ENDMDL
