MODEL 1
REMARK VINA RESULT:     -12.3      0.000      0.000
REMARK SMILES CCOC(=O)c1c(-c2cccc3ccccc23)csc1NC(=O)[C@H]1CC=CC[C@H]1C(=O)NCCCNC(=O)c1ccc(-c2c3nc(c(-c4ccccc4)c4ccc([nH]4)c(-c4ccccc4)c4nc(c(-c5ccccc5)c5ccc2[nH]5)C=C4)C=C3)cc1
REMARK SMILES IDX 30 1 31 2 32 3 29 5 24 6 25 7 26 8 28 9 27 10 22 11 21 12
REMARK SMILES IDX 23 14 20 15 6 16 7 17 18 18 19 19 4 20 5 21 3 22 2 23 1 24
REMARK SMILES IDX 8 25 9 26 17 27 10 28 12 29 16 30 11 31 13 32 15 33 14 34
REMARK SMILES IDX 33 35 34 36 35 37 36 38 37 39 38 41 39 42 40 43 86 44 41 45
REMARK SMILES IDX 85 46 42 47 43 48 44 49 79 50 45 51 84 52 78 53 80 54 46 55
REMARK SMILES IDX 83 56 77 57 76 58 47 60 69 61 54 62 68 63 55 64 58 65 67 66
REMARK SMILES IDX 81 67 56 68 57 69 66 71 82 72 59 73 48 74 49 75 53 76 50 77
REMARK SMILES IDX 52 78 51 79 70 80 71 81 75 82 72 83 74 84 73 85 60 86 61 87
REMARK SMILES IDX 65 88 62 89 64 90 63 91
REMARK H PARENT 32 4 21 13 36 40 80 59 58 70
REMARK Flexibility Score: inf
ROOT
ATOM      1  C   UNL A   1      34.203  22.250  26.048  1.00  0.00     0.224 C 
ATOM      2  O   UNL A   1      33.728  22.672  27.112  1.00  0.00    -0.275 OA
ATOM      3  N   UNL A   1      34.875  23.166  25.313  1.00  0.00    -0.356 N 
ATOM      4  H   UNL A   1      34.929  24.048  25.748  1.00  0.00     0.163 HD
ENDROOT
BRANCH   1   5
ATOM      5  C   UNL A   1      33.944  20.797  25.654  1.00  0.00     0.095 C 
ATOM      6  C   UNL A   1      32.536  20.561  25.070  1.00  0.00     0.095 C 
ATOM      7  C   UNL A   1      32.234  19.051  25.003  1.00  0.00     0.041 C 
ATOM      8  C   UNL A   1      33.404  18.213  24.561  1.00  0.00    -0.030 C 
ATOM      9  C   UNL A   1      35.084  20.031  24.982  1.00  0.00     0.041 C 
ATOM     10  C   UNL A   1      34.671  18.655  24.539  1.00  0.00    -0.030 C 
BRANCH   6  11
ATOM     11  C   UNL A   1      32.323  21.130  23.682  1.00  0.00     0.229 C 
ATOM     12  N   UNL A   1      31.981  22.422  23.437  1.00  0.00    -0.317 N 
ATOM     13  H   UNL A   1      32.018  22.639  22.477  1.00  0.00     0.170 HD
ATOM     14  O   UNL A   1      32.458  20.418  22.679  1.00  0.00    -0.274 OA
BRANCH  12  15
ATOM     15  C   UNL A   1      31.594  23.508  24.201  1.00  0.00     0.110 A 
ATOM     16  C   UNL A   1      31.864  24.829  23.879  1.00  0.00     0.102 A 
ATOM     17  C   UNL A   1      31.200  25.746  24.779  1.00  0.00     0.010 A 
ATOM     18  C   UNL A   1      30.546  25.079  25.790  1.00  0.00     0.076 A 
ATOM     19  S   UNL A   1      30.649  23.384  25.601  1.00  0.00    -0.125 S 
BRANCH  16  20
ATOM     20  C   UNL A   1      32.697  25.209  22.744  1.00  0.00     0.341 C 
ATOM     21  O   UNL A   1      32.677  24.607  21.672  1.00  0.00    -0.246 OA
BRANCH  20  22
ATOM     22  O   UNL A   1      33.519  26.242  23.044  1.00  0.00    -0.462 OA
BRANCH  22  23
ATOM     23  C   UNL A   1      33.595  27.312  22.107  1.00  0.00     0.230 C 
ATOM     24  C   UNL A   1      34.153  28.549  22.771  1.00  0.00     0.049 C 
ENDBRANCH  22  23
ENDBRANCH  20  22
ENDBRANCH  16  20
BRANCH  17  25
ATOM     25  C   UNL A   1      31.136  27.205  24.646  1.00  0.00    -0.009 A 
ATOM     26  C   UNL A   1      30.207  27.756  23.751  1.00  0.00     0.009 A 
ATOM     27  C   UNL A   1      31.913  28.051  25.497  1.00  0.00    -0.010 A 
ATOM     28  C   UNL A   1      30.023  29.135  23.693  1.00  0.00     0.001 A 
ATOM     29  C   UNL A   1      31.699  29.451  25.431  1.00  0.00    -0.018 A 
ATOM     30  C   UNL A   1      32.880  27.584  26.424  1.00  0.00     0.009 A 
ATOM     31  C   UNL A   1      30.758  29.972  24.530  1.00  0.00     0.009 A 
ATOM     32  C   UNL A   1      32.422  30.312  26.272  1.00  0.00     0.009 A 
ATOM     33  C   UNL A   1      33.583  28.451  27.260  1.00  0.00     0.001 A 
ATOM     34  C   UNL A   1      33.360  29.816  27.176  1.00  0.00     0.001 A 
ENDBRANCH  17  25
ENDBRANCH  12  15
ENDBRANCH   6  11
ENDBRANCH   1   5
BRANCH   3  35
ATOM     35  C   UNL A   1      35.534  23.125  24.019  1.00  0.00     0.117 C 
BRANCH  35  36
ATOM     36  C   UNL A   1      37.045  22.934  24.152  1.00  0.00     0.042 C 
BRANCH  36  37
ATOM     37  C   UNL A   1      37.562  23.032  25.584  1.00  0.00     0.118 C 
BRANCH  37  38
ATOM     38  N   UNL A   1      38.860  22.389  25.750  1.00  0.00    -0.352 N 
ATOM     39  C   UNL A   1      40.068  22.893  26.171  1.00  0.00     0.251 C 
ATOM     40  H   UNL A   1      38.874  21.432  25.523  1.00  0.00     0.163 HD
ATOM     41  O   UNL A   1      41.085  22.220  26.023  1.00  0.00    -0.269 OA
BRANCH  39  42
ATOM     42  C   UNL A   1      40.170  24.229  26.803  1.00  0.00     0.039 A 
ATOM     43  C   UNL A   1      39.621  24.431  28.076  1.00  0.00     0.014 A 
ATOM     44  C   UNL A   1      40.741  25.304  26.127  1.00  0.00     0.014 A 
ATOM     45  C   UNL A   1      39.722  25.682  28.704  1.00  0.00     0.010 A 
ATOM     46  C   UNL A   1      40.895  26.526  26.779  1.00  0.00     0.010 A 
ATOM     47  C   UNL A   1      40.410  26.735  28.085  1.00  0.00    -0.014 A 
BRANCH  47  48
ATOM     48  C   UNL A   1      40.687  28.043  28.761  1.00  0.00     0.031 A 
ATOM     49  C   UNL A   1      41.966  28.229  29.542  1.00  0.00     0.074 A 
ATOM     50  C   UNL A   1      39.742  29.007  28.833  1.00  0.00     0.049 A 
ATOM     51  N   UNL A   1      42.295  29.171  30.391  1.00  0.00    -0.248 NA
ATOM     52  C   UNL A   1      42.992  27.187  29.377  1.00  0.00     0.031 C 
ATOM     53  C   UNL A   1      38.433  28.979  28.175  1.00  0.00     0.029 A 
ATOM     54  N   UNL A   1      39.721  30.187  29.545  1.00  0.00    -0.354 N 
ATOM     55  C   UNL A   1      43.543  28.814  30.886  1.00  0.00     0.074 A 
ATOM     56  C   UNL A   1      43.878  27.535  30.298  1.00  0.00     0.031 C 
ATOM     57  C   UNL A   1      37.745  30.083  28.508  1.00  0.00     0.029 A 
ATOM     58  C   UNL A   1      38.537  30.881  29.437  1.00  0.00     0.049 A 
ATOM     59  H   UNL A   1      40.483  30.503  30.082  1.00  0.00     0.167 HD
ATOM     60  C   UNL A   1      44.363  29.498  31.720  1.00  0.00     0.031 A 
ATOM     61  C   UNL A   1      38.124  32.023  30.023  1.00  0.00     0.031 A 
ATOM     62  C   UNL A   1      44.076  30.796  32.265  1.00  0.00     0.049 A 
ATOM     63  C   UNL A   1      39.035  32.751  30.974  1.00  0.00     0.074 A 
ATOM     64  C   UNL A   1      44.895  31.611  33.027  1.00  0.00     0.029 A 
ATOM     65  N   UNL A   1      42.880  31.474  32.097  1.00  0.00    -0.354 N 
ATOM     66  N   UNL A   1      40.246  32.437  31.361  1.00  0.00    -0.248 NA
ATOM     67  C   UNL A   1      38.525  34.004  31.555  1.00  0.00     0.031 C 
ATOM     68  C   UNL A   1      44.183  32.772  33.347  1.00  0.00     0.029 A 
ATOM     69  C   UNL A   1      42.936  32.694  32.749  1.00  0.00     0.049 A 
ATOM     70  H   UNL A   1      42.106  31.139  31.589  1.00  0.00     0.167 HD
ATOM     71  C   UNL A   1      40.669  33.487  32.168  1.00  0.00     0.074 A 
ATOM     72  C   UNL A   1      39.579  34.435  32.236  1.00  0.00     0.031 C 
ATOM     73  C   UNL A   1      41.866  33.655  32.778  1.00  0.00     0.031 A 
BRANCH  60  74
ATOM     74  C   UNL A   1      45.679  28.856  32.066  1.00  0.00    -0.014 A 
ATOM     75  C   UNL A   1      46.814  29.058  31.264  1.00  0.00     0.009 A 
ATOM     76  C   UNL A   1      45.791  28.055  33.212  1.00  0.00     0.009 A 
ATOM     77  C   UNL A   1      48.020  28.427  31.572  1.00  0.00     0.001 A 
ATOM     78  C   UNL A   1      47.008  27.452  33.537  1.00  0.00     0.001 A 
ATOM     79  C   UNL A   1      48.116  27.628  32.709  1.00  0.00     0.000 A 
ENDBRANCH  60  74
BRANCH  61  80
ATOM     80  C   UNL A   1      36.793  32.599  29.685  1.00  0.00    -0.014 A 
ATOM     81  C   UNL A   1      36.650  33.398  28.538  1.00  0.00     0.009 A 
ATOM     82  C   UNL A   1      35.671  32.372  30.495  1.00  0.00     0.009 A 
ATOM     83  C   UNL A   1      35.422  33.985  28.228  1.00  0.00     0.001 A 
ATOM     84  C   UNL A   1      34.435  32.930  30.158  1.00  0.00     0.001 A 
ATOM     85  C   UNL A   1      34.314  33.748  29.036  1.00  0.00     0.000 A 
ENDBRANCH  61  80
BRANCH  73  86
ATOM     86  C   UNL A   1      42.110  34.954  33.490  1.00  0.00    -0.014 A 
ATOM     87  C   UNL A   1      41.672  35.171  34.804  1.00  0.00     0.009 A 
ATOM     88  C   UNL A   1      42.848  35.960  32.842  1.00  0.00     0.009 A 
ATOM     89  C   UNL A   1      41.950  36.380  35.448  1.00  0.00     0.001 A 
ATOM     90  C   UNL A   1      43.145  37.156  33.496  1.00  0.00     0.001 A 
ATOM     91  C   UNL A   1      42.690  37.367  34.796  1.00  0.00     0.000 A 
ENDBRANCH  73  86
ENDBRANCH  47  48
ENDBRANCH  39  42
ENDBRANCH  37  38
ENDBRANCH  36  37
ENDBRANCH  35  36
ENDBRANCH   3  35
TORSDOF 16
ENDMDL
MODEL 2
REMARK VINA RESULT:     -11.9      1.770      2.601
REMARK SMILES CCOC(=O)c1c(-c2cccc3ccccc23)csc1NC(=O)[C@H]1CC=CC[C@H]1C(=O)NCCCNC(=O)c1ccc(-c2c3nc(c(-c4ccccc4)c4ccc([nH]4)c(-c4ccccc4)c4nc(c(-c5ccccc5)c5ccc2[nH]5)C=C4)C=C3)cc1
REMARK SMILES IDX 30 1 31 2 32 3 29 5 24 6 25 7 26 8 28 9 27 10 22 11 21 12
REMARK SMILES IDX 23 14 20 15 6 16 7 17 18 18 19 19 4 20 5 21 3 22 2 23 1 24
REMARK SMILES IDX 8 25 9 26 17 27 10 28 12 29 16 30 11 31 13 32 15 33 14 34
REMARK SMILES IDX 33 35 34 36 35 37 36 38 37 39 38 41 39 42 40 43 86 44 41 45
REMARK SMILES IDX 85 46 42 47 43 48 44 49 79 50 45 51 84 52 78 53 80 54 46 55
REMARK SMILES IDX 83 56 77 57 76 58 47 60 69 61 54 62 68 63 55 64 58 65 67 66
REMARK SMILES IDX 81 67 56 68 57 69 66 71 82 72 59 73 48 74 49 75 53 76 50 77
REMARK SMILES IDX 52 78 51 79 70 80 71 81 75 82 72 83 74 84 73 85 60 86 61 87
REMARK SMILES IDX 65 88 62 89 64 90 63 91
REMARK H PARENT 32 4 21 13 36 40 80 59 58 70
REMARK Flexibility Score: inf
ROOT
ATOM      1  C   UNL A   1      34.405  21.208  26.117  1.00  0.00     0.224 C 
ATOM      2  O   UNL A   1      33.909  21.558  27.198  1.00  0.00    -0.275 OA
ATOM      3  N   UNL A   1      35.193  22.132  25.520  1.00  0.00    -0.356 N 
ATOM      4  H   UNL A   1      35.296  22.955  26.051  1.00  0.00     0.163 HD
ENDROOT
BRANCH   1   5
ATOM      5  C   UNL A   1      34.047  19.834  25.555  1.00  0.00     0.095 C 
ATOM      6  C   UNL A   1      32.602  19.746  25.023  1.00  0.00     0.095 C 
ATOM      7  C   UNL A   1      32.213  18.275  24.779  1.00  0.00     0.041 C 
ATOM      8  C   UNL A   1      33.313  17.446  24.170  1.00  0.00    -0.030 C 
ATOM      9  C   UNL A   1      35.110  19.108  24.728  1.00  0.00     0.041 C 
ATOM     10  C   UNL A   1      34.599  17.824  24.135  1.00  0.00    -0.030 C 
BRANCH   6  11
ATOM     11  C   UNL A   1      32.355  20.503  23.733  1.00  0.00     0.229 C 
ATOM     12  N   UNL A   1      32.064  21.828  23.676  1.00  0.00    -0.317 N 
ATOM     13  H   UNL A   1      32.069  22.169  22.752  1.00  0.00     0.170 HD
ATOM     14  O   UNL A   1      32.412  19.924  22.641  1.00  0.00    -0.274 OA
BRANCH  12  15
ATOM     15  C   UNL A   1      31.764  22.818  24.593  1.00  0.00     0.110 A 
ATOM     16  C   UNL A   1      32.249  24.116  24.533  1.00  0.00     0.102 A 
ATOM     17  C   UNL A   1      31.639  24.963  25.534  1.00  0.00     0.010 A 
ATOM     18  C   UNL A   1      30.801  24.247  26.361  1.00  0.00     0.076 A 
ATOM     19  S   UNL A   1      30.681  22.613  25.878  1.00  0.00    -0.125 S 
BRANCH  16  20
ATOM     20  C   UNL A   1      33.233  24.544  23.546  1.00  0.00     0.341 C 
ATOM     21  O   UNL A   1      34.369  24.904  23.850  1.00  0.00    -0.246 OA
BRANCH  20  22
ATOM     22  O   UNL A   1      32.719  24.555  22.293  1.00  0.00    -0.462 OA
BRANCH  22  23
ATOM     23  C   UNL A   1      32.837  25.762  21.547  1.00  0.00     0.230 C 
ATOM     24  C   UNL A   1      32.443  25.527  20.108  1.00  0.00     0.049 C 
ENDBRANCH  22  23
ENDBRANCH  20  22
ENDBRANCH  16  20
BRANCH  17  25
ATOM     25  C   UNL A   1      31.796  26.415  25.662  1.00  0.00    -0.009 A 
ATOM     26  C   UNL A   1      32.798  26.908  26.511  1.00  0.00     0.009 A 
ATOM     27  C   UNL A   1      31.031  27.308  24.849  1.00  0.00    -0.010 A 
ATOM     28  C   UNL A   1      33.067  28.274  26.558  1.00  0.00     0.001 A 
ATOM     29  C   UNL A   1      31.331  28.692  24.903  1.00  0.00    -0.018 A 
ATOM     30  C   UNL A   1      29.994  26.900  23.970  1.00  0.00     0.009 A 
ATOM     31  C   UNL A   1      32.343  29.154  25.757  1.00  0.00     0.009 A 
ATOM     32  C   UNL A   1      30.620  29.596  24.097  1.00  0.00     0.009 A 
ATOM     33  C   UNL A   1      29.304  27.810  23.168  1.00  0.00     0.001 A 
ATOM     34  C   UNL A   1      29.612  29.159  23.241  1.00  0.00     0.001 A 
ENDBRANCH  17  25
ENDBRANCH  12  15
ENDBRANCH   6  11
ENDBRANCH   1   5
BRANCH   3  35
ATOM     35  C   UNL A   1      35.918  22.168  24.262  1.00  0.00     0.117 C 
BRANCH  35  36
ATOM     36  C   UNL A   1      37.379  21.752  24.431  1.00  0.00     0.042 C 
BRANCH  36  37
ATOM     37  C   UNL A   1      38.042  22.301  25.690  1.00  0.00     0.118 C 
BRANCH  37  38
ATOM     38  N   UNL A   1      39.303  21.633  25.990  1.00  0.00    -0.352 N 
ATOM     39  C   UNL A   1      40.525  22.141  26.364  1.00  0.00     0.251 C 
ATOM     40  H   UNL A   1      39.276  20.653  25.911  1.00  0.00     0.163 HD
ATOM     41  O   UNL A   1      41.511  21.408  26.349  1.00  0.00    -0.269 OA
BRANCH  39  42
ATOM     42  C   UNL A   1      40.679  23.551  26.789  1.00  0.00     0.039 A 
ATOM     43  C   UNL A   1      40.942  23.839  28.135  1.00  0.00     0.014 A 
ATOM     44  C   UNL A   1      40.498  24.599  25.890  1.00  0.00     0.014 A 
ATOM     45  C   UNL A   1      41.111  25.166  28.559  1.00  0.00     0.010 A 
ATOM     46  C   UNL A   1      40.728  25.910  26.302  1.00  0.00     0.010 A 
ATOM     47  C   UNL A   1      41.060  26.219  27.636  1.00  0.00    -0.014 A 
BRANCH  47  48
ATOM     48  C   UNL A   1      41.383  27.639  27.992  1.00  0.00     0.031 A 
ATOM     49  C   UNL A   1      42.823  28.085  28.072  1.00  0.00     0.074 A 
ATOM     50  C   UNL A   1      40.419  28.490  28.411  1.00  0.00     0.049 A 
ATOM     51  N   UNL A   1      43.330  29.177  28.588  1.00  0.00    -0.248 NA
ATOM     52  C   UNL A   1      43.829  27.151  27.540  1.00  0.00     0.031 C 
ATOM     53  C   UNL A   1      38.981  28.215  28.440  1.00  0.00     0.029 A 
ATOM     54  N   UNL A   1      40.517  29.756  28.947  1.00  0.00    -0.354 N 
ATOM     55  C   UNL A   1      44.708  29.043  28.476  1.00  0.00     0.074 A 
ATOM     56  C   UNL A   1      44.958  27.734  27.912  1.00  0.00     0.031 C 
ATOM     57  C   UNL A   1      38.337  29.273  28.958  1.00  0.00     0.029 A 
ATOM     58  C   UNL A   1      39.310  30.289  29.342  1.00  0.00     0.049 A 
ATOM     59  H   UNL A   1      41.373  30.235  29.041  1.00  0.00     0.167 HD
ATOM     60  C   UNL A   1      45.684  29.934  28.774  1.00  0.00     0.031 A 
ATOM     61  C   UNL A   1      39.014  31.453  29.953  1.00  0.00     0.031 A 
ATOM     62  C   UNL A   1      45.454  31.260  29.277  1.00  0.00     0.049 A 
ATOM     63  C   UNL A   1      40.115  32.416  30.308  1.00  0.00     0.074 A 
ATOM     64  C   UNL A   1      46.375  32.269  29.500  1.00  0.00     0.029 A 
ATOM     65  N   UNL A   1      44.212  31.766  29.624  1.00  0.00    -0.354 N 
ATOM     66  N   UNL A   1      41.405  32.303  30.115  1.00  0.00    -0.248 NA
ATOM     67  C   UNL A   1      39.713  33.678  30.949  1.00  0.00     0.031 C 
ATOM     68  C   UNL A   1      45.694  33.379  30.013  1.00  0.00     0.029 A 
ATOM     69  C   UNL A   1      44.344  33.070  30.070  1.00  0.00     0.049 A 
ATOM     70  H   UNL A   1      43.363  31.272  29.564  1.00  0.00     0.167 HD
ATOM     71  C   UNL A   1      41.958  33.505  30.541  1.00  0.00     0.074 A 
ATOM     72  C   UNL A   1      40.868  34.325  31.024  1.00  0.00     0.031 C 
ATOM     73  C   UNL A   1      43.253  33.898  30.510  1.00  0.00     0.031 A 
BRANCH  60  74
ATOM     74  C   UNL A   1      47.104  29.504  28.524  1.00  0.00    -0.014 A 
ATOM     75  C   UNL A   1      47.873  28.925  29.546  1.00  0.00     0.009 A 
ATOM     76  C   UNL A   1      47.673  29.661  27.251  1.00  0.00     0.009 A 
ATOM     77  C   UNL A   1      49.201  28.564  29.315  1.00  0.00     0.001 A 
ATOM     78  C   UNL A   1      48.991  29.267  27.013  1.00  0.00     0.001 A 
ATOM     79  C   UNL A   1      49.757  28.733  28.048  1.00  0.00     0.000 A 
ENDBRANCH  60  74
BRANCH  61  80
ATOM     80  C   UNL A   1      37.596  31.818  30.222  1.00  0.00    -0.014 A 
ATOM     81  C   UNL A   1      37.007  31.472  31.450  1.00  0.00     0.009 A 
ATOM     82  C   UNL A   1      36.822  32.493  29.268  1.00  0.00     0.009 A 
ATOM     83  C   UNL A   1      35.667  31.764  31.705  1.00  0.00     0.001 A 
ATOM     84  C   UNL A   1      35.490  32.817  29.543  1.00  0.00     0.001 A 
ATOM     85  C   UNL A   1      34.909  32.440  30.753  1.00  0.00     0.000 A 
ENDBRANCH  61  80
BRANCH  73  86
ATOM     86  C   UNL A   1      43.564  35.311  30.914  1.00  0.00    -0.014 A 
ATOM     87  C   UNL A   1      43.608  36.354  29.978  1.00  0.00     0.009 A 
ATOM     88  C   UNL A   1      43.760  35.605  32.274  1.00  0.00     0.009 A 
ATOM     89  C   UNL A   1      43.865  37.662  30.396  1.00  0.00     0.001 A 
ATOM     90  C   UNL A   1      43.992  36.916  32.690  1.00  0.00     0.001 A 
ATOM     91  C   UNL A   1      44.050  37.943  31.750  1.00  0.00     0.000 A 
ENDBRANCH  73  86
ENDBRANCH  47  48
ENDBRANCH  39  42
ENDBRANCH  37  38
ENDBRANCH  36  37
ENDBRANCH  35  36
ENDBRANCH   3  35
TORSDOF 16
ENDMDL
MODEL 3
REMARK VINA RESULT:     -11.7      3.255      7.054
REMARK SMILES CCOC(=O)c1c(-c2cccc3ccccc23)csc1NC(=O)[C@H]1CC=CC[C@H]1C(=O)NCCCNC(=O)c1ccc(-c2c3nc(c(-c4ccccc4)c4ccc([nH]4)c(-c4ccccc4)c4nc(c(-c5ccccc5)c5ccc2[nH]5)C=C4)C=C3)cc1
REMARK SMILES IDX 30 1 31 2 32 3 29 5 24 6 25 7 26 8 28 9 27 10 22 11 21 12
REMARK SMILES IDX 23 14 20 15 6 16 7 17 18 18 19 19 4 20 5 21 3 22 2 23 1 24
REMARK SMILES IDX 8 25 9 26 17 27 10 28 12 29 16 30 11 31 13 32 15 33 14 34
REMARK SMILES IDX 33 35 34 36 35 37 36 38 37 39 38 41 39 42 40 43 86 44 41 45
REMARK SMILES IDX 85 46 42 47 43 48 44 49 79 50 45 51 84 52 78 53 80 54 46 55
REMARK SMILES IDX 83 56 77 57 76 58 47 60 69 61 54 62 68 63 55 64 58 65 67 66
REMARK SMILES IDX 81 67 56 68 57 69 66 71 82 72 59 73 48 74 49 75 53 76 50 77
REMARK SMILES IDX 52 78 51 79 70 80 71 81 75 82 72 83 74 84 73 85 60 86 61 87
REMARK SMILES IDX 65 88 62 89 64 90 63 91
REMARK H PARENT 32 4 21 13 36 40 80 59 58 70
REMARK Flexibility Score: inf
ROOT
ATOM      1  C   UNL A   1      34.880  21.367  25.724  1.00  0.00     0.224 C 
ATOM      2  O   UNL A   1      34.218  22.149  26.421  1.00  0.00    -0.275 OA
ATOM      3  N   UNL A   1      36.025  21.877  25.215  1.00  0.00    -0.356 N 
ATOM      4  H   UNL A   1      36.198  22.803  25.502  1.00  0.00     0.163 HD
ENDROOT
BRANCH   1   5
ATOM      5  C   UNL A   1      34.329  19.965  25.469  1.00  0.00     0.095 C 
ATOM      6  C   UNL A   1      32.795  19.927  25.314  1.00  0.00     0.095 C 
ATOM      7  C   UNL A   1      32.289  18.473  25.386  1.00  0.00     0.041 C 
ATOM      8  C   UNL A   1      33.164  17.485  24.661  1.00  0.00    -0.030 C 
ATOM      9  C   UNL A   1      35.120  19.053  24.529  1.00  0.00     0.041 C 
ATOM     10  C   UNL A   1      34.419  17.749  24.268  1.00  0.00    -0.030 C 
BRANCH   6  11
ATOM     11  C   UNL A   1      32.275  20.527  24.023  1.00  0.00     0.229 C 
ATOM     12  N   UNL A   1      31.862  21.815  23.898  1.00  0.00    -0.317 N 
ATOM     13  H   UNL A   1      31.686  22.059  22.961  1.00  0.00     0.170 HD
ATOM     14  O   UNL A   1      32.202  19.844  22.993  1.00  0.00    -0.274 OA
BRANCH  12  15
ATOM     15  C   UNL A   1      31.630  22.870  24.761  1.00  0.00     0.110 A 
ATOM     16  C   UNL A   1      32.123  24.154  24.581  1.00  0.00     0.102 A 
ATOM     17  C   UNL A   1      31.585  25.076  25.557  1.00  0.00     0.010 A 
ATOM     18  C   UNL A   1      30.795  24.430  26.482  1.00  0.00     0.076 A 
ATOM     19  S   UNL A   1      30.628  22.769  26.122  1.00  0.00    -0.125 S 
BRANCH  16  20
ATOM     20  C   UNL A   1      33.046  24.499  23.507  1.00  0.00     0.341 C 
ATOM     21  O   UNL A   1      34.235  24.187  23.524  1.00  0.00    -0.246 OA
BRANCH  20  22
ATOM     22  O   UNL A   1      32.448  25.246  22.548  1.00  0.00    -0.462 OA
BRANCH  22  23
ATOM     23  C   UNL A   1      33.289  26.026  21.705  1.00  0.00     0.230 C 
ATOM     24  C   UNL A   1      33.639  27.331  22.378  1.00  0.00     0.049 C 
ENDBRANCH  22  23
ENDBRANCH  20  22
ENDBRANCH  16  20
BRANCH  17  25
ATOM     25  C   UNL A   1      31.763  26.531  25.573  1.00  0.00    -0.009 A 
ATOM     26  C   UNL A   1      32.828  27.067  26.312  1.00  0.00     0.009 A 
ATOM     27  C   UNL A   1      30.949  27.377  24.757  1.00  0.00    -0.010 A 
ATOM     28  C   UNL A   1      33.111  28.429  26.247  1.00  0.00     0.001 A 
ATOM     29  C   UNL A   1      31.264  28.757  24.695  1.00  0.00    -0.018 A 
ATOM     30  C   UNL A   1      29.848  26.925  23.985  1.00  0.00     0.009 A 
ATOM     31  C   UNL A   1      32.340  29.263  25.440  1.00  0.00     0.009 A 
ATOM     32  C   UNL A   1      30.505  29.614  23.881  1.00  0.00     0.009 A 
ATOM     33  C   UNL A   1      29.110  27.787  23.173  1.00  0.00     0.001 A 
ATOM     34  C   UNL A   1      29.434  29.134  23.131  1.00  0.00     0.001 A 
ENDBRANCH  17  25
ENDBRANCH  12  15
ENDBRANCH   6  11
ENDBRANCH   1   5
BRANCH   3  35
ATOM     35  C   UNL A   1      37.053  21.349  24.334  1.00  0.00     0.117 C 
BRANCH  35  36
ATOM     36  C   UNL A   1      37.818  20.192  24.976  1.00  0.00     0.042 C 
BRANCH  36  37
ATOM     37  C   UNL A   1      39.055  20.621  25.759  1.00  0.00     0.118 C 
BRANCH  37  38
ATOM     38  N   UNL A   1      40.026  19.542  25.897  1.00  0.00    -0.352 N 
ATOM     39  C   UNL A   1      41.388  19.573  26.079  1.00  0.00     0.251 C 
ATOM     40  H   UNL A   1      39.641  18.638  25.852  1.00  0.00     0.163 HD
ATOM     41  O   UNL A   1      42.037  18.539  25.946  1.00  0.00    -0.269 OA
BRANCH  39  42
ATOM     42  C   UNL A   1      42.092  20.827  26.434  1.00  0.00     0.039 A 
ATOM     43  C   UNL A   1      42.678  21.598  25.421  1.00  0.00     0.014 A 
ATOM     44  C   UNL A   1      42.240  21.218  27.762  1.00  0.00     0.014 A 
ATOM     45  C   UNL A   1      43.334  22.799  25.731  1.00  0.00     0.010 A 
ATOM     46  C   UNL A   1      42.837  22.442  28.059  1.00  0.00     0.010 A 
ATOM     47  C   UNL A   1      43.375  23.267  27.051  1.00  0.00    -0.014 A 
BRANCH  47  48
ATOM     48  C   UNL A   1      43.921  24.611  27.429  1.00  0.00     0.031 A 
ATOM     49  C   UNL A   1      42.977  25.724  27.813  1.00  0.00     0.074 A 
ATOM     50  C   UNL A   1      45.232  24.902  27.270  1.00  0.00     0.049 A 
ATOM     51  N   UNL A   1      43.208  27.008  27.937  1.00  0.00    -0.248 NA
ATOM     52  C   UNL A   1      41.574  25.345  28.042  1.00  0.00     0.031 C 
ATOM     53  C   UNL A   1      46.280  23.961  26.866  1.00  0.00     0.029 A 
ATOM     54  N   UNL A   1      45.900  26.103  27.381  1.00  0.00    -0.354 N 
ATOM     55  C   UNL A   1      41.978  27.588  28.220  1.00  0.00     0.074 A 
ATOM     56  C   UNL A   1      40.994  26.527  28.176  1.00  0.00     0.031 C 
ATOM     57  C   UNL A   1      47.449  24.614  26.769  1.00  0.00     0.029 A 
ATOM     58  C   UNL A   1      47.236  26.028  27.058  1.00  0.00     0.049 A 
ATOM     59  H   UNL A   1      45.461  26.937  27.664  1.00  0.00     0.167 HD
ATOM     60  C   UNL A   1      41.686  28.874  28.530  1.00  0.00     0.031 A 
ATOM     61  C   UNL A   1      48.185  26.983  26.989  1.00  0.00     0.031 A 
ATOM     62  C   UNL A   1      42.656  29.928  28.638  1.00  0.00     0.049 A 
ATOM     63  C   UNL A   1      47.835  28.413  27.303  1.00  0.00     0.074 A 
ATOM     64  C   UNL A   1      42.466  31.234  29.056  1.00  0.00     0.029 A 
ATOM     65  N   UNL A   1      44.002  29.795  28.339  1.00  0.00    -0.354 N 
ATOM     66  N   UNL A   1      46.680  28.923  27.650  1.00  0.00    -0.248 NA
ATOM     67  C   UNL A   1      48.928  29.396  27.231  1.00  0.00     0.031 C 
ATOM     68  C   UNL A   1      43.694  31.902  28.980  1.00  0.00     0.029 A 
ATOM     69  C   UNL A   1      44.652  30.998  28.553  1.00  0.00     0.049 A 
ATOM     70  H   UNL A   1      44.431  28.968  28.021  1.00  0.00     0.167 HD
ATOM     71  C   UNL A   1      46.924  30.267  27.911  1.00  0.00     0.074 A 
ATOM     72  C   UNL A   1      48.329  30.500  27.658  1.00  0.00     0.031 C 
ATOM     73  C   UNL A   1      46.059  31.215  28.343  1.00  0.00     0.031 A 
BRANCH  60  74
ATOM     74  C   UNL A   1      40.245  29.201  28.809  1.00  0.00    -0.014 A 
ATOM     75  C   UNL A   1      39.325  29.364  27.760  1.00  0.00     0.009 A 
ATOM     76  C   UNL A   1      39.796  29.330  30.132  1.00  0.00     0.009 A 
ATOM     77  C   UNL A   1      37.999  29.705  28.028  1.00  0.00     0.001 A 
ATOM     78  C   UNL A   1      38.460  29.637  30.399  1.00  0.00     0.001 A 
ATOM     79  C   UNL A   1      37.567  29.838  29.347  1.00  0.00     0.000 A 
ENDBRANCH  60  74
BRANCH  61  80
ATOM     80  C   UNL A   1      49.592  26.619  26.664  1.00  0.00    -0.014 A 
ATOM     81  C   UNL A   1      50.036  26.672  25.332  1.00  0.00     0.009 A 
ATOM     82  C   UNL A   1      50.489  26.210  27.660  1.00  0.00     0.009 A 
ATOM     83  C   UNL A   1      51.337  26.292  25.000  1.00  0.00     0.001 A 
ATOM     84  C   UNL A   1      51.803  25.867  27.327  1.00  0.00     0.001 A 
ATOM     85  C   UNL A   1      52.221  25.893  25.998  1.00  0.00     0.000 A 
ENDBRANCH  61  80
BRANCH  73  86
ATOM     86  C   UNL A   1      46.616  32.570  28.674  1.00  0.00    -0.014 A 
ATOM     87  C   UNL A   1      46.625  33.614  27.738  1.00  0.00     0.009 A 
ATOM     88  C   UNL A   1      47.089  32.814  29.974  1.00  0.00     0.009 A 
ATOM     89  C   UNL A   1      47.117  34.872  28.093  1.00  0.00     0.001 A 
ATOM     90  C   UNL A   1      47.557  34.079  30.333  1.00  0.00     0.001 A 
ATOM     91  C   UNL A   1      47.577  35.105  29.390  1.00  0.00     0.000 A 
ENDBRANCH  73  86
ENDBRANCH  47  48
ENDBRANCH  39  42
ENDBRANCH  37  38
ENDBRANCH  36  37
ENDBRANCH  35  36
ENDBRANCH   3  35
TORSDOF 16
ENDMDL
