MODEL 1
REMARK VINA RESULT:     -12.2      0.000      0.000
REMARK SMILES CC(=O)N1CC[NH+]([C@@H](C(=O)NCCCNC(=O)c2ccc(-c3c4nc(c(-c5ccccc5)c5ccc([nH]5)c(-c5ccccc5)c5nc(c(-c6ccccc6)c6ccc3[nH]6)C=C5)C=C4)cc2)c2c[nH]c3ccc(Cl)cc23)CC1
REMARK SMILES IDX 13 1 12 2 11 3 9 4 10 5 8 7 7 8 1 9 2 10 3 11 4 12 5 13
REMARK SMILES IDX 77 14 6 15 76 16 66 18 67 19 75 20 68 21 69 22 74 23 70 25
REMARK SMILES IDX 72 26 71 27 73 28 14 29 15 30 16 31 17 33 18 34 19 35 65 36
REMARK SMILES IDX 20 37 64 38 21 39 22 40 23 41 58 42 24 43 63 44 57 45 59 46
REMARK SMILES IDX 25 47 62 48 56 49 55 50 26 52 48 53 33 54 47 55 34 56 37 57
REMARK SMILES IDX 46 58 60 59 35 60 36 61 45 63 61 64 38 65 27 66 28 67 32 68
REMARK SMILES IDX 29 69 31 70 30 71 49 72 50 73 54 74 51 75 53 76 52 77 39 78
REMARK SMILES IDX 40 79 44 80 41 81 43 82 42 83
REMARK H PARENT 11 6 7 17 68 24 15 32 59 51 37 62
REMARK Flexibility Score: inf
ROOT
ATOM      1  C   UNL A   1      31.255  32.106  26.508  1.00  0.00     0.042 C 
ENDROOT
BRANCH   1   2
ATOM      2  C   UNL A   1      31.270  30.708  25.833  1.00  0.00     0.118 C 
BRANCH   2   3
ATOM      3  N   UNL A   1      32.574  30.072  25.710  1.00  0.00    -0.351 N 
ATOM      4  C   UNL A   1      33.070  28.947  25.098  1.00  0.00     0.283 C 
ATOM      5  O   UNL A   1      34.300  28.878  25.163  1.00  0.00    -0.268 OA
ATOM      6  H   UNL A   1      33.277  30.574  26.184  1.00  0.00     0.163 HD
BRANCH   4   7
ATOM      7  C   UNL A   1      32.181  27.886  24.385  1.00  0.00     0.307 C 
BRANCH   7   8
ATOM      8  N   UNL A   1      32.846  26.577  24.015  1.00  0.00    -0.318 N 
ATOM      9  C   UNL A   1      30.370  22.454  26.086  1.00  0.00     0.114 C 
ATOM     10  C   UNL A   1      31.391  23.430  26.599  1.00  0.00     0.219 C 
ATOM     11  O   UNL A   1      31.758  23.388  27.771  1.00  0.00    -0.275 OA
ATOM     12  N   UNL A   1      31.889  24.340  25.679  1.00  0.00    -0.332 N 
ATOM     13  C   UNL A   1      32.863  25.304  26.176  1.00  0.00     0.181 C 
ATOM     14  C   UNL A   1      31.211  24.668  24.420  1.00  0.00     0.181 C 
ATOM     15  C   UNL A   1      33.675  25.900  25.034  1.00  0.00     0.285 C 
ATOM     16  C   UNL A   1      32.013  25.540  23.421  1.00  0.00     0.285 C 
ATOM     17  H   UNL A   1      33.453  26.988  23.305  1.00  0.00     0.349 HD
ENDBRANCH   7   8
BRANCH   7  18
ATOM     18  C   UNL A   1      31.416  28.345  23.115  1.00  0.00     0.044 A 
ATOM     19  C   UNL A   1      32.018  29.119  22.127  1.00  0.00     0.094 A 
ATOM     20  C   UNL A   1      29.986  28.475  22.873  1.00  0.00     0.011 A 
ATOM     21  N   UNL A   1      31.071  29.989  21.651  1.00  0.00    -0.361 N 
ATOM     22  C   UNL A   1      29.843  29.690  22.190  1.00  0.00     0.046 A 
ATOM     23  C   UNL A   1      28.800  27.864  23.341  1.00  0.00     0.031 A 
ATOM     24  H   UNL A   1      31.245  30.720  21.015  1.00  0.00     0.166 HD
ATOM     25  C   UNL A   1      28.650  30.430  22.191  1.00  0.00     0.028 A 
ATOM     26  C   UNL A   1      27.582  28.548  23.260  1.00  0.00     0.041 A 
ATOM     27  C   UNL A   1      27.521  29.843  22.764  1.00  0.00     0.022 A 
ATOM     28  Cl  UNL A   1      26.143  27.795  23.836  1.00  0.00    -0.084 Cl
ENDBRANCH   7  18
ENDBRANCH   4   7
ENDBRANCH   2   3
ENDBRANCH   1   2
BRANCH   1  29
ATOM     29  C   UNL A   1      32.602  32.750  26.887  1.00  0.00     0.118 C 
BRANCH  29  30
ATOM     30  N   UNL A   1      32.440  33.993  27.617  1.00  0.00    -0.352 N 
ATOM     31  C   UNL A   1      33.157  34.530  28.662  1.00  0.00     0.251 C 
ATOM     32  H   UNL A   1      31.686  34.549  27.314  1.00  0.00     0.163 HD
ATOM     33  O   UNL A   1      32.731  35.545  29.206  1.00  0.00    -0.269 OA
BRANCH  31  34
ATOM     34  C   UNL A   1      34.416  33.922  29.173  1.00  0.00     0.039 A 
ATOM     35  C   UNL A   1      35.594  34.148  28.450  1.00  0.00     0.014 A 
ATOM     36  C   UNL A   1      34.446  33.045  30.260  1.00  0.00     0.014 A 
ATOM     37  C   UNL A   1      36.799  33.544  28.836  1.00  0.00     0.010 A 
ATOM     38  C   UNL A   1      35.660  32.460  30.662  1.00  0.00     0.010 A 
ATOM     39  C   UNL A   1      36.852  32.708  29.961  1.00  0.00    -0.014 A 
BRANCH  39  40
ATOM     40  C   UNL A   1      38.150  32.134  30.423  1.00  0.00     0.031 A 
ATOM     41  C   UNL A   1      38.686  30.843  29.864  1.00  0.00     0.074 A 
ATOM     42  C   UNL A   1      38.851  32.765  31.385  1.00  0.00     0.049 A 
ATOM     43  N   UNL A   1      39.789  30.204  30.174  1.00  0.00    -0.248 NA
ATOM     44  C   UNL A   1      37.877  30.180  28.832  1.00  0.00     0.031 C 
ATOM     45  C   UNL A   1      38.456  34.016  32.034  1.00  0.00     0.029 A 
ATOM     46  N   UNL A   1      40.039  32.434  31.995  1.00  0.00    -0.354 N 
ATOM     47  C   UNL A   1      39.808  29.064  29.380  1.00  0.00     0.074 A 
ATOM     48  C   UNL A   1      38.585  29.083  28.600  1.00  0.00     0.031 C 
ATOM     49  C   UNL A   1      39.384  34.348  32.946  1.00  0.00     0.029 A 
ATOM     50  C   UNL A   1      40.420  33.319  32.973  1.00  0.00     0.049 A 
ATOM     51  H   UNL A   1      40.565  31.639  31.752  1.00  0.00     0.167 HD
ATOM     52  C   UNL A   1      40.751  28.094  29.297  1.00  0.00     0.031 A 
ATOM     53  C   UNL A   1      41.471  33.304  33.817  1.00  0.00     0.031 A 
ATOM     54  C   UNL A   1      41.964  28.053  30.076  1.00  0.00     0.049 A 
ATOM     55  C   UNL A   1      42.473  32.188  33.753  1.00  0.00     0.074 A 
ATOM     56  C   UNL A   1      43.004  27.140  30.006  1.00  0.00     0.029 A 
ATOM     57  N   UNL A   1      42.290  28.947  31.083  1.00  0.00    -0.354 N 
ATOM     58  N   UNL A   1      42.510  31.159  32.943  1.00  0.00    -0.248 NA
ATOM     59  C   UNL A   1      43.581  32.233  34.721  1.00  0.00     0.031 C 
ATOM     60  C   UNL A   1      43.929  27.447  31.011  1.00  0.00     0.029 A 
ATOM     61  C   UNL A   1      43.490  28.582  31.673  1.00  0.00     0.049 A 
ATOM     62  H   UNL A   1      41.748  29.728  31.342  1.00  0.00     0.167 HD
ATOM     63  C   UNL A   1      43.642  30.437  33.299  1.00  0.00     0.074 A 
ATOM     64  C   UNL A   1      44.279  31.157  34.383  1.00  0.00     0.031 C 
ATOM     65  C   UNL A   1      44.107  29.279  32.771  1.00  0.00     0.031 A 
BRANCH  52  66
ATOM     66  C   UNL A   1      40.499  26.967  28.334  1.00  0.00    -0.014 A 
ATOM     67  C   UNL A   1      39.736  25.848  28.705  1.00  0.00     0.009 A 
ATOM     68  C   UNL A   1      41.001  27.041  27.025  1.00  0.00     0.009 A 
ATOM     69  C   UNL A   1      39.518  24.808  27.799  1.00  0.00     0.001 A 
ATOM     70  C   UNL A   1      40.760  26.011  26.114  1.00  0.00     0.001 A 
ATOM     71  C   UNL A   1      40.028  24.891  26.505  1.00  0.00     0.000 A 
ENDBRANCH  52  66
BRANCH  53  72
ATOM     72  C   UNL A   1      41.609  34.386  34.825  1.00  0.00    -0.014 A 
ATOM     73  C   UNL A   1      42.314  35.559  34.522  1.00  0.00     0.009 A 
ATOM     74  C   UNL A   1      41.008  34.257  36.087  1.00  0.00     0.009 A 
ATOM     75  C   UNL A   1      42.421  36.581  35.469  1.00  0.00     0.001 A 
ATOM     76  C   UNL A   1      41.096  35.290  37.021  1.00  0.00     0.001 A 
ATOM     77  C   UNL A   1      41.805  36.449  36.713  1.00  0.00     0.000 A 
ENDBRANCH  53  72
BRANCH  65  78
ATOM     78  C   UNL A   1      45.364  28.706  33.367  1.00  0.00    -0.014 A 
ATOM     79  C   UNL A   1      45.305  27.769  34.410  1.00  0.00     0.009 A 
ATOM     80  C   UNL A   1      46.618  29.076  32.855  1.00  0.00     0.009 A 
ATOM     81  C   UNL A   1      46.478  27.233  34.947  1.00  0.00     0.001 A 
ATOM     82  C   UNL A   1      47.788  28.521  33.379  1.00  0.00     0.001 A 
ATOM     83  C   UNL A   1      47.717  27.607  34.428  1.00  0.00     0.000 A 
ENDBRANCH  65  78
ENDBRANCH  39  40
ENDBRANCH  31  34
ENDBRANCH  29  30
ENDBRANCH   1  29
TORSDOF 12
ENDMDL
MODEL 2
REMARK VINA RESULT:     -12.1      3.349      8.029
REMARK SMILES CC(=O)N1CC[NH+]([C@@H](C(=O)NCCCNC(=O)c2ccc(-c3c4nc(c(-c5ccccc5)c5ccc([nH]5)c(-c5ccccc5)c5nc(c(-c6ccccc6)c6ccc3[nH]6)C=C5)C=C4)cc2)c2c[nH]c3ccc(Cl)cc23)CC1
REMARK SMILES IDX 13 1 12 2 11 3 9 4 10 5 8 7 7 8 1 9 2 10 3 11 4 12 5 13
REMARK SMILES IDX 77 14 6 15 76 16 66 18 67 19 75 20 68 21 69 22 74 23 70 25
REMARK SMILES IDX 72 26 71 27 73 28 14 29 15 30 16 31 17 33 18 34 19 35 65 36
REMARK SMILES IDX 20 37 64 38 21 39 22 40 23 41 58 42 24 43 63 44 57 45 59 46
REMARK SMILES IDX 25 47 62 48 56 49 55 50 26 52 48 53 33 54 47 55 34 56 37 57
REMARK SMILES IDX 46 58 60 59 35 60 36 61 45 63 61 64 38 65 27 66 28 67 32 68
REMARK SMILES IDX 29 69 31 70 30 71 49 72 50 73 54 74 51 75 53 76 52 77 39 78
REMARK SMILES IDX 40 79 44 80 41 81 43 82 42 83
REMARK H PARENT 11 6 7 17 68 24 15 32 59 51 37 62
REMARK Flexibility Score: inf
ROOT
ATOM      1  C   UNL A   1      32.179  27.920  27.206  1.00  0.00     0.042 C 
ENDROOT
BRANCH   1   2
ATOM      2  C   UNL A   1      31.924  26.728  26.246  1.00  0.00     0.118 C 
BRANCH   2   3
ATOM      3  N   UNL A   1      31.479  25.489  26.869  1.00  0.00    -0.351 N 
ATOM      4  C   UNL A   1      31.787  24.156  26.744  1.00  0.00     0.283 C 
ATOM      5  O   UNL A   1      31.225  23.461  27.596  1.00  0.00    -0.268 OA
ATOM      6  H   UNL A   1      30.784  25.646  27.549  1.00  0.00     0.163 HD
BRANCH   4   7
ATOM      7  C   UNL A   1      32.749  23.586  25.663  1.00  0.00     0.307 C 
BRANCH   7   8
ATOM      8  N   UNL A   1      32.109  22.967  24.438  1.00  0.00    -0.318 N 
ATOM      9  C   UNL A   1      32.785  25.912  20.162  1.00  0.00     0.114 C 
ATOM     10  C   UNL A   1      31.810  25.933  21.304  1.00  0.00     0.219 C 
ATOM     11  O   UNL A   1      30.977  26.832  21.396  1.00  0.00    -0.275 OA
ATOM     12  N   UNL A   1      31.902  24.886  22.210  1.00  0.00    -0.332 N 
ATOM     13  C   UNL A   1      30.973  24.912  23.333  1.00  0.00     0.181 C 
ATOM     14  C   UNL A   1      33.093  24.043  22.350  1.00  0.00     0.181 C 
ATOM     15  C   UNL A   1      30.830  23.531  23.957  1.00  0.00     0.285 C 
ATOM     16  C   UNL A   1      32.941  22.793  23.255  1.00  0.00     0.285 C 
ATOM     17  H   UNL A   1      31.935  22.064  24.880  1.00  0.00     0.349 HD
ENDBRANCH   7   8
BRANCH   7  18
ATOM     18  C   UNL A   1      33.822  22.569  26.137  1.00  0.00     0.044 A 
ATOM     19  C   UNL A   1      35.110  22.962  26.488  1.00  0.00     0.094 A 
ATOM     20  C   UNL A   1      33.912  21.131  25.931  1.00  0.00     0.011 A 
ATOM     21  N   UNL A   1      35.969  21.974  26.076  1.00  0.00    -0.361 N 
ATOM     22  C   UNL A   1      35.257  20.893  25.616  1.00  0.00     0.046 A 
ATOM     23  C   UNL A   1      33.012  20.058  25.733  1.00  0.00     0.031 A 
ATOM     24  H   UNL A   1      36.951  22.031  26.107  1.00  0.00     0.166 HD
ATOM     25  C   UNL A   1      35.683  19.773  24.886  1.00  0.00     0.028 A 
ATOM     26  C   UNL A   1      33.445  18.891  25.095  1.00  0.00     0.041 A 
ATOM     27  C   UNL A   1      34.741  18.781  24.608  1.00  0.00     0.022 A 
ATOM     28  Cl  UNL A   1      32.340  17.591  24.856  1.00  0.00    -0.084 Cl
ENDBRANCH   7  18
ENDBRANCH   4   7
ENDBRANCH   2   3
ENDBRANCH   1   2
BRANCH   1  29
ATOM     29  C   UNL A   1      33.589  28.536  27.250  1.00  0.00     0.118 C 
BRANCH  29  30
ATOM     30  N   UNL A   1      33.573  29.942  27.608  1.00  0.00    -0.352 N 
ATOM     31  C   UNL A   1      34.519  30.732  28.221  1.00  0.00     0.251 C 
ATOM     32  H   UNL A   1      32.742  30.413  27.370  1.00  0.00     0.163 HD
ATOM     33  O   UNL A   1      34.209  31.876  28.543  1.00  0.00    -0.269 OA
BRANCH  31  34
ATOM     34  C   UNL A   1      35.894  30.253  28.529  1.00  0.00     0.039 A 
ATOM     35  C   UNL A   1      36.837  30.256  27.493  1.00  0.00     0.014 A 
ATOM     36  C   UNL A   1      36.242  29.691  29.760  1.00  0.00     0.014 A 
ATOM     37  C   UNL A   1      38.128  29.749  27.697  1.00  0.00     0.010 A 
ATOM     38  C   UNL A   1      37.546  29.206  29.971  1.00  0.00     0.010 A 
ATOM     39  C   UNL A   1      38.506  29.237  28.947  1.00  0.00    -0.014 A 
BRANCH  39  40
ATOM     40  C   UNL A   1      39.905  28.777  29.189  1.00  0.00     0.031 A 
ATOM     41  C   UNL A   1      40.940  29.685  29.797  1.00  0.00     0.074 A 
ATOM     42  C   UNL A   1      40.266  27.530  28.828  1.00  0.00     0.049 A 
ATOM     43  N   UNL A   1      42.203  29.440  30.056  1.00  0.00    -0.248 NA
ATOM     44  C   UNL A   1      40.506  31.041  30.155  1.00  0.00     0.031 C 
ATOM     45  C   UNL A   1      39.381  26.539  28.216  1.00  0.00     0.029 A 
ATOM     46  N   UNL A   1      41.478  26.886  28.916  1.00  0.00    -0.354 N 
ATOM     47  C   UNL A   1      42.716  30.610  30.602  1.00  0.00     0.074 A 
ATOM     48  C   UNL A   1      41.633  31.575  30.604  1.00  0.00     0.031 C 
ATOM     49  C   UNL A   1      40.077  25.414  27.985  1.00  0.00     0.029 A 
ATOM     50  C   UNL A   1      41.463  25.613  28.400  1.00  0.00     0.049 A 
ATOM     51  H   UNL A   1      42.280  27.298  29.311  1.00  0.00     0.167 HD
ATOM     52  C   UNL A   1      43.965  30.862  31.066  1.00  0.00     0.031 A 
ATOM     53  C   UNL A   1      42.451  24.707  28.253  1.00  0.00     0.031 A 
ATOM     54  C   UNL A   1      45.055  29.919  31.057  1.00  0.00     0.049 A 
ATOM     55  C   UNL A   1      43.843  25.028  28.717  1.00  0.00     0.074 A 
ATOM     56  C   UNL A   1      46.334  30.074  31.569  1.00  0.00     0.029 A 
ATOM     57  N   UNL A   1      45.007  28.657  30.489  1.00  0.00    -0.354 N 
ATOM     58  N   UNL A   1      44.288  26.114  29.298  1.00  0.00    -0.248 NA
ATOM     59  C   UNL A   1      44.868  23.995  28.503  1.00  0.00     0.031 C 
ATOM     60  C   UNL A   1      47.076  28.928  31.256  1.00  0.00     0.029 A 
ATOM     61  C   UNL A   1      46.243  28.040  30.595  1.00  0.00     0.049 A 
ATOM     62  H   UNL A   1      44.210  28.256  30.071  1.00  0.00     0.167 HD
ATOM     63  C   UNL A   1      45.641  25.895  29.524  1.00  0.00     0.074 A 
ATOM     64  C   UNL A   1      45.940  24.564  29.038  1.00  0.00     0.031 C 
ATOM     65  C   UNL A   1      46.550  26.729  30.084  1.00  0.00     0.031 A 
BRANCH  52  66
ATOM     66  C   UNL A   1      44.233  32.239  31.610  1.00  0.00    -0.014 A 
ATOM     67  C   UNL A   1      44.041  32.535  32.969  1.00  0.00     0.009 A 
ATOM     68  C   UNL A   1      44.719  33.244  30.759  1.00  0.00     0.009 A 
ATOM     69  C   UNL A   1      44.289  33.821  33.455  1.00  0.00     0.001 A 
ATOM     70  C   UNL A   1      44.990  34.522  31.253  1.00  0.00     0.001 A 
ATOM     71  C   UNL A   1      44.764  34.812  32.597  1.00  0.00     0.000 A 
ENDBRANCH  52  66
BRANCH  53  72
ATOM     72  C   UNL A   1      42.151  23.405  27.605  1.00  0.00    -0.014 A 
ATOM     73  C   UNL A   1      41.480  22.395  28.307  1.00  0.00     0.009 A 
ATOM     74  C   UNL A   1      42.515  23.181  26.268  1.00  0.00     0.009 A 
ATOM     75  C   UNL A   1      41.183  21.180  27.683  1.00  0.00     0.001 A 
ATOM     76  C   UNL A   1      42.196  21.976  25.640  1.00  0.00     0.001 A 
ATOM     77  C   UNL A   1      41.534  20.976  26.349  1.00  0.00     0.000 A 
ENDBRANCH  53  72
BRANCH  65  78
ATOM     78  C   UNL A   1      47.965  26.232  30.192  1.00  0.00    -0.014 A 
ATOM     79  C   UNL A   1      48.845  26.316  29.101  1.00  0.00     0.009 A 
ATOM     80  C   UNL A   1      48.437  25.709  31.406  1.00  0.00     0.009 A 
ATOM     81  C   UNL A   1      50.161  25.864  29.216  1.00  0.00     0.001 A 
ATOM     82  C   UNL A   1      49.761  25.279  31.525  1.00  0.00     0.001 A 
ATOM     83  C   UNL A   1      50.619  25.350  30.429  1.00  0.00     0.000 A 
ENDBRANCH  65  78
ENDBRANCH  39  40
ENDBRANCH  31  34
ENDBRANCH  29  30
ENDBRANCH   1  29
TORSDOF 12
ENDMDL
MODEL 3
REMARK VINA RESULT:     -11.9      2.768      6.939
REMARK SMILES CC(=O)N1CC[NH+]([C@@H](C(=O)NCCCNC(=O)c2ccc(-c3c4nc(c(-c5ccccc5)c5ccc([nH]5)c(-c5ccccc5)c5nc(c(-c6ccccc6)c6ccc3[nH]6)C=C5)C=C4)cc2)c2c[nH]c3ccc(Cl)cc23)CC1
REMARK SMILES IDX 13 1 12 2 11 3 9 4 10 5 8 7 7 8 1 9 2 10 3 11 4 12 5 13
REMARK SMILES IDX 77 14 6 15 76 16 66 18 67 19 75 20 68 21 69 22 74 23 70 25
REMARK SMILES IDX 72 26 71 27 73 28 14 29 15 30 16 31 17 33 18 34 19 35 65 36
REMARK SMILES IDX 20 37 64 38 21 39 22 40 23 41 58 42 24 43 63 44 57 45 59 46
REMARK SMILES IDX 25 47 62 48 56 49 55 50 26 52 48 53 33 54 47 55 34 56 37 57
REMARK SMILES IDX 46 58 60 59 35 60 36 61 45 63 61 64 38 65 27 66 28 67 32 68
REMARK SMILES IDX 29 69 31 70 30 71 49 72 50 73 54 74 51 75 53 76 52 77 39 78
REMARK SMILES IDX 40 79 44 80 41 81 43 82 42 83
REMARK H PARENT 11 6 7 17 68 24 15 32 59 51 37 62
REMARK Flexibility Score: inf
ROOT
ATOM      1  C   UNL A   1      33.982  28.135  26.095  1.00  0.00     0.042 C 
ENDROOT
BRANCH   1   2
ATOM      2  C   UNL A   1      33.977  26.623  25.744  1.00  0.00     0.118 C 
BRANCH   2   3
ATOM      3  N   UNL A   1      32.788  25.880  26.137  1.00  0.00    -0.351 N 
ATOM      4  C   UNL A   1      31.948  24.973  25.538  1.00  0.00     0.283 C 
ATOM      5  O   UNL A   1      31.121  24.505  26.326  1.00  0.00    -0.268 OA
ATOM      6  H   UNL A   1      32.520  26.076  27.064  1.00  0.00     0.163 HD
BRANCH   4   7
ATOM      7  C   UNL A   1      32.039  24.568  24.039  1.00  0.00     0.307 C 
BRANCH   7   8
ATOM      8  N   UNL A   1      33.246  23.754  23.624  1.00  0.00    -0.318 N 
ATOM      9  C   UNL A   1      32.110  18.669  23.106  1.00  0.00     0.114 C 
ATOM     10  C   UNL A   1      32.452  19.552  24.272  1.00  0.00     0.219 C 
ATOM     11  O   UNL A   1      32.433  19.107  25.417  1.00  0.00    -0.275 OA
ATOM     12  N   UNL A   1      32.801  20.861  23.970  1.00  0.00    -0.332 N 
ATOM     13  C   UNL A   1      33.113  21.729  25.099  1.00  0.00     0.181 C 
ATOM     14  C   UNL A   1      32.464  21.513  22.701  1.00  0.00     0.181 C 
ATOM     15  C   UNL A   1      33.925  22.937  24.652  1.00  0.00     0.285 C 
ATOM     16  C   UNL A   1      33.115  22.898  22.453  1.00  0.00     0.285 C 
ATOM     17  H   UNL A   1      33.823  24.565  23.402  1.00  0.00     0.349 HD
ENDBRANCH   7   8
BRANCH   7  18
ATOM     18  C   UNL A   1      31.918  25.707  22.991  1.00  0.00     0.044 A 
ATOM     19  C   UNL A   1      33.024  26.199  22.302  1.00  0.00     0.094 A 
ATOM     20  C   UNL A   1      30.887  26.720  22.815  1.00  0.00     0.011 A 
ATOM     21  N   UNL A   1      32.841  27.548  22.140  1.00  0.00    -0.361 N 
ATOM     22  C   UNL A   1      31.585  27.909  22.563  1.00  0.00     0.046 A 
ATOM     23  C   UNL A   1      29.501  26.836  23.070  1.00  0.00     0.031 A 
ATOM     24  H   UNL A   1      33.512  28.168  21.773  1.00  0.00     0.166 HD
ATOM     25  C   UNL A   1      31.043  29.179  22.813  1.00  0.00     0.028 A 
ATOM     26  C   UNL A   1      28.923  28.101  23.225  1.00  0.00     0.041 A 
ATOM     27  C   UNL A   1      29.697  29.253  23.175  1.00  0.00     0.022 A 
ATOM     28  Cl  UNL A   1      27.233  28.232  23.538  1.00  0.00    -0.084 Cl
ENDBRANCH   7  18
ENDBRANCH   4   7
ENDBRANCH   2   3
ENDBRANCH   1   2
BRANCH   1  29
ATOM     29  C   UNL A   1      33.431  28.570  27.466  1.00  0.00     0.118 C 
BRANCH  29  30
ATOM     30  N   UNL A   1      33.467  30.008  27.651  1.00  0.00    -0.352 N 
ATOM     31  C   UNL A   1      34.454  30.835  28.140  1.00  0.00     0.251 C 
ATOM     32  H   UNL A   1      32.644  30.474  27.380  1.00  0.00     0.163 HD
ATOM     33  O   UNL A   1      34.187  32.018  28.329  1.00  0.00    -0.269 OA
BRANCH  31  34
ATOM     34  C   UNL A   1      35.822  30.351  28.468  1.00  0.00     0.039 A 
ATOM     35  C   UNL A   1      36.776  30.338  27.442  1.00  0.00     0.014 A 
ATOM     36  C   UNL A   1      36.154  29.801  29.708  1.00  0.00     0.014 A 
ATOM     37  C   UNL A   1      38.062  29.826  27.665  1.00  0.00     0.010 A 
ATOM     38  C   UNL A   1      37.452  29.311  29.939  1.00  0.00     0.010 A 
ATOM     39  C   UNL A   1      38.424  29.325  28.924  1.00  0.00    -0.014 A 
BRANCH  39  40
ATOM     40  C   UNL A   1      39.817  28.860  29.187  1.00  0.00     0.031 A 
ATOM     41  C   UNL A   1      40.846  29.762  29.815  1.00  0.00     0.074 A 
ATOM     42  C   UNL A   1      40.180  27.613  28.827  1.00  0.00     0.049 A 
ATOM     43  N   UNL A   1      42.104  29.512  30.093  1.00  0.00    -0.248 NA
ATOM     44  C   UNL A   1      40.410  31.118  30.172  1.00  0.00     0.031 C 
ATOM     45  C   UNL A   1      39.302  26.627  28.197  1.00  0.00     0.029 A 
ATOM     46  N   UNL A   1      41.389  26.965  28.931  1.00  0.00    -0.354 N 
ATOM     47  C   UNL A   1      42.611  30.678  30.652  1.00  0.00     0.074 A 
ATOM     48  C   UNL A   1      41.532  31.646  30.641  1.00  0.00     0.031 C 
ATOM     49  C   UNL A   1      39.999  25.501  27.972  1.00  0.00     0.029 A 
ATOM     50  C   UNL A   1      41.379  25.694  28.410  1.00  0.00     0.049 A 
ATOM     51  H   UNL A   1      42.186  27.373  29.340  1.00  0.00     0.167 HD
ATOM     52  C   UNL A   1      43.853  30.924  31.137  1.00  0.00     0.031 A 
ATOM     53  C   UNL A   1      42.365  24.786  28.274  1.00  0.00     0.031 A 
ATOM     54  C   UNL A   1      44.941  29.978  31.141  1.00  0.00     0.049 A 
ATOM     55  C   UNL A   1      43.751  25.100  28.761  1.00  0.00     0.074 A 
ATOM     56  C   UNL A   1      46.211  30.127  31.673  1.00  0.00     0.029 A 
ATOM     57  N   UNL A   1      44.897  28.718  30.567  1.00  0.00    -0.354 N 
ATOM     58  N   UNL A   1      44.190  26.182  29.354  1.00  0.00    -0.248 NA
ATOM     59  C   UNL A   1      44.777  24.065  28.559  1.00  0.00     0.031 C 
ATOM     60  C   UNL A   1      46.955  28.980  31.368  1.00  0.00     0.029 A 
ATOM     61  C   UNL A   1      46.130  28.097  30.690  1.00  0.00     0.049 A 
ATOM     62  H   UNL A   1      44.107  28.322  30.134  1.00  0.00     0.167 HD
ATOM     63  C   UNL A   1      45.538  25.959  29.600  1.00  0.00     0.074 A 
ATOM     64  C   UNL A   1      45.841  24.629  29.113  1.00  0.00     0.031 C 
ATOM     65  C   UNL A   1      46.442  26.787  30.178  1.00  0.00     0.031 A 
BRANCH  52  66
ATOM     66  C   UNL A   1      44.117  32.298  31.691  1.00  0.00    -0.014 A 
ATOM     67  C   UNL A   1      43.901  32.590  33.047  1.00  0.00     0.009 A 
ATOM     68  C   UNL A   1      44.623  33.304  30.853  1.00  0.00     0.009 A 
ATOM     69  C   UNL A   1      44.145  33.874  33.542  1.00  0.00     0.001 A 
ATOM     70  C   UNL A   1      44.890  34.579  31.357  1.00  0.00     0.001 A 
ATOM     71  C   UNL A   1      44.640  34.865  32.697  1.00  0.00     0.000 A 
ENDBRANCH  52  66
BRANCH  53  72
ATOM     72  C   UNL A   1      42.072  23.488  27.616  1.00  0.00    -0.014 A 
ATOM     73  C   UNL A   1      42.352  23.295  26.257  1.00  0.00     0.009 A 
ATOM     74  C   UNL A   1      41.533  22.425  28.359  1.00  0.00     0.009 A 
ATOM     75  C   UNL A   1      42.092  22.063  25.651  1.00  0.00     0.001 A 
ATOM     76  C   UNL A   1      41.298  21.188  27.758  1.00  0.00     0.001 A 
ATOM     77  C   UNL A   1      41.574  21.010  26.403  1.00  0.00     0.000 A 
ENDBRANCH  53  72
BRANCH  65  78
ATOM     78  C   UNL A   1      47.853  26.286  30.307  1.00  0.00    -0.014 A 
ATOM     79  C   UNL A   1      48.314  25.732  31.512  1.00  0.00     0.009 A 
ATOM     80  C   UNL A   1      48.720  26.331  29.204  1.00  0.00     0.009 A 
ATOM     81  C   UNL A   1      49.624  25.257  31.617  1.00  0.00     0.001 A 
ATOM     82  C   UNL A   1      50.022  25.834  29.306  1.00  0.00     0.001 A 
ATOM     83  C   UNL A   1      50.474  25.304  30.513  1.00  0.00     0.000 A 
ENDBRANCH  65  78
ENDBRANCH  39  40
ENDBRANCH  31  34
ENDBRANCH  29  30
ENDBRANCH   1  29
TORSDOF 12
ENDMDL
