MODEL 1
REMARK VINA RESULT:      -9.5      0.000      0.000
REMARK SMILES Cc1cc(SCC(=O)NCCCNC(=O)c2ccc(-c3c4nc(c(-c5ccccc5)c5ccc([nH]5)c(-c5ccccc5)c5nc(c(-c6ccccc6)c6ccc3[nH]6)C=C5)C=C4)cc2)c2cc(I)ccc2n1
REMARK SMILES IDX 11 1 10 2 9 3 7 4 8 5 6 7 5 8 4 9 1 10 2 11 3 12 71 13 70 14
REMARK SMILES IDX 64 15 69 16 65 17 68 18 66 19 67 20 12 21 13 22 14 23 15 25
REMARK SMILES IDX 16 26 17 27 63 28 18 29 62 30 19 31 20 32 21 33 56 34 22 35
REMARK SMILES IDX 61 36 55 37 57 38 23 39 60 40 54 41 53 42 24 44 46 45 31 46
REMARK SMILES IDX 45 47 32 48 35 49 44 50 58 51 33 52 34 53 43 55 59 56 36 57
REMARK SMILES IDX 25 58 26 59 30 60 27 61 29 62 28 63 47 64 48 65 52 66 49 67
REMARK SMILES IDX 51 68 50 69 37 70 38 71 42 72 39 73 41 74 40 75
REMARK H PARENT 9 6 13 24 57 43 35 54
REMARK Flexibility Score: inf
ROOT
ATOM      1  C   UNL A   1      33.137  36.942  31.049  1.00  0.00     0.042 C 
ENDROOT
BRANCH   1   2
ATOM      2  C   UNL A   1      33.836  36.338  32.264  1.00  0.00     0.117 C 
BRANCH   2   3
ATOM      3  N   UNL A   1      33.322  35.020  32.584  1.00  0.00    -0.355 N 
ATOM      4  C   UNL A   1      33.927  33.974  33.211  1.00  0.00     0.230 C 
ATOM      5  O   UNL A   1      33.279  32.930  33.328  1.00  0.00    -0.274 OA
ATOM      6  H   UNL A   1      32.392  34.858  32.304  1.00  0.00     0.163 HD
BRANCH   4   7
ATOM      7  C   UNL A   1      35.308  34.107  33.821  1.00  0.00     0.174 C 
BRANCH   7   8
ATOM      8  S   UNL A   1      36.343  32.614  33.695  1.00  0.00    -0.115 SA
BRANCH   8   9
ATOM      9  C   UNL A   1      37.682  32.814  34.892  1.00  0.00     0.019 A 
ATOM     10  C   UNL A   1      38.724  35.041  37.759  1.00  0.00     0.067 C 
ATOM     11  C   UNL A   1      38.729  33.954  36.726  1.00  0.00     0.039 A 
ATOM     12  C   UNL A   1      37.703  33.874  35.797  1.00  0.00     0.039 A 
ATOM     13  N   UNL A   1      39.749  33.075  36.758  1.00  0.00    -0.253 NA
ATOM     14  C   UNL A   1      39.774  32.078  35.864  1.00  0.00     0.072 A 
ATOM     15  C   UNL A   1      38.761  31.879  34.901  1.00  0.00     0.015 A 
ATOM     16  C   UNL A   1      40.857  31.210  35.906  1.00  0.00     0.030 A 
ATOM     17  C   UNL A   1      38.894  30.772  34.016  1.00  0.00     0.026 A 
ATOM     18  C   UNL A   1      40.981  30.132  35.029  1.00  0.00     0.017 A 
ATOM     19  C   UNL A   1      39.991  29.914  34.085  1.00  0.00     0.014 A 
ATOM     20  I   UNL A   1      40.140  28.306  32.777  1.00  0.00    -0.044 I 
ENDBRANCH   8   9
ENDBRANCH   7   8
ENDBRANCH   4   7
ENDBRANCH   2   3
ENDBRANCH   1   2
BRANCH   1  21
ATOM     21  C   UNL A   1      33.716  36.502  29.708  1.00  0.00     0.118 C 
BRANCH  21  22
ATOM     22  N   UNL A   1      32.817  35.647  28.942  1.00  0.00    -0.352 N 
ATOM     23  C   UNL A   1      33.024  34.393  28.418  1.00  0.00     0.251 C 
ATOM     24  H   UNL A   1      31.924  36.026  28.775  1.00  0.00     0.163 HD
ATOM     25  O   UNL A   1      32.178  33.889  27.684  1.00  0.00    -0.269 OA
BRANCH  23  26
ATOM     26  C   UNL A   1      34.281  33.664  28.698  1.00  0.00     0.039 A 
ATOM     27  C   UNL A   1      34.363  32.752  29.751  1.00  0.00     0.014 A 
ATOM     28  C   UNL A   1      35.401  33.913  27.899  1.00  0.00     0.014 A 
ATOM     29  C   UNL A   1      35.601  32.234  30.118  1.00  0.00     0.010 A 
ATOM     30  C   UNL A   1      36.629  33.324  28.218  1.00  0.00     0.010 A 
ATOM     31  C   UNL A   1      36.751  32.526  29.366  1.00  0.00    -0.014 A 
BRANCH  31  32
ATOM     32  C   UNL A   1      38.068  32.001  29.809  1.00  0.00     0.031 A 
ATOM     33  C   UNL A   1      38.590  30.689  29.286  1.00  0.00     0.074 A 
ATOM     34  C   UNL A   1      38.826  32.737  30.644  1.00  0.00     0.049 A 
ATOM     35  N   UNL A   1      39.738  30.106  29.528  1.00  0.00    -0.248 NA
ATOM     36  C   UNL A   1      37.715  29.930  28.378  1.00  0.00     0.031 C 
ATOM     37  C   UNL A   1      38.439  34.029  31.213  1.00  0.00     0.029 A 
ATOM     38  N   UNL A   1      40.089  32.520  31.137  1.00  0.00    -0.354 N 
ATOM     39  C   UNL A   1      39.713  28.909  28.823  1.00  0.00     0.074 A 
ATOM     40  C   UNL A   1      38.428  28.832  28.165  1.00  0.00     0.031 C 
ATOM     41  C   UNL A   1      39.463  34.516  31.929  1.00  0.00     0.029 A 
ATOM     42  C   UNL A   1      40.555  33.547  31.921  1.00  0.00     0.049 A 
ATOM     43  H   UNL A   1      40.610  31.707  30.947  1.00  0.00     0.167 HD
ATOM     44  C   UNL A   1      40.678  27.964  28.724  1.00  0.00     0.031 A 
ATOM     45  C   UNL A   1      41.725  33.697  32.570  1.00  0.00     0.031 A 
ATOM     46  C   UNL A   1      41.965  28.049  29.362  1.00  0.00     0.049 A 
ATOM     47  C   UNL A   1      42.768  32.622  32.471  1.00  0.00     0.074 A 
ATOM     48  C   UNL A   1      43.021  27.158  29.281  1.00  0.00     0.029 A 
ATOM     49  N   UNL A   1      42.372  29.079  30.195  1.00  0.00    -0.354 N 
ATOM     50  N   UNL A   1      42.735  31.509  31.780  1.00  0.00    -0.248 NA
ATOM     51  C   UNL A   1      44.005  32.821  33.239  1.00  0.00     0.031 C 
ATOM     52  C   UNL A   1      44.045  27.618  30.113  1.00  0.00     0.029 A 
ATOM     53  C   UNL A   1      43.651  28.828  30.662  1.00  0.00     0.049 A 
ATOM     54  H   UNL A   1      41.832  29.871  30.422  1.00  0.00     0.167 HD
ATOM     55  C   UNL A   1      43.948  30.878  32.022  1.00  0.00     0.074 A 
ATOM     56  C   UNL A   1      44.702  31.741  32.907  1.00  0.00     0.031 C 
ATOM     57  C   UNL A   1      44.390  29.687  31.552  1.00  0.00     0.031 A 
BRANCH  44  58
ATOM     58  C   UNL A   1      40.385  26.736  27.909  1.00  0.00    -0.014 A 
ATOM     59  C   UNL A   1      39.710  25.655  28.502  1.00  0.00     0.009 A 
ATOM     60  C   UNL A   1      40.851  26.604  26.593  1.00  0.00     0.009 A 
ATOM     61  C   UNL A   1      39.519  24.465  27.798  1.00  0.00     0.001 A 
ATOM     62  C   UNL A   1      40.634  25.421  25.881  1.00  0.00     0.001 A 
ATOM     63  C   UNL A   1      39.977  24.351  26.487  1.00  0.00     0.000 A 
ENDBRANCH  44  58
BRANCH  45  64
ATOM     64  C   UNL A   1      41.955  34.931  33.366  1.00  0.00    -0.014 A 
ATOM     65  C   UNL A   1      42.796  35.945  32.878  1.00  0.00     0.009 A 
ATOM     66  C   UNL A   1      41.400  35.067  34.646  1.00  0.00     0.009 A 
ATOM     67  C   UNL A   1      43.103  37.054  33.667  1.00  0.00     0.001 A 
ATOM     68  C   UNL A   1      41.686  36.192  35.423  1.00  0.00     0.001 A 
ATOM     69  C   UNL A   1      42.546  37.178  34.939  1.00  0.00     0.000 A 
ENDBRANCH  45  64
BRANCH  57  70
ATOM     70  C   UNL A   1      45.755  29.226  31.977  1.00  0.00    -0.014 A 
ATOM     71  C   UNL A   1      46.875  29.540  31.190  1.00  0.00     0.009 A 
ATOM     72  C   UNL A   1      45.921  28.393  33.094  1.00  0.00     0.009 A 
ATOM     73  C   UNL A   1      48.130  29.014  31.501  1.00  0.00     0.001 A 
ATOM     74  C   UNL A   1      47.182  27.891  33.419  1.00  0.00     0.001 A 
ATOM     75  C   UNL A   1      48.283  28.192  32.616  1.00  0.00     0.000 A 
ENDBRANCH  57  70
ENDBRANCH  31  32
ENDBRANCH  23  26
ENDBRANCH  21  22
ENDBRANCH   1  21
TORSDOF 12
ENDMDL
MODEL 2
REMARK VINA RESULT:      -9.2      1.401      6.407
REMARK SMILES Cc1cc(SCC(=O)NCCCNC(=O)c2ccc(-c3c4nc(c(-c5ccccc5)c5ccc([nH]5)c(-c5ccccc5)c5nc(c(-c6ccccc6)c6ccc3[nH]6)C=C5)C=C4)cc2)c2cc(I)ccc2n1
REMARK SMILES IDX 11 1 10 2 9 3 7 4 8 5 6 7 5 8 4 9 1 10 2 11 3 12 71 13 70 14
REMARK SMILES IDX 64 15 69 16 65 17 68 18 66 19 67 20 12 21 13 22 14 23 15 25
REMARK SMILES IDX 16 26 17 27 63 28 18 29 62 30 19 31 20 32 21 33 56 34 22 35
REMARK SMILES IDX 61 36 55 37 57 38 23 39 60 40 54 41 53 42 24 44 46 45 31 46
REMARK SMILES IDX 45 47 32 48 35 49 44 50 58 51 33 52 34 53 43 55 59 56 36 57
REMARK SMILES IDX 25 58 26 59 30 60 27 61 29 62 28 63 47 64 48 65 52 66 49 67
REMARK SMILES IDX 51 68 50 69 37 70 38 71 42 72 39 73 41 74 40 75
REMARK H PARENT 9 6 13 24 57 43 35 54
REMARK Flexibility Score: inf
ROOT
ATOM      1  C   UNL A   1      32.673  36.549  30.429  1.00  0.00     0.042 C 
ENDROOT
BRANCH   1   2
ATOM      2  C   UNL A   1      33.490  36.117  31.644  1.00  0.00     0.117 C 
BRANCH   2   3
ATOM      3  N   UNL A   1      33.273  34.721  31.972  1.00  0.00    -0.355 N 
ATOM      4  C   UNL A   1      33.814  33.962  32.964  1.00  0.00     0.230 C 
ATOM      5  O   UNL A   1      33.495  32.770  33.006  1.00  0.00    -0.274 OA
ATOM      6  H   UNL A   1      32.638  34.250  31.386  1.00  0.00     0.163 HD
BRANCH   4   7
ATOM      7  C   UNL A   1      34.705  34.568  34.029  1.00  0.00     0.174 C 
BRANCH   7   8
ATOM      8  S   UNL A   1      36.452  34.755  33.546  1.00  0.00    -0.115 SA
BRANCH   8   9
ATOM      9  C   UNL A   1      37.267  33.194  33.951  1.00  0.00     0.019 A 
ATOM     10  C   UNL A   1      37.499  29.624  32.740  1.00  0.00     0.067 C 
ATOM     11  C   UNL A   1      37.701  30.868  33.554  1.00  0.00     0.039 A 
ATOM     12  C   UNL A   1      37.012  32.027  33.232  1.00  0.00     0.039 A 
ATOM     13  N   UNL A   1      38.574  30.801  34.578  1.00  0.00    -0.253 NA
ATOM     14  C   UNL A   1      38.794  31.899  35.313  1.00  0.00     0.072 A 
ATOM     15  C   UNL A   1      38.179  33.142  35.048  1.00  0.00     0.015 A 
ATOM     16  C   UNL A   1      39.675  31.786  36.380  1.00  0.00     0.030 A 
ATOM     17  C   UNL A   1      38.508  34.240  35.893  1.00  0.00     0.026 A 
ATOM     18  C   UNL A   1      39.986  32.866  37.206  1.00  0.00     0.017 A 
ATOM     19  C   UNL A   1      39.401  34.097  36.955  1.00  0.00     0.014 A 
ATOM     20  I   UNL A   1      39.858  35.729  38.158  1.00  0.00    -0.044 I 
ENDBRANCH   8   9
ENDBRANCH   7   8
ENDBRANCH   4   7
ENDBRANCH   2   3
ENDBRANCH   1   2
BRANCH   1  21
ATOM     21  C   UNL A   1      33.328  36.237  29.088  1.00  0.00     0.118 C 
BRANCH  21  22
ATOM     22  N   UNL A   1      32.721  35.106  28.396  1.00  0.00    -0.352 N 
ATOM     23  C   UNL A   1      33.246  33.871  28.093  1.00  0.00     0.251 C 
ATOM     24  H   UNL A   1      31.793  35.248  28.102  1.00  0.00     0.163 HD
ATOM     25  O   UNL A   1      32.612  33.096  27.382  1.00  0.00    -0.269 OA
BRANCH  23  26
ATOM     26  C   UNL A   1      34.589  33.489  28.582  1.00  0.00     0.039 A 
ATOM     27  C   UNL A   1      35.743  33.984  27.972  1.00  0.00     0.014 A 
ATOM     28  C   UNL A   1      34.692  32.606  29.660  1.00  0.00     0.014 A 
ATOM     29  C   UNL A   1      36.984  33.457  28.316  1.00  0.00     0.010 A 
ATOM     30  C   UNL A   1      35.948  32.142  30.063  1.00  0.00     0.010 A 
ATOM     31  C   UNL A   1      37.099  32.518  29.355  1.00  0.00    -0.014 A 
BRANCH  31  32
ATOM     32  C   UNL A   1      38.429  31.934  29.668  1.00  0.00     0.031 A 
ATOM     33  C   UNL A   1      39.397  32.660  30.563  1.00  0.00     0.074 A 
ATOM     34  C   UNL A   1      38.745  30.715  29.190  1.00  0.00     0.049 A 
ATOM     35  N   UNL A   1      40.578  32.275  30.980  1.00  0.00    -0.248 NA
ATOM     36  C   UNL A   1      38.996  33.989  31.053  1.00  0.00     0.031 C 
ATOM     37  C   UNL A   1      37.890  29.905  28.322  1.00  0.00     0.029 A 
ATOM     38  N   UNL A   1      39.855  29.934  29.389  1.00  0.00    -0.354 N 
ATOM     39  C   UNL A   1      41.065  33.317  31.759  1.00  0.00     0.074 A 
ATOM     40  C   UNL A   1      40.068  34.364  31.737  1.00  0.00     0.031 C 
ATOM     41  C   UNL A   1      38.479  28.719  28.109  1.00  0.00     0.029 A 
ATOM     42  C   UNL A   1      39.779  28.708  28.774  1.00  0.00     0.049 A 
ATOM     43  H   UNL A   1      40.631  30.224  29.921  1.00  0.00     0.167 HD
ATOM     44  C   UNL A   1      42.234  33.392  32.440  1.00  0.00     0.031 A 
ATOM     45  C   UNL A   1      40.655  27.685  28.739  1.00  0.00     0.031 A 
ATOM     46  C   UNL A   1      43.218  32.341  32.479  1.00  0.00     0.049 A 
ATOM     47  C   UNL A   1      41.957  27.802  29.476  1.00  0.00     0.074 A 
ATOM     48  C   UNL A   1      44.411  32.313  33.180  1.00  0.00     0.029 A 
ATOM     49  N   UNL A   1      43.125  31.141  31.794  1.00  0.00    -0.354 N 
ATOM     50  N   UNL A   1      42.389  28.785  30.227  1.00  0.00    -0.248 NA
ATOM     51  C   UNL A   1      42.891  26.673  29.363  1.00  0.00     0.031 C 
ATOM     52  C   UNL A   1      45.070  31.121  32.871  1.00  0.00     0.029 A 
ATOM     53  C   UNL A   1      44.257  30.378  32.029  1.00  0.00     0.049 A 
ATOM     54  H   UNL A   1      42.369  30.870  31.225  1.00  0.00     0.167 HD
ATOM     55  C   UNL A   1      43.641  28.392  30.682  1.00  0.00     0.074 A 
ATOM     56  C   UNL A   1      43.889  27.073  30.140  1.00  0.00     0.031 C 
ATOM     57  C   UNL A   1      44.504  29.071  31.475  1.00  0.00     0.031 A 
BRANCH  44  58
ATOM     58  C   UNL A   1      42.535  34.657  33.192  1.00  0.00    -0.014 A 
ATOM     59  C   UNL A   1      42.120  34.784  34.528  1.00  0.00     0.009 A 
ATOM     60  C   UNL A   1      43.143  35.754  32.564  1.00  0.00     0.009 A 
ATOM     61  C   UNL A   1      42.295  35.987  35.215  1.00  0.00     0.001 A 
ATOM     62  C   UNL A   1      43.343  36.948  33.262  1.00  0.00     0.001 A 
ATOM     63  C   UNL A   1      42.911  37.066  34.582  1.00  0.00     0.000 A 
ENDBRANCH  44  58
BRANCH  45  64
ATOM     64  C   UNL A   1      40.304  26.461  27.973  1.00  0.00    -0.014 A 
ATOM     65  C   UNL A   1      39.573  25.426  28.581  1.00  0.00     0.009 A 
ATOM     66  C   UNL A   1      40.761  26.287  26.659  1.00  0.00     0.009 A 
ATOM     67  C   UNL A   1      39.337  24.230  27.902  1.00  0.00     0.001 A 
ATOM     68  C   UNL A   1      40.498  25.100  25.972  1.00  0.00     0.001 A 
ATOM     69  C   UNL A   1      39.798  24.068  26.597  1.00  0.00     0.000 A 
ENDBRANCH  45  64
BRANCH  57  70
ATOM     70  C   UNL A   1      45.810  28.413  31.817  1.00  0.00    -0.014 A 
ATOM     71  C   UNL A   1      45.916  27.634  32.981  1.00  0.00     0.009 A 
ATOM     72  C   UNL A   1      46.960  28.652  31.051  1.00  0.00     0.009 A 
ATOM     73  C   UNL A   1      47.151  27.121  33.380  1.00  0.00     0.001 A 
ATOM     74  C   UNL A   1      48.189  28.115  31.438  1.00  0.00     0.001 A 
ATOM     75  C   UNL A   1      48.286  27.360  32.607  1.00  0.00     0.000 A 
ENDBRANCH  57  70
ENDBRANCH  31  32
ENDBRANCH  23  26
ENDBRANCH  21  22
ENDBRANCH   1  21
TORSDOF 12
ENDMDL
MODEL 3
REMARK VINA RESULT:      -9.1      4.689      7.641
REMARK SMILES Cc1cc(SCC(=O)NCCCNC(=O)c2ccc(-c3c4nc(c(-c5ccccc5)c5ccc([nH]5)c(-c5ccccc5)c5nc(c(-c6ccccc6)c6ccc3[nH]6)C=C5)C=C4)cc2)c2cc(I)ccc2n1
REMARK SMILES IDX 11 1 10 2 9 3 7 4 8 5 6 7 5 8 4 9 1 10 2 11 3 12 71 13 70 14
REMARK SMILES IDX 64 15 69 16 65 17 68 18 66 19 67 20 12 21 13 22 14 23 15 25
REMARK SMILES IDX 16 26 17 27 63 28 18 29 62 30 19 31 20 32 21 33 56 34 22 35
REMARK SMILES IDX 61 36 55 37 57 38 23 39 60 40 54 41 53 42 24 44 46 45 31 46
REMARK SMILES IDX 45 47 32 48 35 49 44 50 58 51 33 52 34 53 43 55 59 56 36 57
REMARK SMILES IDX 25 58 26 59 30 60 27 61 29 62 28 63 47 64 48 65 52 66 49 67
REMARK SMILES IDX 51 68 50 69 37 70 38 71 42 72 39 73 41 74 40 75
REMARK H PARENT 9 6 13 24 57 43 35 54
REMARK Flexibility Score: inf
ROOT
ATOM      1  C   UNL A   1      32.151  28.881  26.500  1.00  0.00     0.042 C 
ENDROOT
BRANCH   1   2
ATOM      2  C   UNL A   1      31.832  29.585  25.184  1.00  0.00     0.117 C 
BRANCH   2   3
ATOM      3  N   UNL A   1      32.981  29.623  24.299  1.00  0.00    -0.355 N 
ATOM      4  C   UNL A   1      33.346  28.770  23.304  1.00  0.00     0.230 C 
ATOM      5  O   UNL A   1      34.406  29.003  22.716  1.00  0.00    -0.274 OA
ATOM      6  H   UNL A   1      33.590  30.383  24.442  1.00  0.00     0.163 HD
BRANCH   4   7
ATOM      7  C   UNL A   1      32.449  27.628  22.871  1.00  0.00     0.174 C 
BRANCH   7   8
ATOM      8  S   UNL A   1      33.190  25.971  23.037  1.00  0.00    -0.115 SA
BRANCH   8   9
ATOM      9  C   UNL A   1      32.492  25.244  24.535  1.00  0.00     0.019 A 
ATOM     10  C   UNL A   1      29.285  25.182  26.530  1.00  0.00     0.067 C 
ATOM     11  C   UNL A   1      30.699  24.926  26.098  1.00  0.00     0.039 A 
ATOM     12  C   UNL A   1      31.202  25.550  24.967  1.00  0.00     0.039 A 
ATOM     13  N   UNL A   1      31.427  24.070  26.841  1.00  0.00    -0.253 NA
ATOM     14  C   UNL A   1      32.686  23.803  26.472  1.00  0.00     0.072 A 
ATOM     15  C   UNL A   1      33.286  24.349  25.316  1.00  0.00     0.015 A 
ATOM     16  C   UNL A   1      33.418  22.942  27.279  1.00  0.00     0.030 A 
ATOM     17  C   UNL A   1      34.627  23.974  25.023  1.00  0.00     0.026 A 
ATOM     18  C   UNL A   1      34.735  22.586  26.986  1.00  0.00     0.017 A 
ATOM     19  C   UNL A   1      35.336  23.103  25.850  1.00  0.00     0.014 A 
ATOM     20  I   UNL A   1      37.290  22.576  25.378  1.00  0.00    -0.044 I 
ENDBRANCH   8   9
ENDBRANCH   7   8
ENDBRANCH   4   7
ENDBRANCH   2   3
ENDBRANCH   1   2
BRANCH   1  21
ATOM     21  C   UNL A   1      33.538  29.184  27.056  1.00  0.00     0.118 C 
BRANCH  21  22
ATOM     22  N   UNL A   1      33.628  30.484  27.709  1.00  0.00    -0.352 N 
ATOM     23  C   UNL A   1      34.651  31.032  28.447  1.00  0.00     0.251 C 
ATOM     24  H   UNL A   1      32.836  31.058  27.605  1.00  0.00     0.163 HD
ATOM     25  O   UNL A   1      34.480  32.100  29.030  1.00  0.00    -0.269 OA
BRANCH  23  26
ATOM     26  C   UNL A   1      35.942  30.322  28.580  1.00  0.00     0.039 A 
ATOM     27  C   UNL A   1      36.303  29.706  29.779  1.00  0.00     0.014 A 
ATOM     28  C   UNL A   1      36.812  30.287  27.487  1.00  0.00     0.014 A 
ATOM     29  C   UNL A   1      37.597  29.222  29.943  1.00  0.00     0.010 A 
ATOM     30  C   UNL A   1      38.084  29.722  27.626  1.00  0.00     0.010 A 
ATOM     31  C   UNL A   1      38.508  29.239  28.873  1.00  0.00    -0.014 A 
BRANCH  31  32
ATOM     32  C   UNL A   1      39.898  28.762  29.089  1.00  0.00     0.031 A 
ATOM     33  C   UNL A   1      40.310  27.375  28.673  1.00  0.00     0.074 A 
ATOM     34  C   UNL A   1      40.812  29.603  29.610  1.00  0.00     0.049 A 
ATOM     35  N   UNL A   1      41.492  26.813  28.742  1.00  0.00    -0.248 NA
ATOM     36  C   UNL A   1      39.267  26.502  28.111  1.00  0.00     0.031 C 
ATOM     37  C   UNL A   1      40.542  30.975  30.043  1.00  0.00     0.029 A 
ATOM     38  N   UNL A   1      42.155  29.439  29.838  1.00  0.00    -0.354 N 
ATOM     39  C   UNL A   1      41.329  25.523  28.255  1.00  0.00     0.074 A 
ATOM     40  C   UNL A   1      39.931  25.371  27.918  1.00  0.00     0.031 C 
ATOM     41  C   UNL A   1      41.692  31.547  30.429  1.00  0.00     0.029 A 
ATOM     42  C   UNL A   1      42.768  30.566  30.330  1.00  0.00     0.049 A 
ATOM     43  H   UNL A   1      42.633  28.596  29.665  1.00  0.00     0.167 HD
ATOM     44  C   UNL A   1      42.261  24.555  28.092  1.00  0.00     0.031 A 
ATOM     45  C   UNL A   1      44.052  30.791  30.671  1.00  0.00     0.031 A 
ATOM     46  C   UNL A   1      43.657  24.712  28.407  1.00  0.00     0.049 A 
ATOM     47  C   UNL A   1      45.062  29.693  30.511  1.00  0.00     0.074 A 
ATOM     48  C   UNL A   1      44.682  23.798  28.233  1.00  0.00     0.029 A 
ATOM     49  N   UNL A   1      44.223  25.850  28.958  1.00  0.00    -0.354 N 
ATOM     50  N   UNL A   1      44.893  28.488  30.026  1.00  0.00    -0.248 NA
ATOM     51  C   UNL A   1      46.436  29.984  30.945  1.00  0.00     0.031 C 
ATOM     52  C   UNL A   1      45.858  24.360  28.735  1.00  0.00     0.029 A 
ATOM     53  C   UNL A   1      45.578  25.649  29.162  1.00  0.00     0.049 A 
ATOM     54  H   UNL A   1      43.736  26.678  29.174  1.00  0.00     0.167 HD
ATOM     55  C   UNL A   1      46.139  27.877  30.088  1.00  0.00     0.074 A 
ATOM     56  C   UNL A   1      47.058  28.852  30.638  1.00  0.00     0.031 C 
ATOM     57  C   UNL A   1      46.484  26.619  29.722  1.00  0.00     0.031 A 
BRANCH  44  58
ATOM     58  C   UNL A   1      41.813  23.221  27.563  1.00  0.00    -0.014 A 
ATOM     59  C   UNL A   1      41.469  22.199  28.464  1.00  0.00     0.009 A 
ATOM     60  C   UNL A   1      41.818  22.941  26.189  1.00  0.00     0.009 A 
ATOM     61  C   UNL A   1      41.150  20.921  28.000  1.00  0.00     0.001 A 
ATOM     62  C   UNL A   1      41.472  21.669  25.725  1.00  0.00     0.001 A 
ATOM     63  C   UNL A   1      41.147  20.659  26.630  1.00  0.00     0.000 A 
ENDBRANCH  44  58
BRANCH  45  64
ATOM     64  C   UNL A   1      44.434  32.129  31.194  1.00  0.00    -0.014 A 
ATOM     65  C   UNL A   1      44.914  33.122  30.324  1.00  0.00     0.009 A 
ATOM     66  C   UNL A   1      44.396  32.393  32.571  1.00  0.00     0.009 A 
ATOM     67  C   UNL A   1      45.378  34.339  30.824  1.00  0.00     0.001 A 
ATOM     68  C   UNL A   1      44.834  33.623  33.065  1.00  0.00     0.001 A 
ATOM     69  C   UNL A   1      45.336  34.590  32.194  1.00  0.00     0.000 A 
ENDBRANCH  45  64
BRANCH  57  70
ATOM     70  C   UNL A   1      47.916  26.203  29.900  1.00  0.00    -0.014 A 
ATOM     71  C   UNL A   1      48.785  26.201  28.797  1.00  0.00     0.009 A 
ATOM     72  C   UNL A   1      48.377  25.710  31.130  1.00  0.00     0.009 A 
ATOM     73  C   UNL A   1      50.081  25.698  28.916  1.00  0.00     0.001 A 
ATOM     74  C   UNL A   1      49.683  25.233  31.254  1.00  0.00     0.001 A 
ATOM     75  C   UNL A   1      50.530  25.217  30.145  1.00  0.00     0.000 A 
ENDBRANCH  57  70
ENDBRANCH  31  32
ENDBRANCH  23  26
ENDBRANCH  21  22
ENDBRANCH   1  21
TORSDOF 12
ENDMDL
