MODEL 1
REMARK VINA RESULT:     -11.9      0.000      0.000
REMARK SMILES Cc1cc2c(=O)c3ccccc3oc2c(C(=O)NCCCNC(=O)c2ccc(-c3c4nc(c(-c5ccccc5)c5ccc([nH]5)c(-c5ccccc5)c5nc(c(-c6ccccc6)c6ccc3[nH]6)C=C5)C=C4)cc2)c1C
REMARK SMILES IDX 21 1 20 2 19 3 18 4 16 5 17 6 15 8 1 9 2 10 3 11 73 12 4 13
REMARK SMILES IDX 74 14 5 15 14 16 6 17 7 18 13 19 8 20 12 21 9 22 11 23 10 24
REMARK SMILES IDX 22 25 23 26 24 28 25 29 26 30 72 31 27 32 71 33 28 34 29 35
REMARK SMILES IDX 30 36 65 37 31 38 70 39 64 40 66 41 32 42 69 43 63 44 62 45
REMARK SMILES IDX 33 47 55 48 40 49 54 50 41 51 44 52 53 53 67 54 42 55 43 56
REMARK SMILES IDX 52 58 68 59 45 60 34 61 35 62 39 63 36 64 38 65 37 66 56 67
REMARK SMILES IDX 57 68 61 69 58 70 60 71 59 72 46 73 47 74 51 75 48 76 50 77
REMARK SMILES IDX 49 78
REMARK H PARENT 18 7 22 27 66 46 44 57
REMARK Flexibility Score: inf
ROOT
ATOM      1  C   UNL A   1      39.290  19.588  26.149  1.00  0.00     0.118 C 
ENDROOT
BRANCH   1   2
ATOM      2  C   UNL A   1      38.737  20.468  25.042  1.00  0.00     0.042 C 
BRANCH   2   3
ATOM      3  C   UNL A   1      38.322  21.858  25.521  1.00  0.00     0.118 C 
BRANCH   3   4
ATOM      4  N   UNL A   1      37.458  22.504  24.558  1.00  0.00    -0.352 N 
ATOM      5  C   UNL A   1      36.142  22.605  24.208  1.00  0.00     0.255 C 
ATOM      6  O   UNL A   1      36.041  23.251  23.154  1.00  0.00    -0.269 OA
ATOM      7  H   UNL A   1      38.001  23.055  23.950  1.00  0.00     0.163 HD
BRANCH   5   8
ATOM      8  C   UNL A   1      34.870  22.056  24.849  1.00  0.00     0.086 A 
ATOM      9  C   UNL A   1      32.487  19.014  25.287  1.00  0.00     0.044 C 
ATOM     10  C   UNL A   1      33.068  20.409  25.297  1.00  0.00    -0.046 A 
ATOM     11  C   UNL A   1      32.224  21.430  25.724  1.00  0.00     0.019 A 
ATOM     12  C   UNL A   1      34.415  20.701  24.913  1.00  0.00    -0.032 A 
ATOM     13  C   UNL A   1      32.678  22.738  25.758  1.00  0.00     0.066 A 
ATOM     14  C   UNL A   1      35.279  19.517  24.623  1.00  0.00     0.045 C 
ATOM     15  C   UNL A   1      31.762  23.786  26.235  1.00  0.00     0.200 A 
ATOM     16  C   UNL A   1      33.966  23.065  25.325  1.00  0.00     0.151 A 
ATOM     17  O   UNL A   1      30.643  23.521  26.657  1.00  0.00    -0.288 OA
ATOM     18  C   UNL A   1      32.242  25.166  26.170  1.00  0.00     0.065 A 
ATOM     19  O   UNL A   1      34.403  24.378  25.379  1.00  0.00    -0.455 OA
ATOM     20  C   UNL A   1      31.420  26.232  26.541  1.00  0.00     0.016 A 
ATOM     21  C   UNL A   1      33.535  25.382  25.717  1.00  0.00     0.138 A 
ATOM     22  C   UNL A   1      31.902  27.536  26.443  1.00  0.00     0.001 A 
ATOM     23  C   UNL A   1      34.012  26.689  25.609  1.00  0.00     0.048 A 
ATOM     24  C   UNL A   1      33.195  27.765  25.970  1.00  0.00     0.004 A 
ENDBRANCH   5   8
ENDBRANCH   3   4
ENDBRANCH   2   3
ENDBRANCH   1   2
BRANCH   1  25
ATOM     25  N   UNL A   1      40.603  19.055  25.809  1.00  0.00    -0.352 N 
ATOM     26  C   UNL A   1      41.840  19.658  25.815  1.00  0.00     0.251 C 
ATOM     27  H   UNL A   1      40.606  18.110  25.531  1.00  0.00     0.163 HD
ATOM     28  O   UNL A   1      42.789  19.093  25.288  1.00  0.00    -0.269 OA
BRANCH  26  29
ATOM     29  C   UNL A   1      42.020  20.992  26.431  1.00  0.00     0.039 A 
ATOM     30  C   UNL A   1      42.208  22.125  25.642  1.00  0.00     0.014 A 
ATOM     31  C   UNL A   1      41.987  21.114  27.824  1.00  0.00     0.014 A 
ATOM     32  C   UNL A   1      42.558  23.329  26.235  1.00  0.00     0.010 A 
ATOM     33  C   UNL A   1      42.210  22.359  28.421  1.00  0.00     0.010 A 
ATOM     34  C   UNL A   1      42.542  23.469  27.632  1.00  0.00    -0.014 A 
BRANCH  34  35
ATOM     35  C   UNL A   1      42.833  24.802  28.221  1.00  0.00     0.031 A 
ATOM     36  C   UNL A   1      44.243  25.226  28.525  1.00  0.00     0.074 A 
ATOM     37  C   UNL A   1      41.809  25.660  28.411  1.00  0.00     0.049 A 
ATOM     38  N   UNL A   1      44.670  26.375  28.988  1.00  0.00    -0.248 NA
ATOM     39  C   UNL A   1      45.314  24.245  28.286  1.00  0.00     0.031 C 
ATOM     40  C   UNL A   1      40.400  25.359  28.136  1.00  0.00     0.029 A 
ATOM     41  N   UNL A   1      41.790  26.965  28.829  1.00  0.00    -0.354 N 
ATOM     42  C   UNL A   1      46.048  26.248  29.110  1.00  0.00     0.074 A 
ATOM     43  C   UNL A   1      46.387  24.902  28.707  1.00  0.00     0.031 C 
ATOM     44  C   UNL A   1      39.672  26.470  28.307  1.00  0.00     0.029 A 
ATOM     45  C   UNL A   1      40.540  27.535  28.794  1.00  0.00     0.049 A 
ATOM     46  H   UNL A   1      42.595  27.448  29.127  1.00  0.00     0.167 HD
ATOM     47  C   UNL A   1      46.946  27.178  29.511  1.00  0.00     0.031 A 
ATOM     48  C   UNL A   1      40.126  28.772  29.126  1.00  0.00     0.031 A 
ATOM     49  C   UNL A   1      46.598  28.521  29.897  1.00  0.00     0.049 A 
ATOM     50  C   UNL A   1      41.140  29.764  29.615  1.00  0.00     0.074 A 
ATOM     51  C   UNL A   1      47.442  29.540  30.304  1.00  0.00     0.029 A 
ATOM     52  N   UNL A   1      45.310  29.033  29.921  1.00  0.00    -0.354 N 
ATOM     53  N   UNL A   1      42.440  29.629  29.714  1.00  0.00    -0.248 NA
ATOM     54  C   UNL A   1      40.634  31.075  30.041  1.00  0.00     0.031 C 
ATOM     55  C   UNL A   1      46.659  30.645  30.641  1.00  0.00     0.029 A 
ATOM     56  C   UNL A   1      45.335  30.345  30.366  1.00  0.00     0.049 A 
ATOM     57  H   UNL A   1      44.500  28.538  29.661  1.00  0.00     0.167 HD
ATOM     58  C   UNL A   1      42.910  30.840  30.203  1.00  0.00     0.074 A 
ATOM     59  C   UNL A   1      41.759  31.707  30.349  1.00  0.00     0.031 C 
ATOM     60  C   UNL A   1      44.181  31.195  30.510  1.00  0.00     0.031 A 
BRANCH  47  61
ATOM     61  C   UNL A   1      48.401  26.793  29.565  1.00  0.00    -0.014 A 
ATOM     62  C   UNL A   1      48.940  26.269  30.751  1.00  0.00     0.009 A 
ATOM     63  C   UNL A   1      49.264  27.062  28.491  1.00  0.00     0.009 A 
ATOM     64  C   UNL A   1      50.312  26.047  30.873  1.00  0.00     0.001 A 
ATOM     65  C   UNL A   1      50.634  26.810  28.604  1.00  0.00     0.001 A 
ATOM     66  C   UNL A   1      51.158  26.316  29.798  1.00  0.00     0.000 A 
ENDBRANCH  47  61
BRANCH  48  67
ATOM     67  C   UNL A   1      38.685  29.124  29.001  1.00  0.00    -0.014 A 
ATOM     68  C   UNL A   1      38.173  29.626  27.793  1.00  0.00     0.009 A 
ATOM     69  C   UNL A   1      37.823  29.012  30.103  1.00  0.00     0.009 A 
ATOM     70  C   UNL A   1      36.844  30.040  27.699  1.00  0.00     0.001 A 
ATOM     71  C   UNL A   1      36.483  29.390  29.995  1.00  0.00     0.001 A 
ATOM     72  C   UNL A   1      35.997  29.917  28.799  1.00  0.00     0.000 A 
ENDBRANCH  48  67
BRANCH  60  73
ATOM     73  C   UNL A   1      44.411  32.588  31.029  1.00  0.00    -0.014 A 
ATOM     74  C   UNL A   1      44.308  32.845  32.406  1.00  0.00     0.009 A 
ATOM     75  C   UNL A   1      44.629  33.661  30.152  1.00  0.00     0.009 A 
ATOM     76  C   UNL A   1      44.400  34.150  32.893  1.00  0.00     0.001 A 
ATOM     77  C   UNL A   1      44.758  34.961  30.645  1.00  0.00     0.001 A 
ATOM     78  C   UNL A   1      44.632  35.205  32.013  1.00  0.00     0.000 A 
ENDBRANCH  60  73
ENDBRANCH  34  35
ENDBRANCH  26  29
ENDBRANCH   1  25
TORSDOF 10
ENDMDL
MODEL 2
REMARK VINA RESULT:     -11.9      2.745      8.509
REMARK SMILES Cc1cc2c(=O)c3ccccc3oc2c(C(=O)NCCCNC(=O)c2ccc(-c3c4nc(c(-c5ccccc5)c5ccc([nH]5)c(-c5ccccc5)c5nc(c(-c6ccccc6)c6ccc3[nH]6)C=C5)C=C4)cc2)c1C
REMARK SMILES IDX 21 1 20 2 19 3 18 4 16 5 17 6 15 8 1 9 2 10 3 11 73 12 4 13
REMARK SMILES IDX 74 14 5 15 14 16 6 17 7 18 13 19 8 20 12 21 9 22 11 23 10 24
REMARK SMILES IDX 22 25 23 26 24 28 25 29 26 30 72 31 27 32 71 33 28 34 29 35
REMARK SMILES IDX 30 36 65 37 31 38 70 39 64 40 66 41 32 42 69 43 63 44 62 45
REMARK SMILES IDX 33 47 55 48 40 49 54 50 41 51 44 52 53 53 67 54 42 55 43 56
REMARK SMILES IDX 52 58 68 59 45 60 34 61 35 62 39 63 36 64 38 65 37 66 56 67
REMARK SMILES IDX 57 68 61 69 58 70 60 71 59 72 46 73 47 74 51 75 48 76 50 77
REMARK SMILES IDX 49 78
REMARK H PARENT 18 7 22 27 66 46 44 57
REMARK Flexibility Score: inf
ROOT
ATOM      1  C   UNL A   1      34.647  32.241  28.180  1.00  0.00     0.118 C 
ENDROOT
BRANCH   1   2
ATOM      2  C   UNL A   1      33.707  31.186  27.626  1.00  0.00     0.042 C 
BRANCH   2   3
ATOM      3  C   UNL A   1      34.295  29.776  27.649  1.00  0.00     0.118 C 
BRANCH   3   4
ATOM      4  N   UNL A   1      33.250  28.777  27.679  1.00  0.00    -0.352 N 
ATOM      5  C   UNL A   1      32.414  28.085  26.851  1.00  0.00     0.255 C 
ATOM      6  O   UNL A   1      31.612  27.423  27.528  1.00  0.00    -0.269 OA
ATOM      7  H   UNL A   1      33.087  28.504  28.611  1.00  0.00     0.163 HD
BRANCH   5   8
ATOM      8  C   UNL A   1      32.298  28.031  25.330  1.00  0.00     0.086 A 
ATOM      9  C   UNL A   1      30.402  29.237  22.156  1.00  0.00     0.044 C 
ATOM     10  C   UNL A   1      31.305  28.476  23.100  1.00  0.00    -0.046 A 
ATOM     11  C   UNL A   1      31.964  27.370  22.571  1.00  0.00     0.019 A 
ATOM     12  C   UNL A   1      31.511  28.854  24.464  1.00  0.00    -0.032 A 
ATOM     13  C   UNL A   1      32.806  26.615  23.372  1.00  0.00     0.066 A 
ATOM     14  C   UNL A   1      30.881  30.142  24.883  1.00  0.00     0.045 C 
ATOM     15  C   UNL A   1      33.501  25.465  22.772  1.00  0.00     0.200 A 
ATOM     16  C   UNL A   1      32.975  26.918  24.726  1.00  0.00     0.151 A 
ATOM     17  O   UNL A   1      33.400  25.203  21.579  1.00  0.00    -0.288 OA
ATOM     18  C   UNL A   1      34.307  24.637  23.667  1.00  0.00     0.065 A 
ATOM     19  O   UNL A   1      33.831  26.157  25.504  1.00  0.00    -0.455 OA
ATOM     20  C   UNL A   1      34.951  23.489  23.200  1.00  0.00     0.016 A 
ATOM     21  C   UNL A   1      34.403  25.021  24.996  1.00  0.00     0.138 A 
ATOM     22  C   UNL A   1      35.692  22.710  24.086  1.00  0.00     0.001 A 
ATOM     23  C   UNL A   1      35.136  24.234  25.884  1.00  0.00     0.048 A 
ATOM     24  C   UNL A   1      35.778  23.078  25.430  1.00  0.00     0.004 A 
ENDBRANCH   5   8
ENDBRANCH   3   4
ENDBRANCH   2   3
ENDBRANCH   1   2
BRANCH   1  25
ATOM     25  N   UNL A   1      34.474  32.418  29.615  1.00  0.00    -0.352 N 
ATOM     26  C   UNL A   1      35.253  31.996  30.667  1.00  0.00     0.251 C 
ATOM     27  H   UNL A   1      33.668  32.923  29.874  1.00  0.00     0.163 HD
ATOM     28  O   UNL A   1      34.815  32.065  31.808  1.00  0.00    -0.269 OA
BRANCH  26  29
ATOM     29  C   UNL A   1      36.602  31.438  30.423  1.00  0.00     0.039 A 
ATOM     30  C   UNL A   1      37.244  31.626  29.201  1.00  0.00     0.014 A 
ATOM     31  C   UNL A   1      37.242  30.722  31.440  1.00  0.00     0.014 A 
ATOM     32  C   UNL A   1      38.420  30.944  28.926  1.00  0.00     0.010 A 
ATOM     33  C   UNL A   1      38.493  30.143  31.205  1.00  0.00     0.010 A 
ATOM     34  C   UNL A   1      39.073  30.212  29.930  1.00  0.00    -0.014 A 
BRANCH  34  35
ATOM     35  C   UNL A   1      40.378  29.574  29.617  1.00  0.00     0.031 A 
ATOM     36  C   UNL A   1      40.450  28.160  29.111  1.00  0.00     0.074 A 
ATOM     37  C   UNL A   1      41.500  30.316  29.725  1.00  0.00     0.049 A 
ATOM     38  N   UNL A   1      41.504  27.477  28.740  1.00  0.00    -0.248 NA
ATOM     39  C   UNL A   1      39.187  27.410  29.009  1.00  0.00     0.031 C 
ATOM     40  C   UNL A   1      41.546  31.705  30.192  1.00  0.00     0.029 A 
ATOM     41  N   UNL A   1      42.804  30.032  29.409  1.00  0.00    -0.354 N 
ATOM     42  C   UNL A   1      41.037  26.220  28.379  1.00  0.00     0.074 A 
ATOM     43  C   UNL A   1      39.609  26.218  28.606  1.00  0.00     0.031 C 
ATOM     44  C   UNL A   1      42.791  32.177  30.048  1.00  0.00     0.029 A 
ATOM     45  C   UNL A   1      43.652  31.101  29.571  1.00  0.00     0.049 A 
ATOM     46  H   UNL A   1      43.104  29.147  29.098  1.00  0.00     0.167 HD
ATOM     47  C   UNL A   1      41.737  25.169  27.890  1.00  0.00     0.031 A 
ATOM     48  C   UNL A   1      44.978  31.211  29.370  1.00  0.00     0.031 A 
ATOM     49  C   UNL A   1      43.157  25.188  27.655  1.00  0.00     0.049 A 
ATOM     50  C   UNL A   1      45.734  30.013  28.876  1.00  0.00     0.074 A 
ATOM     51  C   UNL A   1      43.953  24.175  27.147  1.00  0.00     0.029 A 
ATOM     52  N   UNL A   1      43.991  26.266  27.904  1.00  0.00    -0.354 N 
ATOM     53  N   UNL A   1      45.272  28.836  28.530  1.00  0.00    -0.248 NA
ATOM     54  C   UNL A   1      47.190  30.153  28.747  1.00  0.00     0.031 C 
ATOM     55  C   UNL A   1      45.277  24.616  27.156  1.00  0.00     0.029 A 
ATOM     56  C   UNL A   1      45.298  25.932  27.590  1.00  0.00     0.049 A 
ATOM     57  H   UNL A   1      43.698  27.139  28.253  1.00  0.00     0.167 HD
ATOM     58  C   UNL A   1      46.379  28.098  28.132  1.00  0.00     0.074 A 
ATOM     59  C   UNL A   1      47.528  28.971  28.249  1.00  0.00     0.031 C 
ATOM     60  C   UNL A   1      46.433  26.810  27.715  1.00  0.00     0.031 A 
BRANCH  47  61
ATOM     61  C   UNL A   1      40.995  23.898  27.574  1.00  0.00    -0.014 A 
ATOM     62  C   UNL A   1      41.415  22.686  28.147  1.00  0.00     0.009 A 
ATOM     63  C   UNL A   1      39.966  23.874  26.620  1.00  0.00     0.009 A 
ATOM     64  C   UNL A   1      40.840  21.476  27.754  1.00  0.00     0.001 A 
ATOM     65  C   UNL A   1      39.371  22.665  26.251  1.00  0.00     0.001 A 
ATOM     66  C   UNL A   1      39.818  21.467  26.807  1.00  0.00     0.000 A 
ENDBRANCH  47  61
BRANCH  48  67
ATOM     67  C   UNL A   1      45.659  32.507  29.642  1.00  0.00    -0.014 A 
ATOM     68  C   UNL A   1      46.120  32.816  30.933  1.00  0.00     0.009 A 
ATOM     69  C   UNL A   1      45.803  33.466  28.628  1.00  0.00     0.009 A 
ATOM     70  C   UNL A   1      46.678  34.065  31.211  1.00  0.00     0.001 A 
ATOM     71  C   UNL A   1      46.397  34.701  28.901  1.00  0.00     0.001 A 
ATOM     72  C   UNL A   1      46.822  35.005  30.193  1.00  0.00     0.000 A 
ENDBRANCH  48  67
BRANCH  60  73
ATOM     73  C   UNL A   1      47.780  26.254  27.341  1.00  0.00    -0.014 A 
ATOM     74  C   UNL A   1      48.553  25.588  28.306  1.00  0.00     0.009 A 
ATOM     75  C   UNL A   1      48.327  26.475  26.067  1.00  0.00     0.009 A 
ATOM     76  C   UNL A   1      49.851  25.170  28.011  1.00  0.00     0.001 A 
ATOM     77  C   UNL A   1      49.612  26.024  25.763  1.00  0.00     0.001 A 
ATOM     78  C   UNL A   1      50.377  25.383  26.738  1.00  0.00     0.000 A 
ENDBRANCH  60  73
ENDBRANCH  34  35
ENDBRANCH  26  29
ENDBRANCH   1  25
TORSDOF 10
ENDMDL
MODEL 3
REMARK VINA RESULT:     -11.9      2.356      7.695
REMARK SMILES Cc1cc2c(=O)c3ccccc3oc2c(C(=O)NCCCNC(=O)c2ccc(-c3c4nc(c(-c5ccccc5)c5ccc([nH]5)c(-c5ccccc5)c5nc(c(-c6ccccc6)c6ccc3[nH]6)C=C5)C=C4)cc2)c1C
REMARK SMILES IDX 21 1 20 2 19 3 18 4 16 5 17 6 15 8 1 9 2 10 3 11 73 12 4 13
REMARK SMILES IDX 74 14 5 15 14 16 6 17 7 18 13 19 8 20 12 21 9 22 11 23 10 24
REMARK SMILES IDX 22 25 23 26 24 28 25 29 26 30 72 31 27 32 71 33 28 34 29 35
REMARK SMILES IDX 30 36 65 37 31 38 70 39 64 40 66 41 32 42 69 43 63 44 62 45
REMARK SMILES IDX 33 47 55 48 40 49 54 50 41 51 44 52 53 53 67 54 42 55 43 56
REMARK SMILES IDX 52 58 68 59 45 60 34 61 35 62 39 63 36 64 38 65 37 66 56 67
REMARK SMILES IDX 57 68 61 69 58 70 60 71 59 72 46 73 47 74 51 75 48 76 50 77
REMARK SMILES IDX 49 78
REMARK H PARENT 18 7 22 27 66 46 44 57
REMARK Flexibility Score: inf
ROOT
ATOM      1  C   UNL A   1      33.636  28.831  27.613  1.00  0.00     0.118 C 
ENDROOT
BRANCH   1   2
ATOM      2  C   UNL A   1      34.057  28.629  26.168  1.00  0.00     0.042 C 
BRANCH   2   3
ATOM      3  C   UNL A   1      33.548  29.722  25.229  1.00  0.00     0.118 C 
BRANCH   3   4
ATOM      4  N   UNL A   1      33.449  29.236  23.870  1.00  0.00    -0.352 N 
ATOM      5  C   UNL A   1      32.767  28.329  23.111  1.00  0.00     0.255 C 
ATOM      6  O   UNL A   1      33.250  28.298  21.968  1.00  0.00    -0.269 OA
ATOM      7  H   UNL A   1      34.089  29.723  23.302  1.00  0.00     0.163 HD
BRANCH   5   8
ATOM      8  C   UNL A   1      31.610  27.389  23.437  1.00  0.00     0.086 A 
ATOM      9  C   UNL A   1      27.762  26.954  23.804  1.00  0.00     0.044 C 
ATOM     10  C   UNL A   1      29.256  26.733  23.872  1.00  0.00    -0.046 A 
ATOM     11  C   UNL A   1      29.686  25.609  24.573  1.00  0.00     0.019 A 
ATOM     12  C   UNL A   1      30.207  27.599  23.247  1.00  0.00    -0.032 A 
ATOM     13  C   UNL A   1      31.040  25.337  24.686  1.00  0.00     0.066 A 
ATOM     14  C   UNL A   1      29.635  28.683  22.393  1.00  0.00     0.045 C 
ATOM     15  C   UNL A   1      31.454  24.129  25.417  1.00  0.00     0.200 A 
ATOM     16  C   UNL A   1      31.996  26.202  24.145  1.00  0.00     0.151 A 
ATOM     17  O   UNL A   1      30.636  23.336  25.866  1.00  0.00    -0.288 OA
ATOM     18  C   UNL A   1      32.890  23.923  25.597  1.00  0.00     0.065 A 
ATOM     19  O   UNL A   1      33.343  25.904  24.261  1.00  0.00    -0.455 OA
ATOM     20  C   UNL A   1      33.375  22.838  26.332  1.00  0.00     0.016 A 
ATOM     21  C   UNL A   1      33.754  24.845  25.026  1.00  0.00     0.138 A 
ATOM     22  C   UNL A   1      34.749  22.686  26.504  1.00  0.00     0.001 A 
ATOM     23  C   UNL A   1      35.129  24.697  25.209  1.00  0.00     0.048 A 
ATOM     24  C   UNL A   1      35.626  23.620  25.949  1.00  0.00     0.004 A 
ENDBRANCH   5   8
ENDBRANCH   3   4
ENDBRANCH   2   3
ENDBRANCH   1   2
BRANCH   1  25
ATOM     25  N   UNL A   1      33.701  30.234  28.003  1.00  0.00    -0.352 N 
ATOM     26  C   UNL A   1      34.710  30.945  28.608  1.00  0.00     0.251 C 
ATOM     27  H   UNL A   1      32.891  30.757  27.799  1.00  0.00     0.163 HD
ATOM     28  O   UNL A   1      34.481  32.066  29.044  1.00  0.00    -0.269 OA
BRANCH  26  29
ATOM     29  C   UNL A   1      36.060  30.354  28.756  1.00  0.00     0.039 A 
ATOM     30  C   UNL A   1      36.431  29.704  29.930  1.00  0.00     0.014 A 
ATOM     31  C   UNL A   1      36.967  30.442  27.694  1.00  0.00     0.014 A 
ATOM     32  C   UNL A   1      37.751  29.321  30.120  1.00  0.00     0.010 A 
ATOM     33  C   UNL A   1      38.262  29.936  27.840  1.00  0.00     0.010 A 
ATOM     34  C   UNL A   1      38.679  29.411  29.071  1.00  0.00    -0.014 A 
BRANCH  34  35
ATOM     35  C   UNL A   1      40.058  28.904  29.290  1.00  0.00     0.031 A 
ATOM     36  C   UNL A   1      40.465  27.533  28.827  1.00  0.00     0.074 A 
ATOM     37  C   UNL A   1      40.966  29.730  29.851  1.00  0.00     0.049 A 
ATOM     38  N   UNL A   1      41.643  26.964  28.892  1.00  0.00    -0.248 NA
ATOM     39  C   UNL A   1      39.427  26.686  28.216  1.00  0.00     0.031 C 
ATOM     40  C   UNL A   1      40.685  31.089  30.325  1.00  0.00     0.029 A 
ATOM     41  N   UNL A   1      42.310  29.576  30.074  1.00  0.00    -0.354 N 
ATOM     42  C   UNL A   1      41.485  25.695  28.350  1.00  0.00     0.074 A 
ATOM     43  C   UNL A   1      40.091  25.559  27.990  1.00  0.00     0.031 C 
ATOM     44  C   UNL A   1      41.832  31.671  30.697  1.00  0.00     0.029 A 
ATOM     45  C   UNL A   1      42.914  30.701  30.580  1.00  0.00     0.049 A 
ATOM     46  H   UNL A   1      42.796  28.739  29.890  1.00  0.00     0.167 HD
ATOM     47  C   UNL A   1      42.422  24.737  28.159  1.00  0.00     0.031 A 
ATOM     48  C   UNL A   1      44.194  30.934  30.926  1.00  0.00     0.031 A 
ATOM     49  C   UNL A   1      43.811  24.888  28.509  1.00  0.00     0.049 A 
ATOM     50  C   UNL A   1      45.200  29.834  30.750  1.00  0.00     0.074 A 
ATOM     51  C   UNL A   1      44.839  23.978  28.339  1.00  0.00     0.029 A 
ATOM     52  N   UNL A   1      44.366  26.017  29.091  1.00  0.00    -0.354 N 
ATOM     53  N   UNL A   1      45.032  28.645  30.225  1.00  0.00    -0.248 NA
ATOM     54  C   UNL A   1      46.567  30.104  31.214  1.00  0.00     0.031 C 
ATOM     55  C   UNL A   1      46.001  24.528  28.883  1.00  0.00     0.029 A 
ATOM     56  C   UNL A   1      45.718  25.813  29.316  1.00  0.00     0.049 A 
ATOM     57  H   UNL A   1      43.873  26.840  29.311  1.00  0.00     0.167 HD
ATOM     58  C   UNL A   1      46.274  28.027  30.285  1.00  0.00     0.074 A 
ATOM     59  C   UNL A   1      47.191  28.986  30.867  1.00  0.00     0.031 C 
ATOM     60  C   UNL A   1      46.618  26.775  29.899  1.00  0.00     0.031 A 
BRANCH  47  61
ATOM     61  C   UNL A   1      41.996  23.428  27.549  1.00  0.00    -0.014 A 
ATOM     62  C   UNL A   1      41.476  22.413  28.369  1.00  0.00     0.009 A 
ATOM     63  C   UNL A   1      42.223  23.150  26.192  1.00  0.00     0.009 A 
ATOM     64  C   UNL A   1      41.216  21.143  27.853  1.00  0.00     0.001 A 
ATOM     65  C   UNL A   1      41.933  21.887  25.671  1.00  0.00     0.001 A 
ATOM     66  C   UNL A   1      41.444  20.881  26.503  1.00  0.00     0.000 A 
ENDBRANCH  47  61
BRANCH  48  67
ATOM     67  C   UNL A   1      44.579  32.265  31.472  1.00  0.00    -0.014 A 
ATOM     68  C   UNL A   1      45.047  33.279  30.620  1.00  0.00     0.009 A 
ATOM     69  C   UNL A   1      44.533  32.513  32.852  1.00  0.00     0.009 A 
ATOM     70  C   UNL A   1      45.492  34.496  31.137  1.00  0.00     0.001 A 
ATOM     71  C   UNL A   1      44.942  33.747  33.364  1.00  0.00     0.001 A 
ATOM     72  C   UNL A   1      45.434  34.732  32.510  1.00  0.00     0.000 A 
ENDBRANCH  48  67
BRANCH  60  73
ATOM     73  C   UNL A   1      48.051  26.357  30.081  1.00  0.00    -0.014 A 
ATOM     74  C   UNL A   1      48.955  26.483  29.014  1.00  0.00     0.009 A 
ATOM     75  C   UNL A   1      48.483  25.748  31.269  1.00  0.00     0.009 A 
ATOM     76  C   UNL A   1      50.257  25.992  29.126  1.00  0.00     0.001 A 
ATOM     77  C   UNL A   1      49.796  25.290  31.391  1.00  0.00     0.001 A 
ATOM     78  C   UNL A   1      50.677  25.402  30.316  1.00  0.00     0.000 A 
ENDBRANCH  60  73
ENDBRANCH  34  35
ENDBRANCH  26  29
ENDBRANCH   1  25
TORSDOF 10
ENDMDL
