MODEL 1
REMARK VINA RESULT:     -11.6      0.000      0.000
REMARK SMILES O=C(NCCCNC(=O)c1ccn(Cc2c(Cl)cccc2Cl)c1)c1ccc(-c2c3nc(c(-c4ccccc4)c4ccc([nH]4)c(-c4ccccc4)c4nc(c(-c5ccccc5)c5ccc2[nH]5)C=C4)C=C3)cc1
REMARK SMILES IDX 5 1 4 2 3 3 1 4 2 5 24 7 25 8 71 9 26 10 70 11 27 12 28 13
REMARK SMILES IDX 29 14 64 15 30 16 69 17 63 18 65 19 31 20 68 21 62 22 61 23
REMARK SMILES IDX 32 25 54 26 39 27 53 28 40 29 43 30 52 31 66 32 41 33 42 34
REMARK SMILES IDX 51 36 67 37 44 38 33 39 34 40 38 41 35 42 37 43 36 44 55 45
REMARK SMILES IDX 56 46 60 47 57 48 59 49 58 50 45 51 46 52 50 53 47 54 49 55
REMARK SMILES IDX 48 56 6 57 7 58 8 59 9 61 10 62 11 63 23 64 12 65 13 66
REMARK SMILES IDX 14 67 15 68 16 69 21 70 17 71 18 72 20 73 22 74 19 75
REMARK H PARENT 3 6 65 24 43 35 7 60
REMARK Flexibility Score: inf
ROOT
ATOM      1  C   UNL A   1      33.338  29.609  26.153  1.00  0.00     0.042 C 
ENDROOT
BRANCH   1   2
ATOM      2  C   UNL A   1      34.330  29.226  27.251  1.00  0.00     0.118 C 
BRANCH   2   3
ATOM      3  N   UNL A   1      34.660  30.275  28.203  1.00  0.00    -0.352 N 
ATOM      4  O   UNL A   1      35.819  31.717  29.452  1.00  0.00    -0.269 OA
ATOM      5  C   UNL A   1      35.835  30.695  28.767  1.00  0.00     0.251 C 
ATOM      6  H   UNL A   1      33.876  30.789  28.504  1.00  0.00     0.163 HD
BRANCH   5   7
ATOM      7  C   UNL A   1      37.100  29.930  28.659  1.00  0.00     0.039 A 
ATOM      8  C   UNL A   1      37.621  29.141  29.684  1.00  0.00     0.014 A 
ATOM      9  C   UNL A   1      37.778  29.996  27.428  1.00  0.00     0.014 A 
ATOM     10  C   UNL A   1      38.842  28.498  29.519  1.00  0.00     0.010 A 
ATOM     11  C   UNL A   1      38.988  29.328  27.244  1.00  0.00     0.010 A 
ATOM     12  C   UNL A   1      39.518  28.575  28.295  1.00  0.00    -0.014 A 
BRANCH  12  13
ATOM     13  C   UNL A   1      40.624  27.615  28.080  1.00  0.00     0.031 A 
ATOM     14  C   UNL A   1      41.982  28.344  28.033  1.00  0.00     0.074 A 
ATOM     15  C   UNL A   1      40.294  26.306  27.857  1.00  0.00     0.049 A 
ATOM     16  N   UNL A   1      43.073  28.019  27.412  1.00  0.00    -0.248 NA
ATOM     17  C   UNL A   1      42.134  29.660  28.719  1.00  0.00     0.031 C 
ATOM     18  C   UNL A   1      38.932  25.744  27.997  1.00  0.00     0.029 A 
ATOM     19  N   UNL A   1      41.007  25.188  27.462  1.00  0.00    -0.354 N 
ATOM     20  C   UNL A   1      44.062  28.973  27.747  1.00  0.00     0.074 A 
ATOM     21  C   UNL A   1      43.404  30.001  28.487  1.00  0.00     0.031 C 
ATOM     22  C   UNL A   1      38.901  24.444  27.620  1.00  0.00     0.029 A 
ATOM     23  C   UNL A   1      40.227  24.027  27.205  1.00  0.00     0.049 A 
ATOM     24  H   UNL A   1      41.987  25.195  27.366  1.00  0.00     0.167 HD
ATOM     25  C   UNL A   1      45.391  28.788  27.490  1.00  0.00     0.031 A 
ATOM     26  C   UNL A   1      40.606  22.831  26.653  1.00  0.00     0.031 A 
ATOM     27  C   UNL A   1      45.581  27.608  26.723  1.00  0.00     0.049 A 
ATOM     28  C   UNL A   1      42.065  22.897  26.509  1.00  0.00     0.074 A 
ATOM     29  C   UNL A   1      45.294  27.287  25.423  1.00  0.00     0.029 A 
ATOM     30  N   UNL A   1      45.805  26.458  27.437  1.00  0.00    -0.354 N 
ATOM     31  N   UNL A   1      42.913  22.781  27.482  1.00  0.00    -0.248 NA
ATOM     32  C   UNL A   1      42.635  23.146  25.177  1.00  0.00     0.031 C 
ATOM     33  C   UNL A   1      44.857  25.950  25.515  1.00  0.00     0.029 A 
ATOM     34  C   UNL A   1      45.106  25.465  26.805  1.00  0.00     0.049 A 
ATOM     35  H   UNL A   1      46.360  26.365  28.246  1.00  0.00     0.167 HD
ATOM     36  C   UNL A   1      44.041  23.343  26.942  1.00  0.00     0.074 A 
ATOM     37  C   UNL A   1      43.923  23.208  25.506  1.00  0.00     0.031 C 
ATOM     38  C   UNL A   1      44.657  24.355  27.604  1.00  0.00     0.031 A 
BRANCH  25  39
ATOM     39  C   UNL A   1      46.619  29.423  28.081  1.00  0.00    -0.014 A 
ATOM     40  C   UNL A   1      47.649  29.799  27.181  1.00  0.00     0.009 A 
ATOM     41  C   UNL A   1      46.956  29.336  29.434  1.00  0.00     0.009 A 
ATOM     42  C   UNL A   1      48.977  29.931  27.589  1.00  0.00     0.001 A 
ATOM     43  C   UNL A   1      48.284  29.513  29.852  1.00  0.00     0.001 A 
ATOM     44  C   UNL A   1      49.297  29.765  28.927  1.00  0.00     0.000 A 
ENDBRANCH  25  39
BRANCH  26  45
ATOM     45  C   UNL A   1      39.978  21.559  26.125  1.00  0.00    -0.014 A 
ATOM     46  C   UNL A   1      40.535  20.280  26.164  1.00  0.00     0.009 A 
ATOM     47  C   UNL A   1      38.670  21.631  25.562  1.00  0.00     0.009 A 
ATOM     48  C   UNL A   1      39.789  19.149  25.751  1.00  0.00     0.001 A 
ATOM     49  C   UNL A   1      37.912  20.516  25.196  1.00  0.00     0.001 A 
ATOM     50  C   UNL A   1      38.472  19.262  25.304  1.00  0.00     0.000 A 
ENDBRANCH  26  45
BRANCH  38  51
ATOM     51  C   UNL A   1      44.399  24.398  29.102  1.00  0.00    -0.014 A 
ATOM     52  C   UNL A   1      44.252  25.636  29.748  1.00  0.00     0.009 A 
ATOM     53  C   UNL A   1      44.413  23.250  29.915  1.00  0.00     0.009 A 
ATOM     54  C   UNL A   1      44.148  25.724  31.143  1.00  0.00     0.001 A 
ATOM     55  C   UNL A   1      44.309  23.333  31.312  1.00  0.00     0.001 A 
ATOM     56  C   UNL A   1      44.179  24.574  31.926  1.00  0.00     0.000 A 
ENDBRANCH  38  51
ENDBRANCH  12  13
ENDBRANCH   5   7
ENDBRANCH   2   3
ENDBRANCH   1   2
BRANCH   1  57
ATOM     57  C   UNL A   1      31.999  28.881  26.239  1.00  0.00     0.118 C 
BRANCH  57  58
ATOM     58  N   UNL A   1      31.154  29.178  25.095  1.00  0.00    -0.352 N 
ATOM     59  C   UNL A   1      31.233  28.714  23.805  1.00  0.00     0.252 C 
ATOM     60  H   UNL A   1      30.414  29.804  25.271  1.00  0.00     0.163 HD
ATOM     61  O   UNL A   1      30.641  29.331  22.923  1.00  0.00    -0.269 OA
BRANCH  59  62
ATOM     62  C   UNL A   1      31.988  27.500  23.535  1.00  0.00     0.057 A 
ATOM     63  C   UNL A   1      33.342  27.378  23.117  1.00  0.00     0.033 A 
ATOM     64  C   UNL A   1      31.537  26.207  23.756  1.00  0.00     0.099 A 
ATOM     65  C   UNL A   1      33.654  26.039  23.077  1.00  0.00     0.087 A 
ATOM     66  N   UNL A   1      32.538  25.326  23.427  1.00  0.00    -0.349 N 
BRANCH  66  67
ATOM     67  C   UNL A   1      32.472  23.868  23.550  1.00  0.00     0.160 C 
BRANCH  67  68
ATOM     68  C   UNL A   1      33.097  23.379  24.839  1.00  0.00     0.009 A 
ATOM     69  C   UNL A   1      32.360  23.309  26.039  1.00  0.00     0.047 A 
ATOM     70  C   UNL A   1      34.453  22.999  24.899  1.00  0.00     0.047 A 
ATOM     71  Cl  UNL A   1      30.654  23.585  26.108  1.00  0.00    -0.084 Cl
ATOM     72  C   UNL A   1      32.967  22.953  27.250  1.00  0.00     0.021 A 
ATOM     73  C   UNL A   1      35.048  22.609  26.108  1.00  0.00     0.021 A 
ATOM     74  Cl  UNL A   1      35.465  22.950  23.496  1.00  0.00    -0.084 Cl
ATOM     75  C   UNL A   1      34.312  22.607  27.287  1.00  0.00     0.003 A 
ENDBRANCH  67  68
ENDBRANCH  66  67
ENDBRANCH  59  62
ENDBRANCH  57  58
ENDBRANCH   1  57
TORSDOF 12
ENDMDL
MODEL 2
REMARK VINA RESULT:     -11.6      4.064      8.814
REMARK SMILES O=C(NCCCNC(=O)c1ccn(Cc2c(Cl)cccc2Cl)c1)c1ccc(-c2c3nc(c(-c4ccccc4)c4ccc([nH]4)c(-c4ccccc4)c4nc(c(-c5ccccc5)c5ccc2[nH]5)C=C4)C=C3)cc1
REMARK SMILES IDX 5 1 4 2 3 3 1 4 2 5 24 7 25 8 71 9 26 10 70 11 27 12 28 13
REMARK SMILES IDX 29 14 64 15 30 16 69 17 63 18 65 19 31 20 68 21 62 22 61 23
REMARK SMILES IDX 32 25 54 26 39 27 53 28 40 29 43 30 52 31 66 32 41 33 42 34
REMARK SMILES IDX 51 36 67 37 44 38 33 39 34 40 38 41 35 42 37 43 36 44 55 45
REMARK SMILES IDX 56 46 60 47 57 48 59 49 58 50 45 51 46 52 50 53 47 54 49 55
REMARK SMILES IDX 48 56 6 57 7 58 8 59 9 61 10 62 11 63 23 64 12 65 13 66
REMARK SMILES IDX 14 67 15 68 16 69 21 70 17 71 18 72 20 73 22 74 19 75
REMARK H PARENT 3 6 65 24 43 35 7 60
REMARK Flexibility Score: inf
ROOT
ATOM      1  C   UNL A   1      37.168  23.434  24.758  1.00  0.00     0.042 C 
ENDROOT
BRANCH   1   2
ATOM      2  C   UNL A   1      37.941  23.442  26.076  1.00  0.00     0.118 C 
BRANCH   2   3
ATOM      3  N   UNL A   1      39.389  23.367  25.964  1.00  0.00    -0.352 N 
ATOM      4  O   UNL A   1      41.565  23.672  26.359  1.00  0.00    -0.269 OA
ATOM      5  C   UNL A   1      40.413  24.058  26.556  1.00  0.00     0.251 C 
ATOM      6  H   UNL A   1      39.695  22.678  25.331  1.00  0.00     0.163 HD
BRANCH   5   7
ATOM      7  C   UNL A   1      40.201  25.292  27.350  1.00  0.00     0.039 A 
ATOM      8  C   UNL A   1      40.694  26.544  26.984  1.00  0.00     0.014 A 
ATOM      9  C   UNL A   1      39.427  25.169  28.518  1.00  0.00     0.014 A 
ATOM     10  C   UNL A   1      40.495  27.642  27.814  1.00  0.00     0.010 A 
ATOM     11  C   UNL A   1      39.197  26.272  29.339  1.00  0.00     0.010 A 
ATOM     12  C   UNL A   1      39.732  27.512  28.981  1.00  0.00    -0.014 A 
BRANCH  12  13
ATOM     13  C   UNL A   1      39.288  28.766  29.632  1.00  0.00     0.031 A 
ATOM     14  C   UNL A   1      40.046  28.995  30.956  1.00  0.00     0.074 A 
ATOM     15  C   UNL A   1      38.250  29.447  29.056  1.00  0.00     0.049 A 
ATOM     16  N   UNL A   1      39.670  29.625  32.024  1.00  0.00    -0.248 NA
ATOM     17  C   UNL A   1      41.392  28.381  31.147  1.00  0.00     0.031 C 
ATOM     18  C   UNL A   1      37.660  29.128  27.737  1.00  0.00     0.029 A 
ATOM     19  N   UNL A   1      37.472  30.522  29.446  1.00  0.00    -0.354 N 
ATOM     20  C   UNL A   1      40.754  29.623  32.932  1.00  0.00     0.074 A 
ATOM     21  C   UNL A   1      41.756  28.773  32.370  1.00  0.00     0.031 C 
ATOM     22  C   UNL A   1      36.590  29.916  27.479  1.00  0.00     0.029 A 
ATOM     23  C   UNL A   1      36.377  30.825  28.589  1.00  0.00     0.049 A 
ATOM     24  H   UNL A   1      37.662  31.043  30.259  1.00  0.00     0.167 HD
ATOM     25  C   UNL A   1      40.801  30.423  34.038  1.00  0.00     0.031 A 
ATOM     26  C   UNL A   1      35.345  31.706  28.778  1.00  0.00     0.031 A 
ATOM     27  C   UNL A   1      39.565  31.104  34.201  1.00  0.00     0.049 A 
ATOM     28  C   UNL A   1      35.660  32.441  30.009  1.00  0.00     0.074 A 
ATOM     29  C   UNL A   1      38.313  30.686  34.566  1.00  0.00     0.029 A 
ATOM     30  N   UNL A   1      39.478  32.338  33.607  1.00  0.00    -0.354 N 
ATOM     31  N   UNL A   1      36.552  33.376  30.107  1.00  0.00    -0.248 NA
ATOM     32  C   UNL A   1      34.951  32.087  31.246  1.00  0.00     0.031 C 
ATOM     33  C   UNL A   1      37.469  31.445  33.729  1.00  0.00     0.029 A 
ATOM     34  C   UNL A   1      38.221  32.424  33.070  1.00  0.00     0.049 A 
ATOM     35  H   UNL A   1      40.182  33.027  33.574  1.00  0.00     0.167 HD
ATOM     36  C   UNL A   1      36.777  33.411  31.459  1.00  0.00     0.074 A 
ATOM     37  C   UNL A   1      35.577  32.904  32.090  1.00  0.00     0.031 C 
ATOM     38  C   UNL A   1      38.045  33.275  31.922  1.00  0.00     0.031 A 
BRANCH  25  39
ATOM     39  C   UNL A   1      41.951  30.885  34.888  1.00  0.00    -0.014 A 
ATOM     40  C   UNL A   1      43.182  31.139  34.230  1.00  0.00     0.009 A 
ATOM     41  C   UNL A   1      41.991  30.736  36.277  1.00  0.00     0.009 A 
ATOM     42  C   UNL A   1      44.404  31.093  34.902  1.00  0.00     0.001 A 
ATOM     43  C   UNL A   1      43.217  30.733  36.960  1.00  0.00     0.001 A 
ATOM     44  C   UNL A   1      44.421  30.867  36.269  1.00  0.00     0.000 A 
ENDBRANCH  25  39
BRANCH  26  45
ATOM     45  C   UNL A   1      34.019  32.075  28.147  1.00  0.00    -0.014 A 
ATOM     46  C   UNL A   1      33.466  33.353  28.065  1.00  0.00     0.009 A 
ATOM     47  C   UNL A   1      33.253  31.045  27.527  1.00  0.00     0.009 A 
ATOM     48  C   UNL A   1      32.276  33.586  27.334  1.00  0.00     0.001 A 
ATOM     49  C   UNL A   1      32.104  31.273  26.766  1.00  0.00     0.001 A 
ATOM     50  C   UNL A   1      31.618  32.557  26.658  1.00  0.00     0.000 A 
ENDBRANCH  26  45
BRANCH  38  51
ATOM     51  C   UNL A   1      39.137  33.657  30.935  1.00  0.00    -0.014 A 
ATOM     52  C   UNL A   1      40.295  32.868  30.838  1.00  0.00     0.009 A 
ATOM     53  C   UNL A   1      39.107  34.843  30.181  1.00  0.00     0.009 A 
ATOM     54  C   UNL A   1      41.379  33.258  30.041  1.00  0.00     0.001 A 
ATOM     55  C   UNL A   1      40.191  35.239  29.381  1.00  0.00     0.001 A 
ATOM     56  C   UNL A   1      41.330  34.444  29.315  1.00  0.00     0.000 A 
ENDBRANCH  38  51
ENDBRANCH  12  13
ENDBRANCH   5   7
ENDBRANCH   2   3
ENDBRANCH   1   2
BRANCH   1  57
ATOM     57  C   UNL A   1      36.355  22.164  24.517  1.00  0.00     0.118 C 
BRANCH  57  58
ATOM     58  N   UNL A   1      35.795  21.644  25.753  1.00  0.00    -0.352 N 
ATOM     59  C   UNL A   1      34.612  21.957  26.377  1.00  0.00     0.252 C 
ATOM     60  H   UNL A   1      36.345  20.967  26.210  1.00  0.00     0.163 HD
ATOM     61  O   UNL A   1      34.479  21.662  27.563  1.00  0.00    -0.269 OA
BRANCH  59  62
ATOM     62  C   UNL A   1      33.555  22.598  25.610  1.00  0.00     0.057 A 
ATOM     63  C   UNL A   1      32.629  21.998  24.711  1.00  0.00     0.033 A 
ATOM     64  C   UNL A   1      33.183  23.930  25.712  1.00  0.00     0.099 A 
ATOM     65  C   UNL A   1      31.756  22.973  24.289  1.00  0.00     0.087 A 
ATOM     66  N   UNL A   1      32.123  24.160  24.868  1.00  0.00    -0.349 N 
BRANCH  66  67
ATOM     67  C   UNL A   1      31.415  25.431  24.708  1.00  0.00     0.160 C 
BRANCH  67  68
ATOM     68  C   UNL A   1      32.326  26.529  24.205  1.00  0.00     0.009 A 
ATOM     69  C   UNL A   1      32.694  26.623  22.846  1.00  0.00     0.047 A 
ATOM     70  C   UNL A   1      32.871  27.490  25.081  1.00  0.00     0.047 A 
ATOM     71  Cl  UNL A   1      31.994  25.627  21.617  1.00  0.00    -0.084 Cl
ATOM     72  C   UNL A   1      33.617  27.578  22.402  1.00  0.00     0.021 A 
ATOM     73  C   UNL A   1      33.768  28.467  24.625  1.00  0.00     0.021 A 
ATOM     74  Cl  UNL A   1      32.450  27.558  26.758  1.00  0.00    -0.084 Cl
ATOM     75  C   UNL A   1      34.159  28.498  23.291  1.00  0.00     0.003 A 
ENDBRANCH  67  68
ENDBRANCH  66  67
ENDBRANCH  59  62
ENDBRANCH  57  58
ENDBRANCH   1  57
TORSDOF 12
ENDMDL
MODEL 3
REMARK VINA RESULT:     -11.4      1.897      6.715
REMARK SMILES O=C(NCCCNC(=O)c1ccn(Cc2c(Cl)cccc2Cl)c1)c1ccc(-c2c3nc(c(-c4ccccc4)c4ccc([nH]4)c(-c4ccccc4)c4nc(c(-c5ccccc5)c5ccc2[nH]5)C=C4)C=C3)cc1
REMARK SMILES IDX 5 1 4 2 3 3 1 4 2 5 24 7 25 8 71 9 26 10 70 11 27 12 28 13
REMARK SMILES IDX 29 14 64 15 30 16 69 17 63 18 65 19 31 20 68 21 62 22 61 23
REMARK SMILES IDX 32 25 54 26 39 27 53 28 40 29 43 30 52 31 66 32 41 33 42 34
REMARK SMILES IDX 51 36 67 37 44 38 33 39 34 40 38 41 35 42 37 43 36 44 55 45
REMARK SMILES IDX 56 46 60 47 57 48 59 49 58 50 45 51 46 52 50 53 47 54 49 55
REMARK SMILES IDX 48 56 6 57 7 58 8 59 9 61 10 62 11 63 23 64 12 65 13 66
REMARK SMILES IDX 14 67 15 68 16 69 21 70 17 71 18 72 20 73 22 74 19 75
REMARK H PARENT 3 6 65 24 43 35 7 60
REMARK Flexibility Score: inf
ROOT
ATOM      1  C   UNL A   1      33.545  29.294  26.274  1.00  0.00     0.042 C 
ENDROOT
BRANCH   1   2
ATOM      2  C   UNL A   1      34.574  28.973  27.357  1.00  0.00     0.118 C 
BRANCH   2   3
ATOM      3  N   UNL A   1      34.887  30.055  28.276  1.00  0.00    -0.352 N 
ATOM      4  O   UNL A   1      36.026  31.541  29.493  1.00  0.00    -0.269 OA
ATOM      5  C   UNL A   1      36.053  30.494  28.847  1.00  0.00     0.251 C 
ATOM      6  H   UNL A   1      34.099  30.581  28.543  1.00  0.00     0.163 HD
BRANCH   5   7
ATOM      7  C   UNL A   1      37.318  29.724  28.791  1.00  0.00     0.039 A 
ATOM      8  C   UNL A   1      38.236  29.814  27.744  1.00  0.00     0.014 A 
ATOM      9  C   UNL A   1      37.600  28.886  29.885  1.00  0.00     0.014 A 
ATOM     10  C   UNL A   1      39.374  29.017  27.743  1.00  0.00     0.010 A 
ATOM     11  C   UNL A   1      38.756  28.107  29.907  1.00  0.00     0.010 A 
ATOM     12  C   UNL A   1      39.645  28.176  28.831  1.00  0.00    -0.014 A 
BRANCH  12  13
ATOM     13  C   UNL A   1      41.013  27.616  28.918  1.00  0.00     0.031 A 
ATOM     14  C   UNL A   1      41.029  26.138  28.476  1.00  0.00     0.074 A 
ATOM     15  C   UNL A   1      41.991  28.410  29.452  1.00  0.00     0.049 A 
ATOM     16  N   UNL A   1      41.820  25.177  28.837  1.00  0.00    -0.248 NA
ATOM     17  C   UNL A   1      39.974  25.637  27.549  1.00  0.00     0.031 C 
ATOM     18  C   UNL A   1      41.830  29.845  29.777  1.00  0.00     0.029 A 
ATOM     19  N   UNL A   1      43.301  28.191  29.841  1.00  0.00    -0.354 N 
ATOM     20  C   UNL A   1      41.475  24.028  28.089  1.00  0.00     0.074 A 
ATOM     21  C   UNL A   1      40.281  24.350  27.374  1.00  0.00     0.031 C 
ATOM     22  C   UNL A   1      42.940  30.335  30.377  1.00  0.00     0.029 A 
ATOM     23  C   UNL A   1      43.932  29.284  30.498  1.00  0.00     0.049 A 
ATOM     24  H   UNL A   1      43.765  27.339  29.674  1.00  0.00     0.167 HD
ATOM     25  C   UNL A   1      42.269  22.920  28.018  1.00  0.00     0.031 A 
ATOM     26  C   UNL A   1      45.143  29.330  31.138  1.00  0.00     0.031 A 
ATOM     27  C   UNL A   1      43.369  23.048  28.908  1.00  0.00     0.049 A 
ATOM     28  C   UNL A   1      45.785  28.035  30.881  1.00  0.00     0.074 A 
ATOM     29  C   UNL A   1      43.468  23.021  30.274  1.00  0.00     0.029 A 
ATOM     30  N   UNL A   1      44.507  23.604  28.380  1.00  0.00    -0.354 N 
ATOM     31  N   UNL A   1      46.329  27.687  29.757  1.00  0.00    -0.248 NA
ATOM     32  C   UNL A   1      45.799  27.026  31.949  1.00  0.00     0.031 C 
ATOM     33  C   UNL A   1      44.430  24.017  30.541  1.00  0.00     0.029 A 
ATOM     34  C   UNL A   1      45.017  24.434  29.341  1.00  0.00     0.049 A 
ATOM     35  H   UNL A   1      44.882  23.437  27.484  1.00  0.00     0.167 HD
ATOM     36  C   UNL A   1      46.364  26.321  29.872  1.00  0.00     0.074 A 
ATOM     37  C   UNL A   1      46.378  26.027  31.289  1.00  0.00     0.031 C 
ATOM     38  C   UNL A   1      45.798  25.561  28.901  1.00  0.00     0.031 A 
BRANCH  25  39
ATOM     39  C   UNL A   1      42.326  21.794  27.022  1.00  0.00    -0.014 A 
ATOM     40  C   UNL A   1      41.709  20.572  27.391  1.00  0.00     0.009 A 
ATOM     41  C   UNL A   1      43.227  21.756  25.954  1.00  0.00     0.009 A 
ATOM     42  C   UNL A   1      42.085  19.352  26.826  1.00  0.00     0.001 A 
ATOM     43  C   UNL A   1      43.573  20.535  25.355  1.00  0.00     0.001 A 
ATOM     44  C   UNL A   1      43.037  19.334  25.819  1.00  0.00     0.000 A 
ENDBRANCH  25  39
BRANCH  26  45
ATOM     45  C   UNL A   1      45.935  30.259  32.032  1.00  0.00    -0.014 A 
ATOM     46  C   UNL A   1      45.705  30.505  33.386  1.00  0.00     0.009 A 
ATOM     47  C   UNL A   1      47.063  30.934  31.479  1.00  0.00     0.009 A 
ATOM     48  C   UNL A   1      46.599  31.300  34.144  1.00  0.00     0.001 A 
ATOM     49  C   UNL A   1      47.975  31.681  32.229  1.00  0.00     0.001 A 
ATOM     50  C   UNL A   1      47.748  31.854  33.577  1.00  0.00     0.000 A 
ENDBRANCH  26  45
BRANCH  38  51
ATOM     51  C   UNL A   1      45.684  26.231  27.540  1.00  0.00    -0.014 A 
ATOM     52  C   UNL A   1      44.444  26.729  27.110  1.00  0.00     0.009 A 
ATOM     53  C   UNL A   1      46.747  26.278  26.619  1.00  0.00     0.009 A 
ATOM     54  C   UNL A   1      44.268  27.230  25.813  1.00  0.00     0.001 A 
ATOM     55  C   UNL A   1      46.576  26.780  25.319  1.00  0.00     0.001 A 
ATOM     56  C   UNL A   1      45.332  27.254  24.917  1.00  0.00     0.000 A 
ENDBRANCH  38  51
ENDBRANCH  12  13
ENDBRANCH   5   7
ENDBRANCH   2   3
ENDBRANCH   1   2
BRANCH   1  57
ATOM     57  C   UNL A   1      32.159  28.710  26.534  1.00  0.00     0.118 C 
BRANCH  57  58
ATOM     58  N   UNL A   1      31.329  28.748  25.342  1.00  0.00    -0.352 N 
ATOM     59  C   UNL A   1      30.936  27.724  24.516  1.00  0.00     0.252 C 
ATOM     60  H   UNL A   1      30.999  29.641  25.089  1.00  0.00     0.163 HD
ATOM     61  O   UNL A   1      30.522  28.001  23.393  1.00  0.00    -0.269 OA
BRANCH  59  62
ATOM     62  C   UNL A   1      30.998  26.355  25.008  1.00  0.00     0.057 A 
ATOM     63  C   UNL A   1      30.154  25.722  25.963  1.00  0.00     0.033 A 
ATOM     64  C   UNL A   1      31.846  25.367  24.531  1.00  0.00     0.099 A 
ATOM     65  C   UNL A   1      30.527  24.401  26.048  1.00  0.00     0.087 A 
ATOM     66  N   UNL A   1      31.588  24.198  25.204  1.00  0.00    -0.349 N 
BRANCH  66  67
ATOM     67  C   UNL A   1      32.246  22.911  24.971  1.00  0.00     0.160 C 
BRANCH  67  68
ATOM     68  C   UNL A   1      33.751  23.049  24.892  1.00  0.00     0.009 A 
ATOM     69  C   UNL A   1      34.552  23.090  26.051  1.00  0.00     0.047 A 
ATOM     70  C   UNL A   1      34.413  23.170  23.653  1.00  0.00     0.047 A 
ATOM     71  Cl  UNL A   1      33.923  22.797  27.636  1.00  0.00    -0.084 Cl
ATOM     72  C   UNL A   1      35.932  23.319  25.979  1.00  0.00     0.021 A 
ATOM     73  C   UNL A   1      35.800  23.364  23.584  1.00  0.00     0.021 A 
ATOM     74  Cl  UNL A   1      33.579  23.054  22.142  1.00  0.00    -0.084 Cl
ATOM     75  C   UNL A   1      36.557  23.461  24.746  1.00  0.00     0.003 A 
ENDBRANCH  67  68
ENDBRANCH  66  67
ENDBRANCH  59  62
ENDBRANCH  57  58
ENDBRANCH   1  57
TORSDOF 12
ENDMDL
