MODEL 1
REMARK VINA RESULT:     -11.6      0.000      0.000
REMARK SMILES CCn1ccc([C@@H](C)NC(=O)[C@H](C)n2ccc(C(=O)NCCCNC(=O)c3ccc(-c4c5nc(c(-c6ccccc6)c6ccc([nH]6)c(-c6ccccc6)c6nc(c(-c7ccccc7)c7ccc4[nH]7)C=C6)C=C5)cc3)n2)n1
REMARK SMILES IDX 18 1 19 2 20 3 17 5 14 6 15 7 75 8 16 9 12 10 13 11 10 12
REMARK SMILES IDX 9 13 11 15 7 16 8 17 6 18 3 19 4 20 76 21 5 22 2 23 1 24
REMARK SMILES IDX 21 25 22 26 23 27 24 28 25 29 26 31 27 32 28 33 74 34 29 35
REMARK SMILES IDX 73 36 30 37 31 38 32 39 67 40 33 41 72 42 66 43 68 44 34 45
REMARK SMILES IDX 71 46 65 47 64 48 35 50 57 51 42 52 56 53 43 54 46 55 55 56
REMARK SMILES IDX 69 57 44 58 45 59 54 61 70 62 47 63 36 64 37 65 41 66 38 67
REMARK SMILES IDX 40 68 39 69 58 70 59 71 63 72 60 73 62 74 61 75 48 76 49 77
REMARK SMILES IDX 53 78 50 79 52 80 51 81
REMARK H PARENT 20 4 9 14 24 30 68 49 46 60
REMARK Flexibility Score: inf
ROOT
ATOM      1  C   UNL A   1      33.609  28.558  23.680  1.00  0.00     0.271 C 
ATOM      2  O   UNL A   1      34.499  28.974  22.934  1.00  0.00    -0.267 OA
ATOM      3  N   UNL A   1      33.291  29.327  24.782  1.00  0.00    -0.351 N 
ATOM      4  H   UNL A   1      33.866  30.114  24.918  1.00  0.00     0.163 HD
ENDROOT
BRANCH   1   5
ATOM      5  C   UNL A   1      32.887  27.305  23.392  1.00  0.00     0.150 A 
ATOM      6  N   UNL A   1      32.357  25.235  23.410  1.00  0.00    -0.260 N 
ATOM      7  C   UNL A   1      31.339  25.838  22.728  1.00  0.00     0.110 A 
ATOM      8  N   UNL A   1      33.331  26.091  23.749  1.00  0.00    -0.167 NA
ATOM      9  C   UNL A   1      31.654  27.178  22.694  1.00  0.00     0.056 A 
BRANCH   6  10
ATOM     10  C   UNL A   1      32.496  23.812  23.723  1.00  0.00     0.193 C 
ATOM     11  C   UNL A   1      31.223  23.061  23.338  1.00  0.00     0.044 C 
BRANCH  10  12
ATOM     12  C   UNL A   1      33.708  23.208  23.005  1.00  0.00     0.245 C 
ATOM     13  N   UNL A   1      34.633  22.467  23.681  1.00  0.00    -0.346 N 
ATOM     14  H   UNL A   1      35.444  22.254  23.167  1.00  0.00     0.164 HD
ATOM     15  O   UNL A   1      33.908  23.364  21.796  1.00  0.00    -0.273 OA
BRANCH  13  16
ATOM     16  C   UNL A   1      34.618  21.940  25.041  1.00  0.00     0.130 C 
ATOM     17  C   UNL A   1      36.020  21.968  25.643  1.00  0.00     0.038 C 
BRANCH  16  18
ATOM     18  C   UNL A   1      34.045  20.546  24.987  1.00  0.00     0.084 A 
ATOM     19  N   UNL A   1      34.001  18.435  24.760  1.00  0.00    -0.273 N 
ATOM     20  C   UNL A   1      32.712  18.772  25.050  1.00  0.00     0.109 A 
ATOM     21  N   UNL A   1      34.834  19.494  24.715  1.00  0.00    -0.176 NA
ATOM     22  C   UNL A   1      32.703  20.136  25.207  1.00  0.00     0.047 A 
BRANCH  19  23
ATOM     23  C   UNL A   1      34.502  17.106  24.467  1.00  0.00     0.141 C 
ATOM     24  C   UNL A   1      34.021  16.580  23.127  1.00  0.00     0.029 C 
ENDBRANCH  19  23
ENDBRANCH  16  18
ENDBRANCH  13  16
ENDBRANCH  10  12
ENDBRANCH   6  10
ENDBRANCH   1   5
BRANCH   3  25
ATOM     25  C   UNL A   1      32.237  29.156  25.776  1.00  0.00     0.118 C 
BRANCH  25  26
ATOM     26  C   UNL A   1      32.274  30.225  26.872  1.00  0.00     0.042 C 
BRANCH  26  27
ATOM     27  C   UNL A   1      33.662  30.832  27.027  1.00  0.00     0.118 C 
BRANCH  27  28
ATOM     28  N   UNL A   1      33.717  31.872  28.060  1.00  0.00    -0.352 N 
ATOM     29  C   UNL A   1      34.655  32.048  29.062  1.00  0.00     0.251 C 
ATOM     30  H   UNL A   1      32.988  32.534  28.038  1.00  0.00     0.163 HD
ATOM     31  O   UNL A   1      34.428  32.748  30.032  1.00  0.00    -0.269 OA
BRANCH  29  32
ATOM     32  C   UNL A   1      35.949  31.356  28.930  1.00  0.00     0.039 A 
ATOM     33  C   UNL A   1      37.154  32.060  28.989  1.00  0.00     0.014 A 
ATOM     34  C   UNL A   1      35.936  29.970  28.807  1.00  0.00     0.014 A 
ATOM     35  C   UNL A   1      38.347  31.341  29.031  1.00  0.00     0.010 A 
ATOM     36  C   UNL A   1      37.096  29.263  29.006  1.00  0.00     0.010 A 
ATOM     37  C   UNL A   1      38.310  29.937  29.076  1.00  0.00    -0.014 A 
BRANCH  37  38
ATOM     38  C   UNL A   1      39.529  29.169  29.308  1.00  0.00     0.031 A 
ATOM     39  C   UNL A   1      39.794  28.810  30.729  1.00  0.00     0.074 A 
ATOM     40  C   UNL A   1      40.279  28.638  28.318  1.00  0.00     0.049 A 
ATOM     41  N   UNL A   1      40.756  29.241  31.473  1.00  0.00    -0.248 NA
ATOM     42  C   UNL A   1      38.827  27.956  31.437  1.00  0.00     0.031 C 
ATOM     43  C   UNL A   1      40.020  28.621  26.873  1.00  0.00     0.029 A 
ATOM     44  N   UNL A   1      41.408  27.887  28.424  1.00  0.00    -0.354 N 
ATOM     45  C   UNL A   1      40.629  28.590  32.696  1.00  0.00     0.074 A 
ATOM     46  C   UNL A   1      39.352  27.920  32.666  1.00  0.00     0.031 C 
ATOM     47  C   UNL A   1      40.813  27.700  26.281  1.00  0.00     0.029 A 
ATOM     48  C   UNL A   1      41.760  27.210  27.264  1.00  0.00     0.049 A 
ATOM     49  H   UNL A   1      41.933  27.828  29.255  1.00  0.00     0.167 HD
ATOM     50  C   UNL A   1      41.680  28.484  33.556  1.00  0.00     0.031 A 
ATOM     51  C   UNL A   1      42.753  26.300  27.125  1.00  0.00     0.031 A 
ATOM     52  C   UNL A   1      42.760  29.363  33.191  1.00  0.00     0.049 A 
ATOM     53  C   UNL A   1      43.704  26.514  28.239  1.00  0.00     0.074 A 
ATOM     54  C   UNL A   1      42.900  30.730  33.057  1.00  0.00     0.029 A 
ATOM     55  N   UNL A   1      43.810  28.807  32.499  1.00  0.00    -0.354 N 
ATOM     56  N   UNL A   1      44.441  27.581  28.351  1.00  0.00    -0.248 NA
ATOM     57  C   UNL A   1      43.512  25.755  29.462  1.00  0.00     0.031 C 
ATOM     58  C   UNL A   1      43.713  30.900  31.897  1.00  0.00     0.029 A 
ATOM     59  C   UNL A   1      44.084  29.634  31.440  1.00  0.00     0.049 A 
ATOM     60  H   UNL A   1      44.280  27.972  32.724  1.00  0.00     0.167 HD
ATOM     61  C   UNL A   1      44.420  27.878  29.705  1.00  0.00     0.074 A 
ATOM     62  C   UNL A   1      43.931  26.661  30.351  1.00  0.00     0.031 C 
ATOM     63  C   UNL A   1      44.528  29.168  30.145  1.00  0.00     0.031 A 
BRANCH  50  64
ATOM     64  C   UNL A   1      41.899  27.320  34.487  1.00  0.00    -0.014 A 
ATOM     65  C   UNL A   1      41.606  27.481  35.854  1.00  0.00     0.009 A 
ATOM     66  C   UNL A   1      42.646  26.182  34.129  1.00  0.00     0.009 A 
ATOM     67  C   UNL A   1      42.101  26.592  36.817  1.00  0.00     0.001 A 
ATOM     68  C   UNL A   1      43.109  25.272  35.082  1.00  0.00     0.001 A 
ATOM     69  C   UNL A   1      42.860  25.493  36.430  1.00  0.00     0.000 A 
ENDBRANCH  50  64
BRANCH  51  70
ATOM     70  C   UNL A   1      42.819  25.117  26.246  1.00  0.00    -0.014 A 
ATOM     71  C   UNL A   1      43.850  24.980  25.302  1.00  0.00     0.009 A 
ATOM     72  C   UNL A   1      42.037  23.983  26.532  1.00  0.00     0.009 A 
ATOM     73  C   UNL A   1      44.119  23.743  24.704  1.00  0.00     0.001 A 
ATOM     74  C   UNL A   1      42.304  22.747  25.933  1.00  0.00     0.001 A 
ATOM     75  C   UNL A   1      43.357  22.624  25.033  1.00  0.00     0.000 A 
ENDBRANCH  51  70
BRANCH  63  76
ATOM     76  C   UNL A   1      44.895  30.232  29.136  1.00  0.00    -0.014 A 
ATOM     77  C   UNL A   1      46.215  30.669  28.920  1.00  0.00     0.009 A 
ATOM     78  C   UNL A   1      43.894  30.701  28.274  1.00  0.00     0.009 A 
ATOM     79  C   UNL A   1      46.514  31.571  27.893  1.00  0.00     0.001 A 
ATOM     80  C   UNL A   1      44.195  31.585  27.235  1.00  0.00     0.001 A 
ATOM     81  C   UNL A   1      45.503  32.025  27.049  1.00  0.00     0.000 A 
ENDBRANCH  63  76
ENDBRANCH  37  38
ENDBRANCH  29  32
ENDBRANCH  27  28
ENDBRANCH  26  27
ENDBRANCH  25  26
ENDBRANCH   3  25
TORSDOF 15
ENDMDL
MODEL 2
REMARK VINA RESULT:     -11.6      2.902      8.543
REMARK SMILES CCn1ccc([C@@H](C)NC(=O)[C@H](C)n2ccc(C(=O)NCCCNC(=O)c3ccc(-c4c5nc(c(-c6ccccc6)c6ccc([nH]6)c(-c6ccccc6)c6nc(c(-c7ccccc7)c7ccc4[nH]7)C=C6)C=C5)cc3)n2)n1
REMARK SMILES IDX 18 1 19 2 20 3 17 5 14 6 15 7 75 8 16 9 12 10 13 11 10 12
REMARK SMILES IDX 9 13 11 15 7 16 8 17 6 18 3 19 4 20 76 21 5 22 2 23 1 24
REMARK SMILES IDX 21 25 22 26 23 27 24 28 25 29 26 31 27 32 28 33 74 34 29 35
REMARK SMILES IDX 73 36 30 37 31 38 32 39 67 40 33 41 72 42 66 43 68 44 34 45
REMARK SMILES IDX 71 46 65 47 64 48 35 50 57 51 42 52 56 53 43 54 46 55 55 56
REMARK SMILES IDX 69 57 44 58 45 59 54 61 70 62 47 63 36 64 37 65 41 66 38 67
REMARK SMILES IDX 40 68 39 69 58 70 59 71 63 72 60 73 62 74 61 75 48 76 49 77
REMARK SMILES IDX 53 78 50 79 52 80 51 81
REMARK H PARENT 20 4 9 14 24 30 68 49 46 60
REMARK Flexibility Score: inf
ROOT
ATOM      1  C   UNL A   1      34.457  22.607  26.674  1.00  0.00     0.271 C 
ATOM      2  O   UNL A   1      33.836  22.365  27.712  1.00  0.00    -0.267 OA
ATOM      3  N   UNL A   1      35.580  21.847  26.411  1.00  0.00    -0.351 N 
ATOM      4  H   UNL A   1      35.832  21.220  27.127  1.00  0.00     0.163 HD
ENDROOT
BRANCH   1   5
ATOM      5  C   UNL A   1      34.003  23.644  25.730  1.00  0.00     0.150 A 
ATOM      6  N   UNL A   1      32.721  24.797  24.466  1.00  0.00    -0.260 N 
ATOM      7  C   UNL A   1      33.904  25.480  24.461  1.00  0.00     0.110 A 
ATOM      8  N   UNL A   1      32.788  23.653  25.161  1.00  0.00    -0.167 NA
ATOM      9  C   UNL A   1      34.757  24.758  25.266  1.00  0.00     0.056 A 
BRANCH   6  10
ATOM     10  C   UNL A   1      31.487  25.153  23.765  1.00  0.00     0.193 C 
ATOM     11  C   UNL A   1      30.669  23.899  23.467  1.00  0.00     0.044 C 
BRANCH  10  12
ATOM     12  C   UNL A   1      30.658  26.148  24.584  1.00  0.00     0.245 C 
ATOM     13  N   UNL A   1      30.411  27.409  24.125  1.00  0.00    -0.346 N 
ATOM     14  H   UNL A   1      30.002  28.014  24.785  1.00  0.00     0.164 HD
ATOM     15  O   UNL A   1      30.183  25.864  25.688  1.00  0.00    -0.273 OA
BRANCH  13  16
ATOM     16  C   UNL A   1      30.653  28.009  22.818  1.00  0.00     0.130 C 
ATOM     17  C   UNL A   1      31.958  28.800  22.824  1.00  0.00     0.038 C 
BRANCH  16  18
ATOM     18  C   UNL A   1      29.463  28.871  22.479  1.00  0.00     0.084 A 
ATOM     19  N   UNL A   1      28.311  30.338  21.466  1.00  0.00    -0.273 N 
ATOM     20  C   UNL A   1      27.463  29.829  22.404  1.00  0.00     0.109 A 
ATOM     21  N   UNL A   1      29.535  29.774  21.489  1.00  0.00    -0.176 NA
ATOM     22  C   UNL A   1      28.176  28.870  23.080  1.00  0.00     0.047 A 
BRANCH  19  23
ATOM     23  C   UNL A   1      28.025  31.411  20.533  1.00  0.00     0.141 C 
ATOM     24  C   UNL A   1      27.962  32.772  21.204  1.00  0.00     0.029 C 
ENDBRANCH  19  23
ENDBRANCH  16  18
ENDBRANCH  13  16
ENDBRANCH  10  12
ENDBRANCH   6  10
ENDBRANCH   1   5
BRANCH   3  25
ATOM     25  C   UNL A   1      36.449  21.826  25.240  1.00  0.00     0.118 C 
BRANCH  25  26
ATOM     26  C   UNL A   1      37.819  21.203  25.527  1.00  0.00     0.042 C 
BRANCH  26  27
ATOM     27  C   UNL A   1      38.777  22.203  26.161  1.00  0.00     0.118 C 
BRANCH  27  28
ATOM     28  N   UNL A   1      40.186  21.875  25.918  1.00  0.00    -0.352 N 
ATOM     29  C   UNL A   1      41.306  22.658  26.134  1.00  0.00     0.251 C 
ATOM     30  H   UNL A   1      40.358  20.977  25.552  1.00  0.00     0.163 HD
ATOM     31  O   UNL A   1      42.375  22.399  25.611  1.00  0.00    -0.269 OA
BRANCH  29  32
ATOM     32  C   UNL A   1      41.174  23.830  27.019  1.00  0.00     0.039 A 
ATOM     33  C   UNL A   1      42.180  24.166  27.926  1.00  0.00     0.014 A 
ATOM     34  C   UNL A   1      40.042  24.626  26.878  1.00  0.00     0.014 A 
ATOM     35  C   UNL A   1      42.084  25.374  28.614  1.00  0.00     0.010 A 
ATOM     36  C   UNL A   1      40.025  25.881  27.435  1.00  0.00     0.010 A 
ATOM     37  C   UNL A   1      41.018  26.247  28.336  1.00  0.00    -0.014 A 
BRANCH  37  38
ATOM     38  C   UNL A   1      40.994  27.593  28.902  1.00  0.00     0.031 A 
ATOM     39  C   UNL A   1      41.944  28.559  28.285  1.00  0.00     0.074 A 
ATOM     40  C   UNL A   1      40.061  28.019  29.780  1.00  0.00     0.049 A 
ATOM     41  N   UNL A   1      42.977  29.098  28.842  1.00  0.00    -0.248 NA
ATOM     42  C   UNL A   1      41.796  28.889  26.859  1.00  0.00     0.031 C 
ATOM     43  C   UNL A   1      38.870  27.316  30.273  1.00  0.00     0.029 A 
ATOM     44  N   UNL A   1      39.929  29.251  30.342  1.00  0.00    -0.354 N 
ATOM     45  C   UNL A   1      43.521  29.969  27.904  1.00  0.00     0.074 A 
ATOM     46  C   UNL A   1      42.840  29.699  26.661  1.00  0.00     0.031 C 
ATOM     47  C   UNL A   1      38.026  28.202  30.847  1.00  0.00     0.029 A 
ATOM     48  C   UNL A   1      38.696  29.485  30.933  1.00  0.00     0.049 A 
ATOM     49  H   UNL A   1      40.651  29.922  30.329  1.00  0.00     0.167 HD
ATOM     50  C   UNL A   1      44.343  30.989  28.276  1.00  0.00     0.031 A 
ATOM     51  C   UNL A   1      38.252  30.656  31.449  1.00  0.00     0.031 A 
ATOM     52  C   UNL A   1      44.798  30.840  29.634  1.00  0.00     0.049 A 
ATOM     53  C   UNL A   1      39.442  31.489  31.737  1.00  0.00     0.074 A 
ATOM     54  C   UNL A   1      45.530  29.890  30.317  1.00  0.00     0.029 A 
ATOM     55  N   UNL A   1      44.144  31.575  30.595  1.00  0.00    -0.354 N 
ATOM     56  N   UNL A   1      40.310  31.194  32.660  1.00  0.00    -0.248 NA
ATOM     57  C   UNL A   1      39.909  32.400  30.706  1.00  0.00     0.031 C 
ATOM     58  C   UNL A   1      44.891  29.784  31.589  1.00  0.00     0.029 A 
ATOM     59  C   UNL A   1      43.861  30.726  31.634  1.00  0.00     0.049 A 
ATOM     60  H   UNL A   1      43.921  32.532  30.546  1.00  0.00     0.167 HD
ATOM     61  C   UNL A   1      41.538  31.499  32.094  1.00  0.00     0.074 A 
ATOM     62  C   UNL A   1      41.224  32.340  30.941  1.00  0.00     0.031 C 
ATOM     63  C   UNL A   1      42.665  30.810  32.444  1.00  0.00     0.031 A 
BRANCH  50  64
ATOM     64  C   UNL A   1      44.427  32.313  27.563  1.00  0.00    -0.014 A 
ATOM     65  C   UNL A   1      43.775  33.427  28.126  1.00  0.00     0.009 A 
ATOM     66  C   UNL A   1      44.866  32.441  26.233  1.00  0.00     0.009 A 
ATOM     67  C   UNL A   1      43.511  34.577  27.370  1.00  0.00     0.001 A 
ATOM     68  C   UNL A   1      44.640  33.602  25.488  1.00  0.00     0.001 A 
ATOM     69  C   UNL A   1      43.937  34.659  26.049  1.00  0.00     0.000 A 
ENDBRANCH  50  64
BRANCH  51  70
ATOM     70  C   UNL A   1      36.881  31.198  31.490  1.00  0.00    -0.014 A 
ATOM     71  C   UNL A   1      36.334  31.677  32.692  1.00  0.00     0.009 A 
ATOM     72  C   UNL A   1      36.212  31.513  30.293  1.00  0.00     0.009 A 
ATOM     73  C   UNL A   1      35.188  32.482  32.690  1.00  0.00     0.001 A 
ATOM     74  C   UNL A   1      35.066  32.317  30.292  1.00  0.00     0.001 A 
ATOM     75  C   UNL A   1      34.566  32.817  31.490  1.00  0.00     0.000 A 
ENDBRANCH  51  70
BRANCH  63  76
ATOM     76  C   UNL A   1      42.582  29.865  33.620  1.00  0.00    -0.014 A 
ATOM     77  C   UNL A   1      42.886  30.246  34.940  1.00  0.00     0.009 A 
ATOM     78  C   UNL A   1      42.037  28.591  33.409  1.00  0.00     0.009 A 
ATOM     79  C   UNL A   1      42.679  29.366  36.009  1.00  0.00     0.001 A 
ATOM     80  C   UNL A   1      41.810  27.719  34.477  1.00  0.00     0.001 A 
ATOM     81  C   UNL A   1      42.137  28.104  35.776  1.00  0.00     0.000 A 
ENDBRANCH  63  76
ENDBRANCH  37  38
ENDBRANCH  29  32
ENDBRANCH  27  28
ENDBRANCH  26  27
ENDBRANCH  25  26
ENDBRANCH   3  25
TORSDOF 15
ENDMDL
MODEL 3
REMARK VINA RESULT:     -11.5      2.186      5.798
REMARK SMILES CCn1ccc([C@@H](C)NC(=O)[C@H](C)n2ccc(C(=O)NCCCNC(=O)c3ccc(-c4c5nc(c(-c6ccccc6)c6ccc([nH]6)c(-c6ccccc6)c6nc(c(-c7ccccc7)c7ccc4[nH]7)C=C6)C=C5)cc3)n2)n1
REMARK SMILES IDX 18 1 19 2 20 3 17 5 14 6 15 7 75 8 16 9 12 10 13 11 10 12
REMARK SMILES IDX 9 13 11 15 7 16 8 17 6 18 3 19 4 20 76 21 5 22 2 23 1 24
REMARK SMILES IDX 21 25 22 26 23 27 24 28 25 29 26 31 27 32 28 33 74 34 29 35
REMARK SMILES IDX 73 36 30 37 31 38 32 39 67 40 33 41 72 42 66 43 68 44 34 45
REMARK SMILES IDX 71 46 65 47 64 48 35 50 57 51 42 52 56 53 43 54 46 55 55 56
REMARK SMILES IDX 69 57 44 58 45 59 54 61 70 62 47 63 36 64 37 65 41 66 38 67
REMARK SMILES IDX 40 68 39 69 58 70 59 71 63 72 60 73 62 74 61 75 48 76 49 77
REMARK SMILES IDX 53 78 50 79 52 80 51 81
REMARK H PARENT 20 4 9 14 24 30 68 49 46 60
REMARK Flexibility Score: inf
ROOT
ATOM      1  C   UNL A   1      31.324  29.045  24.276  1.00  0.00     0.271 C 
ATOM      2  O   UNL A   1      30.423  29.748  23.813  1.00  0.00    -0.267 OA
ATOM      3  N   UNL A   1      32.390  29.688  24.873  1.00  0.00    -0.351 N 
ATOM      4  H   UNL A   1      32.373  30.670  24.805  1.00  0.00     0.163 HD
ENDROOT
BRANCH   1   5
ATOM      5  C   UNL A   1      31.253  27.573  24.227  1.00  0.00     0.150 A 
ATOM      6  N   UNL A   1      31.699  25.550  23.700  1.00  0.00    -0.260 N 
ATOM      7  C   UNL A   1      30.763  25.443  24.688  1.00  0.00     0.110 A 
ATOM      8  N   UNL A   1      31.948  26.823  23.359  1.00  0.00    -0.167 NA
ATOM      9  C   UNL A   1      30.449  26.735  25.049  1.00  0.00     0.056 A 
BRANCH   6  10
ATOM     10  C   UNL A   1      32.361  24.461  22.982  1.00  0.00     0.193 C 
ATOM     11  C   UNL A   1      32.738  24.910  21.571  1.00  0.00     0.044 C 
BRANCH  10  12
ATOM     12  C   UNL A   1      33.605  23.981  23.738  1.00  0.00     0.245 C 
ATOM     13  N   UNL A   1      33.526  22.989  24.672  1.00  0.00    -0.346 N 
ATOM     14  H   UNL A   1      34.343  22.860  25.204  1.00  0.00     0.164 HD
ATOM     15  O   UNL A   1      34.725  24.464  23.546  1.00  0.00    -0.273 OA
BRANCH  13  16
ATOM     16  C   UNL A   1      32.429  22.090  25.013  1.00  0.00     0.130 C 
ATOM     17  C   UNL A   1      31.892  22.403  26.406  1.00  0.00     0.038 C 
BRANCH  16  18
ATOM     18  C   UNL A   1      32.941  20.676  24.900  1.00  0.00     0.084 A 
ATOM     19  N   UNL A   1      32.899  18.553  24.907  1.00  0.00    -0.273 N 
ATOM     20  C   UNL A   1      34.190  18.866  24.602  1.00  0.00     0.109 A 
ATOM     21  N   UNL A   1      32.116  19.635  25.094  1.00  0.00    -0.176 NA
ATOM     22  C   UNL A   1      34.254  20.238  24.585  1.00  0.00     0.047 A 
BRANCH  19  23
ATOM     23  C   UNL A   1      32.349  17.222  25.082  1.00  0.00     0.141 C 
ATOM     24  C   UNL A   1      33.347  16.250  25.686  1.00  0.00     0.029 C 
ENDBRANCH  19  23
ENDBRANCH  16  18
ENDBRANCH  13  16
ENDBRANCH  10  12
ENDBRANCH   6  10
ENDBRANCH   1   5
BRANCH   3  25
ATOM     25  C   UNL A   1      33.539  29.141  25.587  1.00  0.00     0.118 C 
BRANCH  25  26
ATOM     26  C   UNL A   1      33.771  29.813  26.943  1.00  0.00     0.042 C 
BRANCH  26  27
ATOM     27  C   UNL A   1      35.124  29.443  27.537  1.00  0.00     0.118 C 
BRANCH  27  28
ATOM     28  N   UNL A   1      35.343  30.028  28.864  1.00  0.00    -0.352 N 
ATOM     29  C   UNL A   1      36.385  29.805  29.747  1.00  0.00     0.251 C 
ATOM     30  H   UNL A   1      34.656  30.666  29.168  1.00  0.00     0.163 HD
ATOM     31  O   UNL A   1      36.297  30.103  30.924  1.00  0.00    -0.269 OA
BRANCH  29  32
ATOM     32  C   UNL A   1      37.616  29.187  29.225  1.00  0.00     0.039 A 
ATOM     33  C   UNL A   1      38.226  29.661  28.062  1.00  0.00     0.014 A 
ATOM     34  C   UNL A   1      38.188  28.154  29.962  1.00  0.00     0.014 A 
ATOM     35  C   UNL A   1      39.475  29.156  27.707  1.00  0.00     0.010 A 
ATOM     36  C   UNL A   1      39.481  27.773  29.700  1.00  0.00     0.010 A 
ATOM     37  C   UNL A   1      40.116  28.235  28.553  1.00  0.00    -0.014 A 
BRANCH  37  38
ATOM     38  C   UNL A   1      41.497  27.834  28.304  1.00  0.00     0.031 A 
ATOM     39  C   UNL A   1      41.664  26.538  27.589  1.00  0.00     0.074 A 
ATOM     40  C   UNL A   1      42.560  28.640  28.513  1.00  0.00     0.049 A 
ATOM     41  N   UNL A   1      42.167  25.448  28.063  1.00  0.00    -0.248 NA
ATOM     42  C   UNL A   1      41.119  26.402  26.229  1.00  0.00     0.031 C 
ATOM     43  C   UNL A   1      42.583  30.050  28.922  1.00  0.00     0.029 A 
ATOM     44  N   UNL A   1      43.877  28.377  28.288  1.00  0.00    -0.354 N 
ATOM     45  C   UNL A   1      42.166  24.528  27.019  1.00  0.00     0.074 A 
ATOM     46  C   UNL A   1      41.387  25.121  25.960  1.00  0.00     0.031 C 
ATOM     47  C   UNL A   1      43.804  30.574  28.674  1.00  0.00     0.029 A 
ATOM     48  C   UNL A   1      44.693  29.500  28.278  1.00  0.00     0.049 A 
ATOM     49  H   UNL A   1      44.221  27.466  28.144  1.00  0.00     0.167 HD
ATOM     50  C   UNL A   1      42.983  23.438  27.033  1.00  0.00     0.031 A 
ATOM     51  C   UNL A   1      46.008  29.544  27.955  1.00  0.00     0.031 A 
ATOM     52  C   UNL A   1      43.557  23.218  28.335  1.00  0.00     0.049 A 
ATOM     53  C   UNL A   1      46.544  28.173  28.106  1.00  0.00     0.074 A 
ATOM     54  C   UNL A   1      43.049  22.956  29.592  1.00  0.00     0.029 A 
ATOM     55  N   UNL A   1      44.843  23.663  28.533  1.00  0.00    -0.354 N 
ATOM     56  N   UNL A   1      46.654  27.575  29.257  1.00  0.00    -0.248 NA
ATOM     57  C   UNL A   1      46.538  27.300  26.945  1.00  0.00     0.031 C 
ATOM     58  C   UNL A   1      43.861  23.724  30.479  1.00  0.00     0.029 A 
ATOM     59  C   UNL A   1      44.859  24.343  29.724  1.00  0.00     0.049 A 
ATOM     60  H   UNL A   1      45.609  23.518  27.933  1.00  0.00     0.167 HD
ATOM     61  C   UNL A   1      46.272  26.266  29.007  1.00  0.00     0.074 A 
ATOM     62  C   UNL A   1      46.322  26.129  27.552  1.00  0.00     0.031 C 
ATOM     63  C   UNL A   1      45.678  25.508  29.977  1.00  0.00     0.031 A 
BRANCH  50  64
ATOM     64  C   UNL A   1      43.574  22.806  25.800  1.00  0.00    -0.014 A 
ATOM     65  C   UNL A   1      43.653  21.403  25.730  1.00  0.00     0.009 A 
ATOM     66  C   UNL A   1      44.311  23.531  24.845  1.00  0.00     0.009 A 
ATOM     67  C   UNL A   1      44.487  20.764  24.802  1.00  0.00     0.001 A 
ATOM     68  C   UNL A   1      45.113  22.897  23.893  1.00  0.00     0.001 A 
ATOM     69  C   UNL A   1      45.223  21.513  23.891  1.00  0.00     0.000 A 
ENDBRANCH  50  64
BRANCH  51  70
ATOM     70  C   UNL A   1      46.773  30.624  27.302  1.00  0.00    -0.014 A 
ATOM     71  C   UNL A   1      46.116  31.739  26.755  1.00  0.00     0.009 A 
ATOM     72  C   UNL A   1      48.167  30.701  27.471  1.00  0.00     0.009 A 
ATOM     73  C   UNL A   1      46.824  32.905  26.436  1.00  0.00     0.001 A 
ATOM     74  C   UNL A   1      48.874  31.865  27.151  1.00  0.00     0.001 A 
ATOM     75  C   UNL A   1      48.198  32.974  26.651  1.00  0.00     0.000 A 
ENDBRANCH  51  70
BRANCH  63  76
ATOM     76  C   UNL A   1      45.654  26.054  31.386  1.00  0.00    -0.014 A 
ATOM     77  C   UNL A   1      44.636  26.896  31.871  1.00  0.00     0.009 A 
ATOM     78  C   UNL A   1      46.611  25.582  32.296  1.00  0.00     0.009 A 
ATOM     79  C   UNL A   1      44.599  27.278  33.217  1.00  0.00     0.001 A 
ATOM     80  C   UNL A   1      46.562  25.945  33.645  1.00  0.00     0.001 A 
ATOM     81  C   UNL A   1      45.560  26.798  34.103  1.00  0.00     0.000 A 
ENDBRANCH  63  76
ENDBRANCH  37  38
ENDBRANCH  29  32
ENDBRANCH  27  28
ENDBRANCH  26  27
ENDBRANCH  25  26
ENDBRANCH   3  25
TORSDOF 15
ENDMDL
