MODEL 1
REMARK VINA RESULT:     -11.8      0.000      0.000
REMARK SMILES Cc1nn(C)c(C)c1CNC(=O)N[C@H]1CC[C@@H](C(=O)NCCCNC(=O)c2ccc(-c3c4nc(c(-c5ccccc5)c5ccc([nH]5)c(-c5ccccc5)c5nc(c(-c6ccccc6)c6ccc3[nH]6)C=C5)C=C4)cc2)C1
REMARK SMILES IDX 21 1 20 2 18 3 19 4 17 6 14 7 15 8 75 9 16 10 13 11 10 12
REMARK SMILES IDX 11 13 12 15 9 17 8 18 1 19 2 20 3 21 4 22 6 23 5 24 7 25
REMARK SMILES IDX 22 26 23 27 24 28 25 29 26 31 27 32 28 33 74 34 29 35 73 36
REMARK SMILES IDX 30 37 31 38 32 39 67 40 33 41 72 42 66 43 68 44 34 45 71 46
REMARK SMILES IDX 65 47 64 48 35 50 57 51 42 52 56 53 43 54 46 55 55 56 69 57
REMARK SMILES IDX 44 58 45 59 54 61 70 62 47 63 36 64 37 65 41 66 38 67 40 68
REMARK SMILES IDX 39 69 58 70 59 71 63 72 60 73 62 74 61 75 48 76 49 77 53 78
REMARK SMILES IDX 50 79 52 80 51 81
REMARK H PARENT 20 5 10 14 13 16 24 30 68 49 46 60
REMARK Flexibility Score: inf
ROOT
ATOM      1  C   UNL A   1      36.751  20.694  24.952  1.00  0.00     0.117 C 
ENDROOT
BRANCH   1   2
ATOM      2  N   UNL A   1      36.898  21.687  23.916  1.00  0.00    -0.356 N 
ATOM      3  C   UNL A   1      36.103  22.725  23.560  1.00  0.00     0.223 C 
ATOM      4  O   UNL A   1      36.579  23.524  22.744  1.00  0.00    -0.275 OA
ATOM      5  H   UNL A   1      37.716  21.595  23.374  1.00  0.00     0.163 HD
BRANCH   3   6
ATOM      6  C   UNL A   1      34.717  22.998  24.146  1.00  0.00     0.080 C 
ATOM      7  C   UNL A   1      32.722  24.340  23.557  1.00  0.00     0.084 C 
ATOM      8  C   UNL A   1      32.332  22.887  23.830  1.00  0.00     0.026 C 
ATOM      9  C   UNL A   1      34.143  24.425  24.156  1.00  0.00     0.038 C 
ATOM     10  C   UNL A   1      33.621  22.115  23.549  1.00  0.00     0.015 C 
BRANCH   7  11
ATOM     11  N   UNL A   1      32.668  24.574  22.112  1.00  0.00    -0.335 N 
ATOM     12  N   UNL A   1      31.861  26.752  21.767  1.00  0.00    -0.334 N 
ATOM     13  C   UNL A   1      32.545  25.680  21.366  1.00  0.00     0.315 C 
ATOM     14  H   UNL A   1      32.182  27.615  21.417  1.00  0.00     0.165 HD
ATOM     15  O   UNL A   1      33.104  25.700  20.269  1.00  0.00    -0.249 OA
ATOM     16  H   UNL A   1      32.736  23.749  21.580  1.00  0.00     0.165 HD
BRANCH  12  17
ATOM     17  C   UNL A   1      30.722  26.825  22.639  1.00  0.00     0.157 C 
BRANCH  17  18
ATOM     18  C   UNL A   1      30.845  27.960  23.597  1.00  0.00     0.015 A 
ATOM     19  C   UNL A   1      29.666  29.794  22.143  1.00  0.00     0.069 C 
ATOM     20  C   UNL A   1      30.388  29.285  23.336  1.00  0.00     0.065 A 
ATOM     21  N   UNL A   1      30.688  30.121  24.330  1.00  0.00    -0.178 NA
ATOM     22  N   UNL A   1      31.328  29.357  25.228  1.00  0.00    -0.272 N 
ATOM     23  C   UNL A   1      31.369  28.029  24.885  1.00  0.00     0.040 A 
ATOM     24  C   UNL A   1      31.902  30.005  26.384  1.00  0.00     0.174 C 
ATOM     25  C   UNL A   1      31.923  26.988  25.789  1.00  0.00     0.067 C 
ENDBRANCH  17  18
ENDBRANCH  12  17
ENDBRANCH   7  11
ENDBRANCH   3   6
ENDBRANCH   1   2
BRANCH   1  26
ATOM     26  C   UNL A   1      37.908  19.704  24.998  1.00  0.00     0.042 C 
BRANCH  26  27
ATOM     27  C   UNL A   1      39.083  20.215  25.816  1.00  0.00     0.118 C 
BRANCH  27  28
ATOM     28  N   UNL A   1      40.243  19.331  25.762  1.00  0.00    -0.352 N 
ATOM     29  C   UNL A   1      41.558  19.552  26.091  1.00  0.00     0.251 C 
ATOM     30  H   UNL A   1      40.050  18.424  25.433  1.00  0.00     0.163 HD
ATOM     31  O   UNL A   1      42.392  18.667  25.918  1.00  0.00    -0.269 OA
BRANCH  29  32
ATOM     32  C   UNL A   1      41.992  20.868  26.602  1.00  0.00     0.039 A 
ATOM     33  C   UNL A   1      42.394  21.841  25.682  1.00  0.00     0.014 A 
ATOM     34  C   UNL A   1      41.983  21.158  27.965  1.00  0.00     0.014 A 
ATOM     35  C   UNL A   1      42.709  23.126  26.126  1.00  0.00     0.010 A 
ATOM     36  C   UNL A   1      42.179  22.464  28.391  1.00  0.00     0.010 A 
ATOM     37  C   UNL A   1      42.557  23.461  27.479  1.00  0.00    -0.014 A 
BRANCH  37  38
ATOM     38  C   UNL A   1      42.813  24.833  27.981  1.00  0.00     0.031 A 
ATOM     39  C   UNL A   1      44.209  25.228  28.384  1.00  0.00     0.074 A 
ATOM     40  C   UNL A   1      41.787  25.690  28.154  1.00  0.00     0.049 A 
ATOM     41  N   UNL A   1      44.624  26.325  28.964  1.00  0.00    -0.248 NA
ATOM     42  C   UNL A   1      45.274  24.238  28.144  1.00  0.00     0.031 C 
ATOM     43  C   UNL A   1      40.382  25.413  27.845  1.00  0.00     0.029 A 
ATOM     44  N   UNL A   1      41.771  26.972  28.645  1.00  0.00    -0.354 N 
ATOM     45  C   UNL A   1      45.982  26.138  29.192  1.00  0.00     0.074 A 
ATOM     46  C   UNL A   1      46.309  24.803  28.743  1.00  0.00     0.031 C 
ATOM     47  C   UNL A   1      39.647  26.503  28.119  1.00  0.00     0.029 A 
ATOM     48  C   UNL A   1      40.518  27.537  28.667  1.00  0.00     0.049 A 
ATOM     49  H   UNL A   1      42.579  27.442  28.951  1.00  0.00     0.167 HD
ATOM     50  C   UNL A   1      46.883  27.008  29.704  1.00  0.00     0.031 A 
ATOM     51  C   UNL A   1      40.118  28.751  29.086  1.00  0.00     0.031 A 
ATOM     52  C   UNL A   1      46.562  28.350  30.106  1.00  0.00     0.049 A 
ATOM     53  C   UNL A   1      41.142  29.710  29.629  1.00  0.00     0.074 A 
ATOM     54  C   UNL A   1      47.412  29.337  30.571  1.00  0.00     0.029 A 
ATOM     55  N   UNL A   1      45.288  28.894  30.079  1.00  0.00    -0.354 N 
ATOM     56  N   UNL A   1      42.432  29.538  29.785  1.00  0.00    -0.248 NA
ATOM     57  C   UNL A   1      40.655  31.033  30.042  1.00  0.00     0.031 C 
ATOM     58  C   UNL A   1      46.644  30.468  30.864  1.00  0.00     0.029 A 
ATOM     59  C   UNL A   1      45.325  30.200  30.533  1.00  0.00     0.049 A 
ATOM     60  H   UNL A   1      44.478  28.421  29.781  1.00  0.00     0.167 HD
ATOM     61  C   UNL A   1      42.917  30.740  30.285  1.00  0.00     0.074 A 
ATOM     62  C   UNL A   1      41.782  31.636  30.392  1.00  0.00     0.031 C 
ATOM     63  C   UNL A   1      44.186  31.074  30.623  1.00  0.00     0.031 A 
BRANCH  50  64
ATOM     64  C   UNL A   1      48.301  26.529  29.850  1.00  0.00    -0.014 A 
ATOM     65  C   UNL A   1      49.251  26.744  28.839  1.00  0.00     0.009 A 
ATOM     66  C   UNL A   1      48.699  25.871  31.024  1.00  0.00     0.009 A 
ATOM     67  C   UNL A   1      50.558  26.272  28.981  1.00  0.00     0.001 A 
ATOM     68  C   UNL A   1      50.014  25.429  31.179  1.00  0.00     0.001 A 
ATOM     69  C   UNL A   1      50.939  25.619  30.153  1.00  0.00     0.000 A 
ENDBRANCH  50  64
BRANCH  51  70
ATOM     70  C   UNL A   1      38.688  29.143  28.985  1.00  0.00    -0.014 A 
ATOM     71  C   UNL A   1      37.834  29.005  30.090  1.00  0.00     0.009 A 
ATOM     72  C   UNL A   1      38.166  29.653  27.786  1.00  0.00     0.009 A 
ATOM     73  C   UNL A   1      36.482  29.341  29.989  1.00  0.00     0.001 A 
ATOM     74  C   UNL A   1      36.820  30.015  27.695  1.00  0.00     0.001 A 
ATOM     75  C   UNL A   1      35.977  29.850  28.793  1.00  0.00     0.000 A 
ENDBRANCH  51  70
BRANCH  63  76
ATOM     76  C   UNL A   1      44.422  32.478  31.098  1.00  0.00    -0.014 A 
ATOM     77  C   UNL A   1      44.698  33.518  30.197  1.00  0.00     0.009 A 
ATOM     78  C   UNL A   1      44.313  32.771  32.468  1.00  0.00     0.009 A 
ATOM     79  C   UNL A   1      44.890  34.819  30.663  1.00  0.00     0.001 A 
ATOM     80  C   UNL A   1      44.478  34.078  32.926  1.00  0.00     0.001 A 
ATOM     81  C   UNL A   1      44.774  35.099  32.025  1.00  0.00     0.000 A 
ENDBRANCH  63  76
ENDBRANCH  37  38
ENDBRANCH  29  32
ENDBRANCH  27  28
ENDBRANCH  26  27
ENDBRANCH   1  26
TORSDOF 13
ENDMDL
MODEL 2
REMARK VINA RESULT:     -11.8      4.267      9.509
REMARK SMILES Cc1nn(C)c(C)c1CNC(=O)N[C@H]1CC[C@@H](C(=O)NCCCNC(=O)c2ccc(-c3c4nc(c(-c5ccccc5)c5ccc([nH]5)c(-c5ccccc5)c5nc(c(-c6ccccc6)c6ccc3[nH]6)C=C5)C=C4)cc2)C1
REMARK SMILES IDX 21 1 20 2 18 3 19 4 17 6 14 7 15 8 75 9 16 10 13 11 10 12
REMARK SMILES IDX 11 13 12 15 9 17 8 18 1 19 2 20 3 21 4 22 6 23 5 24 7 25
REMARK SMILES IDX 22 26 23 27 24 28 25 29 26 31 27 32 28 33 74 34 29 35 73 36
REMARK SMILES IDX 30 37 31 38 32 39 67 40 33 41 72 42 66 43 68 44 34 45 71 46
REMARK SMILES IDX 65 47 64 48 35 50 57 51 42 52 56 53 43 54 46 55 55 56 69 57
REMARK SMILES IDX 44 58 45 59 54 61 70 62 47 63 36 64 37 65 41 66 38 67 40 68
REMARK SMILES IDX 39 69 58 70 59 71 63 72 60 73 62 74 61 75 48 76 49 77 53 78
REMARK SMILES IDX 50 79 52 80 51 81
REMARK H PARENT 20 5 10 14 13 16 24 30 68 49 46 60
REMARK Flexibility Score: inf
ROOT
ATOM      1  C   UNL A   1      31.835  30.516  26.098  1.00  0.00     0.117 C 
ENDROOT
BRANCH   1   2
ATOM      2  N   UNL A   1      31.556  29.503  27.087  1.00  0.00    -0.356 N 
ATOM      3  C   UNL A   1      31.570  28.151  27.002  1.00  0.00     0.223 C 
ATOM      4  O   UNL A   1      31.465  27.535  28.069  1.00  0.00    -0.275 OA
ATOM      5  H   UNL A   1      31.313  29.854  27.975  1.00  0.00     0.163 HD
BRANCH   3   6
ATOM      6  C   UNL A   1      31.773  27.364  25.706  1.00  0.00     0.080 C 
ATOM      7  C   UNL A   1      31.555  25.018  24.946  1.00  0.00     0.084 C 
ATOM      8  C   UNL A   1      30.784  25.958  24.019  1.00  0.00     0.026 C 
ATOM      9  C   UNL A   1      32.463  25.990  25.730  1.00  0.00     0.038 C 
ATOM     10  C   UNL A   1      30.484  27.166  24.907  1.00  0.00     0.015 C 
BRANCH   7  11
ATOM     11  N   UNL A   1      30.593  24.294  25.781  1.00  0.00    -0.335 N 
ATOM     12  N   UNL A   1      31.413  22.116  26.097  1.00  0.00    -0.334 N 
ATOM     13  C   UNL A   1      30.659  23.150  26.475  1.00  0.00     0.315 C 
ATOM     14  H   UNL A   1      31.755  21.551  26.828  1.00  0.00     0.165 HD
ATOM     15  O   UNL A   1      30.002  23.066  27.513  1.00  0.00    -0.249 OA
ATOM     16  H   UNL A   1      29.718  24.740  25.846  1.00  0.00     0.165 HD
BRANCH  12  17
ATOM     17  C   UNL A   1      31.797  21.712  24.773  1.00  0.00     0.157 C 
BRANCH  17  18
ATOM     18  C   UNL A   1      33.189  21.183  24.751  1.00  0.00     0.015 A 
ATOM     19  C   UNL A   1      32.609  18.627  24.775  1.00  0.00     0.069 C 
ATOM     20  C   UNL A   1      33.523  19.797  24.780  1.00  0.00     0.065 A 
ATOM     21  N   UNL A   1      34.842  19.603  24.826  1.00  0.00    -0.178 NA
ATOM     22  N   UNL A   1      35.363  20.839  24.822  1.00  0.00    -0.272 N 
ATOM     23  C   UNL A   1      34.421  21.828  24.683  1.00  0.00     0.040 A 
ATOM     24  C   UNL A   1      36.790  20.974  24.993  1.00  0.00     0.174 C 
ATOM     25  C   UNL A   1      34.786  23.261  24.536  1.00  0.00     0.067 C 
ENDBRANCH  17  18
ENDBRANCH  12  17
ENDBRANCH   7  11
ENDBRANCH   3   6
ENDBRANCH   1   2
BRANCH   1  26
ATOM     26  C   UNL A   1      31.479  31.921  26.567  1.00  0.00     0.042 C 
BRANCH  26  27
ATOM     27  C   UNL A   1      32.641  32.619  27.257  1.00  0.00     0.118 C 
BRANCH  27  28
ATOM     28  N   UNL A   1      32.338  33.996  27.631  1.00  0.00    -0.352 N 
ATOM     29  C   UNL A   1      32.980  34.858  28.486  1.00  0.00     0.251 C 
ATOM     30  H   UNL A   1      31.537  34.371  27.198  1.00  0.00     0.163 HD
ATOM     31  O   UNL A   1      32.516  35.976  28.695  1.00  0.00    -0.269 OA
BRANCH  29  32
ATOM     32  C   UNL A   1      34.198  34.432  29.203  1.00  0.00     0.039 A 
ATOM     33  C   UNL A   1      34.057  33.823  30.454  1.00  0.00     0.014 A 
ATOM     34  C   UNL A   1      35.466  34.604  28.650  1.00  0.00     0.014 A 
ATOM     35  C   UNL A   1      35.181  33.316  31.109  1.00  0.00     0.010 A 
ATOM     36  C   UNL A   1      36.562  33.994  29.242  1.00  0.00     0.010 A 
ATOM     37  C   UNL A   1      36.436  33.354  30.485  1.00  0.00    -0.014 A 
BRANCH  37  38
ATOM     38  C   UNL A   1      37.642  32.764  31.115  1.00  0.00     0.031 A 
ATOM     39  C   UNL A   1      38.294  31.559  30.488  1.00  0.00     0.074 A 
ATOM     40  C   UNL A   1      38.100  33.252  32.284  1.00  0.00     0.049 A 
ATOM     41  N   UNL A   1      39.270  30.816  30.943  1.00  0.00    -0.248 NA
ATOM     42  C   UNL A   1      37.742  31.101  29.201  1.00  0.00     0.031 C 
ATOM     43  C   UNL A   1      37.531  34.387  33.016  1.00  0.00     0.029 A 
ATOM     44  N   UNL A   1      39.149  32.846  33.070  1.00  0.00    -0.354 N 
ATOM     45  C   UNL A   1      39.419  29.788  30.020  1.00  0.00     0.074 A 
ATOM     46  C   UNL A   1      38.397  29.967  29.014  1.00  0.00     0.031 C 
ATOM     47  C   UNL A   1      38.258  34.607  34.124  1.00  0.00     0.029 A 
ATOM     48  C   UNL A   1      39.313  33.603  34.205  1.00  0.00     0.049 A 
ATOM     49  H   UNL A   1      39.729  32.084  32.842  1.00  0.00     0.167 HD
ATOM     50  C   UNL A   1      40.341  28.797  29.997  1.00  0.00     0.031 A 
ATOM     51  C   UNL A   1      40.212  33.496  35.202  1.00  0.00     0.031 A 
ATOM     52  C   UNL A   1      41.383  28.649  30.975  1.00  0.00     0.049 A 
ATOM     53  C   UNL A   1      41.241  32.401  35.141  1.00  0.00     0.074 A 
ATOM     54  C   UNL A   1      42.411  27.724  31.006  1.00  0.00     0.029 A 
ATOM     55  N   UNL A   1      41.534  29.459  32.089  1.00  0.00    -0.354 N 
ATOM     56  N   UNL A   1      41.404  31.471  34.232  1.00  0.00    -0.248 NA
ATOM     57  C   UNL A   1      42.217  32.350  36.238  1.00  0.00     0.031 C 
ATOM     58  C   UNL A   1      43.161  27.949  32.164  1.00  0.00     0.029 A 
ATOM     59  C   UNL A   1      42.631  29.046  32.824  1.00  0.00     0.049 A 
ATOM     60  H   UNL A   1      40.949  30.215  32.322  1.00  0.00     0.167 HD
ATOM     61  C   UNL A   1      42.518  30.743  34.630  1.00  0.00     0.074 A 
ATOM     62  C   UNL A   1      42.998  31.350  35.855  1.00  0.00     0.031 C 
ATOM     63  C   UNL A   1      43.094  29.671  34.035  1.00  0.00     0.031 A 
BRANCH  50  64
ATOM     64  C   UNL A   1      40.259  27.802  28.872  1.00  0.00    -0.014 A 
ATOM     65  C   UNL A   1      40.911  28.028  27.649  1.00  0.00     0.009 A 
ATOM     66  C   UNL A   1      39.534  26.612  29.043  1.00  0.00     0.009 A 
ATOM     67  C   UNL A   1      40.805  27.105  26.607  1.00  0.00     0.001 A 
ATOM     68  C   UNL A   1      39.457  25.675  28.012  1.00  0.00     0.001 A 
ATOM     69  C   UNL A   1      40.082  25.927  26.791  1.00  0.00     0.000 A 
ENDBRANCH  50  64
BRANCH  51  70
ATOM     70  C   UNL A   1      40.198  34.466  36.328  1.00  0.00    -0.014 A 
ATOM     71  C   UNL A   1      39.441  34.205  37.480  1.00  0.00     0.009 A 
ATOM     72  C   UNL A   1      40.937  35.657  36.258  1.00  0.00     0.009 A 
ATOM     73  C   UNL A   1      39.399  35.129  38.527  1.00  0.00     0.001 A 
ATOM     74  C   UNL A   1      40.917  36.567  37.318  1.00  0.00     0.001 A 
ATOM     75  C   UNL A   1      40.140  36.307  38.446  1.00  0.00     0.000 A 
ENDBRANCH  51  70
BRANCH  63  76
ATOM     76  C   UNL A   1      44.331  29.112  34.676  1.00  0.00    -0.014 A 
ATOM     77  C   UNL A   1      45.607  29.590  34.339  1.00  0.00     0.009 A 
ATOM     78  C   UNL A   1      44.210  28.130  35.672  1.00  0.00     0.009 A 
ATOM     79  C   UNL A   1      46.740  29.071  34.968  1.00  0.00     0.001 A 
ATOM     80  C   UNL A   1      45.342  27.634  36.318  1.00  0.00     0.001 A 
ATOM     81  C   UNL A   1      46.607  28.098  35.960  1.00  0.00     0.000 A 
ENDBRANCH  63  76
ENDBRANCH  37  38
ENDBRANCH  29  32
ENDBRANCH  27  28
ENDBRANCH  26  27
ENDBRANCH   1  26
TORSDOF 13
ENDMDL
MODEL 3
REMARK VINA RESULT:     -11.7      3.486      9.001
REMARK SMILES Cc1nn(C)c(C)c1CNC(=O)N[C@H]1CC[C@@H](C(=O)NCCCNC(=O)c2ccc(-c3c4nc(c(-c5ccccc5)c5ccc([nH]5)c(-c5ccccc5)c5nc(c(-c6ccccc6)c6ccc3[nH]6)C=C5)C=C4)cc2)C1
REMARK SMILES IDX 21 1 20 2 18 3 19 4 17 6 14 7 15 8 75 9 16 10 13 11 10 12
REMARK SMILES IDX 11 13 12 15 9 17 8 18 1 19 2 20 3 21 4 22 6 23 5 24 7 25
REMARK SMILES IDX 22 26 23 27 24 28 25 29 26 31 27 32 28 33 74 34 29 35 73 36
REMARK SMILES IDX 30 37 31 38 32 39 67 40 33 41 72 42 66 43 68 44 34 45 71 46
REMARK SMILES IDX 65 47 64 48 35 50 57 51 42 52 56 53 43 54 46 55 55 56 69 57
REMARK SMILES IDX 44 58 45 59 54 61 70 62 47 63 36 64 37 65 41 66 38 67 40 68
REMARK SMILES IDX 39 69 58 70 59 71 63 72 60 73 62 74 61 75 48 76 49 77 53 78
REMARK SMILES IDX 50 79 52 80 51 81
REMARK H PARENT 20 5 10 14 13 16 24 30 68 49 46 60
REMARK Flexibility Score: inf
ROOT
ATOM      1  C   UNL A   1      31.770  30.440  26.048  1.00  0.00     0.117 C 
ENDROOT
BRANCH   1   2
ATOM      2  N   UNL A   1      31.550  29.440  27.065  1.00  0.00    -0.356 N 
ATOM      3  C   UNL A   1      31.607  28.087  27.008  1.00  0.00     0.223 C 
ATOM      4  O   UNL A   1      31.550  27.492  28.091  1.00  0.00    -0.275 OA
ATOM      5  H   UNL A   1      31.319  29.802  27.952  1.00  0.00     0.163 HD
BRANCH   3   6
ATOM      6  C   UNL A   1      31.802  27.279  25.725  1.00  0.00     0.080 C 
ATOM      7  C   UNL A   1      31.434  24.953  24.962  1.00  0.00     0.084 C 
ATOM      8  C   UNL A   1      30.778  25.945  24.001  1.00  0.00     0.026 C 
ATOM      9  C   UNL A   1      32.382  25.856  25.782  1.00  0.00     0.038 C 
ATOM     10  C   UNL A   1      30.537  27.178  24.872  1.00  0.00     0.015 C 
BRANCH   7  11
ATOM     11  N   UNL A   1      30.384  24.311  25.758  1.00  0.00    -0.335 N 
ATOM     12  N   UNL A   1      31.160  22.187  26.390  1.00  0.00    -0.334 N 
ATOM     13  C   UNL A   1      30.371  23.247  26.571  1.00  0.00     0.315 C 
ATOM     14  H   UNL A   1      31.417  21.705  27.210  1.00  0.00     0.165 HD
ATOM     15  O   UNL A   1      29.602  23.266  27.533  1.00  0.00    -0.249 OA
ATOM     16  H   UNL A   1      29.508  24.754  25.678  1.00  0.00     0.165 HD
BRANCH  12  17
ATOM     17  C   UNL A   1      31.687  21.650  25.166  1.00  0.00     0.157 C 
BRANCH  17  18
ATOM     18  C   UNL A   1      33.133  21.972  25.012  1.00  0.00     0.015 A 
ATOM     19  C   UNL A   1      33.084  22.680  22.490  1.00  0.00     0.069 C 
ATOM     20  C   UNL A   1      33.736  22.404  23.795  1.00  0.00     0.065 A 
ATOM     21  N   UNL A   1      35.056  22.550  23.915  1.00  0.00    -0.178 NA
ATOM     22  N   UNL A   1      35.313  22.224  25.191  1.00  0.00    -0.272 N 
ATOM     23  C   UNL A   1      34.185  21.957  25.925  1.00  0.00     0.040 A 
ATOM     24  C   UNL A   1      36.694  22.160  25.610  1.00  0.00     0.174 C 
ATOM     25  C   UNL A   1      34.228  21.691  27.386  1.00  0.00     0.067 C 
ENDBRANCH  17  18
ENDBRANCH  12  17
ENDBRANCH   7  11
ENDBRANCH   3   6
ENDBRANCH   1   2
BRANCH   1  26
ATOM     26  C   UNL A   1      31.504  31.857  26.539  1.00  0.00     0.042 C 
BRANCH  26  27
ATOM     27  C   UNL A   1      32.765  32.553  27.026  1.00  0.00     0.118 C 
BRANCH  27  28
ATOM     28  N   UNL A   1      32.497  33.839  27.662  1.00  0.00    -0.352 N 
ATOM     29  C   UNL A   1      33.213  34.548  28.594  1.00  0.00     0.251 C 
ATOM     30  H   UNL A   1      31.661  34.271  27.373  1.00  0.00     0.163 HD
ATOM     31  O   UNL A   1      32.771  35.605  29.037  1.00  0.00    -0.269 OA
BRANCH  29  32
ATOM     32  C   UNL A   1      34.491  34.022  29.116  1.00  0.00     0.039 A 
ATOM     33  C   UNL A   1      34.464  33.215  30.257  1.00  0.00     0.014 A 
ATOM     34  C   UNL A   1      35.703  34.294  28.482  1.00  0.00     0.014 A 
ATOM     35  C   UNL A   1      35.641  32.618  30.712  1.00  0.00     0.010 A 
ATOM     36  C   UNL A   1      36.846  33.605  28.861  1.00  0.00     0.010 A 
ATOM     37  C   UNL A   1      36.833  32.770  29.989  1.00  0.00    -0.014 A 
BRANCH  37  38
ATOM     38  C   UNL A   1      38.089  32.096  30.398  1.00  0.00     0.031 A 
ATOM     39  C   UNL A   1      39.003  32.766  31.390  1.00  0.00     0.074 A 
ATOM     40  C   UNL A   1      38.450  30.934  29.820  1.00  0.00     0.049 A 
ATOM     41  N   UNL A   1      40.201  32.414  31.782  1.00  0.00    -0.248 NA
ATOM     42  C   UNL A   1      38.524  34.026  31.987  1.00  0.00     0.031 C 
ATOM     43  C   UNL A   1      37.675  30.205  28.813  1.00  0.00     0.029 A 
ATOM     44  N   UNL A   1      39.572  30.162  29.994  1.00  0.00    -0.354 N 
ATOM     45  C   UNL A   1      40.628  33.425  32.634  1.00  0.00     0.074 A 
ATOM     46  C   UNL A   1      39.591  34.431  32.657  1.00  0.00     0.031 C 
ATOM     47  C   UNL A   1      38.327  29.077  28.485  1.00  0.00     0.029 A 
ATOM     48  C   UNL A   1      39.584  29.026  29.222  1.00  0.00     0.049 A 
ATOM     49  H   UNL A   1      40.298  30.400  30.614  1.00  0.00     0.167 HD
ATOM     50  C   UNL A   1      41.771  33.498  33.355  1.00  0.00     0.031 A 
ATOM     51  C   UNL A   1      40.510  28.054  29.117  1.00  0.00     0.031 A 
ATOM     52  C   UNL A   1      42.780  32.474  33.364  1.00  0.00     0.049 A 
ATOM     53  C   UNL A   1      41.761  28.146  29.946  1.00  0.00     0.074 A 
ATOM     54  C   UNL A   1      43.941  32.415  34.113  1.00  0.00     0.029 A 
ATOM     55  N   UNL A   1      42.736  31.323  32.594  1.00  0.00    -0.354 N 
ATOM     56  N   UNL A   1      42.125  29.081  30.791  1.00  0.00    -0.248 NA
ATOM     57  C   UNL A   1      42.722  27.042  29.816  1.00  0.00     0.031 C 
ATOM     58  C   UNL A   1      44.623  31.245  33.764  1.00  0.00     0.029 A 
ATOM     59  C   UNL A   1      43.859  30.552  32.838  1.00  0.00     0.049 A 
ATOM     60  H   UNL A   1      42.015  31.089  31.967  1.00  0.00     0.167 HD
ATOM     61  C   UNL A   1      43.341  28.663  31.316  1.00  0.00     0.074 A 
ATOM     62  C   UNL A   1      43.645  27.385  30.704  1.00  0.00     0.031 C 
ATOM     63  C   UNL A   1      44.135  29.281  32.224  1.00  0.00     0.031 A 
BRANCH  50  64
ATOM     64  C   UNL A   1      41.982  34.728  34.195  1.00  0.00    -0.014 A 
ATOM     65  C   UNL A   1      42.611  35.869  33.671  1.00  0.00     0.009 A 
ATOM     66  C   UNL A   1      41.529  34.753  35.523  1.00  0.00     0.009 A 
ATOM     67  C   UNL A   1      42.820  36.994  34.472  1.00  0.00     0.001 A 
ATOM     68  C   UNL A   1      41.710  35.890  36.312  1.00  0.00     0.001 A 
ATOM     69  C   UNL A   1      42.365  37.005  35.790  1.00  0.00     0.000 A 
ENDBRANCH  50  64
BRANCH  51  70
ATOM     70  C   UNL A   1      40.280  26.897  28.213  1.00  0.00    -0.014 A 
ATOM     71  C   UNL A   1      39.587  25.765  28.671  1.00  0.00     0.009 A 
ATOM     72  C   UNL A   1      40.753  26.913  26.891  1.00  0.00     0.009 A 
ATOM     73  C   UNL A   1      39.398  24.663  27.835  1.00  0.00     0.001 A 
ATOM     74  C   UNL A   1      40.537  25.820  26.048  1.00  0.00     0.001 A 
ATOM     75  C   UNL A   1      39.869  24.693  26.523  1.00  0.00     0.000 A 
ENDBRANCH  51  70
BRANCH  63  76
ATOM     76  C   UNL A   1      45.385  28.563  32.643  1.00  0.00    -0.014 A 
ATOM     77  C   UNL A   1      45.380  27.646  33.706  1.00  0.00     0.009 A 
ATOM     78  C   UNL A   1      46.575  28.770  31.926  1.00  0.00     0.009 A 
ATOM     79  C   UNL A   1      46.550  26.974  34.060  1.00  0.00     0.001 A 
ATOM     80  C   UNL A   1      47.735  28.075  32.264  1.00  0.00     0.001 A 
ATOM     81  C   UNL A   1      47.725  27.184  33.336  1.00  0.00     0.000 A 
ENDBRANCH  63  76
ENDBRANCH  37  38
ENDBRANCH  29  32
ENDBRANCH  27  28
ENDBRANCH  26  27
ENDBRANCH   1  26
TORSDOF 13
ENDMDL
