MODEL 1
REMARK VINA RESULT:     -12.3      0.000      0.000
REMARK SMILES CC(C)c1noc(C[N@@H+]2[C@@H](C(=O)NCCCNC(=O)c3ccc(-c4c5nc(c(-c6ccccc6)c6ccc([nH]6)c(-c6ccccc6)c6nc(c(-c7ccccc7)c7ccc4[nH]7)C=C6)C=C5)cc3)C[C@H]3CCCC[C@@H]32)n1
REMARK SMILES IDX 14 1 13 2 11 3 12 4 10 6 9 7 74 8 68 10 69 11 73 12 70 13
REMARK SMILES IDX 72 14 71 15 8 16 7 17 4 18 5 19 75 20 6 21 2 22 1 23 3 24
REMARK SMILES IDX 15 25 16 26 17 27 18 28 19 30 20 31 21 32 67 33 22 34 66 35
REMARK SMILES IDX 23 36 24 37 25 38 60 39 26 40 65 41 59 42 61 43 27 44 64 45
REMARK SMILES IDX 58 46 57 47 28 49 50 50 35 51 49 52 36 53 39 54 48 55 62 56
REMARK SMILES IDX 37 57 38 58 47 60 63 61 40 62 29 63 30 64 34 65 31 66 33 67
REMARK SMILES IDX 32 68 51 69 52 70 56 71 53 72 55 73 54 74 41 75 42 76 46 77
REMARK SMILES IDX 43 78 45 79 44 80
REMARK H PARENT 13 5 9 9 17 29 61 48 39 59
REMARK Flexibility Score: inf
ROOT
ATOM      1  C   UNL A   1      32.093  30.395  26.014  1.00  0.00     0.118 C 
ENDROOT
BRANCH   1   2
ATOM      2  N   UNL A   1      31.824  29.195  26.787  1.00  0.00    -0.351 N 
ATOM      3  C   UNL A   1      31.401  27.967  26.352  1.00  0.00     0.278 C 
ATOM      4  O   UNL A   1      31.192  27.100  27.201  1.00  0.00    -0.268 OA
ATOM      5  H   UNL A   1      31.965  29.277  27.759  1.00  0.00     0.163 HD
BRANCH   3   6
ATOM      6  C   UNL A   1      31.263  27.750  24.830  1.00  0.00     0.275 C 
ATOM      7  N   UNL A   1      30.335  26.623  24.529  1.00  0.00    -0.314 N 
ATOM      8  C   UNL A   1      31.198  25.469  24.235  1.00  0.00     0.188 C 
ATOM      9  H   UNL A   1      29.740  26.376  25.320  1.00  0.00     0.349 HD
ATOM     10  C   UNL A   1      32.643  27.363  24.261  1.00  0.00     0.085 C 
ATOM     11  C   UNL A   1      32.384  26.081  23.497  1.00  0.00     0.054 C 
ATOM     12  C   UNL A   1      30.663  24.238  23.502  1.00  0.00     0.065 C 
ATOM     13  C   UNL A   1      33.532  25.093  23.396  1.00  0.00     0.010 C 
ATOM     14  C   UNL A   1      31.792  23.237  23.206  1.00  0.00     0.006 C 
ATOM     15  C   UNL A   1      33.049  23.877  22.603  1.00  0.00     0.001 C 
BRANCH   7  16
ATOM     16  C   UNL A   1      29.287  26.971  23.551  1.00  0.00     0.364 C 
BRANCH  16  17
ATOM     17  C   UNL A   1      29.306  28.358  22.995  1.00  0.00     0.281 A 
ATOM     18  C   UNL A   1      28.857  30.288  22.316  1.00  0.00     0.174 A 
ATOM     19  N   UNL A   1      29.861  29.909  21.512  1.00  0.00    -0.062 NA
ATOM     20  N   UNL A   1      28.515  29.370  23.273  1.00  0.00    -0.191 NA
ATOM     21  O   UNL A   1      30.169  28.621  21.968  1.00  0.00    -0.333 OA
BRANCH  18  22
ATOM     22  C   UNL A   1      28.123  31.578  22.152  1.00  0.00     0.055 C 
ATOM     23  C   UNL A   1      28.778  32.704  22.958  1.00  0.00     0.016 C 
ATOM     24  C   UNL A   1      28.028  31.997  20.680  1.00  0.00     0.016 C 
ENDBRANCH  18  22
ENDBRANCH  16  17
ENDBRANCH   7  16
ENDBRANCH   3   6
ENDBRANCH   1   2
BRANCH   1  25
ATOM     25  C   UNL A   1      31.681  31.653  26.766  1.00  0.00     0.042 C 
BRANCH  25  26
ATOM     26  C   UNL A   1      32.857  32.430  27.349  1.00  0.00     0.118 C 
BRANCH  26  27
ATOM     27  N   UNL A   1      32.531  33.825  27.616  1.00  0.00    -0.352 N 
ATOM     28  C   UNL A   1      33.053  34.697  28.539  1.00  0.00     0.251 C 
ATOM     29  H   UNL A   1      31.824  34.202  27.044  1.00  0.00     0.163 HD
ATOM     30  O   UNL A   1      32.508  35.782  28.729  1.00  0.00    -0.269 OA
BRANCH  28  31
ATOM     31  C   UNL A   1      34.247  34.326  29.327  1.00  0.00     0.039 A 
ATOM     32  C   UNL A   1      34.068  33.691  30.559  1.00  0.00     0.014 A 
ATOM     33  C   UNL A   1      35.534  34.597  28.857  1.00  0.00     0.014 A 
ATOM     34  C   UNL A   1      35.181  33.241  31.273  1.00  0.00     0.010 A 
ATOM     35  C   UNL A   1      36.639  34.082  29.532  1.00  0.00     0.010 A 
ATOM     36  C   UNL A   1      36.471  33.381  30.736  1.00  0.00    -0.014 A 
BRANCH  36  37
ATOM     37  C   UNL A   1      37.648  32.749  31.383  1.00  0.00     0.031 A 
ATOM     38  C   UNL A   1      38.300  31.540  30.774  1.00  0.00     0.074 A 
ATOM     39  C   UNL A   1      38.077  33.221  32.571  1.00  0.00     0.049 A 
ATOM     40  N   UNL A   1      39.271  30.801  31.251  1.00  0.00    -0.248 NA
ATOM     41  C   UNL A   1      37.786  31.092  29.470  1.00  0.00     0.031 C 
ATOM     42  C   UNL A   1      37.510  34.369  33.283  1.00  0.00     0.029 A 
ATOM     43  N   UNL A   1      39.083  32.784  33.398  1.00  0.00    -0.354 N 
ATOM     44  C   UNL A   1      39.479  29.801  30.309  1.00  0.00     0.074 A 
ATOM     45  C   UNL A   1      38.505  29.999  29.258  1.00  0.00     0.031 C 
ATOM     46  C   UNL A   1      38.184  34.554  34.429  1.00  0.00     0.029 A 
ATOM     47  C   UNL A   1      39.192  33.509  34.561  1.00  0.00     0.049 A 
ATOM     48  H   UNL A   1      39.669  32.025  33.179  1.00  0.00     0.167 HD
ATOM     49  C   UNL A   1      40.410  28.816  30.313  1.00  0.00     0.031 A 
ATOM     50  C   UNL A   1      39.996  33.339  35.627  1.00  0.00     0.031 A 
ATOM     51  C   UNL A   1      41.373  28.614  31.364  1.00  0.00     0.049 A 
ATOM     52  C   UNL A   1      40.978  32.200  35.630  1.00  0.00     0.074 A 
ATOM     53  C   UNL A   1      42.380  27.666  31.437  1.00  0.00     0.029 A 
ATOM     54  N   UNL A   1      41.445  29.363  32.527  1.00  0.00    -0.354 N 
ATOM     55  N   UNL A   1      41.206  31.303  34.702  1.00  0.00    -0.248 NA
ATOM     56  C   UNL A   1      41.817  32.054  36.828  1.00  0.00     0.031 C 
ATOM     57  C   UNL A   1      43.021  27.802  32.671  1.00  0.00     0.029 A 
ATOM     58  C   UNL A   1      42.456  28.877  33.339  1.00  0.00     0.049 A 
ATOM     59  H   UNL A   1      40.864  30.128  32.744  1.00  0.00     0.167 HD
ATOM     60  C   UNL A   1      42.227  30.501  35.195  1.00  0.00     0.074 A 
ATOM     61  C   UNL A   1      42.593  31.034  36.490  1.00  0.00     0.031 C 
ATOM     62  C   UNL A   1      42.806  29.414  34.629  1.00  0.00     0.031 A 
BRANCH  49  63
ATOM     63  C   UNL A   1      40.431  27.873  29.142  1.00  0.00    -0.014 A 
ATOM     64  C   UNL A   1      39.649  26.707  29.136  1.00  0.00     0.009 A 
ATOM     65  C   UNL A   1      41.194  28.183  28.006  1.00  0.00     0.009 A 
ATOM     66  C   UNL A   1      39.651  25.859  28.027  1.00  0.00     0.001 A 
ATOM     67  C   UNL A   1      41.172  27.348  26.887  1.00  0.00     0.001 A 
ATOM     68  C   UNL A   1      40.406  26.183  26.902  1.00  0.00     0.000 A 
ENDBRANCH  49  63
BRANCH  50  69
ATOM     69  C   UNL A   1      39.891  34.249  36.799  1.00  0.00    -0.014 A 
ATOM     70  C   UNL A   1      39.052  33.932  37.879  1.00  0.00     0.009 A 
ATOM     71  C   UNL A   1      40.606  35.457  36.829  1.00  0.00     0.009 A 
ATOM     72  C   UNL A   1      38.904  34.823  38.945  1.00  0.00     0.001 A 
ATOM     73  C   UNL A   1      40.484  36.328  37.913  1.00  0.00     0.001 A 
ATOM     74  C   UNL A   1      39.624  36.016  38.964  1.00  0.00     0.000 A 
ENDBRANCH  50  69
BRANCH  62  75
ATOM     75  C   UNL A   1      43.911  28.746  35.397  1.00  0.00    -0.014 A 
ATOM     76  C   UNL A   1      43.640  27.727  36.323  1.00  0.00     0.009 A 
ATOM     77  C   UNL A   1      45.245  29.115  35.164  1.00  0.00     0.009 A 
ATOM     78  C   UNL A   1      44.681  27.115  37.026  1.00  0.00     0.001 A 
ATOM     79  C   UNL A   1      46.286  28.480  35.844  1.00  0.00     0.001 A 
ATOM     80  C   UNL A   1      46.003  27.488  36.781  1.00  0.00     0.000 A 
ENDBRANCH  62  75
ENDBRANCH  36  37
ENDBRANCH  28  31
ENDBRANCH  26  27
ENDBRANCH  25  26
ENDBRANCH   1  25
TORSDOF 13
ENDMDL
MODEL 2
REMARK VINA RESULT:     -12.2      0.726      6.007
REMARK SMILES CC(C)c1noc(C[N@@H+]2[C@@H](C(=O)NCCCNC(=O)c3ccc(-c4c5nc(c(-c6ccccc6)c6ccc([nH]6)c(-c6ccccc6)c6nc(c(-c7ccccc7)c7ccc4[nH]7)C=C6)C=C5)cc3)C[C@H]3CCCC[C@@H]32)n1
REMARK SMILES IDX 14 1 13 2 11 3 12 4 10 6 9 7 74 8 68 10 69 11 73 12 70 13
REMARK SMILES IDX 72 14 71 15 8 16 7 17 4 18 5 19 75 20 6 21 2 22 1 23 3 24
REMARK SMILES IDX 15 25 16 26 17 27 18 28 19 30 20 31 21 32 67 33 22 34 66 35
REMARK SMILES IDX 23 36 24 37 25 38 60 39 26 40 65 41 59 42 61 43 27 44 64 45
REMARK SMILES IDX 58 46 57 47 28 49 50 50 35 51 49 52 36 53 39 54 48 55 62 56
REMARK SMILES IDX 37 57 38 58 47 60 63 61 40 62 29 63 30 64 34 65 31 66 33 67
REMARK SMILES IDX 32 68 51 69 52 70 56 71 53 72 55 73 54 74 41 75 42 76 46 77
REMARK SMILES IDX 43 78 45 79 44 80
REMARK H PARENT 13 5 9 9 17 29 61 48 39 59
REMARK Flexibility Score: inf
ROOT
ATOM      1  C   UNL A   1      31.731  30.642  25.940  1.00  0.00     0.118 C 
ENDROOT
BRANCH   1   2
ATOM      2  N   UNL A   1      31.657  29.567  26.913  1.00  0.00    -0.351 N 
ATOM      3  C   UNL A   1      31.555  28.218  26.701  1.00  0.00     0.278 C 
ATOM      4  O   UNL A   1      31.459  27.489  27.688  1.00  0.00    -0.268 OA
ATOM      5  H   UNL A   1      31.681  29.848  27.857  1.00  0.00     0.163 HD
BRANCH   3   6
ATOM      6  C   UNL A   1      31.616  27.711  25.244  1.00  0.00     0.275 C 
ATOM      7  N   UNL A   1      30.664  26.586  25.025  1.00  0.00    -0.314 N 
ATOM      8  C   UNL A   1      31.479  25.362  25.087  1.00  0.00     0.188 C 
ATOM      9  H   UNL A   1      29.949  26.523  25.750  1.00  0.00     0.349 HD
ATOM     10  C   UNL A   1      33.032  27.165  24.972  1.00  0.00     0.085 C 
ATOM     11  C   UNL A   1      32.795  25.769  24.433  1.00  0.00     0.054 C 
ATOM     12  C   UNL A   1      30.968  24.034  24.527  1.00  0.00     0.065 C 
ATOM     13  C   UNL A   1      33.875  24.735  24.694  1.00  0.00     0.010 C 
ATOM     14  C   UNL A   1      32.055  22.950  24.599  1.00  0.00     0.006 C 
ATOM     15  C   UNL A   1      33.425  23.407  24.081  1.00  0.00     0.001 C 
BRANCH   7  16
ATOM     16  C   UNL A   1      29.789  26.777  23.853  1.00  0.00     0.364 C 
BRANCH  16  17
ATOM     17  C   UNL A   1      29.800  28.123  23.205  1.00  0.00     0.281 A 
ATOM     18  C   UNL A   1      29.364  30.037  22.475  1.00  0.00     0.174 A 
ATOM     19  N   UNL A   1      30.191  29.538  21.545  1.00  0.00    -0.062 NA
ATOM     20  N   UNL A   1      29.133  29.205  23.538  1.00  0.00    -0.191 NA
ATOM     21  O   UNL A   1      30.490  28.261  22.033  1.00  0.00    -0.333 OA
BRANCH  18  22
ATOM     22  C   UNL A   1      28.695  31.366  22.344  1.00  0.00     0.055 C 
ATOM     23  C   UNL A   1      28.081  31.551  20.952  1.00  0.00     0.016 C 
ATOM     24  C   UNL A   1      27.611  31.567  23.408  1.00  0.00     0.016 C 
ENDBRANCH  18  22
ENDBRANCH  16  17
ENDBRANCH   7  16
ENDBRANCH   3   6
ENDBRANCH   1   2
BRANCH   1  25
ATOM     25  C   UNL A   1      31.407  31.992  26.565  1.00  0.00     0.042 C 
BRANCH  25  26
ATOM     26  C   UNL A   1      32.592  32.638  27.274  1.00  0.00     0.118 C 
BRANCH  26  27
ATOM     27  N   UNL A   1      32.360  34.042  27.589  1.00  0.00    -0.352 N 
ATOM     28  C   UNL A   1      32.967  34.855  28.513  1.00  0.00     0.251 C 
ATOM     29  H   UNL A   1      31.656  34.476  27.055  1.00  0.00     0.163 HD
ATOM     30  O   UNL A   1      32.495  35.965  28.752  1.00  0.00    -0.269 OA
BRANCH  28  31
ATOM     31  C   UNL A   1      34.165  34.394  29.245  1.00  0.00     0.039 A 
ATOM     32  C   UNL A   1      34.009  33.880  30.535  1.00  0.00     0.014 A 
ATOM     33  C   UNL A   1      35.434  34.460  28.666  1.00  0.00     0.014 A 
ATOM     34  C   UNL A   1      35.110  33.344  31.205  1.00  0.00     0.010 A 
ATOM     35  C   UNL A   1      36.517  33.858  29.303  1.00  0.00     0.010 A 
ATOM     36  C   UNL A   1      36.361  33.277  30.570  1.00  0.00    -0.014 A 
BRANCH  36  37
ATOM     37  C   UNL A   1      37.499  32.548  31.184  1.00  0.00     0.031 A 
ATOM     38  C   UNL A   1      38.139  33.051  32.446  1.00  0.00     0.074 A 
ATOM     39  C   UNL A   1      38.008  31.471  30.551  1.00  0.00     0.049 A 
ATOM     40  N   UNL A   1      39.202  32.600  33.067  1.00  0.00    -0.248 NA
ATOM     41  C   UNL A   1      37.520  34.222  33.086  1.00  0.00     0.031 C 
ATOM     42  C   UNL A   1      37.496  30.900  29.303  1.00  0.00     0.029 A 
ATOM     43  N   UNL A   1      39.080  30.672  30.865  1.00  0.00    -0.354 N 
ATOM     44  C   UNL A   1      39.378  33.433  34.164  1.00  0.00     0.074 A 
ATOM     45  C   UNL A   1      38.345  34.444  34.100  1.00  0.00     0.031 C 
ATOM     46  C   UNL A   1      38.244  29.837  28.966  1.00  0.00     0.029 A 
ATOM     47  C   UNL A   1      39.317  29.683  29.940  1.00  0.00     0.049 A 
ATOM     48  H   UNL A   1      39.627  30.796  31.674  1.00  0.00     0.167 HD
ATOM     49  C   UNL A   1      40.309  33.353  35.147  1.00  0.00     0.031 A 
ATOM     50  C   UNL A   1      40.303  28.769  29.869  1.00  0.00     0.031 A 
ATOM     51  C   UNL A   1      41.343  32.353  35.205  1.00  0.00     0.049 A 
ATOM     52  C   UNL A   1      41.357  28.742  30.941  1.00  0.00     0.074 A 
ATOM     53  C   UNL A   1      42.307  32.168  36.182  1.00  0.00     0.029 A 
ATOM     54  N   UNL A   1      41.554  31.375  34.246  1.00  0.00    -0.354 N 
ATOM     55  N   UNL A   1      41.471  29.496  32.007  1.00  0.00    -0.248 NA
ATOM     56  C   UNL A   1      42.417  27.733  30.801  1.00  0.00     0.031 C 
ATOM     57  C   UNL A   1      43.139  31.119  35.783  1.00  0.00     0.029 A 
ATOM     58  C   UNL A   1      42.654  30.607  34.590  1.00  0.00     0.049 A 
ATOM     59  H   UNL A   1      41.004  31.246  33.440  1.00  0.00     0.167 HD
ATOM     60  C   UNL A   1      42.601  29.039  32.674  1.00  0.00     0.074 A 
ATOM     61  C   UNL A   1      43.120  27.926  31.907  1.00  0.00     0.031 C 
ATOM     62  C   UNL A   1      43.163  29.505  33.815  1.00  0.00     0.031 A 
BRANCH  49  63
ATOM     63  C   UNL A   1      40.256  34.381  36.242  1.00  0.00    -0.014 A 
ATOM     64  C   UNL A   1      40.986  35.576  36.151  1.00  0.00     0.009 A 
ATOM     65  C   UNL A   1      39.419  34.181  37.350  1.00  0.00     0.009 A 
ATOM     66  C   UNL A   1      40.899  36.538  37.159  1.00  0.00     0.001 A 
ATOM     67  C   UNL A   1      39.311  35.157  38.343  1.00  0.00     0.001 A 
ATOM     68  C   UNL A   1      40.057  36.331  38.250  1.00  0.00     0.000 A 
ENDBRANCH  49  63
BRANCH  50  69
ATOM     69  C   UNL A   1      40.363  27.818  28.727  1.00  0.00    -0.014 A 
ATOM     70  C   UNL A   1      41.024  28.166  27.539  1.00  0.00     0.009 A 
ATOM     71  C   UNL A   1      39.730  26.567  28.807  1.00  0.00     0.009 A 
ATOM     72  C   UNL A   1      41.019  27.297  26.444  1.00  0.00     0.001 A 
ATOM     73  C   UNL A   1      39.757  25.686  27.725  1.00  0.00     0.001 A 
ATOM     74  C   UNL A   1      40.390  26.057  26.540  1.00  0.00     0.000 A 
ENDBRANCH  50  69
BRANCH  62  75
ATOM     75  C   UNL A   1      44.390  28.795  34.316  1.00  0.00    -0.014 A 
ATOM     76  C   UNL A   1      45.676  29.210  33.937  1.00  0.00     0.009 A 
ATOM     77  C   UNL A   1      44.258  27.720  35.208  1.00  0.00     0.009 A 
ATOM     78  C   UNL A   1      46.804  28.540  34.415  1.00  0.00     0.001 A 
ATOM     79  C   UNL A   1      45.388  27.072  35.710  1.00  0.00     0.001 A 
ATOM     80  C   UNL A   1      46.659  27.476  35.306  1.00  0.00     0.000 A 
ENDBRANCH  62  75
ENDBRANCH  36  37
ENDBRANCH  28  31
ENDBRANCH  26  27
ENDBRANCH  25  26
ENDBRANCH   1  25
TORSDOF 13
ENDMDL
MODEL 3
REMARK VINA RESULT:     -12.2      5.919     10.866
REMARK SMILES CC(C)c1noc(C[N@@H+]2[C@@H](C(=O)NCCCNC(=O)c3ccc(-c4c5nc(c(-c6ccccc6)c6ccc([nH]6)c(-c6ccccc6)c6nc(c(-c7ccccc7)c7ccc4[nH]7)C=C6)C=C5)cc3)C[C@H]3CCCC[C@@H]32)n1
REMARK SMILES IDX 14 1 13 2 11 3 12 4 10 6 9 7 74 8 68 10 69 11 73 12 70 13
REMARK SMILES IDX 72 14 71 15 8 16 7 17 4 18 5 19 75 20 6 21 2 22 1 23 3 24
REMARK SMILES IDX 15 25 16 26 17 27 18 28 19 30 20 31 21 32 67 33 22 34 66 35
REMARK SMILES IDX 23 36 24 37 25 38 60 39 26 40 65 41 59 42 61 43 27 44 64 45
REMARK SMILES IDX 58 46 57 47 28 49 50 50 35 51 49 52 36 53 39 54 48 55 62 56
REMARK SMILES IDX 37 57 38 58 47 60 63 61 40 62 29 63 30 64 34 65 31 66 33 67
REMARK SMILES IDX 32 68 51 69 52 70 56 71 53 72 55 73 54 74 41 75 42 76 46 77
REMARK SMILES IDX 43 78 45 79 44 80
REMARK H PARENT 13 5 9 9 17 29 61 48 39 59
REMARK Flexibility Score: inf
ROOT
ATOM      1  C   UNL A   1      36.584  20.994  25.237  1.00  0.00     0.118 C 
ENDROOT
BRANCH   1   2
ATOM      2  N   UNL A   1      36.468  22.111  24.316  1.00  0.00    -0.351 N 
ATOM      3  C   UNL A   1      35.342  22.770  23.899  1.00  0.00     0.278 C 
ATOM      4  O   UNL A   1      35.480  23.668  23.068  1.00  0.00    -0.268 OA
ATOM      5  H   UNL A   1      37.317  22.439  23.939  1.00  0.00     0.163 HD
BRANCH   3   6
ATOM      6  C   UNL A   1      33.994  22.368  24.535  1.00  0.00     0.275 C 
ATOM      7  N   UNL A   1      32.877  22.502  23.558  1.00  0.00    -0.314 N 
ATOM      8  C   UNL A   1      32.220  23.777  23.882  1.00  0.00     0.188 C 
ATOM      9  H   UNL A   1      33.198  22.552  22.591  1.00  0.00     0.349 HD
ATOM     10  C   UNL A   1      33.693  23.331  25.700  1.00  0.00     0.085 C 
ATOM     11  C   UNL A   1      32.302  23.851  25.403  1.00  0.00     0.054 C 
ATOM     12  C   UNL A   1      30.809  24.097  23.386  1.00  0.00     0.065 C 
ATOM     13  C   UNL A   1      31.964  25.245  25.899  1.00  0.00     0.010 C 
ATOM     14  C   UNL A   1      30.307  25.428  23.968  1.00  0.00     0.006 C 
ATOM     15  C   UNL A   1      30.529  25.569  25.480  1.00  0.00     0.001 C 
BRANCH   7  16
ATOM     16  C   UNL A   1      32.035  21.294  23.460  1.00  0.00     0.364 C 
BRANCH  16  17
ATOM     17  C   UNL A   1      32.516  20.068  24.166  1.00  0.00     0.281 A 
ATOM     18  C   UNL A   1      33.222  18.171  24.705  1.00  0.00     0.174 A 
ATOM     19  N   UNL A   1      32.440  18.510  25.740  1.00  0.00    -0.062 NA
ATOM     20  N   UNL A   1      33.326  19.129  23.732  1.00  0.00    -0.191 NA
ATOM     21  O   UNL A   1      31.971  19.781  25.386  1.00  0.00    -0.333 OA
BRANCH  18  22
ATOM     22  C   UNL A   1      33.882  16.837  24.583  1.00  0.00     0.055 C 
ATOM     23  C   UNL A   1      32.974  15.713  25.093  1.00  0.00     0.016 C 
ATOM     24  C   UNL A   1      34.299  16.536  23.139  1.00  0.00     0.016 C 
ENDBRANCH  18  22
ENDBRANCH  16  17
ENDBRANCH   7  16
ENDBRANCH   3   6
ENDBRANCH   1   2
BRANCH   1  25
ATOM     25  C   UNL A   1      37.799  20.131  24.925  1.00  0.00     0.042 C 
BRANCH  25  26
ATOM     26  C   UNL A   1      39.013  20.447  25.793  1.00  0.00     0.118 C 
BRANCH  26  27
ATOM     27  N   UNL A   1      39.969  19.349  25.840  1.00  0.00    -0.352 N 
ATOM     28  C   UNL A   1      41.322  19.360  26.073  1.00  0.00     0.251 C 
ATOM     29  H   UNL A   1      39.585  18.456  25.681  1.00  0.00     0.163 HD
ATOM     30  O   UNL A   1      41.982  18.340  25.885  1.00  0.00    -0.269 OA
BRANCH  28  31
ATOM     31  C   UNL A   1      41.995  20.599  26.516  1.00  0.00     0.039 A 
ATOM     32  C   UNL A   1      42.547  21.446  25.552  1.00  0.00     0.014 A 
ATOM     33  C   UNL A   1      42.079  20.929  27.870  1.00  0.00     0.014 A 
ATOM     34  C   UNL A   1      43.098  22.670  25.939  1.00  0.00     0.010 A 
ATOM     35  C   UNL A   1      42.559  22.181  28.248  1.00  0.00     0.010 A 
ATOM     36  C   UNL A   1      43.054  23.071  27.284  1.00  0.00    -0.014 A 
BRANCH  36  37
ATOM     37  C   UNL A   1      43.461  24.440  27.693  1.00  0.00     0.031 A 
ATOM     38  C   UNL A   1      42.428  25.475  28.037  1.00  0.00     0.074 A 
ATOM     39  C   UNL A   1      44.768  24.770  27.672  1.00  0.00     0.049 A 
ATOM     40  N   UNL A   1      42.597  26.743  28.318  1.00  0.00    -0.248 NA
ATOM     41  C   UNL A   1      41.024  25.036  28.052  1.00  0.00     0.031 C 
ATOM     42  C   UNL A   1      45.867  23.865  27.325  1.00  0.00     0.029 A 
ATOM     43  N   UNL A   1      45.394  25.964  27.935  1.00  0.00    -0.354 N 
ATOM     44  C   UNL A   1      41.323  27.253  28.538  1.00  0.00     0.074 A 
ATOM     45  C   UNL A   1      40.390  26.171  28.312  1.00  0.00     0.031 C 
ATOM     46  C   UNL A   1      47.029  24.531  27.411  1.00  0.00     0.029 A 
ATOM     47  C   UNL A   1      46.757  25.918  27.764  1.00  0.00     0.049 A 
ATOM     48  H   UNL A   1      44.913  26.774  28.218  1.00  0.00     0.167 HD
ATOM     49  C   UNL A   1      40.965  28.505  28.911  1.00  0.00     0.031 A 
ATOM     50  C   UNL A   1      47.684  26.890  27.857  1.00  0.00     0.031 A 
ATOM     51  C   UNL A   1      41.894  29.585  29.126  1.00  0.00     0.049 A 
ATOM     52  C   UNL A   1      47.251  28.286  28.213  1.00  0.00     0.074 A 
ATOM     53  C   UNL A   1      41.628  30.878  29.542  1.00  0.00     0.029 A 
ATOM     54  N   UNL A   1      43.264  29.500  28.934  1.00  0.00    -0.354 N 
ATOM     55  N   UNL A   1      46.049  28.735  28.481  1.00  0.00    -0.248 NA
ATOM     56  C   UNL A   1      48.305  29.308  28.282  1.00  0.00     0.031 C 
ATOM     57  C   UNL A   1      42.829  31.594  29.542  1.00  0.00     0.029 A 
ATOM     58  C   UNL A   1      43.852  30.728  29.189  1.00  0.00     0.049 A 
ATOM     59  H   UNL A   1      43.747  28.688  28.658  1.00  0.00     0.167 HD
ATOM     60  C   UNL A   1      46.206  30.084  28.771  1.00  0.00     0.074 A 
ATOM     61  C   UNL A   1      47.621  30.373  28.673  1.00  0.00     0.031 C 
ATOM     62  C   UNL A   1      45.262  31.004  29.083  1.00  0.00     0.031 A 
BRANCH  49  63
ATOM     63  C   UNL A   1      39.501  28.783  29.106  1.00  0.00    -0.014 A 
ATOM     64  C   UNL A   1      38.891  28.610  30.359  1.00  0.00     0.009 A 
ATOM     65  C   UNL A   1      38.734  29.283  28.043  1.00  0.00     0.009 A 
ATOM     66  C   UNL A   1      37.537  28.906  30.534  1.00  0.00     0.001 A 
ATOM     67  C   UNL A   1      37.389  29.607  28.228  1.00  0.00     0.001 A 
ATOM     68  C   UNL A   1      36.790  29.411  29.471  1.00  0.00     0.000 A 
ENDBRANCH  49  63
BRANCH  50  69
ATOM     69  C   UNL A   1      49.115  26.591  27.580  1.00  0.00    -0.014 A 
ATOM     70  C   UNL A   1      49.613  26.623  26.268  1.00  0.00     0.009 A 
ATOM     71  C   UNL A   1      49.984  26.240  28.626  1.00  0.00     0.009 A 
ATOM     72  C   UNL A   1      50.940  26.274  26.006  1.00  0.00     0.001 A 
ATOM     73  C   UNL A   1      51.319  25.927  28.365  1.00  0.00     0.001 A 
ATOM     74  C   UNL A   1      51.793  25.932  27.055  1.00  0.00     0.000 A 
ENDBRANCH  50  69
BRANCH  62  75
ATOM     75  C   UNL A   1      45.732  32.403  29.365  1.00  0.00    -0.014 A 
ATOM     76  C   UNL A   1      45.782  33.372  28.351  1.00  0.00     0.009 A 
ATOM     77  C   UNL A   1      46.094  32.767  30.672  1.00  0.00     0.009 A 
ATOM     78  C   UNL A   1      46.220  34.668  28.633  1.00  0.00     0.001 A 
ATOM     79  C   UNL A   1      46.500  34.072  30.957  1.00  0.00     0.001 A 
ATOM     80  C   UNL A   1      46.572  35.018  29.937  1.00  0.00     0.000 A 
ENDBRANCH  62  75
ENDBRANCH  36  37
ENDBRANCH  28  31
ENDBRANCH  26  27
ENDBRANCH  25  26
ENDBRANCH   1  25
TORSDOF 13
ENDMDL
