MODEL 1
REMARK VINA RESULT:     -13.5      0.000      0.000
REMARK SMILES COc1c(C)cccc1C(=O)NC(=S)Nc1ccc(C(=O)NCCCNC(=O)c2ccc(-c3c4nc(c(-c5ccccc5)c5ccc([nH]5)c(-c5ccccc5)c5nc(c(-c6ccccc6)c6ccc3[nH]6)C=C5)C=C4)cc2)cc1C
REMARK SMILES IDX 20 1 21 2 22 3 19 5 16 6 17 7 78 8 18 9 77 10 79 11 15 12
REMARK SMILES IDX 13 14 14 15 12 16 10 17 11 18 9 20 3 21 4 22 5 23 6 24 8 25
REMARK SMILES IDX 7 26 2 27 1 28 23 29 24 30 25 31 26 32 27 33 28 35 29 36
REMARK SMILES IDX 30 37 76 38 31 39 75 40 32 41 33 42 34 43 69 44 35 45 74 46
REMARK SMILES IDX 68 47 70 48 36 49 73 50 67 51 66 52 37 54 59 55 44 56 58 57
REMARK SMILES IDX 45 58 48 59 57 60 71 61 46 62 47 63 56 65 72 66 49 67 38 68
REMARK SMILES IDX 39 69 43 70 40 71 42 72 41 73 60 74 61 75 65 76 62 77 64 78
REMARK SMILES IDX 63 79 50 80 51 81 55 82 52 83 54 84 53 85
REMARK H PARENT 22 4 15 13 12 19 26 34 70 53 48 64
REMARK Flexibility Score: inf
ROOT
ATOM      1  C   UNL A   1      34.312  31.712  27.981  1.00  0.00     0.251 C 
ATOM      2  O   UNL A   1      35.153  31.246  28.754  1.00  0.00    -0.269 OA
ATOM      3  N   UNL A   1      34.328  33.082  27.856  1.00  0.00    -0.352 N 
ATOM      4  H   UNL A   1      35.145  33.503  27.504  1.00  0.00     0.163 HD
ENDROOT
BRANCH   1   5
ATOM      5  C   UNL A   1      33.181  30.793  27.263  1.00  0.00     0.040 A 
ATOM      6  C   UNL A   1      32.116  28.413  24.851  1.00  0.00     0.043 A 
ATOM      7  C   UNL A   1      33.679  28.351  25.627  1.00  0.00     0.027 A 
ATOM      8  C   UNL A   1      31.036  29.897  24.972  1.00  0.00    -0.027 A 
ATOM      9  C   UNL A   1      34.182  29.424  26.796  1.00  0.00     0.016 A 
ATOM     10  C   UNL A   1      31.398  31.077  26.355  1.00  0.00     0.019 A 
ATOM     11  C   UNL A   1      30.149  30.473  23.906  1.00  0.00     0.046 C 
BRANCH   6  12
ATOM     12  N   UNL A   1      31.691  27.083  25.609  1.00  0.00    -0.332 N 
ATOM     13  H   UNL A   1      32.297  26.902  26.364  1.00  0.00     0.169 HD
BRANCH  12  14
ATOM     14  C   UNL A   1      30.695  26.084  25.511  1.00  0.00     0.177 C 
ATOM     15  S   UNL A   1      29.516  26.373  24.333  1.00  0.00    -0.040 S 
BRANCH  14  16
ATOM     16  N   UNL A   1      30.453  24.891  26.282  1.00  0.00    -0.299 N 
ATOM     17  C   UNL A   1      30.880  23.551  26.811  1.00  0.00     0.261 C 
ATOM     18  O   UNL A   1      30.179  22.916  27.592  1.00  0.00    -0.269 OA
ATOM     19  H   UNL A   1      29.548  25.018  26.649  1.00  0.00     0.172 HD
BRANCH  17  20
ATOM     20  C   UNL A   1      32.153  22.992  26.330  1.00  0.00     0.082 A 
ATOM     21  C   UNL A   1      31.631  21.620  25.427  1.00  0.00     0.134 A 
ATOM     22  C   UNL A   1      32.919  20.154  24.885  1.00  0.00    -0.008 A 
ATOM     23  C   UNL A   1      32.842  18.772  24.171  1.00  0.00     0.048 C 
ATOM     24  C   UNL A   1      34.692  20.489  25.195  1.00  0.00     0.007 A 
ATOM     25  C   UNL A   1      33.860  23.205  26.566  1.00  0.00     0.018 A 
ATOM     26  C   UNL A   1      35.101  22.034  26.011  1.00  0.00     0.001 A 
BRANCH  21  27
ATOM     27  O   UNL A   1      31.203  23.019  24.372  1.00  0.00    -0.496 OA
ATOM     28  C   UNL A   1      31.702  23.461  23.045  1.00  0.00     0.278 C 
ENDBRANCH  21  27
ENDBRANCH  17  20
ENDBRANCH  14  16
ENDBRANCH  12  14
ENDBRANCH   6  12
ENDBRANCH   1   5
BRANCH   3  29
ATOM     29  C   UNL A   1      33.223  33.942  28.208  1.00  0.00     0.118 C 
BRANCH  29  30
ATOM     30  C   UNL A   1      33.711  35.346  28.563  1.00  0.00     0.042 C 
BRANCH  30  31
ATOM     31  C   UNL A   1      33.768  35.666  30.040  1.00  0.00     0.118 C 
BRANCH  31  32
ATOM     32  N   UNL A   1      33.568  34.486  30.861  1.00  0.00    -0.352 N 
ATOM     33  C   UNL A   1      34.467  33.582  31.381  1.00  0.00     0.251 C 
ATOM     34  H   UNL A   1      32.627  34.301  31.083  1.00  0.00     0.163 HD
ATOM     35  O   UNL A   1      34.041  32.515  31.819  1.00  0.00    -0.269 OA
BRANCH  33  36
ATOM     36  C   UNL A   1      35.878  33.979  31.658  1.00  0.00     0.039 A 
ATOM     37  C   UNL A   1      36.645  34.096  30.487  1.00  0.00     0.014 A 
ATOM     38  C   UNL A   1      36.481  33.566  32.834  1.00  0.00     0.014 A 
ATOM     39  C   UNL A   1      37.839  33.407  30.404  1.00  0.00     0.010 A 
ATOM     40  C   UNL A   1      37.532  32.707  32.715  1.00  0.00     0.010 A 
ATOM     41  C   UNL A   1      38.172  32.602  31.481  1.00  0.00    -0.014 A 
BRANCH  41  42
ATOM     42  C   UNL A   1      39.333  31.755  31.542  1.00  0.00     0.031 A 
ATOM     43  C   UNL A   1      39.170  30.496  30.801  1.00  0.00     0.074 A 
ATOM     44  C   UNL A   1      40.458  32.311  32.044  1.00  0.00     0.049 A 
ATOM     45  N   UNL A   1      39.849  29.435  31.013  1.00  0.00    -0.248 NA
ATOM     46  C   UNL A   1      38.131  30.293  29.775  1.00  0.00     0.031 C 
ATOM     47  C   UNL A   1      41.848  31.896  31.940  1.00  0.00     0.029 A 
ATOM     48  N   UNL A   1      40.502  33.358  32.970  1.00  0.00    -0.354 N 
ATOM     49  C   UNL A   1      39.656  28.625  29.913  1.00  0.00     0.074 A 
ATOM     50  C   UNL A   1      38.460  29.099  29.276  1.00  0.00     0.031 C 
ATOM     51  C   UNL A   1      42.540  32.420  32.974  1.00  0.00     0.029 A 
ATOM     52  C   UNL A   1      41.583  33.104  33.833  1.00  0.00     0.049 A 
ATOM     53  H   UNL A   1      39.889  34.129  33.009  1.00  0.00     0.167 HD
ATOM     54  C   UNL A   1      40.673  27.797  29.561  1.00  0.00     0.031 A 
ATOM     55  C   UNL A   1      41.320  32.767  35.134  1.00  0.00     0.031 A 
ATOM     56  C   UNL A   1      41.760  27.943  30.527  1.00  0.00     0.049 A 
ATOM     57  C   UNL A   1      41.620  31.300  35.360  1.00  0.00     0.074 A 
ATOM     58  C   UNL A   1      42.911  28.713  30.508  1.00  0.00     0.029 A 
ATOM     59  N   UNL A   1      41.501  27.639  31.855  1.00  0.00    -0.354 N 
ATOM     60  N   UNL A   1      41.520  30.378  34.435  1.00  0.00    -0.248 NA
ATOM     61  C   UNL A   1      42.187  30.789  36.606  1.00  0.00     0.031 C 
ATOM     62  C   UNL A   1      43.299  28.931  31.861  1.00  0.00     0.029 A 
ATOM     63  C   UNL A   1      42.384  28.295  32.686  1.00  0.00     0.049 A 
ATOM     64  H   UNL A   1      40.786  27.037  32.161  1.00  0.00     0.167 HD
ATOM     65  C   UNL A   1      42.088  29.218  34.896  1.00  0.00     0.074 A 
ATOM     66  C   UNL A   1      42.458  29.517  36.268  1.00  0.00     0.031 C 
ATOM     67  C   UNL A   1      42.287  28.106  34.125  1.00  0.00     0.031 A 
BRANCH  54  68
ATOM     68  C   UNL A   1      40.841  27.090  28.245  1.00  0.00    -0.014 A 
ATOM     69  C   UNL A   1      41.378  27.823  27.168  1.00  0.00     0.009 A 
ATOM     70  C   UNL A   1      40.494  25.756  27.973  1.00  0.00     0.009 A 
ATOM     71  C   UNL A   1      41.536  27.276  25.893  1.00  0.00     0.001 A 
ATOM     72  C   UNL A   1      40.645  25.201  26.692  1.00  0.00     0.001 A 
ATOM     73  C   UNL A   1      41.165  25.962  25.652  1.00  0.00     0.000 A 
ENDBRANCH  54  68
BRANCH  55  74
ATOM     74  C   UNL A   1      40.158  33.555  35.669  1.00  0.00    -0.014 A 
ATOM     75  C   UNL A   1      39.013  32.806  36.037  1.00  0.00     0.009 A 
ATOM     76  C   UNL A   1      40.356  34.799  36.283  1.00  0.00     0.009 A 
ATOM     77  C   UNL A   1      38.245  33.169  37.149  1.00  0.00     0.001 A 
ATOM     78  C   UNL A   1      39.552  35.176  37.371  1.00  0.00     0.001 A 
ATOM     79  C   UNL A   1      38.549  34.330  37.847  1.00  0.00     0.000 A 
ENDBRANCH  55  74
BRANCH  67  80
ATOM     80  C   UNL A   1      42.487  26.705  34.657  1.00  0.00    -0.014 A 
ATOM     81  C   UNL A   1      41.542  26.017  35.423  1.00  0.00     0.009 A 
ATOM     82  C   UNL A   1      43.616  25.959  34.239  1.00  0.00     0.009 A 
ATOM     83  C   UNL A   1      41.746  24.690  35.814  1.00  0.00     0.001 A 
ATOM     84  C   UNL A   1      43.784  24.611  34.552  1.00  0.00     0.001 A 
ATOM     85  C   UNL A   1      42.857  23.983  35.366  1.00  0.00     0.000 A 
ENDBRANCH  67  80
ENDBRANCH  41  42
ENDBRANCH  33  36
ENDBRANCH  31  32
ENDBRANCH  30  31
ENDBRANCH  29  30
ENDBRANCH   3  29
TORSDOF 15
ENDMDL
MODEL 2
REMARK VINA RESULT:     -13.2      4.689     10.122
REMARK SMILES COc1c(C)cccc1C(=O)NC(=S)Nc1ccc(C(=O)NCCCNC(=O)c2ccc(-c3c4nc(c(-c5ccccc5)c5ccc([nH]5)c(-c5ccccc5)c5nc(c(-c6ccccc6)c6ccc3[nH]6)C=C5)C=C4)cc2)cc1C
REMARK SMILES IDX 20 1 21 2 22 3 19 5 16 6 17 7 78 8 18 9 77 10 79 11 15 12
REMARK SMILES IDX 13 14 14 15 12 16 10 17 11 18 9 20 3 21 4 22 5 23 6 24 8 25
REMARK SMILES IDX 7 26 2 27 1 28 23 29 24 30 25 31 26 32 27 33 28 35 29 36
REMARK SMILES IDX 30 37 76 38 31 39 75 40 32 41 33 42 34 43 69 44 35 45 74 46
REMARK SMILES IDX 68 47 70 48 36 49 73 50 67 51 66 52 37 54 59 55 44 56 58 57
REMARK SMILES IDX 45 58 48 59 57 60 71 61 46 62 47 63 56 65 72 66 49 67 38 68
REMARK SMILES IDX 39 69 43 70 40 71 42 72 41 73 60 74 61 75 65 76 62 77 64 78
REMARK SMILES IDX 63 79 50 80 51 81 55 82 52 83 54 84 53 85
REMARK H PARENT 22 4 15 13 12 19 26 34 70 53 48 64
REMARK Flexibility Score: inf
ROOT
ATOM      1  C   UNL A   1      37.712  20.924  24.858  1.00  0.00     0.251 C 
ATOM      2  O   UNL A   1      37.900  19.706  24.807  1.00  0.00    -0.269 OA
ATOM      3  N   UNL A   1      38.819  21.675  25.176  1.00  0.00    -0.352 N 
ATOM      4  H   UNL A   1      39.590  21.641  24.566  1.00  0.00     0.163 HD
ENDROOT
BRANCH   1   5
ATOM      5  C   UNL A   1      36.237  21.587  24.693  1.00  0.00     0.040 A 
ATOM      6  C   UNL A   1      32.802  21.455  23.803  1.00  0.00     0.043 A 
ATOM      7  C   UNL A   1      33.655  20.108  24.516  1.00  0.00     0.027 A 
ATOM      8  C   UNL A   1      33.692  22.927  23.151  1.00  0.00    -0.027 A 
ATOM      9  C   UNL A   1      35.251  20.162  24.988  1.00  0.00     0.016 A 
ATOM     10  C   UNL A   1      35.427  23.181  23.753  1.00  0.00     0.019 A 
ATOM     11  C   UNL A   1      33.352  23.738  21.933  1.00  0.00     0.046 C 
BRANCH   6  12
ATOM     12  N   UNL A   1      31.933  21.599  25.125  1.00  0.00    -0.332 N 
ATOM     13  H   UNL A   1      31.311  20.841  25.220  1.00  0.00     0.169 HD
BRANCH  12  14
ATOM     14  C   UNL A   1      31.794  22.503  26.204  1.00  0.00     0.177 C 
ATOM     15  S   UNL A   1      32.996  22.381  27.388  1.00  0.00    -0.040 S 
BRANCH  14  16
ATOM     16  N   UNL A   1      30.772  23.468  26.523  1.00  0.00    -0.299 N 
ATOM     17  C   UNL A   1      30.019  24.736  26.238  1.00  0.00     0.261 C 
ATOM     18  O   UNL A   1      29.060  25.080  26.922  1.00  0.00    -0.269 OA
ATOM     19  H   UNL A   1      30.357  23.119  27.344  1.00  0.00     0.172 HD
BRANCH  17  20
ATOM     20  C   UNL A   1      30.491  25.587  25.135  1.00  0.00     0.082 A 
ATOM     21  C   UNL A   1      30.986  27.015  25.962  1.00  0.00     0.134 A 
ATOM     22  C   UNL A   1      31.307  28.756  24.977  1.00  0.00    -0.008 A 
ATOM     23  C   UNL A   1      31.667  30.226  25.342  1.00  0.00     0.048 C 
ATOM     24  C   UNL A   1      31.277  28.659  23.148  1.00  0.00     0.007 A 
ATOM     25  C   UNL A   1      30.496  25.614  23.399  1.00  0.00     0.018 A 
ATOM     26  C   UNL A   1      30.893  27.064  22.421  1.00  0.00     0.001 A 
BRANCH  21  27
ATOM     27  O   UNL A   1      32.286  25.823  26.341  1.00  0.00    -0.496 OA
ATOM     28  C   UNL A   1      33.708  25.726  25.920  1.00  0.00     0.278 C 
ENDBRANCH  21  27
ENDBRANCH  17  20
ENDBRANCH  14  16
ENDBRANCH  12  14
ENDBRANCH   6  12
ENDBRANCH   1   5
BRANCH   3  29
ATOM     29  C   UNL A   1      38.924  22.511  26.348  1.00  0.00     0.118 C 
BRANCH  29  30
ATOM     30  C   UNL A   1      40.276  22.325  27.036  1.00  0.00     0.042 C 
BRANCH  30  31
ATOM     31  C   UNL A   1      41.480  22.803  26.255  1.00  0.00     0.118 C 
BRANCH  31  32
ATOM     32  N   UNL A   1      42.245  21.700  25.705  1.00  0.00    -0.352 N 
ATOM     33  C   UNL A   1      43.553  21.628  25.278  1.00  0.00     0.251 C 
ATOM     34  H   UNL A   1      41.743  20.857  25.625  1.00  0.00     0.163 HD
ATOM     35  O   UNL A   1      43.899  20.660  24.603  1.00  0.00    -0.269 OA
BRANCH  33  36
ATOM     36  C   UNL A   1      44.589  22.547  25.831  1.00  0.00     0.039 A 
ATOM     37  C   UNL A   1      44.672  22.488  27.232  1.00  0.00     0.014 A 
ATOM     38  C   UNL A   1      44.857  23.739  25.178  1.00  0.00     0.014 A 
ATOM     39  C   UNL A   1      44.585  23.663  27.952  1.00  0.00     0.010 A 
ATOM     40  C   UNL A   1      44.554  24.886  25.847  1.00  0.00     0.010 A 
ATOM     41  C   UNL A   1      44.372  24.825  27.229  1.00  0.00    -0.014 A 
BRANCH  41  42
ATOM     42  C   UNL A   1      44.181  26.127  27.808  1.00  0.00     0.031 A 
ATOM     43  C   UNL A   1      42.823  26.654  27.612  1.00  0.00     0.074 A 
ATOM     44  C   UNL A   1      45.158  26.569  28.632  1.00  0.00     0.049 A 
ATOM     45  N   UNL A   1      42.509  27.890  27.661  1.00  0.00    -0.248 NA
ATOM     46  C   UNL A   1      41.674  25.805  27.248  1.00  0.00     0.031 C 
ATOM     47  C   UNL A   1      45.150  27.628  29.629  1.00  0.00     0.029 A 
ATOM     48  N   UNL A   1      46.504  26.198  28.566  1.00  0.00    -0.354 N 
ATOM     49  C   UNL A   1      41.135  27.938  27.783  1.00  0.00     0.074 A 
ATOM     50  C   UNL A   1      40.654  26.661  27.338  1.00  0.00     0.031 C 
ATOM     51  C   UNL A   1      46.416  28.049  29.830  1.00  0.00     0.029 A 
ATOM     52  C   UNL A   1      47.265  27.338  28.885  1.00  0.00     0.049 A 
ATOM     53  H   UNL A   1      46.854  25.306  28.338  1.00  0.00     0.167 HD
ATOM     54  C   UNL A   1      40.604  28.984  28.468  1.00  0.00     0.031 A 
ATOM     55  C   UNL A   1      48.004  27.932  27.897  1.00  0.00     0.031 A 
ATOM     56  C   UNL A   1      41.684  29.878  28.880  1.00  0.00     0.049 A 
ATOM     57  C   UNL A   1      47.371  29.249  27.498  1.00  0.00     0.074 A 
ATOM     58  C   UNL A   1      42.393  29.979  30.065  1.00  0.00     0.029 A 
ATOM     59  N   UNL A   1      42.464  30.462  27.894  1.00  0.00    -0.354 N 
ATOM     60  N   UNL A   1      46.087  29.498  27.564  1.00  0.00    -0.248 NA
ATOM     61  C   UNL A   1      48.154  30.425  27.127  1.00  0.00     0.031 C 
ATOM     62  C   UNL A   1      43.653  30.569  29.758  1.00  0.00     0.029 A 
ATOM     63  C   UNL A   1      43.698  30.819  28.395  1.00  0.00     0.049 A 
ATOM     64  H   UNL A   1      42.176  30.602  26.963  1.00  0.00     0.167 HD
ATOM     65  C   UNL A   1      45.879  30.839  27.364  1.00  0.00     0.074 A 
ATOM     66  C   UNL A   1      47.198  31.367  27.061  1.00  0.00     0.031 C 
ATOM     67  C   UNL A   1      44.669  31.456  27.520  1.00  0.00     0.031 A 
BRANCH  54  68
ATOM     68  C   UNL A   1      39.209  29.080  29.019  1.00  0.00    -0.014 A 
ATOM     69  C   UNL A   1      38.176  29.448  28.135  1.00  0.00     0.009 A 
ATOM     70  C   UNL A   1      38.831  28.852  30.353  1.00  0.00     0.009 A 
ATOM     71  C   UNL A   1      36.853  29.608  28.553  1.00  0.00     0.001 A 
ATOM     72  C   UNL A   1      37.503  29.016  30.781  1.00  0.00     0.001 A 
ATOM     73  C   UNL A   1      36.515  29.395  29.880  1.00  0.00     0.000 A 
ENDBRANCH  54  68
BRANCH  55  74
ATOM     74  C   UNL A   1      48.618  26.903  26.991  1.00  0.00    -0.014 A 
ATOM     75  C   UNL A   1      48.027  26.766  25.711  1.00  0.00     0.009 A 
ATOM     76  C   UNL A   1      49.958  26.522  27.143  1.00  0.00     0.009 A 
ATOM     77  C   UNL A   1      48.813  26.504  24.582  1.00  0.00     0.001 A 
ATOM     78  C   UNL A   1      50.729  26.218  26.009  1.00  0.00     0.001 A 
ATOM     79  C   UNL A   1      50.176  26.281  24.729  1.00  0.00     0.000 A 
ENDBRANCH  55  74
BRANCH  67  80
ATOM     80  C   UNL A   1      44.288  32.786  26.909  1.00  0.00    -0.014 A 
ATOM     81  C   UNL A   1      44.084  32.989  25.542  1.00  0.00     0.009 A 
ATOM     82  C   UNL A   1      43.953  33.868  27.759  1.00  0.00     0.009 A 
ATOM     83  C   UNL A   1      43.648  34.221  25.045  1.00  0.00     0.001 A 
ATOM     84  C   UNL A   1      43.435  35.069  27.278  1.00  0.00     0.001 A 
ATOM     85  C   UNL A   1      43.309  35.254  25.912  1.00  0.00     0.000 A 
ENDBRANCH  67  80
ENDBRANCH  41  42
ENDBRANCH  33  36
ENDBRANCH  31  32
ENDBRANCH  30  31
ENDBRANCH  29  30
ENDBRANCH   3  29
TORSDOF 15
ENDMDL
MODEL 3
REMARK VINA RESULT:     -12.3      4.158      9.538
REMARK SMILES COc1c(C)cccc1C(=O)NC(=S)Nc1ccc(C(=O)NCCCNC(=O)c2ccc(-c3c4nc(c(-c5ccccc5)c5ccc([nH]5)c(-c5ccccc5)c5nc(c(-c6ccccc6)c6ccc3[nH]6)C=C5)C=C4)cc2)cc1C
REMARK SMILES IDX 20 1 21 2 22 3 19 5 16 6 17 7 78 8 18 9 77 10 79 11 15 12
REMARK SMILES IDX 13 14 14 15 12 16 10 17 11 18 9 20 3 21 4 22 5 23 6 24 8 25
REMARK SMILES IDX 7 26 2 27 1 28 23 29 24 30 25 31 26 32 27 33 28 35 29 36
REMARK SMILES IDX 30 37 76 38 31 39 75 40 32 41 33 42 34 43 69 44 35 45 74 46
REMARK SMILES IDX 68 47 70 48 36 49 73 50 67 51 66 52 37 54 59 55 44 56 58 57
REMARK SMILES IDX 45 58 48 59 57 60 71 61 46 62 47 63 56 65 72 66 49 67 38 68
REMARK SMILES IDX 39 69 43 70 40 71 42 72 41 73 60 74 61 75 65 76 62 77 64 78
REMARK SMILES IDX 63 79 50 80 51 81 55 82 52 83 54 84 53 85
REMARK H PARENT 22 4 15 13 12 19 26 34 70 53 48 64
REMARK Flexibility Score: inf
ROOT
ATOM      1  C   UNL A   1      34.560  22.924  26.636  1.00  0.00     0.251 C 
ATOM      2  O   UNL A   1      34.431  22.928  27.862  1.00  0.00    -0.269 OA
ATOM      3  N   UNL A   1      35.593  22.151  26.158  1.00  0.00    -0.352 N 
ATOM      4  H   UNL A   1      35.565  21.183  26.337  1.00  0.00     0.163 HD
ENDROOT
BRANCH   1   5
ATOM      5  C   UNL A   1      33.664  23.865  25.660  1.00  0.00     0.040 A 
ATOM      6  C   UNL A   1      30.989  24.407  23.388  1.00  0.00     0.043 A 
ATOM      7  C   UNL A   1      30.890  23.294  24.730  1.00  0.00     0.027 A 
ATOM      8  C   UNL A   1      32.591  25.131  22.849  1.00  0.00    -0.027 A 
ATOM      9  C   UNL A   1      32.111  23.060  25.837  1.00  0.00     0.016 A 
ATOM     10  C   UNL A   1      33.979  25.082  24.078  1.00  0.00     0.019 A 
ATOM     11  C   UNL A   1      33.040  25.420  21.445  1.00  0.00     0.046 C 
BRANCH   6  12
ATOM     12  N   UNL A   1      29.913  25.342  24.089  1.00  0.00    -0.332 N 
ATOM     13  H   UNL A   1      29.772  25.072  25.026  1.00  0.00     0.169 HD
BRANCH  12  14
ATOM     14  C   UNL A   1      29.101  26.451  23.756  1.00  0.00     0.177 C 
ATOM     15  S   UNL A   1      27.551  26.421  24.433  1.00  0.00    -0.040 S 
BRANCH  14  16
ATOM     16  N   UNL A   1      29.323  27.576  22.884  1.00  0.00    -0.299 N 
ATOM     17  C   UNL A   1      29.881  28.944  22.608  1.00  0.00     0.261 C 
ATOM     18  O   UNL A   1      29.808  29.454  21.495  1.00  0.00    -0.269 OA
ATOM     19  H   UNL A   1      28.887  27.318  22.040  1.00  0.00     0.172 HD
BRANCH  17  20
ATOM     20  C   UNL A   1      30.484  29.682  23.728  1.00  0.00     0.082 A 
ATOM     21  C   UNL A   1      31.547  28.509  24.409  1.00  0.00     0.134 A 
ATOM     22  C   UNL A   1      32.337  28.740  26.260  1.00  0.00    -0.008 A 
ATOM     23  C   UNL A   1      33.232  27.915  27.231  1.00  0.00     0.048 C 
ATOM     24  C   UNL A   1      32.053  30.364  27.056  1.00  0.00     0.007 A 
ATOM     25  C   UNL A   1      30.288  31.186  24.575  1.00  0.00     0.018 A 
ATOM     26  C   UNL A   1      31.048  31.550  26.158  1.00  0.00     0.001 A 
BRANCH  21  27
ATOM     27  O   UNL A   1      32.381  29.019  22.892  1.00  0.00    -0.496 OA
ATOM     28  C   UNL A   1      33.774  28.842  22.410  1.00  0.00     0.278 C 
ENDBRANCH  21  27
ENDBRANCH  17  20
ENDBRANCH  14  16
ENDBRANCH  12  14
ENDBRANCH   6  12
ENDBRANCH   1   5
BRANCH   3  29
ATOM     29  C   UNL A   1      36.717  22.667  25.413  1.00  0.00     0.118 C 
BRANCH  29  30
ATOM     30  C   UNL A   1      37.437  23.765  26.195  1.00  0.00     0.042 C 
BRANCH  30  31
ATOM     31  C   UNL A   1      38.880  23.477  26.550  1.00  0.00     0.118 C 
BRANCH  31  32
ATOM     32  N   UNL A   1      39.171  22.055  26.534  1.00  0.00    -0.352 N 
ATOM     33  C   UNL A   1      40.357  21.375  26.363  1.00  0.00     0.251 C 
ATOM     34  H   UNL A   1      38.385  21.478  26.669  1.00  0.00     0.163 HD
ATOM     35  O   UNL A   1      40.314  20.171  26.120  1.00  0.00    -0.269 OA
BRANCH  33  36
ATOM     36  C   UNL A   1      41.659  22.007  26.722  1.00  0.00     0.039 A 
ATOM     37  C   UNL A   1      41.916  21.967  28.102  1.00  0.00     0.014 A 
ATOM     38  C   UNL A   1      42.129  23.069  25.968  1.00  0.00     0.014 A 
ATOM     39  C   UNL A   1      42.232  23.144  28.753  1.00  0.00     0.010 A 
ATOM     40  C   UNL A   1      42.223  24.274  26.597  1.00  0.00     0.010 A 
ATOM     41  C   UNL A   1      42.224  24.301  27.991  1.00  0.00    -0.014 A 
BRANCH  41  42
ATOM     42  C   UNL A   1      42.453  25.623  28.508  1.00  0.00     0.031 A 
ATOM     43  C   UNL A   1      41.268  26.490  28.424  1.00  0.00     0.074 A 
ATOM     44  C   UNL A   1      43.601  25.811  29.196  1.00  0.00     0.049 A 
ATOM     45  N   UNL A   1      41.300  27.766  28.431  1.00  0.00    -0.248 NA
ATOM     46  C   UNL A   1      39.902  25.970  28.235  1.00  0.00     0.031 C 
ATOM     47  C   UNL A   1      43.990  26.863  30.122  1.00  0.00     0.029 A 
ATOM     48  N   UNL A   1      44.784  25.089  29.011  1.00  0.00    -0.354 N 
ATOM     49  C   UNL A   1      40.012  28.185  28.694  1.00  0.00     0.074 A 
ATOM     50  C   UNL A   1      39.161  27.072  28.380  1.00  0.00     0.031 C 
ATOM     51  C   UNL A   1      45.337  26.933  30.163  1.00  0.00     0.029 A 
ATOM     52  C   UNL A   1      45.851  25.992  29.178  1.00  0.00     0.049 A 
ATOM     53  H   UNL A   1      44.857  24.129  28.802  1.00  0.00     0.167 HD
ATOM     54  C   UNL A   1      39.859  29.355  29.366  1.00  0.00     0.031 A 
ATOM     55  C   UNL A   1      46.599  26.335  28.084  1.00  0.00     0.031 A 
ATOM     56  C   UNL A   1      41.177  29.938  29.608  1.00  0.00     0.049 A 
ATOM     57  C   UNL A   1      46.294  27.761  27.675  1.00  0.00     0.074 A 
ATOM     58  C   UNL A   1      42.022  29.880  30.703  1.00  0.00     0.029 A 
ATOM     59  N   UNL A   1      41.962  30.260  28.511  1.00  0.00    -0.354 N 
ATOM     60  N   UNL A   1      45.138  28.348  27.861  1.00  0.00    -0.248 NA
ATOM     61  C   UNL A   1      47.310  28.671  27.153  1.00  0.00     0.031 C 
ATOM     62  C   UNL A   1      43.348  30.100  30.230  1.00  0.00     0.029 A 
ATOM     63  C   UNL A   1      43.297  30.287  28.857  1.00  0.00     0.049 A 
ATOM     64  H   UNL A   1      41.614  30.445  27.609  1.00  0.00     0.167 HD
ATOM     65  C   UNL A   1      45.269  29.689  27.603  1.00  0.00     0.074 A 
ATOM     66  C   UNL A   1      46.635  29.834  27.132  1.00  0.00     0.031 C 
ATOM     67  C   UNL A   1      44.291  30.613  27.847  1.00  0.00     0.031 A 
BRANCH  54  68
ATOM     68  C   UNL A   1      38.614  29.839  30.055  1.00  0.00    -0.014 A 
ATOM     69  C   UNL A   1      38.027  31.032  29.589  1.00  0.00     0.009 A 
ATOM     70  C   UNL A   1      37.978  29.220  31.143  1.00  0.00     0.009 A 
ATOM     71  C   UNL A   1      36.894  31.593  30.184  1.00  0.00     0.001 A 
ATOM     72  C   UNL A   1      36.842  29.781  31.750  1.00  0.00     0.001 A 
ATOM     73  C   UNL A   1      36.301  30.968  31.270  1.00  0.00     0.000 A 
ENDBRANCH  54  68
BRANCH  55  74
ATOM     74  C   UNL A   1      46.809  25.152  27.183  1.00  0.00    -0.014 A 
ATOM     75  C   UNL A   1      46.282  23.918  27.640  1.00  0.00     0.009 A 
ATOM     76  C   UNL A   1      46.984  25.323  25.803  1.00  0.00     0.009 A 
ATOM     77  C   UNL A   1      45.719  23.002  26.743  1.00  0.00     0.001 A 
ATOM     78  C   UNL A   1      46.454  24.376  24.910  1.00  0.00     0.001 A 
ATOM     79  C   UNL A   1      45.761  23.259  25.379  1.00  0.00     0.000 A 
ENDBRANCH  55  74
BRANCH  67  80
ATOM     80  C   UNL A   1      44.206  31.977  27.201  1.00  0.00    -0.014 A 
ATOM     81  C   UNL A   1      44.096  32.184  25.824  1.00  0.00     0.009 A 
ATOM     82  C   UNL A   1      44.063  33.124  28.020  1.00  0.00     0.009 A 
ATOM     83  C   UNL A   1      43.932  33.467  25.290  1.00  0.00     0.001 A 
ATOM     84  C   UNL A   1      43.814  34.393  27.499  1.00  0.00     0.001 A 
ATOM     85  C   UNL A   1      43.776  34.567  26.127  1.00  0.00     0.000 A 
ENDBRANCH  67  80
ENDBRANCH  41  42
ENDBRANCH  33  36
ENDBRANCH  31  32
ENDBRANCH  30  31
ENDBRANCH  29  30
ENDBRANCH   3  29
TORSDOF 15
ENDMDL
