MODEL 1
REMARK VINA RESULT:     -11.5      0.000      0.000
REMARK SMILES N#Cc1ccccc1S(=O)(=O)N1CCC(C(=O)NCCCNC(=O)c2ccc(-c3c4nc(c(-c5ccccc5)c5ccc([nH]5)c(-c5ccccc5)c5nc(c(-c6ccccc6)c6ccc3[nH]6)C=C5)C=C4)cc2)CC1
REMARK SMILES IDX 19 1 18 2 16 3 17 4 15 6 12 7 13 8 74 9 14 10 73 11 9 12
REMARK SMILES IDX 10 13 11 14 8 15 3 16 4 17 5 18 7 19 6 20 2 21 1 22 20 23
REMARK SMILES IDX 21 24 22 25 23 26 24 28 25 29 26 30 72 31 27 32 71 33 28 34
REMARK SMILES IDX 29 35 30 36 65 37 31 38 70 39 64 40 66 41 32 42 69 43 63 44
REMARK SMILES IDX 62 45 33 47 55 48 40 49 54 50 41 51 44 52 53 53 67 54 42 55
REMARK SMILES IDX 43 56 52 58 68 59 45 60 34 61 35 62 39 63 36 64 38 65 37 66
REMARK SMILES IDX 56 67 57 68 61 69 58 70 60 71 59 72 46 73 47 74 51 75 48 76
REMARK SMILES IDX 50 77 49 78
REMARK H PARENT 18 5 22 27 66 46 44 57
REMARK Flexibility Score: inf
ROOT
ATOM      1  C   UNL A   1      36.136  20.396  24.887  1.00  0.00     0.117 C 
ENDROOT
BRANCH   1   2
ATOM      2  N   UNL A   1      34.886  19.671  25.065  1.00  0.00    -0.356 N 
ATOM      3  C   UNL A   1      33.610  20.119  25.214  1.00  0.00     0.223 C 
ATOM      4  O   UNL A   1      32.727  19.284  25.414  1.00  0.00    -0.275 OA
ATOM      5  H   UNL A   1      34.980  18.691  25.078  1.00  0.00     0.163 HD
BRANCH   3   6
ATOM      6  C   UNL A   1      33.285  21.601  25.128  1.00  0.00     0.081 C 
ATOM      7  N   UNL A   1      31.386  23.792  25.424  1.00  0.00    -0.198 NA
ATOM      8  C   UNL A   1      31.542  23.194  24.089  1.00  0.00     0.103 C 
ATOM      9  C   UNL A   1      32.323  23.519  26.526  1.00  0.00     0.103 C 
ATOM     10  C   UNL A   1      32.248  21.859  24.046  1.00  0.00     0.030 C 
ATOM     11  C   UNL A   1      32.951  22.145  26.510  1.00  0.00     0.030 C 
BRANCH   7  12
ATOM     12  S   UNL A   1      30.582  25.283  25.475  1.00  0.00     0.244 S 
ATOM     13  O   UNL A   1      29.679  25.231  26.607  1.00  0.00    -0.207 OA
ATOM     14  O   UNL A   1      30.083  25.555  24.143  1.00  0.00    -0.207 OA
BRANCH  12  15
ATOM     15  C   UNL A   1      31.714  26.615  25.840  1.00  0.00     0.100 A 
ATOM     16  C   UNL A   1      32.876  26.983  25.156  1.00  0.00     0.072 A 
ATOM     17  C   UNL A   1      33.655  28.051  25.646  1.00  0.00     0.021 A 
ATOM     18  C   UNL A   1      33.282  28.761  26.781  1.00  0.00     0.001 A 
ATOM     19  C   UNL A   1      31.343  27.352  26.987  1.00  0.00     0.023 A 
ATOM     20  C   UNL A   1      32.117  28.417  27.450  1.00  0.00     0.001 A 
BRANCH  16  21
ATOM     21  C   UNL A   1      33.393  26.402  23.959  1.00  0.00     0.101 C 
ATOM     22  N   UNL A   1      33.716  25.939  22.950  1.00  0.00    -0.192 NA
ENDBRANCH  16  21
ENDBRANCH  12  15
ENDBRANCH   7  12
ENDBRANCH   3   6
ENDBRANCH   1   2
BRANCH   1  23
ATOM     23  C   UNL A   1      37.344  19.482  24.996  1.00  0.00     0.042 C 
BRANCH  23  24
ATOM     24  C   UNL A   1      38.608  20.212  25.400  1.00  0.00     0.118 C 
BRANCH  24  25
ATOM     25  N   UNL A   1      39.721  19.301  25.621  1.00  0.00    -0.352 N 
ATOM     26  C   UNL A   1      41.005  19.568  26.014  1.00  0.00     0.251 C 
ATOM     27  H   UNL A   1      39.520  18.350  25.462  1.00  0.00     0.163 HD
ATOM     28  O   UNL A   1      41.870  18.706  25.903  1.00  0.00    -0.269 OA
BRANCH  26  29
ATOM     29  C   UNL A   1      41.344  20.895  26.566  1.00  0.00     0.039 A 
ATOM     30  C   UNL A   1      41.185  21.119  27.935  1.00  0.00     0.014 A 
ATOM     31  C   UNL A   1      41.790  21.925  25.734  1.00  0.00     0.014 A 
ATOM     32  C   UNL A   1      41.505  22.367  28.468  1.00  0.00     0.010 A 
ATOM     33  C   UNL A   1      42.225  23.123  26.283  1.00  0.00     0.010 A 
ATOM     34  C   UNL A   1      42.048  23.372  27.650  1.00  0.00    -0.014 A 
BRANCH  34  35
ATOM     35  C   UNL A   1      42.377  24.708  28.197  1.00  0.00     0.031 A 
ATOM     36  C   UNL A   1      43.797  25.031  28.586  1.00  0.00     0.074 A 
ATOM     37  C   UNL A   1      41.401  25.620  28.365  1.00  0.00     0.049 A 
ATOM     38  N   UNL A   1      44.287  26.145  29.070  1.00  0.00    -0.248 NA
ATOM     39  C   UNL A   1      44.793  23.956  28.439  1.00  0.00     0.031 C 
ATOM     40  C   UNL A   1      39.981  25.409  28.070  1.00  0.00     0.029 A 
ATOM     41  N   UNL A   1      41.458  26.912  28.818  1.00  0.00    -0.354 N 
ATOM     42  C   UNL A   1      45.634  25.896  29.295  1.00  0.00     0.074 A 
ATOM     43  C   UNL A   1      45.873  24.510  28.966  1.00  0.00     0.031 C 
ATOM     44  C   UNL A   1      39.312  26.549  28.302  1.00  0.00     0.029 A 
ATOM     45  C   UNL A   1      40.244  27.554  28.801  1.00  0.00     0.049 A 
ATOM     46  H   UNL A   1      42.290  27.341  29.125  1.00  0.00     0.167 HD
ATOM     47  C   UNL A   1      46.598  26.751  29.711  1.00  0.00     0.031 A 
ATOM     48  C   UNL A   1      39.921  28.815  29.143  1.00  0.00     0.031 A 
ATOM     49  C   UNL A   1      46.360  28.132  30.032  1.00  0.00     0.049 A 
ATOM     50  C   UNL A   1      41.008  29.743  29.609  1.00  0.00     0.074 A 
ATOM     51  C   UNL A   1      47.272  29.099  30.418  1.00  0.00     0.029 A 
ATOM     52  N   UNL A   1      45.115  28.743  30.002  1.00  0.00    -0.354 N 
ATOM     53  N   UNL A   1      42.291  29.513  29.750  1.00  0.00    -0.248 NA
ATOM     54  C   UNL A   1      40.601  31.114  29.942  1.00  0.00     0.031 C 
ATOM     55  C   UNL A   1      46.570  30.279  30.680  1.00  0.00     0.029 A 
ATOM     56  C   UNL A   1      45.233  30.069  30.384  1.00  0.00     0.049 A 
ATOM     57  H   UNL A   1      44.274  28.300  29.748  1.00  0.00     0.167 HD
ATOM     58  C   UNL A   1      42.851  30.720  30.151  1.00  0.00     0.074 A 
ATOM     59  C   UNL A   1      41.768  31.681  30.211  1.00  0.00     0.031 C 
ATOM     60  C   UNL A   1      44.143  31.011  30.440  1.00  0.00     0.031 A 
BRANCH  47  61
ATOM     61  C   UNL A   1      47.995  26.208  29.846  1.00  0.00    -0.014 A 
ATOM     62  C   UNL A   1      48.863  26.136  28.744  1.00  0.00     0.009 A 
ATOM     63  C   UNL A   1      48.459  25.779  31.100  1.00  0.00     0.009 A 
ATOM     64  C   UNL A   1      50.148  25.610  28.884  1.00  0.00     0.001 A 
ATOM     65  C   UNL A   1      49.757  25.285  31.245  1.00  0.00     0.001 A 
ATOM     66  C   UNL A   1      50.596  25.190  30.136  1.00  0.00     0.000 A 
ENDBRANCH  47  61
BRANCH  48  67
ATOM     67  C   UNL A   1      38.515  29.284  29.027  1.00  0.00    -0.014 A 
ATOM     68  C   UNL A   1      38.025  29.781  27.809  1.00  0.00     0.009 A 
ATOM     69  C   UNL A   1      37.659  29.252  30.138  1.00  0.00     0.009 A 
ATOM     70  C   UNL A   1      36.720  30.269  27.716  1.00  0.00     0.001 A 
ATOM     71  C   UNL A   1      36.344  29.709  30.034  1.00  0.00     0.001 A 
ATOM     72  C   UNL A   1      35.880  30.229  28.827  1.00  0.00     0.000 A 
ENDBRANCH  48  67
BRANCH  60  73
ATOM     73  C   UNL A   1      44.461  32.438  30.792  1.00  0.00    -0.014 A 
ATOM     74  C   UNL A   1      44.783  33.387  29.809  1.00  0.00     0.009 A 
ATOM     75  C   UNL A   1      44.424  32.839  32.137  1.00  0.00     0.009 A 
ATOM     76  C   UNL A   1      45.113  34.694  30.173  1.00  0.00     0.001 A 
ATOM     77  C   UNL A   1      44.716  34.155  32.494  1.00  0.00     0.001 A 
ATOM     78  C   UNL A   1      45.076  35.077  31.514  1.00  0.00     0.000 A 
ENDBRANCH  60  73
ENDBRANCH  34  35
ENDBRANCH  26  29
ENDBRANCH  24  25
ENDBRANCH  23  24
ENDBRANCH   1  23
TORSDOF 13
ENDMDL
MODEL 2
REMARK VINA RESULT:     -11.5      5.879     11.731
REMARK SMILES N#Cc1ccccc1S(=O)(=O)N1CCC(C(=O)NCCCNC(=O)c2ccc(-c3c4nc(c(-c5ccccc5)c5ccc([nH]5)c(-c5ccccc5)c5nc(c(-c6ccccc6)c6ccc3[nH]6)C=C5)C=C4)cc2)CC1
REMARK SMILES IDX 19 1 18 2 16 3 17 4 15 6 12 7 13 8 74 9 14 10 73 11 9 12
REMARK SMILES IDX 10 13 11 14 8 15 3 16 4 17 5 18 7 19 6 20 2 21 1 22 20 23
REMARK SMILES IDX 21 24 22 25 23 26 24 28 25 29 26 30 72 31 27 32 71 33 28 34
REMARK SMILES IDX 29 35 30 36 65 37 31 38 70 39 64 40 66 41 32 42 69 43 63 44
REMARK SMILES IDX 62 45 33 47 55 48 40 49 54 50 41 51 44 52 53 53 67 54 42 55
REMARK SMILES IDX 43 56 52 58 68 59 45 60 34 61 35 62 39 63 36 64 38 65 37 66
REMARK SMILES IDX 56 67 57 68 61 69 58 70 60 71 59 72 46 73 47 74 51 75 48 76
REMARK SMILES IDX 50 77 49 78
REMARK H PARENT 18 5 22 27 66 46 44 57
REMARK Flexibility Score: inf
ROOT
ATOM      1  C   UNL A   1      34.121  35.991  31.662  1.00  0.00     0.117 C 
ENDROOT
BRANCH   1   2
ATOM      2  N   UNL A   1      33.359  34.891  32.237  1.00  0.00    -0.356 N 
ATOM      3  C   UNL A   1      33.749  33.853  33.024  1.00  0.00     0.223 C 
ATOM      4  O   UNL A   1      32.903  33.010  33.326  1.00  0.00    -0.275 OA
ATOM      5  H   UNL A   1      32.399  34.902  32.019  1.00  0.00     0.163 HD
BRANCH   3   6
ATOM      6  C   UNL A   1      35.181  33.741  33.521  1.00  0.00     0.081 C 
ATOM      7  N   UNL A   1      37.152  32.535  35.299  1.00  0.00    -0.198 NA
ATOM      8  C   UNL A   1      36.529  33.800  35.720  1.00  0.00     0.103 C 
ATOM      9  C   UNL A   1      37.025  32.011  33.930  1.00  0.00     0.103 C 
ATOM     10  C   UNL A   1      35.282  34.202  34.967  1.00  0.00     0.030 C 
ATOM     11  C   UNL A   1      35.731  32.352  33.228  1.00  0.00     0.030 C 
BRANCH   7  12
ATOM     12  S   UNL A   1      38.542  32.078  36.151  1.00  0.00     0.244 S 
ATOM     13  O   UNL A   1      39.677  32.524  35.369  1.00  0.00    -0.207 OA
ATOM     14  O   UNL A   1      38.395  30.682  36.510  1.00  0.00    -0.207 OA
BRANCH  12  15
ATOM     15  C   UNL A   1      38.669  32.955  37.701  1.00  0.00     0.100 A 
ATOM     16  C   UNL A   1      37.908  32.786  38.862  1.00  0.00     0.072 A 
ATOM     17  C   UNL A   1      38.147  33.625  39.970  1.00  0.00     0.021 A 
ATOM     18  C   UNL A   1      39.137  34.601  39.942  1.00  0.00     0.001 A 
ATOM     19  C   UNL A   1      39.676  33.946  37.691  1.00  0.00     0.023 A 
ATOM     20  C   UNL A   1      39.910  34.757  38.802  1.00  0.00     0.001 A 
BRANCH  16  21
ATOM     21  C   UNL A   1      36.884  31.819  39.090  1.00  0.00     0.101 C 
ATOM     22  N   UNL A   1      35.986  31.107  39.242  1.00  0.00    -0.192 NA
ENDBRANCH  16  21
ENDBRANCH  12  15
ENDBRANCH   7  12
ENDBRANCH   3   6
ENDBRANCH   1   2
BRANCH   1  23
ATOM     23  C   UNL A   1      33.274  36.848  30.739  1.00  0.00     0.042 C 
BRANCH  23  24
ATOM     24  C   UNL A   1      33.576  36.620  29.272  1.00  0.00     0.118 C 
BRANCH  24  25
ATOM     25  N   UNL A   1      32.733  35.586  28.693  1.00  0.00    -0.352 N 
ATOM     26  C   UNL A   1      33.059  34.322  28.279  1.00  0.00     0.251 C 
ATOM     27  H   UNL A   1      31.785  35.832  28.581  1.00  0.00     0.163 HD
ATOM     28  O   UNL A   1      32.273  33.684  27.586  1.00  0.00    -0.269 OA
BRANCH  26  29
ATOM     29  C   UNL A   1      34.357  33.734  28.664  1.00  0.00     0.039 A 
ATOM     30  C   UNL A   1      35.514  34.167  28.015  1.00  0.00     0.014 A 
ATOM     31  C   UNL A   1      34.432  32.739  29.642  1.00  0.00     0.014 A 
ATOM     32  C   UNL A   1      36.746  33.621  28.373  1.00  0.00     0.010 A 
ATOM     33  C   UNL A   1      35.668  32.288  30.083  1.00  0.00     0.010 A 
ATOM     34  C   UNL A   1      36.835  32.693  29.424  1.00  0.00    -0.014 A 
BRANCH  34  35
ATOM     35  C   UNL A   1      38.134  32.091  29.805  1.00  0.00     0.031 A 
ATOM     36  C   UNL A   1      39.057  32.828  30.741  1.00  0.00     0.074 A 
ATOM     37  C   UNL A   1      38.493  30.899  29.294  1.00  0.00     0.049 A 
ATOM     38  N   UNL A   1      40.227  32.464  31.202  1.00  0.00    -0.248 NA
ATOM     39  C   UNL A   1      38.624  34.159  31.199  1.00  0.00     0.031 C 
ATOM     40  C   UNL A   1      37.705  30.111  28.342  1.00  0.00     0.029 A 
ATOM     41  N   UNL A   1      39.610  30.136  29.513  1.00  0.00    -0.354 N 
ATOM     42  C   UNL A   1      40.669  33.522  31.985  1.00  0.00     0.074 A 
ATOM     43  C   UNL A   1      39.681  34.571  31.882  1.00  0.00     0.031 C 
ATOM     44  C   UNL A   1      38.342  28.954  28.099  1.00  0.00     0.029 A 
ATOM     45  C   UNL A   1      39.597  28.938  28.842  1.00  0.00     0.049 A 
ATOM     46  H   UNL A   1      40.351  30.418  30.097  1.00  0.00     0.167 HD
ATOM     47  C   UNL A   1      41.784  33.607  32.749  1.00  0.00     0.031 A 
ATOM     48  C   UNL A   1      40.495  27.935  28.833  1.00  0.00     0.031 A 
ATOM     49  C   UNL A   1      42.763  32.560  32.856  1.00  0.00     0.049 A 
ATOM     50  C   UNL A   1      41.729  28.057  29.684  1.00  0.00     0.074 A 
ATOM     51  C   UNL A   1      43.905  32.523  33.636  1.00  0.00     0.029 A 
ATOM     52  N   UNL A   1      42.713  31.362  32.159  1.00  0.00    -0.354 N 
ATOM     53  N   UNL A   1      42.098  29.035  30.474  1.00  0.00    -0.248 NA
ATOM     54  C   UNL A   1      42.659  26.920  29.655  1.00  0.00     0.031 C 
ATOM     55  C   UNL A   1      44.578  31.327  33.366  1.00  0.00     0.029 A 
ATOM     56  C   UNL A   1      43.816  30.588  32.475  1.00  0.00     0.049 A 
ATOM     57  H   UNL A   1      42.000  31.102  31.532  1.00  0.00     0.167 HD
ATOM     58  C   UNL A   1      43.284  28.616  31.066  1.00  0.00     0.074 A 
ATOM     59  C   UNL A   1      43.557  27.288  30.556  1.00  0.00     0.031 C 
ATOM     60  C   UNL A   1      44.073  29.268  31.956  1.00  0.00     0.031 A 
BRANCH  47  61
ATOM     61  C   UNL A   1      42.000  34.881  33.520  1.00  0.00    -0.014 A 
ATOM     62  C   UNL A   1      41.397  35.090  34.773  1.00  0.00     0.009 A 
ATOM     63  C   UNL A   1      42.835  35.881  32.998  1.00  0.00     0.009 A 
ATOM     64  C   UNL A   1      41.593  36.287  35.464  1.00  0.00     0.001 A 
ATOM     65  C   UNL A   1      43.057  37.063  33.708  1.00  0.00     0.001 A 
ATOM     66  C   UNL A   1      42.427  37.269  34.934  1.00  0.00     0.000 A 
ENDBRANCH  47  61
BRANCH  48  67
ATOM     67  C   UNL A   1      40.247  26.717  28.018  1.00  0.00    -0.014 A 
ATOM     68  C   UNL A   1      39.472  25.663  28.526  1.00  0.00     0.009 A 
ATOM     69  C   UNL A   1      40.796  26.594  26.733  1.00  0.00     0.009 A 
ATOM     70  C   UNL A   1      39.284  24.497  27.779  1.00  0.00     0.001 A 
ATOM     71  C   UNL A   1      40.578  25.443  25.974  1.00  0.00     0.001 A 
ATOM     72  C   UNL A   1      39.833  24.390  26.503  1.00  0.00     0.000 A 
ENDBRANCH  48  67
BRANCH  60  73
ATOM     73  C   UNL A   1      45.277  28.529  32.472  1.00  0.00    -0.014 A 
ATOM     74  C   UNL A   1      46.554  28.724  31.925  1.00  0.00     0.009 A 
ATOM     75  C   UNL A   1      45.125  27.628  33.539  1.00  0.00     0.009 A 
ATOM     76  C   UNL A   1      47.644  27.991  32.399  1.00  0.00     0.001 A 
ATOM     77  C   UNL A   1      46.223  26.927  34.038  1.00  0.00     0.001 A 
ATOM     78  C   UNL A   1      47.478  27.097  33.457  1.00  0.00     0.000 A 
ENDBRANCH  60  73
ENDBRANCH  34  35
ENDBRANCH  26  29
ENDBRANCH  24  25
ENDBRANCH  23  24
ENDBRANCH   1  23
TORSDOF 13
ENDMDL
MODEL 3
REMARK VINA RESULT:     -11.4      3.345      8.834
REMARK SMILES N#Cc1ccccc1S(=O)(=O)N1CCC(C(=O)NCCCNC(=O)c2ccc(-c3c4nc(c(-c5ccccc5)c5ccc([nH]5)c(-c5ccccc5)c5nc(c(-c6ccccc6)c6ccc3[nH]6)C=C5)C=C4)cc2)CC1
REMARK SMILES IDX 19 1 18 2 16 3 17 4 15 6 12 7 13 8 74 9 14 10 73 11 9 12
REMARK SMILES IDX 10 13 11 14 8 15 3 16 4 17 5 18 7 19 6 20 2 21 1 22 20 23
REMARK SMILES IDX 21 24 22 25 23 26 24 28 25 29 26 30 72 31 27 32 71 33 28 34
REMARK SMILES IDX 29 35 30 36 65 37 31 38 70 39 64 40 66 41 32 42 69 43 63 44
REMARK SMILES IDX 62 45 33 47 55 48 40 49 54 50 41 51 44 52 53 53 67 54 42 55
REMARK SMILES IDX 43 56 52 58 68 59 45 60 34 61 35 62 39 63 36 64 38 65 37 66
REMARK SMILES IDX 56 67 57 68 61 69 58 70 60 71 59 72 46 73 47 74 51 75 48 76
REMARK SMILES IDX 50 77 49 78
REMARK H PARENT 18 5 22 27 66 46 44 57
REMARK Flexibility Score: inf
ROOT
ATOM      1  C   UNL A   1      31.420  30.415  25.497  1.00  0.00     0.117 C 
ENDROOT
BRANCH   1   2
ATOM      2  N   UNL A   1      30.602  30.234  24.306  1.00  0.00    -0.356 N 
ATOM      3  C   UNL A   1      30.454  29.162  23.481  1.00  0.00     0.223 C 
ATOM      4  O   UNL A   1      29.735  29.294  22.490  1.00  0.00    -0.275 OA
ATOM      5  H   UNL A   1      30.063  31.019  24.057  1.00  0.00     0.163 HD
BRANCH   3   6
ATOM      6  C   UNL A   1      31.148  27.843  23.779  1.00  0.00     0.081 C 
ATOM      7  N   UNL A   1      32.202  25.281  22.870  1.00  0.00    -0.198 NA
ATOM      8  C   UNL A   1      30.835  25.309  23.414  1.00  0.00     0.103 C 
ATOM      9  C   UNL A   1      33.131  26.413  23.015  1.00  0.00     0.103 C 
ATOM     10  C   UNL A   1      30.203  26.676  23.538  1.00  0.00     0.030 C 
ATOM     11  C   UNL A   1      32.483  27.778  23.049  1.00  0.00     0.030 C 
BRANCH   7  12
ATOM     12  S   UNL A   1      32.905  23.748  22.718  1.00  0.00     0.244 S 
ATOM     13  O   UNL A   1      33.470  23.678  21.386  1.00  0.00    -0.207 OA
ATOM     14  O   UNL A   1      31.927  22.774  23.158  1.00  0.00    -0.207 OA
BRANCH  12  15
ATOM     15  C   UNL A   1      34.293  23.560  23.826  1.00  0.00     0.100 A 
ATOM     16  C   UNL A   1      34.328  23.725  25.213  1.00  0.00     0.072 A 
ATOM     17  C   UNL A   1      35.553  23.571  25.894  1.00  0.00     0.021 A 
ATOM     18  C   UNL A   1      36.722  23.236  25.220  1.00  0.00     0.001 A 
ATOM     19  C   UNL A   1      35.487  23.212  23.156  1.00  0.00     0.023 A 
ATOM     20  C   UNL A   1      36.688  23.047  23.847  1.00  0.00     0.001 A 
BRANCH  16  21
ATOM     21  C   UNL A   1      33.231  24.028  26.075  1.00  0.00     0.101 C 
ATOM     22  N   UNL A   1      32.283  24.213  26.711  1.00  0.00    -0.192 NA
ENDBRANCH  16  21
ENDBRANCH  12  15
ENDBRANCH   7  12
ENDBRANCH   3   6
ENDBRANCH   1   2
BRANCH   1  23
ATOM     23  C   UNL A   1      31.207  31.778  26.131  1.00  0.00     0.042 C 
BRANCH  23  24
ATOM     24  C   UNL A   1      32.251  32.117  27.175  1.00  0.00     0.118 C 
BRANCH  24  25
ATOM     25  N   UNL A   1      32.227  33.526  27.536  1.00  0.00    -0.352 N 
ATOM     26  C   UNL A   1      33.074  34.236  28.344  1.00  0.00     0.251 C 
ATOM     27  H   UNL A   1      31.491  34.047  27.140  1.00  0.00     0.163 HD
ATOM     28  O   UNL A   1      32.754  35.355  28.734  1.00  0.00    -0.269 OA
BRANCH  26  29
ATOM     29  C   UNL A   1      34.368  33.651  28.748  1.00  0.00     0.039 A 
ATOM     30  C   UNL A   1      35.486  33.859  27.939  1.00  0.00     0.014 A 
ATOM     31  C   UNL A   1      34.475  32.876  29.906  1.00  0.00     0.014 A 
ATOM     32  C   UNL A   1      36.714  33.314  28.312  1.00  0.00     0.010 A 
ATOM     33  C   UNL A   1      35.719  32.441  30.339  1.00  0.00     0.010 A 
ATOM     34  C   UNL A   1      36.845  32.619  29.526  1.00  0.00    -0.014 A 
BRANCH  34  35
ATOM     35  C   UNL A   1      38.138  32.019  29.929  1.00  0.00     0.031 A 
ATOM     36  C   UNL A   1      39.029  32.743  30.905  1.00  0.00     0.074 A 
ATOM     37  C   UNL A   1      38.521  30.842  29.401  1.00  0.00     0.049 A 
ATOM     38  N   UNL A   1      40.190  32.378  31.389  1.00  0.00    -0.248 NA
ATOM     39  C   UNL A   1      38.572  34.060  31.381  1.00  0.00     0.031 C 
ATOM     40  C   UNL A   1      37.766  30.069  28.411  1.00  0.00     0.029 A 
ATOM     41  N   UNL A   1      39.639  30.083  29.633  1.00  0.00    -0.354 N 
ATOM     42  C   UNL A   1      40.601  33.422  32.208  1.00  0.00     0.074 A 
ATOM     43  C   UNL A   1      39.606  34.464  32.101  1.00  0.00     0.031 C 
ATOM     44  C   UNL A   1      38.419  28.923  28.159  1.00  0.00     0.029 A 
ATOM     45  C   UNL A   1      39.654  28.900  28.935  1.00  0.00     0.049 A 
ATOM     46  H   UNL A   1      40.361  30.359  30.243  1.00  0.00     0.167 HD
ATOM     47  C   UNL A   1      41.694  33.499  33.003  1.00  0.00     0.031 A 
ATOM     48  C   UNL A   1      40.561  27.906  28.929  1.00  0.00     0.031 A 
ATOM     49  C   UNL A   1      42.679  32.457  33.113  1.00  0.00     0.049 A 
ATOM     50  C   UNL A   1      41.770  28.018  29.815  1.00  0.00     0.074 A 
ATOM     51  C   UNL A   1      43.800  32.412  33.923  1.00  0.00     0.029 A 
ATOM     52  N   UNL A   1      42.658  31.275  32.388  1.00  0.00    -0.354 N 
ATOM     53  N   UNL A   1      42.110  28.982  30.637  1.00  0.00    -0.248 NA
ATOM     54  C   UNL A   1      42.711  26.890  29.786  1.00  0.00     0.031 C 
ATOM     55  C   UNL A   1      44.490  31.228  33.644  1.00  0.00     0.029 A 
ATOM     56  C   UNL A   1      43.760  30.503  32.717  1.00  0.00     0.049 A 
ATOM     57  H   UNL A   1      41.965  31.024  31.737  1.00  0.00     0.167 HD
ATOM     58  C   UNL A   1      43.283  28.559  31.251  1.00  0.00     0.074 A 
ATOM     59  C   UNL A   1      43.581  27.245  30.719  1.00  0.00     0.031 C 
ATOM     60  C   UNL A   1      44.042  29.198  32.176  1.00  0.00     0.031 A 
BRANCH  47  61
ATOM     61  C   UNL A   1      41.878  34.757  33.808  1.00  0.00    -0.014 A 
ATOM     62  C   UNL A   1      41.303  34.901  35.082  1.00  0.00     0.009 A 
ATOM     63  C   UNL A   1      42.655  35.807  33.295  1.00  0.00     0.009 A 
ATOM     64  C   UNL A   1      41.467  36.084  35.806  1.00  0.00     0.001 A 
ATOM     65  C   UNL A   1      42.847  36.975  34.036  1.00  0.00     0.001 A 
ATOM     66  C   UNL A   1      42.243  37.117  35.284  1.00  0.00     0.000 A 
ENDBRANCH  47  61
BRANCH  48  67
ATOM     67  C   UNL A   1      40.345  26.704  28.080  1.00  0.00    -0.014 A 
ATOM     68  C   UNL A   1      39.586  25.623  28.553  1.00  0.00     0.009 A 
ATOM     69  C   UNL A   1      40.911  26.625  26.799  1.00  0.00     0.009 A 
ATOM     70  C   UNL A   1      39.428  24.473  27.775  1.00  0.00     0.001 A 
ATOM     71  C   UNL A   1      40.724  25.489  26.009  1.00  0.00     0.001 A 
ATOM     72  C   UNL A   1      39.994  24.409  26.502  1.00  0.00     0.000 A 
ENDBRANCH  48  67
BRANCH  60  73
ATOM     73  C   UNL A   1      45.238  28.457  32.708  1.00  0.00    -0.014 A 
ATOM     74  C   UNL A   1      46.506  28.582  32.120  1.00  0.00     0.009 A 
ATOM     75  C   UNL A   1      45.089  27.627  33.832  1.00  0.00     0.009 A 
ATOM     76  C   UNL A   1      47.587  27.848  32.613  1.00  0.00     0.001 A 
ATOM     77  C   UNL A   1      46.179  26.926  34.346  1.00  0.00     0.001 A 
ATOM     78  C   UNL A   1      47.423  27.025  33.727  1.00  0.00     0.000 A 
ENDBRANCH  60  73
ENDBRANCH  34  35
ENDBRANCH  26  29
ENDBRANCH  24  25
ENDBRANCH  23  24
ENDBRANCH   1  23
TORSDOF 13
ENDMDL
