MODEL 1
REMARK VINA RESULT:     -11.5      0.000      0.000
REMARK SMILES Cc1cc(Br)ccc1NS(=O)(=O)c1ccc(C(=O)NCCCNC(=O)c2ccc(-c3c4nc(c(-c5ccccc5)c5ccc([nH]5)c(-c5ccccc5)c5nc(c(-c6ccccc6)c6ccc3[nH]6)C=C5)C=C4)cc2)cc1
REMARK SMILES IDX 20 1 19 2 17 3 18 4 16 6 13 7 14 8 75 9 15 10 74 11 10 12
REMARK SMILES IDX 11 13 12 14 9 15 8 17 1 18 2 19 3 20 4 21 7 22 5 23 6 24
REMARK SMILES IDX 21 25 22 26 23 27 24 28 25 30 26 31 27 32 73 33 28 34 72 35
REMARK SMILES IDX 29 36 30 37 31 38 66 39 32 40 71 41 65 42 67 43 33 44 70 45
REMARK SMILES IDX 64 46 63 47 34 49 56 50 41 51 55 52 42 53 45 54 54 55 68 56
REMARK SMILES IDX 43 57 44 58 53 60 69 61 46 62 35 63 36 64 40 65 37 66 39 67
REMARK SMILES IDX 38 68 57 69 58 70 62 71 59 72 61 73 60 74 47 75 48 76 52 77
REMARK SMILES IDX 49 78 51 79 50 80
REMARK H PARENT 19 5 9 16 23 29 67 48 45 59
REMARK Flexibility Score: inf
ROOT
ATOM      1  C   UNL A   1      37.296  21.179  24.483  1.00  0.00     0.118 C 
ENDROOT
BRANCH   1   2
ATOM      2  N   UNL A   1      37.822  22.365  25.131  1.00  0.00    -0.352 N 
ATOM      3  C   UNL A   1      37.162  23.448  25.638  1.00  0.00     0.251 C 
ATOM      4  O   UNL A   1      37.790  24.350  26.184  1.00  0.00    -0.269 OA
ATOM      5  H   UNL A   1      38.803  22.395  25.217  1.00  0.00     0.163 HD
BRANCH   3   6
ATOM      6  C   UNL A   1      35.688  23.523  25.595  1.00  0.00     0.039 A 
ATOM      7  C   UNL A   1      32.917  23.478  25.292  1.00  0.00     0.087 A 
ATOM      8  C   UNL A   1      33.722  23.968  24.259  1.00  0.00     0.023 A 
ATOM      9  C   UNL A   1      33.488  23.109  26.519  1.00  0.00     0.023 A 
ATOM     10  C   UNL A   1      35.109  23.942  24.393  1.00  0.00     0.015 A 
ATOM     11  C   UNL A   1      34.880  23.128  26.667  1.00  0.00     0.015 A 
BRANCH   7  12
ATOM     12  S   UNL A   1      31.160  23.364  25.046  1.00  0.00     0.261 S 
ATOM     13  O   UNL A   1      30.694  22.211  25.797  1.00  0.00    -0.201 OA
ATOM     14  O   UNL A   1      30.914  23.446  23.625  1.00  0.00    -0.201 OA
BRANCH  12  15
ATOM     15  N   UNL A   1      30.407  24.749  25.721  1.00  0.00    -0.279 N 
ATOM     16  H   UNL A   1      30.042  24.704  26.635  1.00  0.00     0.180 HD
BRANCH  15  17
ATOM     17  C   UNL A   1      30.297  25.978  24.977  1.00  0.00     0.052 A 
ATOM     18  C   UNL A   1      32.449  27.026  25.947  1.00  0.00     0.046 C 
ATOM     19  C   UNL A   1      31.279  26.987  25.002  1.00  0.00    -0.026 A 
ATOM     20  C   UNL A   1      31.099  28.130  24.190  1.00  0.00     0.021 A 
ATOM     21  C   UNL A   1      29.959  28.282  23.404  1.00  0.00     0.018 A 
ATOM     22  C   UNL A   1      29.107  26.214  24.279  1.00  0.00     0.028 A 
ATOM     23  Br  UNL A   1      29.764  29.800  22.299  1.00  0.00    -0.051 Br
ATOM     24  C   UNL A   1      28.947  27.337  23.465  1.00  0.00     0.018 A 
ENDBRANCH  15  17
ENDBRANCH  12  15
ENDBRANCH   7  12
ENDBRANCH   3   6
ENDBRANCH   1   2
BRANCH   1  25
ATOM     25  C   UNL A   1      38.095  19.945  24.886  1.00  0.00     0.042 C 
BRANCH  25  26
ATOM     26  C   UNL A   1      39.060  20.207  26.039  1.00  0.00     0.118 C 
BRANCH  26  27
ATOM     27  N   UNL A   1      40.258  19.386  25.937  1.00  0.00    -0.352 N 
ATOM     28  C   UNL A   1      41.576  19.749  26.004  1.00  0.00     0.251 C 
ATOM     29  H   UNL A   1      40.095  18.425  25.800  1.00  0.00     0.163 HD
ATOM     30  O   UNL A   1      42.442  18.963  25.630  1.00  0.00    -0.269 OA
BRANCH  28  31
ATOM     31  C   UNL A   1      41.963  21.075  26.528  1.00  0.00     0.039 A 
ATOM     32  C   UNL A   1      41.991  21.269  27.911  1.00  0.00     0.014 A 
ATOM     33  C   UNL A   1      42.238  22.141  25.666  1.00  0.00     0.014 A 
ATOM     34  C   UNL A   1      42.319  22.521  28.427  1.00  0.00     0.010 A 
ATOM     35  C   UNL A   1      42.650  23.365  26.182  1.00  0.00     0.010 A 
ATOM     36  C   UNL A   1      42.671  23.575  27.566  1.00  0.00    -0.014 A 
BRANCH  36  37
ATOM     37  C   UNL A   1      43.034  24.907  28.107  1.00  0.00     0.031 A 
ATOM     38  C   UNL A   1      41.969  25.946  28.343  1.00  0.00     0.074 A 
ATOM     39  C   UNL A   1      44.326  25.191  28.357  1.00  0.00     0.049 A 
ATOM     40  N   UNL A   1      42.093  27.161  28.811  1.00  0.00    -0.248 NA
ATOM     41  C   UNL A   1      40.590  25.581  27.982  1.00  0.00     0.031 C 
ATOM     42  C   UNL A   1      45.451  24.281  28.128  1.00  0.00     0.029 A 
ATOM     43  N   UNL A   1      44.911  26.323  28.863  1.00  0.00    -0.354 N 
ATOM     44  C   UNL A   1      40.815  27.707  28.790  1.00  0.00     0.074 A 
ATOM     45  C   UNL A   1      39.941  26.714  28.207  1.00  0.00     0.031 C 
ATOM     46  C   UNL A   1      46.584  24.876  28.532  1.00  0.00     0.029 A 
ATOM     47  C   UNL A   1      46.273  26.219  29.008  1.00  0.00     0.049 A 
ATOM     48  H   UNL A   1      44.402  27.132  29.099  1.00  0.00     0.167 HD
ATOM     49  C   UNL A   1      40.401  28.917  29.235  1.00  0.00     0.031 A 
ATOM     50  C   UNL A   1      47.169  27.107  29.477  1.00  0.00     0.031 A 
ATOM     51  C   UNL A   1      41.274  29.901  29.818  1.00  0.00     0.049 A 
ATOM     52  C   UNL A   1      46.685  28.445  29.959  1.00  0.00     0.074 A 
ATOM     53  C   UNL A   1      40.950  31.139  30.344  1.00  0.00     0.029 A 
ATOM     54  N   UNL A   1      42.647  29.757  29.949  1.00  0.00    -0.354 N 
ATOM     55  N   UNL A   1      45.463  28.920  29.995  1.00  0.00    -0.248 NA
ATOM     56  C   UNL A   1      47.704  29.363  30.485  1.00  0.00     0.031 C 
ATOM     57  C   UNL A   1      42.134  31.768  30.742  1.00  0.00     0.029 A 
ATOM     58  C   UNL A   1      43.187  30.893  30.528  1.00  0.00     0.049 A 
ATOM     59  H   UNL A   1      43.162  28.965  29.671  1.00  0.00     0.167 HD
ATOM     60  C   UNL A   1      45.562  30.176  30.579  1.00  0.00     0.074 A 
ATOM     61  C   UNL A   1      46.961  30.380  30.895  1.00  0.00     0.031 C 
ATOM     62  C   UNL A   1      44.583  31.078  30.834  1.00  0.00     0.031 A 
BRANCH  49  63
ATOM     63  C   UNL A   1      38.938  29.243  29.099  1.00  0.00    -0.014 A 
ATOM     64  C   UNL A   1      38.401  29.703  27.886  1.00  0.00     0.009 A 
ATOM     65  C   UNL A   1      38.076  29.061  30.193  1.00  0.00     0.009 A 
ATOM     66  C   UNL A   1      37.042  30.013  27.783  1.00  0.00     0.001 A 
ATOM     67  C   UNL A   1      36.713  29.340  30.077  1.00  0.00     0.001 A 
ATOM     68  C   UNL A   1      36.199  29.826  28.877  1.00  0.00     0.000 A 
ENDBRANCH  49  63
BRANCH  50  69
ATOM     69  C   UNL A   1      48.610  26.747  29.540  1.00  0.00    -0.014 A 
ATOM     70  C   UNL A   1      49.135  26.096  30.666  1.00  0.00     0.009 A 
ATOM     71  C   UNL A   1      49.471  27.059  28.475  1.00  0.00     0.009 A 
ATOM     72  C   UNL A   1      50.497  25.791  30.739  1.00  0.00     0.001 A 
ATOM     73  C   UNL A   1      50.825  26.725  28.537  1.00  0.00     0.001 A 
ATOM     74  C   UNL A   1      51.339  26.102  29.672  1.00  0.00     0.000 A 
ENDBRANCH  50  69
BRANCH  62  75
ATOM     75  C   UNL A   1      44.987  32.347  31.535  1.00  0.00    -0.014 A 
ATOM     76  C   UNL A   1      45.022  32.434  32.935  1.00  0.00     0.009 A 
ATOM     77  C   UNL A   1      45.359  33.466  30.774  1.00  0.00     0.009 A 
ATOM     78  C   UNL A   1      45.375  33.634  33.558  1.00  0.00     0.001 A 
ATOM     79  C   UNL A   1      45.746  34.651  31.399  1.00  0.00     0.001 A 
ATOM     80  C   UNL A   1      45.741  34.738  32.791  1.00  0.00     0.000 A 
ENDBRANCH  62  75
ENDBRANCH  36  37
ENDBRANCH  28  31
ENDBRANCH  26  27
ENDBRANCH  25  26
ENDBRANCH   1  25
TORSDOF 13
ENDMDL
MODEL 2
REMARK VINA RESULT:     -11.3      1.452      6.202
REMARK SMILES Cc1cc(Br)ccc1NS(=O)(=O)c1ccc(C(=O)NCCCNC(=O)c2ccc(-c3c4nc(c(-c5ccccc5)c5ccc([nH]5)c(-c5ccccc5)c5nc(c(-c6ccccc6)c6ccc3[nH]6)C=C5)C=C4)cc2)cc1
REMARK SMILES IDX 20 1 19 2 17 3 18 4 16 6 13 7 14 8 75 9 15 10 74 11 10 12
REMARK SMILES IDX 11 13 12 14 9 15 8 17 1 18 2 19 3 20 4 21 7 22 5 23 6 24
REMARK SMILES IDX 21 25 22 26 23 27 24 28 25 30 26 31 27 32 73 33 28 34 72 35
REMARK SMILES IDX 29 36 30 37 31 38 66 39 32 40 71 41 65 42 67 43 33 44 70 45
REMARK SMILES IDX 64 46 63 47 34 49 56 50 41 51 55 52 42 53 45 54 54 55 68 56
REMARK SMILES IDX 43 57 44 58 53 60 69 61 46 62 35 63 36 64 40 65 37 66 39 67
REMARK SMILES IDX 38 68 57 69 58 70 62 71 59 72 61 73 60 74 47 75 48 76 52 77
REMARK SMILES IDX 49 78 51 79 50 80
REMARK H PARENT 19 5 9 16 23 29 67 48 45 59
REMARK Flexibility Score: inf
ROOT
ATOM      1  C   UNL A   1      36.034  20.454  24.993  1.00  0.00     0.118 C 
ENDROOT
BRANCH   1   2
ATOM      2  N   UNL A   1      34.841  19.656  25.203  1.00  0.00    -0.352 N 
ATOM      3  C   UNL A   1      33.525  20.003  25.081  1.00  0.00     0.251 C 
ATOM      4  O   UNL A   1      32.649  19.166  25.276  1.00  0.00    -0.269 OA
ATOM      5  H   UNL A   1      35.004  18.724  25.477  1.00  0.00     0.163 HD
BRANCH   3   6
ATOM      6  C   UNL A   1      33.139  21.364  24.657  1.00  0.00     0.039 A 
ATOM      7  C   UNL A   1      32.670  24.018  23.946  1.00  0.00     0.087 A 
ATOM      8  C   UNL A   1      32.874  23.683  25.289  1.00  0.00     0.023 A 
ATOM      9  C   UNL A   1      32.594  23.014  22.971  1.00  0.00     0.023 A 
ATOM     10  C   UNL A   1      33.158  22.363  25.635  1.00  0.00     0.015 A 
ATOM     11  C   UNL A   1      32.835  21.682  23.328  1.00  0.00     0.015 A 
BRANCH   7  12
ATOM     12  S   UNL A   1      32.471  25.727  23.498  1.00  0.00     0.261 S 
ATOM     13  O   UNL A   1      31.962  25.759  22.137  1.00  0.00    -0.201 OA
ATOM     14  O   UNL A   1      33.703  26.408  23.824  1.00  0.00    -0.201 OA
BRANCH  12  15
ATOM     15  N   UNL A   1      31.277  26.436  24.504  1.00  0.00    -0.279 N 
ATOM     16  H   UNL A   1      31.122  26.068  25.404  1.00  0.00     0.180 HD
BRANCH  15  17
ATOM     17  C   UNL A   1      30.494  27.561  24.059  1.00  0.00     0.052 A 
ATOM     18  C   UNL A   1      32.087  29.347  25.029  1.00  0.00     0.046 C 
ATOM     19  C   UNL A   1      30.907  28.899  24.211  1.00  0.00    -0.026 A 
ATOM     20  C   UNL A   1      30.089  29.926  23.687  1.00  0.00     0.021 A 
ATOM     21  C   UNL A   1      28.879  29.634  23.062  1.00  0.00     0.018 A 
ATOM     22  C   UNL A   1      29.219  27.305  23.541  1.00  0.00     0.028 A 
ATOM     23  Br  UNL A   1      27.827  31.022  22.336  1.00  0.00    -0.051 Br
ATOM     24  C   UNL A   1      28.427  28.325  23.010  1.00  0.00     0.018 A 
ENDBRANCH  15  17
ENDBRANCH  12  15
ENDBRANCH   7  12
ENDBRANCH   3   6
ENDBRANCH   1   2
BRANCH   1  25
ATOM     25  C   UNL A   1      37.271  19.568  24.922  1.00  0.00     0.042 C 
BRANCH  25  26
ATOM     26  C   UNL A   1      38.548  20.288  25.345  1.00  0.00     0.118 C 
BRANCH  26  27
ATOM     27  N   UNL A   1      39.625  19.352  25.633  1.00  0.00    -0.352 N 
ATOM     28  C   UNL A   1      40.911  19.593  26.039  1.00  0.00     0.251 C 
ATOM     29  H   UNL A   1      39.395  18.402  25.519  1.00  0.00     0.163 HD
ATOM     30  O   UNL A   1      41.747  18.698  25.971  1.00  0.00    -0.269 OA
BRANCH  28  31
ATOM     31  C   UNL A   1      41.294  20.921  26.562  1.00  0.00     0.039 A 
ATOM     32  C   UNL A   1      41.254  21.137  27.941  1.00  0.00     0.014 A 
ATOM     33  C   UNL A   1      41.633  21.967  25.699  1.00  0.00     0.014 A 
ATOM     34  C   UNL A   1      41.578  22.391  28.455  1.00  0.00     0.010 A 
ATOM     35  C   UNL A   1      42.040  23.193  26.217  1.00  0.00     0.010 A 
ATOM     36  C   UNL A   1      41.993  23.425  27.597  1.00  0.00    -0.014 A 
BRANCH  36  37
ATOM     37  C   UNL A   1      42.353  24.759  28.136  1.00  0.00     0.031 A 
ATOM     38  C   UNL A   1      43.781  25.072  28.495  1.00  0.00     0.074 A 
ATOM     39  C   UNL A   1      41.387  25.676  28.329  1.00  0.00     0.049 A 
ATOM     40  N   UNL A   1      44.286  26.180  28.974  1.00  0.00    -0.248 NA
ATOM     41  C   UNL A   1      44.765  23.993  28.317  1.00  0.00     0.031 C 
ATOM     42  C   UNL A   1      39.961  25.475  28.059  1.00  0.00     0.029 A 
ATOM     43  N   UNL A   1      41.458  26.965  28.793  1.00  0.00    -0.354 N 
ATOM     44  C   UNL A   1      45.639  25.927  29.165  1.00  0.00     0.074 A 
ATOM     45  C   UNL A   1      45.865  24.545  28.807  1.00  0.00     0.031 C 
ATOM     46  C   UNL A   1      39.300  26.613  28.322  1.00  0.00     0.029 A 
ATOM     47  C   UNL A   1      40.244  27.608  28.817  1.00  0.00     0.049 A 
ATOM     48  H   UNL A   1      42.299  27.387  29.081  1.00  0.00     0.167 HD
ATOM     49  C   UNL A   1      46.611  26.774  29.579  1.00  0.00     0.031 A 
ATOM     50  C   UNL A   1      39.930  28.861  29.192  1.00  0.00     0.031 A 
ATOM     51  C   UNL A   1      46.382  28.150  29.930  1.00  0.00     0.049 A 
ATOM     52  C   UNL A   1      41.026  29.780  29.654  1.00  0.00     0.074 A 
ATOM     53  C   UNL A   1      47.303  29.107  30.317  1.00  0.00     0.029 A 
ATOM     54  N   UNL A   1      45.139  28.765  29.940  1.00  0.00    -0.354 N 
ATOM     55  N   UNL A   1      42.311  29.546  29.763  1.00  0.00    -0.248 NA
ATOM     56  C   UNL A   1      40.628  31.144  30.025  1.00  0.00     0.031 C 
ATOM     57  C   UNL A   1      46.611  30.285  30.614  1.00  0.00     0.029 A 
ATOM     58  C   UNL A   1      45.266  30.082  30.346  1.00  0.00     0.049 A 
ATOM     59  H   UNL A   1      44.291  28.328  29.694  1.00  0.00     0.167 HD
ATOM     60  C   UNL A   1      42.880  30.742  30.181  1.00  0.00     0.074 A 
ATOM     61  C   UNL A   1      41.801  31.702  30.288  1.00  0.00     0.031 C 
ATOM     62  C   UNL A   1      44.179  31.022  30.448  1.00  0.00     0.031 A 
BRANCH  49  63
ATOM     63  C   UNL A   1      48.010  26.229  29.681  1.00  0.00    -0.014 A 
ATOM     64  C   UNL A   1      48.884  26.248  28.582  1.00  0.00     0.009 A 
ATOM     65  C   UNL A   1      48.472  25.712  30.902  1.00  0.00     0.009 A 
ATOM     66  C   UNL A   1      50.176  25.727  28.693  1.00  0.00     0.001 A 
ATOM     67  C   UNL A   1      49.774  25.223  31.019  1.00  0.00     0.001 A 
ATOM     68  C   UNL A   1      50.621  25.219  29.912  1.00  0.00     0.000 A 
ENDBRANCH  49  63
BRANCH  50  69
ATOM     69  C   UNL A   1      38.521  29.329  29.118  1.00  0.00    -0.014 A 
ATOM     70  C   UNL A   1      38.008  29.868  27.929  1.00  0.00     0.009 A 
ATOM     71  C   UNL A   1      37.681  29.244  30.240  1.00  0.00     0.009 A 
ATOM     72  C   UNL A   1      36.695  30.341  27.871  1.00  0.00     0.001 A 
ATOM     73  C   UNL A   1      36.359  29.688  30.171  1.00  0.00     0.001 A 
ATOM     74  C   UNL A   1      35.871  30.246  28.992  1.00  0.00     0.000 A 
ENDBRANCH  50  69
BRANCH  62  75
ATOM     75  C   UNL A   1      44.508  32.439  30.833  1.00  0.00    -0.014 A 
ATOM     76  C   UNL A   1      44.530  32.851  32.174  1.00  0.00     0.009 A 
ATOM     77  C   UNL A   1      44.822  33.370  29.830  1.00  0.00     0.009 A 
ATOM     78  C   UNL A   1      44.813  34.180  32.498  1.00  0.00     0.001 A 
ATOM     79  C   UNL A   1      45.138  34.688  30.160  1.00  0.00     0.001 A 
ATOM     80  C   UNL A   1      45.121  35.095  31.493  1.00  0.00     0.000 A 
ENDBRANCH  62  75
ENDBRANCH  36  37
ENDBRANCH  28  31
ENDBRANCH  26  27
ENDBRANCH  25  26
ENDBRANCH   1  25
TORSDOF 13
ENDMDL
MODEL 3
REMARK VINA RESULT:     -11.3      3.861      8.918
REMARK SMILES Cc1cc(Br)ccc1NS(=O)(=O)c1ccc(C(=O)NCCCNC(=O)c2ccc(-c3c4nc(c(-c5ccccc5)c5ccc([nH]5)c(-c5ccccc5)c5nc(c(-c6ccccc6)c6ccc3[nH]6)C=C5)C=C4)cc2)cc1
REMARK SMILES IDX 20 1 19 2 17 3 18 4 16 6 13 7 14 8 75 9 15 10 74 11 10 12
REMARK SMILES IDX 11 13 12 14 9 15 8 17 1 18 2 19 3 20 4 21 7 22 5 23 6 24
REMARK SMILES IDX 21 25 22 26 23 27 24 28 25 30 26 31 27 32 73 33 28 34 72 35
REMARK SMILES IDX 29 36 30 37 31 38 66 39 32 40 71 41 65 42 67 43 33 44 70 45
REMARK SMILES IDX 64 46 63 47 34 49 56 50 41 51 55 52 42 53 45 54 54 55 68 56
REMARK SMILES IDX 43 57 44 58 53 60 69 61 46 62 35 63 36 64 40 65 37 66 39 67
REMARK SMILES IDX 38 68 57 69 58 70 62 71 59 72 61 73 60 74 47 75 48 76 52 77
REMARK SMILES IDX 49 78 51 79 50 80
REMARK H PARENT 19 5 9 16 23 29 67 48 45 59
REMARK Flexibility Score: inf
ROOT
ATOM      1  C   UNL A   1      31.429  30.047  25.255  1.00  0.00     0.118 C 
ENDROOT
BRANCH   1   2
ATOM      2  N   UNL A   1      30.692  30.047  24.005  1.00  0.00    -0.352 N 
ATOM      3  C   UNL A   1      30.635  29.097  23.025  1.00  0.00     0.251 C 
ATOM      4  O   UNL A   1      29.920  29.271  22.043  1.00  0.00    -0.269 OA
ATOM      5  H   UNL A   1      30.154  30.855  23.837  1.00  0.00     0.163 HD
BRANCH   3   6
ATOM      6  C   UNL A   1      31.378  27.828  23.159  1.00  0.00     0.039 A 
ATOM      7  C   UNL A   1      32.973  25.579  23.566  1.00  0.00     0.087 A 
ATOM      8  C   UNL A   1      33.475  26.667  22.843  1.00  0.00     0.023 A 
ATOM      9  C   UNL A   1      31.638  25.570  23.994  1.00  0.00     0.023 A 
ATOM     10  C   UNL A   1      32.693  27.810  22.685  1.00  0.00     0.015 A 
ATOM     11  C   UNL A   1      30.840  26.702  23.793  1.00  0.00     0.015 A 
BRANCH   7  12
ATOM     12  S   UNL A   1      34.037  24.194  23.901  1.00  0.00     0.261 S 
ATOM     13  O   UNL A   1      35.109  24.672  24.756  1.00  0.00    -0.201 OA
ATOM     14  O   UNL A   1      34.346  23.568  22.636  1.00  0.00    -0.201 OA
BRANCH  12  15
ATOM     15  N   UNL A   1      33.162  23.017  24.791  1.00  0.00    -0.279 N 
ATOM     16  H   UNL A   1      32.558  23.307  25.512  1.00  0.00     0.180 HD
BRANCH  15  17
ATOM     17  C   UNL A   1      33.295  21.611  24.505  1.00  0.00     0.052 A 
ATOM     18  C   UNL A   1      35.603  21.365  25.639  1.00  0.00     0.046 C 
ATOM     19  C   UNL A   1      34.367  20.825  24.973  1.00  0.00    -0.026 A 
ATOM     20  C   UNL A   1      34.372  19.442  24.683  1.00  0.00     0.021 A 
ATOM     21  C   UNL A   1      33.361  18.864  23.917  1.00  0.00     0.018 A 
ATOM     22  C   UNL A   1      32.365  21.030  23.636  1.00  0.00     0.028 A 
ATOM     23  Br  UNL A   1      33.373  17.007  23.578  1.00  0.00    -0.051 Br
ATOM     24  C   UNL A   1      32.369  19.660  23.370  1.00  0.00     0.018 A 
ENDBRANCH  15  17
ENDBRANCH  12  15
ENDBRANCH   7  12
ENDBRANCH   3   6
ENDBRANCH   1   2
BRANCH   1  25
ATOM     25  C   UNL A   1      31.134  31.309  26.056  1.00  0.00     0.042 C 
BRANCH  25  26
ATOM     26  C   UNL A   1      32.323  31.782  26.887  1.00  0.00     0.118 C 
BRANCH  26  27
ATOM     27  N   UNL A   1      32.229  33.200  27.205  1.00  0.00    -0.352 N 
ATOM     28  C   UNL A   1      32.970  33.953  28.075  1.00  0.00     0.251 C 
ATOM     29  H   UNL A   1      31.526  33.691  26.721  1.00  0.00     0.163 HD
ATOM     30  O   UNL A   1      32.571  35.066  28.406  1.00  0.00    -0.269 OA
BRANCH  28  31
ATOM     31  C   UNL A   1      34.247  33.438  28.613  1.00  0.00     0.039 A 
ATOM     32  C   UNL A   1      35.417  33.650  27.880  1.00  0.00     0.014 A 
ATOM     33  C   UNL A   1      34.286  32.700  29.799  1.00  0.00     0.014 A 
ATOM     34  C   UNL A   1      36.628  33.143  28.350  1.00  0.00     0.010 A 
ATOM     35  C   UNL A   1      35.506  32.271  30.311  1.00  0.00     0.010 A 
ATOM     36  C   UNL A   1      36.685  32.466  29.580  1.00  0.00    -0.014 A 
BRANCH  36  37
ATOM     37  C   UNL A   1      37.971  31.935  30.094  1.00  0.00     0.031 A 
ATOM     38  C   UNL A   1      38.517  30.633  29.570  1.00  0.00     0.074 A 
ATOM     39  C   UNL A   1      38.629  32.611  31.055  1.00  0.00     0.049 A 
ATOM     40  N   UNL A   1      39.623  30.013  29.895  1.00  0.00    -0.248 NA
ATOM     41  C   UNL A   1      37.704  29.923  28.571  1.00  0.00     0.031 C 
ATOM     42  C   UNL A   1      38.178  33.860  31.672  1.00  0.00     0.029 A 
ATOM     43  N   UNL A   1      39.822  32.344  31.677  1.00  0.00    -0.354 N 
ATOM     44  C   UNL A   1      39.631  28.840  29.152  1.00  0.00     0.074 A 
ATOM     45  C   UNL A   1      38.394  28.804  28.405  1.00  0.00     0.031 C 
ATOM     46  C   UNL A   1      39.102  34.273  32.552  1.00  0.00     0.029 A 
ATOM     47  C   UNL A   1      40.188  33.300  32.593  1.00  0.00     0.049 A 
ATOM     48  H   UNL A   1      40.362  31.545  31.485  1.00  0.00     0.167 HD
ATOM     49  C   UNL A   1      40.591  27.888  29.079  1.00  0.00     0.031 A 
ATOM     50  C   UNL A   1      41.280  33.384  33.375  1.00  0.00     0.031 A 
ATOM     51  C   UNL A   1      41.823  27.929  29.821  1.00  0.00     0.049 A 
ATOM     52  C   UNL A   1      42.328  32.311  33.280  1.00  0.00     0.074 A 
ATOM     53  C   UNL A   1      42.883  27.040  29.785  1.00  0.00     0.029 A 
ATOM     54  N   UNL A   1      42.157  28.915  30.738  1.00  0.00    -0.354 N 
ATOM     55  N   UNL A   1      42.352  31.242  32.521  1.00  0.00    -0.248 NA
ATOM     56  C   UNL A   1      43.510  32.468  34.137  1.00  0.00     0.031 C 
ATOM     57  C   UNL A   1      43.834  27.458  30.721  1.00  0.00     0.029 A 
ATOM     58  C   UNL A   1      43.398  28.645  31.289  1.00  0.00     0.049 A 
ATOM     59  H   UNL A   1      41.595  29.691  30.963  1.00  0.00     0.167 HD
ATOM     60  C   UNL A   1      43.565  30.619  32.783  1.00  0.00     0.074 A 
ATOM     61  C   UNL A   1      44.254  31.440  33.757  1.00  0.00     0.031 C 
ATOM     62  C   UNL A   1      44.067  29.473  32.260  1.00  0.00     0.031 A 
BRANCH  49  63
ATOM     63  C   UNL A   1      40.339  26.716  28.168  1.00  0.00    -0.014 A 
ATOM     64  C   UNL A   1      40.834  26.691  26.854  1.00  0.00     0.009 A 
ATOM     65  C   UNL A   1      39.619  25.606  28.639  1.00  0.00     0.009 A 
ATOM     66  C   UNL A   1      40.580  25.599  26.020  1.00  0.00     0.001 A 
ATOM     67  C   UNL A   1      39.395  24.503  27.814  1.00  0.00     0.001 A 
ATOM     68  C   UNL A   1      39.865  24.504  26.502  1.00  0.00     0.000 A 
ENDBRANCH  49  63
BRANCH  50  69
ATOM     69  C   UNL A   1      41.451  34.539  34.294  1.00  0.00    -0.014 A 
ATOM     70  C   UNL A   1      40.955  34.490  35.605  1.00  0.00     0.009 A 
ATOM     71  C   UNL A   1      42.109  35.703  33.863  1.00  0.00     0.009 A 
ATOM     72  C   UNL A   1      41.085  35.590  36.456  1.00  0.00     0.001 A 
ATOM     73  C   UNL A   1      42.267  36.789  34.726  1.00  0.00     0.001 A 
ATOM     74  C   UNL A   1      41.744  36.737  36.016  1.00  0.00     0.000 A 
ENDBRANCH  50  69
BRANCH  62  75
ATOM     75  C   UNL A   1      45.449  29.069  32.697  1.00  0.00    -0.014 A 
ATOM     76  C   UNL A   1      45.655  28.231  33.803  1.00  0.00     0.009 A 
ATOM     77  C   UNL A   1      46.561  29.523  31.971  1.00  0.00     0.009 A 
ATOM     78  C   UNL A   1      46.951  27.895  34.201  1.00  0.00     0.001 A 
ATOM     79  C   UNL A   1      47.853  29.157  32.349  1.00  0.00     0.001 A 
ATOM     80  C   UNL A   1      48.047  28.354  33.472  1.00  0.00     0.000 A 
ENDBRANCH  62  75
ENDBRANCH  36  37
ENDBRANCH  28  31
ENDBRANCH  26  27
ENDBRANCH  25  26
ENDBRANCH   1  25
TORSDOF 13
ENDMDL
