MODEL 1
REMARK VINA RESULT:     -12.1      0.000      0.000
REMARK SMILES Cc1ccccc1C[C@H](C[C@@H]1Cc2ccccc21)C(=O)NCCCNC(=O)c1ccc(-c2c3nc(c(-c4ccccc4)c4ccc([nH]4)c(-c4ccccc4)c4nc(c(-c5ccccc5)c5ccc2[nH]5)C=C4)C=C3)cc1
REMARK SMILES IDX 23 1 22 2 21 3 19 4 20 5 9 7 8 8 7 9 1 10 2 11 3 12 4 13
REMARK SMILES IDX 6 14 5 15 10 16 11 17 12 18 18 19 13 20 17 21 14 22 16 23
REMARK SMILES IDX 15 24 24 25 25 26 26 27 27 29 28 30 29 31 75 32 30 33 74 34
REMARK SMILES IDX 31 35 32 36 33 37 68 38 34 39 73 40 67 41 69 42 35 43 72 44
REMARK SMILES IDX 66 45 65 46 36 48 58 49 43 50 57 51 44 52 47 53 56 54 70 55
REMARK SMILES IDX 45 56 46 57 55 59 71 60 48 61 37 62 38 63 42 64 39 65 41 66
REMARK SMILES IDX 40 67 59 68 60 69 64 70 61 71 63 72 62 73 49 74 50 75 54 76
REMARK SMILES IDX 51 77 53 78 52 79
REMARK H PARENT 21 6 25 28 69 47 47 58
REMARK Flexibility Score: inf
ROOT
ATOM      1  C   UNL A   1      38.508  22.970  26.155  1.00  0.00     0.042 C 
ENDROOT
BRANCH   1   2
ATOM      2  C   UNL A   1      37.634  21.891  25.558  1.00  0.00     0.117 C 
BRANCH   2   3
ATOM      3  N   UNL A   1      37.286  22.095  24.167  1.00  0.00    -0.356 N 
ATOM      4  C   UNL A   1      36.246  22.725  23.567  1.00  0.00     0.223 C 
ATOM      5  O   UNL A   1      36.373  22.964  22.360  1.00  0.00    -0.275 OA
ATOM      6  H   UNL A   1      37.930  21.702  23.535  1.00  0.00     0.163 HD
BRANCH   4   7
ATOM      7  C   UNL A   1      34.937  23.094  24.268  1.00  0.00     0.083 C 
BRANCH   7   8
ATOM      8  C   UNL A   1      34.913  24.533  24.858  1.00  0.00     0.049 C 
BRANCH   8   9
ATOM      9  C   UNL A   1      34.163  25.626  24.117  1.00  0.00    -0.044 A 
ATOM     10  C   UNL A   1      33.734  27.059  26.222  1.00  0.00     0.044 C 
ATOM     11  C   UNL A   1      33.577  26.745  24.758  1.00  0.00    -0.048 A 
ATOM     12  C   UNL A   1      32.716  27.586  24.020  1.00  0.00     0.004 A 
ATOM     13  C   UNL A   1      32.477  27.369  22.665  1.00  0.00     0.000 A 
ATOM     14  C   UNL A   1      33.974  25.479  22.726  1.00  0.00     0.004 A 
ATOM     15  C   UNL A   1      33.130  26.332  22.011  1.00  0.00     0.000 A 
ENDBRANCH   8   9
ENDBRANCH   7   8
BRANCH   7  16
ATOM     16  C   UNL A   1      34.339  21.999  25.168  1.00  0.00     0.022 C 
BRANCH  16  17
ATOM     17  C   UNL A   1      32.855  21.719  24.865  1.00  0.00     0.025 C 
ATOM     18  C   UNL A   1      32.398  21.851  23.360  1.00  0.00     0.044 C 
ATOM     19  C   UNL A   1      31.946  22.906  25.120  1.00  0.00    -0.041 A 
ATOM     20  C   UNL A   1      31.590  23.038  23.802  1.00  0.00    -0.044 A 
ATOM     21  C   UNL A   1      31.430  23.728  26.097  1.00  0.00     0.004 A 
ATOM     22  C   UNL A   1      30.734  24.029  23.376  1.00  0.00     0.004 A 
ATOM     23  C   UNL A   1      30.555  24.740  25.699  1.00  0.00     0.000 A 
ATOM     24  C   UNL A   1      30.216  24.895  24.344  1.00  0.00     0.000 A 
ENDBRANCH  16  17
ENDBRANCH   7  16
ENDBRANCH   4   7
ENDBRANCH   2   3
ENDBRANCH   1   2
BRANCH   1  25
ATOM     25  C   UNL A   1      39.740  22.402  26.821  1.00  0.00     0.118 C 
BRANCH  25  26
ATOM     26  N   UNL A   1      40.363  21.242  26.177  1.00  0.00    -0.352 N 
ATOM     27  C   UNL A   1      41.704  20.880  26.148  1.00  0.00     0.251 C 
ATOM     28  H   UNL A   1      39.749  20.639  25.700  1.00  0.00     0.163 HD
ATOM     29  O   UNL A   1      42.065  19.863  25.581  1.00  0.00    -0.269 OA
BRANCH  27  30
ATOM     30  C   UNL A   1      42.680  21.671  26.957  1.00  0.00     0.039 A 
ATOM     31  C   UNL A   1      42.501  21.697  28.343  1.00  0.00     0.014 A 
ATOM     32  C   UNL A   1      43.430  22.653  26.333  1.00  0.00     0.014 A 
ATOM     33  C   UNL A   1      42.770  22.878  29.031  1.00  0.00     0.010 A 
ATOM     34  C   UNL A   1      43.490  23.876  26.958  1.00  0.00     0.010 A 
ATOM     35  C   UNL A   1      43.112  24.010  28.300  1.00  0.00    -0.014 A 
BRANCH  35  36
ATOM     36  C   UNL A   1      42.989  25.381  28.789  1.00  0.00     0.031 A 
ATOM     37  C   UNL A   1      41.808  26.190  28.410  1.00  0.00     0.074 A 
ATOM     38  C   UNL A   1      43.860  25.857  29.711  1.00  0.00     0.049 A 
ATOM     39  N   UNL A   1      41.726  27.467  28.568  1.00  0.00    -0.248 NA
ATOM     40  C   UNL A   1      40.619  25.623  27.781  1.00  0.00     0.031 C 
ATOM     41  C   UNL A   1      43.686  27.019  30.582  1.00  0.00     0.029 A 
ATOM     42  N   UNL A   1      45.194  25.489  29.900  1.00  0.00    -0.354 N 
ATOM     43  C   UNL A   1      40.418  27.830  28.356  1.00  0.00     0.074 A 
ATOM     44  C   UNL A   1      39.776  26.656  27.823  1.00  0.00     0.031 C 
ATOM     45  C   UNL A   1      44.889  27.431  31.012  1.00  0.00     0.029 A 
ATOM     46  C   UNL A   1      45.887  26.647  30.310  1.00  0.00     0.049 A 
ATOM     47  H   UNL A   1      45.577  24.591  29.774  1.00  0.00     0.167 HD
ATOM     48  C   UNL A   1      39.995  29.055  28.767  1.00  0.00     0.031 A 
ATOM     49  C   UNL A   1      46.889  27.176  29.547  1.00  0.00     0.031 A 
ATOM     50  C   UNL A   1      41.098  29.866  29.273  1.00  0.00     0.049 A 
ATOM     51  C   UNL A   1      46.607  28.576  29.036  1.00  0.00     0.074 A 
ATOM     52  C   UNL A   1      41.543  30.197  30.542  1.00  0.00     0.029 A 
ATOM     53  N   UNL A   1      42.118  30.211  28.397  1.00  0.00    -0.354 N 
ATOM     54  N   UNL A   1      45.436  29.151  29.084  1.00  0.00    -0.248 NA
ATOM     55  C   UNL A   1      47.608  29.425  28.396  1.00  0.00     0.031 C 
ATOM     56  C   UNL A   1      42.865  30.706  30.424  1.00  0.00     0.029 A 
ATOM     57  C   UNL A   1      43.207  30.708  29.083  1.00  0.00     0.049 A 
ATOM     58  H   UNL A   1      42.072  30.114  27.419  1.00  0.00     0.167 HD
ATOM     59  C   UNL A   1      45.494  30.383  28.481  1.00  0.00     0.074 A 
ATOM     60  C   UNL A   1      46.884  30.517  28.088  1.00  0.00     0.031 C 
ATOM     61  C   UNL A   1      44.377  31.160  28.340  1.00  0.00     0.031 A 
BRANCH  48  62
ATOM     62  C   UNL A   1      38.542  29.417  28.927  1.00  0.00    -0.014 A 
ATOM     63  C   UNL A   1      37.870  30.064  27.874  1.00  0.00     0.009 A 
ATOM     64  C   UNL A   1      37.790  29.198  30.094  1.00  0.00     0.009 A 
ATOM     65  C   UNL A   1      36.560  30.541  28.010  1.00  0.00     0.001 A 
ATOM     66  C   UNL A   1      36.496  29.709  30.255  1.00  0.00     0.001 A 
ATOM     67  C   UNL A   1      35.883  30.390  29.213  1.00  0.00     0.000 A 
ENDBRANCH  48  62
BRANCH  49  68
ATOM     68  C   UNL A   1      47.686  26.137  28.838  1.00  0.00    -0.014 A 
ATOM     69  C   UNL A   1      47.481  25.988  27.451  1.00  0.00     0.009 A 
ATOM     70  C   UNL A   1      48.871  25.638  29.396  1.00  0.00     0.009 A 
ATOM     71  C   UNL A   1      48.491  25.479  26.627  1.00  0.00     0.001 A 
ATOM     72  C   UNL A   1      49.875  25.117  28.567  1.00  0.00     0.001 A 
ATOM     73  C   UNL A   1      49.701  25.077  27.183  1.00  0.00     0.000 A 
ENDBRANCH  49  68
BRANCH  61  74
ATOM     74  C   UNL A   1      44.226  32.429  27.521  1.00  0.00    -0.014 A 
ATOM     75  C   UNL A   1      44.327  32.510  26.128  1.00  0.00     0.009 A 
ATOM     76  C   UNL A   1      43.834  33.619  28.184  1.00  0.00     0.009 A 
ATOM     77  C   UNL A   1      44.069  33.710  25.443  1.00  0.00     0.001 A 
ATOM     78  C   UNL A   1      43.529  34.801  27.505  1.00  0.00     0.001 A 
ATOM     79  C   UNL A   1      43.656  34.848  26.128  1.00  0.00     0.000 A 
ENDBRANCH  61  74
ENDBRANCH  35  36
ENDBRANCH  27  30
ENDBRANCH  25  26
ENDBRANCH   1  25
TORSDOF 14
ENDMDL
MODEL 2
REMARK VINA RESULT:     -12.1      3.338      8.055
REMARK SMILES Cc1ccccc1C[C@H](C[C@@H]1Cc2ccccc21)C(=O)NCCCNC(=O)c1ccc(-c2c3nc(c(-c4ccccc4)c4ccc([nH]4)c(-c4ccccc4)c4nc(c(-c5ccccc5)c5ccc2[nH]5)C=C4)C=C3)cc1
REMARK SMILES IDX 23 1 22 2 21 3 19 4 20 5 9 7 8 8 7 9 1 10 2 11 3 12 4 13
REMARK SMILES IDX 6 14 5 15 10 16 11 17 12 18 18 19 13 20 17 21 14 22 16 23
REMARK SMILES IDX 15 24 24 25 25 26 26 27 27 29 28 30 29 31 75 32 30 33 74 34
REMARK SMILES IDX 31 35 32 36 33 37 68 38 34 39 73 40 67 41 69 42 35 43 72 44
REMARK SMILES IDX 66 45 65 46 36 48 58 49 43 50 57 51 44 52 47 53 56 54 70 55
REMARK SMILES IDX 45 56 46 57 55 59 71 60 48 61 37 62 38 63 42 64 39 65 41 66
REMARK SMILES IDX 40 67 59 68 60 69 64 70 61 71 63 72 62 73 49 74 50 75 54 76
REMARK SMILES IDX 51 77 53 78 52 79
REMARK H PARENT 21 6 25 28 69 47 47 58
REMARK Flexibility Score: inf
ROOT
ATOM      1  C   UNL A   1      32.187  30.951  26.472  1.00  0.00     0.042 C 
ENDROOT
BRANCH   1   2
ATOM      2  C   UNL A   1      31.606  29.748  25.766  1.00  0.00     0.117 C 
BRANCH   2   3
ATOM      3  N   UNL A   1      31.433  29.910  24.338  1.00  0.00    -0.356 N 
ATOM      4  C   UNL A   1      31.293  29.018  23.326  1.00  0.00     0.223 C 
ATOM      5  O   UNL A   1      30.890  29.472  22.248  1.00  0.00    -0.275 OA
ATOM      6  H   UNL A   1      31.411  30.849  24.045  1.00  0.00     0.163 HD
BRANCH   4   7
ATOM      7  C   UNL A   1      31.651  27.534  23.424  1.00  0.00     0.083 C 
BRANCH   7   8
ATOM      8  C   UNL A   1      33.156  27.224  23.187  1.00  0.00     0.049 C 
BRANCH   8   9
ATOM      9  C   UNL A   1      33.758  25.964  23.785  1.00  0.00    -0.044 A 
ATOM     10  C   UNL A   1      33.863  26.896  26.191  1.00  0.00     0.044 C 
ATOM     11  C   UNL A   1      34.132  25.847  25.146  1.00  0.00    -0.048 A 
ATOM     12  C   UNL A   1      34.882  24.724  25.557  1.00  0.00     0.004 A 
ATOM     13  C   UNL A   1      35.213  23.706  24.664  1.00  0.00     0.000 A 
ATOM     14  C   UNL A   1      34.029  24.881  22.922  1.00  0.00     0.004 A 
ATOM     15  C   UNL A   1      34.761  23.771  23.353  1.00  0.00     0.000 A 
ENDBRANCH   8   9
ENDBRANCH   7   8
BRANCH   7  16
ATOM     16  C   UNL A   1      30.660  26.571  22.747  1.00  0.00     0.022 C 
BRANCH  16  17
ATOM     17  C   UNL A   1      29.848  25.739  23.757  1.00  0.00     0.025 C 
ATOM     18  C   UNL A   1      29.940  26.171  25.272  1.00  0.00     0.044 C 
ATOM     19  C   UNL A   1      30.547  24.468  24.202  1.00  0.00    -0.041 A 
ATOM     20  C   UNL A   1      30.660  24.873  25.507  1.00  0.00    -0.044 A 
ATOM     21  C   UNL A   1      30.995  23.235  23.783  1.00  0.00     0.004 A 
ATOM     22  C   UNL A   1      31.269  24.089  26.461  1.00  0.00     0.004 A 
ATOM     23  C   UNL A   1      31.613  22.413  24.727  1.00  0.00     0.000 A 
ATOM     24  C   UNL A   1      31.757  22.843  26.057  1.00  0.00     0.000 A 
ENDBRANCH  16  17
ENDBRANCH   7  16
ENDBRANCH   4   7
ENDBRANCH   2   3
ENDBRANCH   1   2
BRANCH   1  25
ATOM     25  C   UNL A   1      33.287  30.570  27.436  1.00  0.00     0.118 C 
BRANCH  25  26
ATOM     26  N   UNL A   1      34.209  31.637  27.839  1.00  0.00    -0.352 N 
ATOM     27  C   UNL A   1      35.480  31.526  28.389  1.00  0.00     0.251 C 
ATOM     28  H   UNL A   1      33.883  32.556  27.702  1.00  0.00     0.163 HD
ATOM     29  O   UNL A   1      36.136  32.518  28.653  1.00  0.00    -0.269 OA
BRANCH  27  30
ATOM     30  C   UNL A   1      36.096  30.170  28.506  1.00  0.00     0.039 A 
ATOM     31  C   UNL A   1      36.342  29.679  29.792  1.00  0.00     0.014 A 
ATOM     32  C   UNL A   1      36.769  29.641  27.418  1.00  0.00     0.014 A 
ATOM     33  C   UNL A   1      37.495  28.929  30.013  1.00  0.00     0.010 A 
ATOM     34  C   UNL A   1      38.007  29.095  27.663  1.00  0.00     0.010 A 
ATOM     35  C   UNL A   1      38.402  28.781  28.970  1.00  0.00    -0.014 A 
BRANCH  35  36
ATOM     36  C   UNL A   1      39.810  28.432  29.140  1.00  0.00     0.031 A 
ATOM     37  C   UNL A   1      40.310  27.135  28.631  1.00  0.00     0.074 A 
ATOM     38  C   UNL A   1      40.689  29.350  29.611  1.00  0.00     0.049 A 
ATOM     39  N   UNL A   1      41.449  26.623  28.948  1.00  0.00    -0.248 NA
ATOM     40  C   UNL A   1      39.537  26.277  27.735  1.00  0.00     0.031 C 
ATOM     41  C   UNL A   1      42.146  29.328  29.492  1.00  0.00     0.029 A 
ATOM     42  N   UNL A   1      40.436  30.407  30.488  1.00  0.00    -0.354 N 
ATOM     43  C   UNL A   1      41.684  25.568  28.101  1.00  0.00     0.074 A 
ATOM     44  C   UNL A   1      40.445  25.361  27.393  1.00  0.00     0.031 C 
ATOM     45  C   UNL A   1      42.676  30.126  30.433  1.00  0.00     0.029 A 
ATOM     46  C   UNL A   1      41.588  30.565  31.286  1.00  0.00     0.049 A 
ATOM     47  H   UNL A   1      39.611  30.942  30.538  1.00  0.00     0.167 HD
ATOM     48  C   UNL A   1      42.941  25.059  28.007  1.00  0.00     0.031 A 
ATOM     49  C   UNL A   1      41.541  30.376  32.638  1.00  0.00     0.031 A 
ATOM     50  C   UNL A   1      43.846  25.673  28.973  1.00  0.00     0.049 A 
ATOM     51  C   UNL A   1      42.409  29.235  33.135  1.00  0.00     0.074 A 
ATOM     52  C   UNL A   1      44.822  26.651  28.888  1.00  0.00     0.029 A 
ATOM     53  N   UNL A   1      43.583  25.499  30.325  1.00  0.00    -0.354 N 
ATOM     54  N   UNL A   1      42.959  28.341  32.360  1.00  0.00    -0.248 NA
ATOM     55  C   UNL A   1      42.694  28.986  34.545  1.00  0.00     0.031 C 
ATOM     56  C   UNL A   1      45.114  27.097  30.207  1.00  0.00     0.029 A 
ATOM     57  C   UNL A   1      44.334  26.370  31.087  1.00  0.00     0.049 A 
ATOM     58  H   UNL A   1      42.946  24.843  30.691  1.00  0.00     0.167 HD
ATOM     59  C   UNL A   1      43.621  27.407  33.116  1.00  0.00     0.074 A 
ATOM     60  C   UNL A   1      43.445  27.871  34.479  1.00  0.00     0.031 C 
ATOM     61  C   UNL A   1      44.228  26.324  32.541  1.00  0.00     0.031 A 
BRANCH  48  62
ATOM     62  C   UNL A   1      43.394  24.177  26.873  1.00  0.00    -0.014 A 
ATOM     63  C   UNL A   1      44.054  24.750  25.771  1.00  0.00     0.009 A 
ATOM     64  C   UNL A   1      43.164  22.793  26.801  1.00  0.00     0.009 A 
ATOM     65  C   UNL A   1      44.382  24.004  24.631  1.00  0.00     0.001 A 
ATOM     66  C   UNL A   1      43.449  22.048  25.649  1.00  0.00     0.001 A 
ATOM     67  C   UNL A   1      44.052  22.657  24.559  1.00  0.00     0.000 A 
ENDBRANCH  48  62
BRANCH  49  68
ATOM     68  C   UNL A   1      40.249  30.809  33.238  1.00  0.00    -0.014 A 
ATOM     69  C   UNL A   1      39.958  32.190  33.237  1.00  0.00     0.009 A 
ATOM     70  C   UNL A   1      39.192  29.903  33.398  1.00  0.00     0.009 A 
ATOM     71  C   UNL A   1      38.635  32.643  33.257  1.00  0.00     0.001 A 
ATOM     72  C   UNL A   1      37.869  30.364  33.430  1.00  0.00     0.001 A 
ATOM     73  C   UNL A   1      37.589  31.726  33.317  1.00  0.00     0.000 A 
ENDBRANCH  49  68
BRANCH  61  74
ATOM     74  C   UNL A   1      44.805  25.106  33.238  1.00  0.00    -0.014 A 
ATOM     75  C   UNL A   1      46.133  24.964  33.655  1.00  0.00     0.009 A 
ATOM     76  C   UNL A   1      43.923  24.061  33.613  1.00  0.00     0.009 A 
ATOM     77  C   UNL A   1      46.556  23.841  34.387  1.00  0.00     0.001 A 
ATOM     78  C   UNL A   1      44.327  22.967  34.383  1.00  0.00     0.001 A 
ATOM     79  C   UNL A   1      45.652  22.853  34.764  1.00  0.00     0.000 A 
ENDBRANCH  61  74
ENDBRANCH  35  36
ENDBRANCH  27  30
ENDBRANCH  25  26
ENDBRANCH   1  25
TORSDOF 14
ENDMDL
MODEL 3
REMARK VINA RESULT:     -12.0      4.078      8.777
REMARK SMILES Cc1ccccc1C[C@H](C[C@@H]1Cc2ccccc21)C(=O)NCCCNC(=O)c1ccc(-c2c3nc(c(-c4ccccc4)c4ccc([nH]4)c(-c4ccccc4)c4nc(c(-c5ccccc5)c5ccc2[nH]5)C=C4)C=C3)cc1
REMARK SMILES IDX 23 1 22 2 21 3 19 4 20 5 9 7 8 8 7 9 1 10 2 11 3 12 4 13
REMARK SMILES IDX 6 14 5 15 10 16 11 17 12 18 18 19 13 20 17 21 14 22 16 23
REMARK SMILES IDX 15 24 24 25 25 26 26 27 27 29 28 30 29 31 75 32 30 33 74 34
REMARK SMILES IDX 31 35 32 36 33 37 68 38 34 39 73 40 67 41 69 42 35 43 72 44
REMARK SMILES IDX 66 45 65 46 36 48 58 49 43 50 57 51 44 52 47 53 56 54 70 55
REMARK SMILES IDX 45 56 46 57 55 59 71 60 48 61 37 62 38 63 42 64 39 65 41 66
REMARK SMILES IDX 40 67 59 68 60 69 64 70 61 71 63 72 62 73 49 74 50 75 54 76
REMARK SMILES IDX 51 77 53 78 52 79
REMARK H PARENT 21 6 25 28 69 47 47 58
REMARK Flexibility Score: inf
ROOT
ATOM      1  C   UNL A   1      34.461  30.889  27.327  1.00  0.00     0.042 C 
ENDROOT
BRANCH   1   2
ATOM      2  C   UNL A   1      34.242  29.394  27.378  1.00  0.00     0.117 C 
BRANCH   2   3
ATOM      3  N   UNL A   1      32.878  28.992  27.652  1.00  0.00    -0.356 N 
ATOM      4  C   UNL A   1      32.107  27.985  27.172  1.00  0.00     0.223 C 
ATOM      5  O   UNL A   1      31.072  27.739  27.804  1.00  0.00    -0.275 OA
ATOM      6  H   UNL A   1      32.423  29.559  28.315  1.00  0.00     0.163 HD
BRANCH   4   7
ATOM      7  C   UNL A   1      32.409  27.195  25.897  1.00  0.00     0.083 C 
BRANCH   7   8
ATOM      8  C   UNL A   1      33.650  26.264  26.002  1.00  0.00     0.049 C 
BRANCH   8   9
ATOM      9  C   UNL A   1      33.444  24.769  26.172  1.00  0.00    -0.044 A 
ATOM     10  C   UNL A   1      35.643  24.111  24.990  1.00  0.00     0.044 C 
ATOM     11  C   UNL A   1      34.330  23.794  25.653  1.00  0.00    -0.048 A 
ATOM     12  C   UNL A   1      33.942  22.437  25.669  1.00  0.00     0.004 A 
ATOM     13  C   UNL A   1      32.732  22.034  26.232  1.00  0.00     0.000 A 
ATOM     14  C   UNL A   1      32.266  24.329  26.813  1.00  0.00     0.004 A 
ATOM     15  C   UNL A   1      31.908  22.978  26.831  1.00  0.00     0.000 A 
ENDBRANCH   8   9
ENDBRANCH   7   8
BRANCH   7  16
ATOM     16  C   UNL A   1      32.284  27.990  24.585  1.00  0.00     0.022 C 
BRANCH  16  17
ATOM     17  C   UNL A   1      31.380  27.298  23.549  1.00  0.00     0.025 C 
ATOM     18  C   UNL A   1      30.152  26.480  24.109  1.00  0.00     0.044 C 
ATOM     19  C   UNL A   1      31.906  25.955  23.080  1.00  0.00    -0.041 A 
ATOM     20  C   UNL A   1      30.856  25.250  23.610  1.00  0.00    -0.044 A 
ATOM     21  C   UNL A   1      32.918  25.334  22.381  1.00  0.00     0.004 A 
ATOM     22  C   UNL A   1      30.778  23.879  23.511  1.00  0.00     0.004 A 
ATOM     23  C   UNL A   1      32.866  23.945  22.259  1.00  0.00     0.000 A 
ATOM     24  C   UNL A   1      31.805  23.220  22.830  1.00  0.00     0.000 A 
ENDBRANCH  16  17
ENDBRANCH   7  16
ENDBRANCH   4   7
ENDBRANCH   2   3
ENDBRANCH   1   2
BRANCH   1  25
ATOM     25  C   UNL A   1      34.566  31.497  28.707  1.00  0.00     0.118 C 
BRANCH  25  26
ATOM     26  N   UNL A   1      33.680  32.628  28.998  1.00  0.00    -0.352 N 
ATOM     27  C   UNL A   1      33.981  33.826  29.633  1.00  0.00     0.251 C 
ATOM     28  H   UNL A   1      32.746  32.524  28.706  1.00  0.00     0.163 HD
ATOM     29  O   UNL A   1      33.129  34.685  29.783  1.00  0.00    -0.269 OA
BRANCH  27  30
ATOM     30  C   UNL A   1      35.403  34.114  29.990  1.00  0.00     0.039 A 
ATOM     31  C   UNL A   1      36.305  34.315  28.941  1.00  0.00     0.014 A 
ATOM     32  C   UNL A   1      35.864  33.768  31.248  1.00  0.00     0.014 A 
ATOM     33  C   UNL A   1      37.603  33.829  29.073  1.00  0.00     0.010 A 
ATOM     34  C   UNL A   1      37.063  33.097  31.305  1.00  0.00     0.010 A 
ATOM     35  C   UNL A   1      37.921  33.079  30.198  1.00  0.00    -0.014 A 
BRANCH  35  36
ATOM     36  C   UNL A   1      39.045  32.148  30.284  1.00  0.00     0.031 A 
ATOM     37  C   UNL A   1      38.862  30.739  29.868  1.00  0.00     0.074 A 
ATOM     38  C   UNL A   1      40.285  32.602  30.587  1.00  0.00     0.049 A 
ATOM     39  N   UNL A   1      39.692  29.792  30.140  1.00  0.00    -0.248 NA
ATOM     40  C   UNL A   1      37.692  30.269  29.130  1.00  0.00     0.031 C 
ATOM     41  C   UNL A   1      41.561  31.927  30.351  1.00  0.00     0.029 A 
ATOM     42  N   UNL A   1      40.626  33.706  31.372  1.00  0.00    -0.354 N 
ATOM     43  C   UNL A   1      39.340  28.699  29.386  1.00  0.00     0.074 A 
ATOM     44  C   UNL A   1      38.061  29.028  28.808  1.00  0.00     0.031 C 
ATOM     45  C   UNL A   1      42.494  32.454  31.160  1.00  0.00     0.029 A 
ATOM     46  C   UNL A   1      41.817  33.376  32.052  1.00  0.00     0.049 A 
ATOM     47  H   UNL A   1      40.130  34.555  31.436  1.00  0.00     0.167 HD
ATOM     48  C   UNL A   1      40.227  27.679  29.239  1.00  0.00     0.031 A 
ATOM     49  C   UNL A   1      41.853  33.300  33.415  1.00  0.00     0.031 A 
ATOM     50  C   UNL A   1      41.416  27.876  30.061  1.00  0.00     0.049 A 
ATOM     51  C   UNL A   1      42.187  31.920  33.951  1.00  0.00     0.074 A 
ATOM     52  C   UNL A   1      42.704  28.310  29.798  1.00  0.00     0.029 A 
ATOM     53  N   UNL A   1      41.266  27.909  31.441  1.00  0.00    -0.354 N 
ATOM     54  N   UNL A   1      42.194  30.835  33.225  1.00  0.00    -0.248 NA
ATOM     55  C   UNL A   1      42.499  31.645  35.350  1.00  0.00     0.031 C 
ATOM     56  C   UNL A   1      43.315  28.649  31.037  1.00  0.00     0.029 A 
ATOM     57  C   UNL A   1      42.406  28.393  32.047  1.00  0.00     0.049 A 
ATOM     58  H   UNL A   1      40.455  27.626  31.922  1.00  0.00     0.167 HD
ATOM     59  C   UNL A   1      42.466  29.746  34.014  1.00  0.00     0.074 A 
ATOM     60  C   UNL A   1      42.673  30.310  35.334  1.00  0.00     0.031 C 
ATOM     61  C   UNL A   1      42.465  28.477  33.502  1.00  0.00     0.031 A 
BRANCH  48  62
ATOM     62  C   UNL A   1      40.110  26.629  28.166  1.00  0.00    -0.014 A 
ATOM     63  C   UNL A   1      39.362  25.464  28.416  1.00  0.00     0.009 A 
ATOM     64  C   UNL A   1      40.744  26.695  26.914  1.00  0.00     0.009 A 
ATOM     65  C   UNL A   1      39.323  24.396  27.511  1.00  0.00     0.001 A 
ATOM     66  C   UNL A   1      40.747  25.616  26.021  1.00  0.00     0.001 A 
ATOM     67  C   UNL A   1      40.042  24.461  26.324  1.00  0.00     0.000 A 
ENDBRANCH  48  62
BRANCH  49  68
ATOM     68  C   UNL A   1      40.962  34.294  34.074  1.00  0.00    -0.014 A 
ATOM     69  C   UNL A   1      39.769  33.820  34.657  1.00  0.00     0.009 A 
ATOM     70  C   UNL A   1      41.458  35.540  34.485  1.00  0.00     0.009 A 
ATOM     71  C   UNL A   1      39.166  34.506  35.716  1.00  0.00     0.001 A 
ATOM     72  C   UNL A   1      40.842  36.229  35.539  1.00  0.00     0.001 A 
ATOM     73  C   UNL A   1      39.725  35.693  36.180  1.00  0.00     0.000 A 
ENDBRANCH  49  68
BRANCH  61  74
ATOM     74  C   UNL A   1      42.530  27.167  34.267  1.00  0.00    -0.014 A 
ATOM     75  C   UNL A   1      41.553  26.696  35.150  1.00  0.00     0.009 A 
ATOM     76  C   UNL A   1      43.599  26.277  33.992  1.00  0.00     0.009 A 
ATOM     77  C   UNL A   1      41.647  25.421  35.735  1.00  0.00     0.001 A 
ATOM     78  C   UNL A   1      43.673  24.991  34.532  1.00  0.00     0.001 A 
ATOM     79  C   UNL A   1      42.696  24.565  35.414  1.00  0.00     0.000 A 
ENDBRANCH  61  74
ENDBRANCH  35  36
ENDBRANCH  27  30
ENDBRANCH  25  26
ENDBRANCH   1  25
TORSDOF 14
ENDMDL
