MODEL 1
REMARK VINA RESULT:     -12.2      0.000      0.000
REMARK SMILES COc1cccc(-c2c(C(=O)NCCCNC(=O)c3ccc(-c4c5nc(c(-c6ccccc6)c6ccc([nH]6)c(-c6ccccc6)c6nc(c(-c7ccccc7)c7ccc4[nH]7)C=C6)C=C5)cc3)nnn2Cc2ccc(OC(F)(F)F)cc2)c1
REMARK SMILES IDX 13 1 12 2 10 3 11 4 9 6 8 7 69 8 67 9 68 10 7 11 3 12 4 13
REMARK SMILES IDX 82 14 5 15 6 16 2 17 1 18 70 19 71 20 72 21 81 22 73 23
REMARK SMILES IDX 80 24 74 25 75 26 76 27 77 28 78 29 79 30 14 31 15 32 16 33
REMARK SMILES IDX 17 34 18 36 19 37 20 38 66 39 21 40 65 41 22 42 23 43 24 44
REMARK SMILES IDX 59 45 25 46 64 47 58 48 60 49 26 50 63 51 57 52 56 53 27 55
REMARK SMILES IDX 49 56 34 57 48 58 35 59 38 60 47 61 61 62 36 63 37 64 46 66
REMARK SMILES IDX 62 67 39 68 28 69 29 70 33 71 30 72 32 73 31 74 50 75 51 76
REMARK SMILES IDX 55 77 52 78 54 79 53 80 40 81 41 82 45 83 42 84 44 85 43 86
REMARK H PARENT 12 5 16 35 60 54 38 65
REMARK Flexibility Score: inf
ROOT
ATOM      1  C   UNL A   1      38.228  21.778  25.748  1.00  0.00     0.118 C 
ENDROOT
BRANCH   1   2
ATOM      2  N   UNL A   1      37.844  22.169  24.419  1.00  0.00    -0.351 N 
ATOM      3  C   UNL A   1      36.738  22.785  23.903  1.00  0.00     0.274 C 
ATOM      4  O   UNL A   1      36.866  23.074  22.706  1.00  0.00    -0.267 OA
ATOM      5  H   UNL A   1      38.521  21.947  23.738  1.00  0.00     0.163 HD
BRANCH   3   6
ATOM      6  C   UNL A   1      35.484  23.094  24.609  1.00  0.00     0.178 A 
ATOM      7  C   UNL A   1      34.225  22.510  24.819  1.00  0.00     0.102 A 
ATOM      8  N   UNL A   1      33.563  23.454  25.588  1.00  0.00    -0.239 N 
ATOM      9  N   UNL A   1      35.470  24.342  25.218  1.00  0.00    -0.124 NA
ATOM     10  N   UNL A   1      34.291  24.565  25.748  1.00  0.00    -0.066 NA
BRANCH   7  11
ATOM     11  C   UNL A   1      33.531  21.296  24.401  1.00  0.00     0.006 A 
ATOM     12  C   UNL A   1      32.972  18.959  24.814  1.00  0.00     0.119 A 
ATOM     13  C   UNL A   1      32.199  18.950  23.651  1.00  0.00     0.046 A 
ATOM     14  C   UNL A   1      33.640  20.131  25.185  1.00  0.00     0.056 A 
ATOM     15  C   UNL A   1      32.112  20.089  22.847  1.00  0.00     0.005 A 
ATOM     16  C   UNL A   1      32.810  21.247  23.201  1.00  0.00     0.011 A 
BRANCH  12  17
ATOM     17  O   UNL A   1      33.001  17.776  25.498  1.00  0.00    -0.497 OA
ATOM     18  C   UNL A   1      33.320  16.611  24.746  1.00  0.00     0.278 C 
ENDBRANCH  12  17
ENDBRANCH   7  11
BRANCH   8  19
ATOM     19  C   UNL A   1      32.206  23.433  26.117  1.00  0.00     0.182 C 
BRANCH  19  20
ATOM     20  C   UNL A   1      31.305  24.420  25.416  1.00  0.00    -0.026 A 
ATOM     21  C   UNL A   1      30.915  25.609  26.041  1.00  0.00     0.009 A 
ATOM     22  C   UNL A   1      30.825  24.149  24.127  1.00  0.00     0.009 A 
ATOM     23  C   UNL A   1      30.061  26.500  25.383  1.00  0.00     0.047 A 
ATOM     24  C   UNL A   1      29.985  25.047  23.467  1.00  0.00     0.047 A 
ATOM     25  C   UNL A   1      29.592  26.227  24.093  1.00  0.00     0.129 A 
BRANCH  25  26
ATOM     26  O   UNL A   1      28.765  27.180  23.572  1.00  0.00    -0.406 OA
BRANCH  26  27
ATOM     27  C   UNL A   1      29.370  28.293  22.935  1.00  0.00     0.573 C 
ATOM     28  F   UNL A   1      29.828  29.183  23.842  1.00  0.00    -0.132 F 
ATOM     29  F   UNL A   1      30.383  27.905  22.130  1.00  0.00    -0.132 F 
ATOM     30  F   UNL A   1      28.444  28.911  22.171  1.00  0.00    -0.132 F 
ENDBRANCH  26  27
ENDBRANCH  25  26
ENDBRANCH  19  20
ENDBRANCH   8  19
ENDBRANCH   3   6
ENDBRANCH   1   2
BRANCH   1  31
ATOM     31  C   UNL A   1      39.700  21.386  25.844  1.00  0.00     0.042 C 
BRANCH  31  32
ATOM     32  C   UNL A   1      39.920  20.069  26.552  1.00  0.00     0.118 C 
BRANCH  32  33
ATOM     33  N   UNL A   1      41.048  19.320  25.968  1.00  0.00    -0.352 N 
ATOM     34  C   UNL A   1      42.340  19.747  25.685  1.00  0.00     0.251 C 
ATOM     35  H   UNL A   1      40.857  18.380  25.744  1.00  0.00     0.163 HD
ATOM     36  O   UNL A   1      43.069  19.134  24.937  1.00  0.00    -0.269 OA
BRANCH  34  37
ATOM     37  C   UNL A   1      42.787  20.987  26.339  1.00  0.00     0.039 A 
ATOM     38  C   UNL A   1      43.095  22.149  25.629  1.00  0.00     0.014 A 
ATOM     39  C   UNL A   1      42.692  20.993  27.717  1.00  0.00     0.014 A 
ATOM     40  C   UNL A   1      43.180  23.347  26.335  1.00  0.00     0.010 A 
ATOM     41  C   UNL A   1      42.443  22.185  28.323  1.00  0.00     0.010 A 
ATOM     42  C   UNL A   1      42.808  23.361  27.688  1.00  0.00    -0.014 A 
BRANCH  42  43
ATOM     43  C   UNL A   1      42.732  24.576  28.486  1.00  0.00     0.031 A 
ATOM     44  C   UNL A   1      41.587  25.472  28.191  1.00  0.00     0.074 A 
ATOM     45  C   UNL A   1      43.512  24.775  29.573  1.00  0.00     0.049 A 
ATOM     46  N   UNL A   1      41.630  26.631  27.626  1.00  0.00    -0.248 NA
ATOM     47  C   UNL A   1      40.224  24.983  28.450  1.00  0.00     0.031 C 
ATOM     48  C   UNL A   1      44.471  23.859  30.215  1.00  0.00     0.029 A 
ATOM     49  N   UNL A   1      43.513  25.831  30.424  1.00  0.00    -0.354 N 
ATOM     50  C   UNL A   1      40.325  27.111  27.627  1.00  0.00     0.074 A 
ATOM     51  C   UNL A   1      39.487  25.995  27.986  1.00  0.00     0.031 C 
ATOM     52  C   UNL A   1      44.750  24.287  31.464  1.00  0.00     0.029 A 
ATOM     53  C   UNL A   1      44.178  25.606  31.621  1.00  0.00     0.049 A 
ATOM     54  H   UNL A   1      43.075  26.688  30.210  1.00  0.00     0.167 HD
ATOM     55  C   UNL A   1      40.063  28.447  27.556  1.00  0.00     0.031 A 
ATOM     56  C   UNL A   1      44.257  26.452  32.673  1.00  0.00     0.031 A 
ATOM     57  C   UNL A   1      41.240  29.200  27.199  1.00  0.00     0.049 A 
ATOM     58  C   UNL A   1      43.955  27.807  32.159  1.00  0.00     0.074 A 
ATOM     59  C   UNL A   1      42.088  29.224  26.109  1.00  0.00     0.029 A 
ATOM     60  N   UNL A   1      41.932  29.799  28.226  1.00  0.00    -0.354 N 
ATOM     61  N   UNL A   1      44.722  28.437  31.314  1.00  0.00    -0.248 NA
ATOM     62  C   UNL A   1      42.579  28.269  32.217  1.00  0.00     0.031 C 
ATOM     63  C   UNL A   1      43.393  29.376  26.667  1.00  0.00     0.029 A 
ATOM     64  C   UNL A   1      43.261  29.512  28.051  1.00  0.00     0.049 A 
ATOM     65  H   UNL A   1      41.543  30.335  28.955  1.00  0.00     0.167 HD
ATOM     66  C   UNL A   1      43.846  29.057  30.434  1.00  0.00     0.074 A 
ATOM     67  C   UNL A   1      42.547  29.011  31.104  1.00  0.00     0.031 C 
ATOM     68  C   UNL A   1      44.197  29.291  29.134  1.00  0.00     0.031 A 
BRANCH  55  69
ATOM     69  C   UNL A   1      38.866  29.112  28.189  1.00  0.00    -0.014 A 
ATOM     70  C   UNL A   1      38.682  28.987  29.579  1.00  0.00     0.009 A 
ATOM     71  C   UNL A   1      37.780  29.616  27.451  1.00  0.00     0.009 A 
ATOM     72  C   UNL A   1      37.454  29.283  30.181  1.00  0.00     0.001 A 
ATOM     73  C   UNL A   1      36.566  29.951  28.055  1.00  0.00     0.001 A 
ATOM     74  C   UNL A   1      36.392  29.757  29.418  1.00  0.00     0.000 A 
ENDBRANCH  55  69
BRANCH  56  75
ATOM     75  C   UNL A   1      44.321  26.128  34.110  1.00  0.00    -0.014 A 
ATOM     76  C   UNL A   1      45.468  26.421  34.860  1.00  0.00     0.009 A 
ATOM     77  C   UNL A   1      43.147  25.783  34.806  1.00  0.00     0.009 A 
ATOM     78  C   UNL A   1      45.427  26.417  36.261  1.00  0.00     0.001 A 
ATOM     79  C   UNL A   1      43.106  25.779  36.204  1.00  0.00     0.001 A 
ATOM     80  C   UNL A   1      44.244  26.114  36.931  1.00  0.00     0.000 A 
ENDBRANCH  56  75
BRANCH  68  81
ATOM     81  C   UNL A   1      45.636  29.050  28.736  1.00  0.00    -0.014 A 
ATOM     82  C   UNL A   1      46.124  27.789  28.343  1.00  0.00     0.009 A 
ATOM     83  C   UNL A   1      46.482  30.158  28.594  1.00  0.00     0.009 A 
ATOM     84  C   UNL A   1      47.425  27.643  27.849  1.00  0.00     0.001 A 
ATOM     85  C   UNL A   1      47.774  30.016  28.082  1.00  0.00     0.001 A 
ATOM     86  C   UNL A   1      48.248  28.758  27.713  1.00  0.00     0.000 A 
ENDBRANCH  68  81
ENDBRANCH  42  43
ENDBRANCH  34  37
ENDBRANCH  32  33
ENDBRANCH  31  32
ENDBRANCH   1  31
TORSDOF 16
ENDMDL
MODEL 2
REMARK VINA RESULT:     -12.2      3.232      7.575
REMARK SMILES COc1cccc(-c2c(C(=O)NCCCNC(=O)c3ccc(-c4c5nc(c(-c6ccccc6)c6ccc([nH]6)c(-c6ccccc6)c6nc(c(-c7ccccc7)c7ccc4[nH]7)C=C6)C=C5)cc3)nnn2Cc2ccc(OC(F)(F)F)cc2)c1
REMARK SMILES IDX 13 1 12 2 10 3 11 4 9 6 8 7 69 8 67 9 68 10 7 11 3 12 4 13
REMARK SMILES IDX 82 14 5 15 6 16 2 17 1 18 70 19 71 20 72 21 81 22 73 23
REMARK SMILES IDX 80 24 74 25 75 26 76 27 77 28 78 29 79 30 14 31 15 32 16 33
REMARK SMILES IDX 17 34 18 36 19 37 20 38 66 39 21 40 65 41 22 42 23 43 24 44
REMARK SMILES IDX 59 45 25 46 64 47 58 48 60 49 26 50 63 51 57 52 56 53 27 55
REMARK SMILES IDX 49 56 34 57 48 58 35 59 38 60 47 61 61 62 36 63 37 64 46 66
REMARK SMILES IDX 62 67 39 68 28 69 29 70 33 71 30 72 32 73 31 74 50 75 51 76
REMARK SMILES IDX 55 77 52 78 54 79 53 80 40 81 41 82 45 83 42 84 44 85 43 86
REMARK H PARENT 12 5 16 35 60 54 38 65
REMARK Flexibility Score: inf
ROOT
ATOM      1  C   UNL A   1      32.742  29.162  26.233  1.00  0.00     0.118 C 
ENDROOT
BRANCH   1   2
ATOM      2  N   UNL A   1      32.726  28.528  24.943  1.00  0.00    -0.351 N 
ATOM      3  C   UNL A   1      32.570  27.233  24.533  1.00  0.00     0.274 C 
ATOM      4  O   UNL A   1      32.472  27.128  23.303  1.00  0.00    -0.267 OA
ATOM      5  H   UNL A   1      32.852  29.160  24.198  1.00  0.00     0.163 HD
BRANCH   3   6
ATOM      6  C   UNL A   1      32.530  26.032  25.384  1.00  0.00     0.178 A 
ATOM      7  C   UNL A   1      33.288  24.870  25.598  1.00  0.00     0.102 A 
ATOM      8  N   UNL A   1      32.564  24.195  26.568  1.00  0.00    -0.239 N 
ATOM      9  N   UNL A   1      31.404  25.949  26.193  1.00  0.00    -0.124 NA
ATOM     10  N   UNL A   1      31.412  24.813  26.850  1.00  0.00    -0.066 NA
BRANCH   7  11
ATOM     11  C   UNL A   1      34.497  24.270  25.042  1.00  0.00     0.006 A 
ATOM     12  C   UNL A   1      36.854  23.701  25.292  1.00  0.00     0.119 A 
ATOM     13  C   UNL A   1      36.834  23.110  24.027  1.00  0.00     0.046 A 
ATOM     14  C   UNL A   1      35.687  24.283  25.796  1.00  0.00     0.056 A 
ATOM     15  C   UNL A   1      35.670  23.123  23.256  1.00  0.00     0.005 A 
ATOM     16  C   UNL A   1      34.515  23.738  23.747  1.00  0.00     0.011 A 
BRANCH  12  17
ATOM     17  O   UNL A   1      38.060  23.650  25.934  1.00  0.00    -0.497 OA
ATOM     18  C   UNL A   1      38.648  22.363  26.089  1.00  0.00     0.278 C 
ENDBRANCH  12  17
ENDBRANCH   7  11
BRANCH   8  19
ATOM     19  C   UNL A   1      32.833  22.910  27.198  1.00  0.00     0.182 C 
BRANCH  19  20
ATOM     20  C   UNL A   1      32.999  21.802  26.187  1.00  0.00    -0.026 A 
ATOM     21  C   UNL A   1      31.973  21.484  25.291  1.00  0.00     0.009 A 
ATOM     22  C   UNL A   1      34.186  21.055  26.142  1.00  0.00     0.009 A 
ATOM     23  C   UNL A   1      32.138  20.439  24.376  1.00  0.00     0.047 A 
ATOM     24  C   UNL A   1      34.353  20.023  25.218  1.00  0.00     0.047 A 
ATOM     25  C   UNL A   1      33.328  19.704  24.332  1.00  0.00     0.129 A 
BRANCH  25  26
ATOM     26  O   UNL A   1      33.353  18.712  23.394  1.00  0.00    -0.406 OA
BRANCH  26  27
ATOM     27  C   UNL A   1      33.841  17.443  23.797  1.00  0.00     0.573 C 
ATOM     28  F   UNL A   1      35.153  17.505  24.113  1.00  0.00    -0.132 F 
ATOM     29  F   UNL A   1      33.145  16.963  24.850  1.00  0.00    -0.132 F 
ATOM     30  F   UNL A   1      33.696  16.577  22.771  1.00  0.00    -0.132 F 
ENDBRANCH  26  27
ENDBRANCH  25  26
ENDBRANCH  19  20
ENDBRANCH   8  19
ENDBRANCH   3   6
ENDBRANCH   1   2
BRANCH   1  31
ATOM     31  C   UNL A   1      33.740  28.517  27.192  1.00  0.00     0.042 C 
BRANCH  31  32
ATOM     32  C   UNL A   1      35.083  29.210  27.206  1.00  0.00     0.118 C 
BRANCH  32  33
ATOM     33  N   UNL A   1      35.326  29.896  28.489  1.00  0.00    -0.352 N 
ATOM     34  C   UNL A   1      36.391  29.767  29.372  1.00  0.00     0.251 C 
ATOM     35  H   UNL A   1      34.631  30.539  28.759  1.00  0.00     0.163 HD
ATOM     36  O   UNL A   1      36.325  30.153  30.518  1.00  0.00    -0.269 OA
BRANCH  34  37
ATOM     37  C   UNL A   1      37.613  29.135  28.850  1.00  0.00     0.039 A 
ATOM     38  C   UNL A   1      38.309  29.630  27.746  1.00  0.00     0.014 A 
ATOM     39  C   UNL A   1      38.142  28.134  29.642  1.00  0.00     0.014 A 
ATOM     40  C   UNL A   1      39.611  29.179  27.534  1.00  0.00     0.010 A 
ATOM     41  C   UNL A   1      39.493  27.969  29.623  1.00  0.00     0.010 A 
ATOM     42  C   UNL A   1      40.213  28.372  28.511  1.00  0.00    -0.014 A 
BRANCH  42  43
ATOM     43  C   UNL A   1      41.606  27.954  28.458  1.00  0.00     0.031 A 
ATOM     44  C   UNL A   1      41.890  26.754  27.634  1.00  0.00     0.074 A 
ATOM     45  C   UNL A   1      42.609  28.727  28.934  1.00  0.00     0.049 A 
ATOM     46  N   UNL A   1      42.241  25.585  28.055  1.00  0.00    -0.248 NA
ATOM     47  C   UNL A   1      41.651  26.821  26.185  1.00  0.00     0.031 C 
ATOM     48  C   UNL A   1      42.556  30.093  29.484  1.00  0.00     0.029 A 
ATOM     49  N   UNL A   1      43.943  28.482  28.908  1.00  0.00    -0.354 N 
ATOM     50  C   UNL A   1      42.456  24.813  26.920  1.00  0.00     0.074 A 
ATOM     51  C   UNL A   1      41.917  25.565  25.814  1.00  0.00     0.031 C 
ATOM     52  C   UNL A   1      43.792  30.634  29.488  1.00  0.00     0.029 A 
ATOM     53  C   UNL A   1      44.738  29.590  29.163  1.00  0.00     0.049 A 
ATOM     54  H   UNL A   1      44.317  27.589  28.721  1.00  0.00     0.167 HD
ATOM     55  C   UNL A   1      43.268  23.718  26.952  1.00  0.00     0.031 A 
ATOM     56  C   UNL A   1      46.088  29.645  29.115  1.00  0.00     0.031 A 
ATOM     57  C   UNL A   1      43.594  23.340  28.305  1.00  0.00     0.049 A 
ATOM     58  C   UNL A   1      46.580  28.254  29.235  1.00  0.00     0.074 A 
ATOM     59  C   UNL A   1      42.865  22.937  29.406  1.00  0.00     0.029 A 
ATOM     60  N   UNL A   1      44.811  23.759  28.792  1.00  0.00    -0.354 N 
ATOM     61  N   UNL A   1      46.429  27.535  30.311  1.00  0.00    -0.248 NA
ATOM     62  C   UNL A   1      46.819  27.506  28.012  1.00  0.00     0.031 C 
ATOM     63  C   UNL A   1      43.485  23.592  30.513  1.00  0.00     0.029 A 
ATOM     64  C   UNL A   1      44.596  24.293  30.036  1.00  0.00     0.049 A 
ATOM     65  H   UNL A   1      45.678  23.688  28.331  1.00  0.00     0.167 HD
ATOM     66  C   UNL A   1      46.115  26.265  29.847  1.00  0.00     0.074 A 
ATOM     67  C   UNL A   1      46.480  26.281  28.431  1.00  0.00     0.031 C 
ATOM     68  C   UNL A   1      45.330  25.418  30.579  1.00  0.00     0.031 A 
BRANCH  55  69
ATOM     69  C   UNL A   1      44.085  23.232  25.781  1.00  0.00    -0.014 A 
ATOM     70  C   UNL A   1      44.037  21.866  25.446  1.00  0.00     0.009 A 
ATOM     71  C   UNL A   1      45.097  23.997  25.172  1.00  0.00     0.009 A 
ATOM     72  C   UNL A   1      44.996  21.287  24.606  1.00  0.00     0.001 A 
ATOM     73  C   UNL A   1      46.030  23.430  24.301  1.00  0.00     0.001 A 
ATOM     74  C   UNL A   1      45.998  22.068  24.041  1.00  0.00     0.000 A 
ENDBRANCH  55  69
BRANCH  56  75
ATOM     75  C   UNL A   1      46.948  30.775  28.718  1.00  0.00    -0.014 A 
ATOM     76  C   UNL A   1      47.994  31.204  29.547  1.00  0.00     0.009 A 
ATOM     77  C   UNL A   1      46.916  31.254  27.395  1.00  0.00     0.009 A 
ATOM     78  C   UNL A   1      49.000  32.044  29.052  1.00  0.00     0.001 A 
ATOM     79  C   UNL A   1      47.920  32.093  26.902  1.00  0.00     0.001 A 
ATOM     80  C   UNL A   1      48.972  32.474  27.728  1.00  0.00     0.000 A 
ENDBRANCH  56  75
BRANCH  68  81
ATOM     81  C   UNL A   1      44.987  25.819  31.996  1.00  0.00    -0.014 A 
ATOM     82  C   UNL A   1      45.748  25.422  33.112  1.00  0.00     0.009 A 
ATOM     83  C   UNL A   1      43.965  26.758  32.194  1.00  0.00     0.009 A 
ATOM     84  C   UNL A   1      45.475  25.933  34.387  1.00  0.00     0.001 A 
ATOM     85  C   UNL A   1      43.705  27.281  33.463  1.00  0.00     0.001 A 
ATOM     86  C   UNL A   1      44.458  26.867  34.561  1.00  0.00     0.000 A 
ENDBRANCH  68  81
ENDBRANCH  42  43
ENDBRANCH  34  37
ENDBRANCH  32  33
ENDBRANCH  31  32
ENDBRANCH   1  31
TORSDOF 16
ENDMDL
MODEL 3
REMARK VINA RESULT:     -11.9      3.078      6.576
REMARK SMILES COc1cccc(-c2c(C(=O)NCCCNC(=O)c3ccc(-c4c5nc(c(-c6ccccc6)c6ccc([nH]6)c(-c6ccccc6)c6nc(c(-c7ccccc7)c7ccc4[nH]7)C=C6)C=C5)cc3)nnn2Cc2ccc(OC(F)(F)F)cc2)c1
REMARK SMILES IDX 13 1 12 2 10 3 11 4 9 6 8 7 69 8 67 9 68 10 7 11 3 12 4 13
REMARK SMILES IDX 82 14 5 15 6 16 2 17 1 18 70 19 71 20 72 21 81 22 73 23
REMARK SMILES IDX 80 24 74 25 75 26 76 27 77 28 78 29 79 30 14 31 15 32 16 33
REMARK SMILES IDX 17 34 18 36 19 37 20 38 66 39 21 40 65 41 22 42 23 43 24 44
REMARK SMILES IDX 59 45 25 46 64 47 58 48 60 49 26 50 63 51 57 52 56 53 27 55
REMARK SMILES IDX 49 56 34 57 48 58 35 59 38 60 47 61 61 62 36 63 37 64 46 66
REMARK SMILES IDX 62 67 39 68 28 69 29 70 33 71 30 72 32 73 31 74 50 75 51 76
REMARK SMILES IDX 55 77 52 78 54 79 53 80 40 81 41 82 45 83 42 84 44 85 43 86
REMARK H PARENT 12 5 16 35 60 54 38 65
REMARK Flexibility Score: inf
ROOT
ATOM      1  C   UNL A   1      35.244  22.954  26.388  1.00  0.00     0.118 C 
ENDROOT
BRANCH   1   2
ATOM      2  N   UNL A   1      34.266  21.953  26.059  1.00  0.00    -0.351 N 
ATOM      3  C   UNL A   1      32.930  22.003  25.768  1.00  0.00     0.274 C 
ATOM      4  O   UNL A   1      32.481  20.912  25.394  1.00  0.00    -0.267 OA
ATOM      5  H   UNL A   1      34.636  21.040  26.038  1.00  0.00     0.163 HD
BRANCH   3   6
ATOM      6  C   UNL A   1      32.042  23.172  25.876  1.00  0.00     0.178 A 
ATOM      7  C   UNL A   1      31.817  24.386  25.211  1.00  0.00     0.102 A 
ATOM      8  N   UNL A   1      30.802  24.970  25.953  1.00  0.00    -0.239 N 
ATOM      9  N   UNL A   1      31.193  23.137  26.976  1.00  0.00    -0.124 NA
ATOM     10  N   UNL A   1      30.501  24.250  27.039  1.00  0.00    -0.066 NA
BRANCH   7  11
ATOM     11  C   UNL A   1      32.394  25.102  24.077  1.00  0.00     0.006 A 
ATOM     12  C   UNL A   1      32.230  25.815  21.751  1.00  0.00     0.119 A 
ATOM     13  C   UNL A   1      33.450  26.481  21.881  1.00  0.00     0.046 A 
ATOM     14  C   UNL A   1      31.705  25.124  22.848  1.00  0.00     0.056 A 
ATOM     15  C   UNL A   1      34.159  26.436  23.084  1.00  0.00     0.005 A 
ATOM     16  C   UNL A   1      33.651  25.714  24.167  1.00  0.00     0.011 A 
BRANCH  12  17
ATOM     17  O   UNL A   1      31.649  25.908  20.517  1.00  0.00    -0.497 OA
ATOM     18  C   UNL A   1      32.456  25.549  19.402  1.00  0.00     0.278 C 
ENDBRANCH  12  17
ENDBRANCH   7  11
BRANCH   8  19
ATOM     19  C   UNL A   1      30.141  26.255  25.769  1.00  0.00     0.182 C 
BRANCH  19  20
ATOM     20  C   UNL A   1      31.047  27.416  26.102  1.00  0.00    -0.026 A 
ATOM     21  C   UNL A   1      31.361  28.383  25.142  1.00  0.00     0.009 A 
ATOM     22  C   UNL A   1      31.609  27.532  27.382  1.00  0.00     0.009 A 
ATOM     23  C   UNL A   1      32.221  29.439  25.463  1.00  0.00     0.047 A 
ATOM     24  C   UNL A   1      32.454  28.595  27.704  1.00  0.00     0.047 A 
ATOM     25  C   UNL A   1      32.771  29.553  26.744  1.00  0.00     0.129 A 
BRANCH  25  26
ATOM     26  O   UNL A   1      33.594  30.628  26.920  1.00  0.00    -0.406 OA
BRANCH  26  27
ATOM     27  C   UNL A   1      34.878  30.385  27.470  1.00  0.00     0.573 C 
ATOM     28  F   UNL A   1      35.711  31.422  27.239  1.00  0.00    -0.132 F 
ATOM     29  F   UNL A   1      34.805  30.151  28.798  1.00  0.00    -0.132 F 
ATOM     30  F   UNL A   1      35.400  29.287  26.882  1.00  0.00    -0.132 F 
ENDBRANCH  26  27
ENDBRANCH  25  26
ENDBRANCH  19  20
ENDBRANCH   8  19
ENDBRANCH   3   6
ENDBRANCH   1   2
BRANCH   1  31
ATOM     31  C   UNL A   1      36.276  23.153  25.282  1.00  0.00     0.042 C 
BRANCH  31  32
ATOM     32  C   UNL A   1      37.594  23.693  25.788  1.00  0.00     0.118 C 
BRANCH  32  33
ATOM     33  N   UNL A   1      38.610  22.630  25.896  1.00  0.00    -0.352 N 
ATOM     34  C   UNL A   1      39.877  22.673  26.466  1.00  0.00     0.251 C 
ATOM     35  H   UNL A   1      38.354  21.763  25.505  1.00  0.00     0.163 HD
ATOM     36  O   UNL A   1      40.719  21.837  26.224  1.00  0.00    -0.269 OA
BRANCH  34  37
ATOM     37  C   UNL A   1      40.153  23.789  27.385  1.00  0.00     0.039 A 
ATOM     38  C   UNL A   1      41.443  24.126  27.800  1.00  0.00     0.014 A 
ATOM     39  C   UNL A   1      39.075  24.610  27.654  1.00  0.00     0.014 A 
ATOM     40  C   UNL A   1      41.638  25.376  28.385  1.00  0.00     0.010 A 
ATOM     41  C   UNL A   1      39.333  25.923  27.902  1.00  0.00     0.010 A 
ATOM     42  C   UNL A   1      40.574  26.291  28.394  1.00  0.00    -0.014 A 
BRANCH  42  43
ATOM     43  C   UNL A   1      40.703  27.665  28.857  1.00  0.00     0.031 A 
ATOM     44  C   UNL A   1      41.762  28.472  28.202  1.00  0.00     0.074 A 
ATOM     45  C   UNL A   1      39.784  28.243  29.664  1.00  0.00     0.049 A 
ATOM     46  N   UNL A   1      42.865  28.885  28.730  1.00  0.00    -0.248 NA
ATOM     47  C   UNL A   1      41.640  28.761  26.766  1.00  0.00     0.031 C 
ATOM     48  C   UNL A   1      38.498  27.709  30.148  1.00  0.00     0.029 A 
ATOM     49  N   UNL A   1      39.757  29.516  30.130  1.00  0.00    -0.354 N 
ATOM     50  C   UNL A   1      43.496  29.652  27.757  1.00  0.00     0.074 A 
ATOM     51  C   UNL A   1      42.787  29.401  26.526  1.00  0.00     0.031 C 
ATOM     52  C   UNL A   1      37.724  28.717  30.602  1.00  0.00     0.029 A 
ATOM     53  C   UNL A   1      38.535  29.914  30.652  1.00  0.00     0.049 A 
ATOM     54  H   UNL A   1      40.542  30.111  30.098  1.00  0.00     0.167 HD
ATOM     55  C   UNL A   1      44.407  30.609  28.091  1.00  0.00     0.031 A 
ATOM     56  C   UNL A   1      38.210  31.147  31.102  1.00  0.00     0.031 A 
ATOM     57  C   UNL A   1      44.809  30.499  29.472  1.00  0.00     0.049 A 
ATOM     58  C   UNL A   1      39.481  31.844  31.402  1.00  0.00     0.074 A 
ATOM     59  C   UNL A   1      45.427  29.525  30.231  1.00  0.00     0.029 A 
ATOM     60  N   UNL A   1      44.194  31.341  30.368  1.00  0.00    -0.354 N 
ATOM     61  N   UNL A   1      40.292  31.471  32.352  1.00  0.00    -0.248 NA
ATOM     62  C   UNL A   1      40.077  32.659  30.357  1.00  0.00     0.031 C 
ATOM     63  C   UNL A   1      44.743  29.553  31.484  1.00  0.00     0.029 A 
ATOM     64  C   UNL A   1      43.803  30.586  31.444  1.00  0.00     0.049 A 
ATOM     65  H   UNL A   1      44.058  32.311  30.258  1.00  0.00     0.167 HD
ATOM     66  C   UNL A   1      41.562  31.620  31.813  1.00  0.00     0.074 A 
ATOM     67  C   UNL A   1      41.371  32.458  30.629  1.00  0.00     0.031 C 
ATOM     68  C   UNL A   1      42.597  30.822  32.211  1.00  0.00     0.031 A 
BRANCH  55  69
ATOM     69  C   UNL A   1      44.636  31.874  27.304  1.00  0.00    -0.014 A 
ATOM     70  C   UNL A   1      45.883  32.063  26.678  1.00  0.00     0.009 A 
ATOM     71  C   UNL A   1      43.791  32.997  27.378  1.00  0.00     0.009 A 
ATOM     72  C   UNL A   1      46.286  33.323  26.219  1.00  0.00     0.001 A 
ATOM     73  C   UNL A   1      44.173  34.246  26.885  1.00  0.00     0.001 A 
ATOM     74  C   UNL A   1      45.434  34.417  26.331  1.00  0.00     0.000 A 
ENDBRANCH  55  69
BRANCH  56  75
ATOM     75  C   UNL A   1      36.907  31.834  31.042  1.00  0.00    -0.014 A 
ATOM     76  C   UNL A   1      35.998  31.740  32.105  1.00  0.00     0.009 A 
ATOM     77  C   UNL A   1      36.671  32.811  30.056  1.00  0.00     0.009 A 
ATOM     78  C   UNL A   1      34.917  32.626  32.203  1.00  0.00     0.001 A 
ATOM     79  C   UNL A   1      35.592  33.695  30.154  1.00  0.00     0.001 A 
ATOM     80  C   UNL A   1      34.725  33.613  31.239  1.00  0.00     0.000 A 
ENDBRANCH  56  75
BRANCH  68  81
ATOM     81  C   UNL A   1      42.375  29.916  33.402  1.00  0.00    -0.014 A 
ATOM     82  C   UNL A   1      42.634  30.313  34.727  1.00  0.00     0.009 A 
ATOM     83  C   UNL A   1      41.731  28.688  33.194  1.00  0.00     0.009 A 
ATOM     84  C   UNL A   1      42.281  29.493  35.805  1.00  0.00     0.001 A 
ATOM     85  C   UNL A   1      41.361  27.879  34.271  1.00  0.00     0.001 A 
ATOM     86  C   UNL A   1      41.639  28.279  35.577  1.00  0.00     0.000 A 
ENDBRANCH  68  81
ENDBRANCH  42  43
ENDBRANCH  34  37
ENDBRANCH  32  33
ENDBRANCH  31  32
ENDBRANCH   1  31
TORSDOF 16
ENDMDL
