MODEL 1
REMARK VINA RESULT:     -10.8      0.000      0.000
REMARK SMILES Cc1nc(C(C)C)[nH]c(=O)c1C(=O)N(C)CC(=O)NCCCNC(=O)c1ccc(-c2c3nc(c(-c4ccccc4)c4ccc([nH]4)c(-c4ccccc4)c4nc(c(-c5ccccc5)c5ccc2[nH]5)C=C4)C=C3)cc1
REMARK SMILES IDX 20 1 19 2 17 3 18 4 16 6 14 7 15 8 12 9 13 10 11 11 1 12
REMARK SMILES IDX 2 13 3 14 4 15 9 16 8 17 10 18 5 20 6 21 7 22 21 23 22 24
REMARK SMILES IDX 23 25 24 26 25 28 26 29 27 30 73 31 28 32 72 33 29 34 30 35
REMARK SMILES IDX 31 36 66 37 32 38 71 39 65 40 67 41 33 42 70 43 64 44 63 45
REMARK SMILES IDX 34 47 56 48 41 49 55 50 42 51 45 52 54 53 68 54 43 55 44 56
REMARK SMILES IDX 53 58 69 59 46 60 35 61 36 62 40 63 37 64 39 65 38 66 57 67
REMARK SMILES IDX 58 68 62 69 59 70 61 71 60 72 47 73 48 74 52 75 49 76 51 77
REMARK SMILES IDX 50 78
REMARK H PARENT 19 5 8 19 23 27 67 46 45 57
REMARK Flexibility Score: inf
ROOT
ATOM      1  C   UNL A   1      37.044  21.069  24.707  1.00  0.00     0.117 C 
ENDROOT
BRANCH   1   2
ATOM      2  N   UNL A   1      37.422  22.242  25.457  1.00  0.00    -0.354 N 
ATOM      3  C   UNL A   1      36.807  23.455  25.533  1.00  0.00     0.239 C 
ATOM      4  O   UNL A   1      37.180  24.216  26.432  1.00  0.00    -0.273 OA
ATOM      5  H   UNL A   1      38.244  22.154  25.992  1.00  0.00     0.163 HD
BRANCH   3   6
ATOM      6  C   UNL A   1      35.540  23.767  24.715  1.00  0.00     0.219 C 
BRANCH   6   7
ATOM      7  N   UNL A   1      34.332  24.340  25.346  1.00  0.00    -0.332 N 
ATOM      8  C   UNL A   1      34.186  25.780  25.198  1.00  0.00     0.147 C 
BRANCH   7   9
ATOM      9  C   UNL A   1      33.335  23.435  25.688  1.00  0.00     0.261 C 
ATOM     10  O   UNL A   1      32.403  23.815  26.405  1.00  0.00    -0.269 OA
BRANCH   9  11
ATOM     11  C   UNL A   1      33.278  22.004  25.217  1.00  0.00     0.126 A 
ATOM     12  C   UNL A   1      32.308  22.299  22.880  1.00  0.00     0.068 C 
ATOM     13  C   UNL A   1      32.819  21.497  24.048  1.00  0.00     0.058 A 
ATOM     14  N   UNL A   1      32.656  20.146  23.791  1.00  0.00    -0.239 NA
ATOM     15  C   UNL A   1      32.773  19.307  24.763  1.00  0.00     0.111 A 
ATOM     16  C   UNL A   1      33.576  20.966  26.261  1.00  0.00     0.264 A 
ATOM     17  N   UNL A   1      33.161  19.692  26.002  1.00  0.00    -0.310 N 
ATOM     18  O   UNL A   1      34.200  21.195  27.292  1.00  0.00    -0.269 OA
ATOM     19  H   UNL A   1      33.143  19.036  26.736  1.00  0.00     0.171 HD
BRANCH  15  20
ATOM     20  C   UNL A   1      32.462  17.834  24.534  1.00  0.00     0.049 C 
ATOM     21  C   UNL A   1      33.171  17.296  23.296  1.00  0.00     0.016 C 
ATOM     22  C   UNL A   1      32.805  17.007  25.770  1.00  0.00     0.016 C 
ENDBRANCH  15  20
ENDBRANCH   9  11
ENDBRANCH   7   9
ENDBRANCH   6   7
ENDBRANCH   3   6
ENDBRANCH   1   2
BRANCH   1  23
ATOM     23  C   UNL A   1      38.044  19.932  24.856  1.00  0.00     0.042 C 
BRANCH  23  24
ATOM     24  C   UNL A   1      39.019  20.106  26.014  1.00  0.00     0.118 C 
BRANCH  24  25
ATOM     25  N   UNL A   1      40.196  19.258  25.890  1.00  0.00    -0.352 N 
ATOM     26  C   UNL A   1      41.527  19.577  26.029  1.00  0.00     0.251 C 
ATOM     27  H   UNL A   1      40.013  18.314  25.676  1.00  0.00     0.163 HD
ATOM     28  O   UNL A   1      42.388  18.766  25.721  1.00  0.00    -0.269 OA
BRANCH  26  29
ATOM     29  C   UNL A   1      41.916  20.914  26.530  1.00  0.00     0.039 A 
ATOM     30  C   UNL A   1      42.345  21.881  25.617  1.00  0.00     0.014 A 
ATOM     31  C   UNL A   1      41.865  21.210  27.894  1.00  0.00     0.014 A 
ATOM     32  C   UNL A   1      42.660  23.166  26.066  1.00  0.00     0.010 A 
ATOM     33  C   UNL A   1      42.099  22.510  28.328  1.00  0.00     0.010 A 
ATOM     34  C   UNL A   1      42.504  23.501  27.420  1.00  0.00    -0.014 A 
BRANCH  34  35
ATOM     35  C   UNL A   1      42.779  24.870  27.925  1.00  0.00     0.031 A 
ATOM     36  C   UNL A   1      44.174  25.240  28.353  1.00  0.00     0.074 A 
ATOM     37  C   UNL A   1      41.771  25.751  28.071  1.00  0.00     0.049 A 
ATOM     38  N   UNL A   1      44.596  26.330  28.941  1.00  0.00    -0.248 NA
ATOM     39  C   UNL A   1      45.228  24.240  28.110  1.00  0.00     0.031 C 
ATOM     40  C   UNL A   1      40.371  25.514  27.706  1.00  0.00     0.029 A 
ATOM     41  N   UNL A   1      41.767  27.026  28.578  1.00  0.00    -0.354 N 
ATOM     42  C   UNL A   1      45.957  26.140  29.151  1.00  0.00     0.074 A 
ATOM     43  C   UNL A   1      46.279  24.813  28.679  1.00  0.00     0.031 C 
ATOM     44  C   UNL A   1      39.651  26.614  27.984  1.00  0.00     0.029 A 
ATOM     45  C   UNL A   1      40.523  27.613  28.593  1.00  0.00     0.049 A 
ATOM     46  H   UNL A   1      42.579  27.479  28.902  1.00  0.00     0.167 HD
ATOM     47  C   UNL A   1      46.863  27.002  29.670  1.00  0.00     0.031 A 
ATOM     48  C   UNL A   1      40.129  28.812  29.061  1.00  0.00     0.031 A 
ATOM     49  C   UNL A   1      46.545  28.325  30.134  1.00  0.00     0.049 A 
ATOM     50  C   UNL A   1      41.150  29.729  29.681  1.00  0.00     0.074 A 
ATOM     51  C   UNL A   1      47.397  29.282  30.655  1.00  0.00     0.029 A 
ATOM     52  N   UNL A   1      45.275  28.879  30.125  1.00  0.00    -0.354 N 
ATOM     53  N   UNL A   1      42.439  29.550  29.836  1.00  0.00    -0.248 NA
ATOM     54  C   UNL A   1      40.658  31.022  30.182  1.00  0.00     0.031 C 
ATOM     55  C   UNL A   1      46.634  30.400  31.007  1.00  0.00     0.029 A 
ATOM     56  C   UNL A   1      45.319  30.160  30.644  1.00  0.00     0.049 A 
ATOM     57  H   UNL A   1      44.462  28.427  29.800  1.00  0.00     0.167 HD
ATOM     58  C   UNL A   1      42.918  30.722  30.407  1.00  0.00     0.074 A 
ATOM     59  C   UNL A   1      41.784  31.608  30.564  1.00  0.00     0.031 C 
ATOM     60  C   UNL A   1      44.185  31.039  30.767  1.00  0.00     0.031 A 
BRANCH  47  61
ATOM     61  C   UNL A   1      48.291  26.540  29.761  1.00  0.00    -0.014 A 
ATOM     62  C   UNL A   1      48.756  25.844  30.887  1.00  0.00     0.009 A 
ATOM     63  C   UNL A   1      49.169  26.758  28.687  1.00  0.00     0.009 A 
ATOM     64  C   UNL A   1      50.078  25.400  30.949  1.00  0.00     0.001 A 
ATOM     65  C   UNL A   1      50.482  26.285  28.738  1.00  0.00     0.001 A 
ATOM     66  C   UNL A   1      50.937  25.615  29.871  1.00  0.00     0.000 A 
ENDBRANCH  47  61
BRANCH  48  67
ATOM     67  C   UNL A   1      38.704  29.231  28.967  1.00  0.00    -0.014 A 
ATOM     68  C   UNL A   1      37.830  29.026  30.047  1.00  0.00     0.009 A 
ATOM     69  C   UNL A   1      38.195  29.788  27.783  1.00  0.00     0.009 A 
ATOM     70  C   UNL A   1      36.471  29.328  29.928  1.00  0.00     0.001 A 
ATOM     71  C   UNL A   1      36.843  30.122  27.679  1.00  0.00     0.001 A 
ATOM     72  C   UNL A   1      35.979  29.876  28.746  1.00  0.00     0.000 A 
ENDBRANCH  48  67
BRANCH  60  73
ATOM     73  C   UNL A   1      44.432  32.425  31.294  1.00  0.00    -0.014 A 
ATOM     74  C   UNL A   1      44.715  33.500  30.439  1.00  0.00     0.009 A 
ATOM     75  C   UNL A   1      44.320  32.664  32.674  1.00  0.00     0.009 A 
ATOM     76  C   UNL A   1      44.910  34.781  30.958  1.00  0.00     0.001 A 
ATOM     77  C   UNL A   1      44.484  33.951  33.186  1.00  0.00     0.001 A 
ATOM     78  C   UNL A   1      44.787  35.006  32.329  1.00  0.00     0.000 A 
ENDBRANCH  60  73
ENDBRANCH  34  35
ENDBRANCH  26  29
ENDBRANCH  24  25
ENDBRANCH  23  24
ENDBRANCH   1  23
TORSDOF 14
ENDMDL
MODEL 2
REMARK VINA RESULT:     -10.7      1.677      3.475
REMARK SMILES Cc1nc(C(C)C)[nH]c(=O)c1C(=O)N(C)CC(=O)NCCCNC(=O)c1ccc(-c2c3nc(c(-c4ccccc4)c4ccc([nH]4)c(-c4ccccc4)c4nc(c(-c5ccccc5)c5ccc2[nH]5)C=C4)C=C3)cc1
REMARK SMILES IDX 20 1 19 2 17 3 18 4 16 6 14 7 15 8 12 9 13 10 11 11 1 12
REMARK SMILES IDX 2 13 3 14 4 15 9 16 8 17 10 18 5 20 6 21 7 22 21 23 22 24
REMARK SMILES IDX 23 25 24 26 25 28 26 29 27 30 73 31 28 32 72 33 29 34 30 35
REMARK SMILES IDX 31 36 66 37 32 38 71 39 65 40 67 41 33 42 70 43 64 44 63 45
REMARK SMILES IDX 34 47 56 48 41 49 55 50 42 51 45 52 54 53 68 54 43 55 44 56
REMARK SMILES IDX 53 58 69 59 46 60 35 61 36 62 40 63 37 64 39 65 38 66 57 67
REMARK SMILES IDX 58 68 62 69 59 70 61 71 60 72 47 73 48 74 52 75 49 76 51 77
REMARK SMILES IDX 50 78
REMARK H PARENT 19 5 8 19 23 27 67 46 45 57
REMARK Flexibility Score: inf
ROOT
ATOM      1  C   UNL A   1      36.495  20.489  25.034  1.00  0.00     0.117 C 
ENDROOT
BRANCH   1   2
ATOM      2  N   UNL A   1      35.300  19.691  24.917  1.00  0.00    -0.354 N 
ATOM      3  C   UNL A   1      34.011  20.087  24.717  1.00  0.00     0.239 C 
ATOM      4  O   UNL A   1      33.199  19.210  24.404  1.00  0.00    -0.273 OA
ATOM      5  H   UNL A   1      35.433  18.718  24.994  1.00  0.00     0.163 HD
BRANCH   3   6
ATOM      6  C   UNL A   1      33.633  21.577  24.629  1.00  0.00     0.219 C 
BRANCH   6   7
ATOM      7  N   UNL A   1      33.420  22.246  23.328  1.00  0.00    -0.332 N 
ATOM      8  C   UNL A   1      32.194  21.875  22.639  1.00  0.00     0.147 C 
BRANCH   7   9
ATOM      9  C   UNL A   1      34.203  23.368  23.084  1.00  0.00     0.261 C 
ATOM     10  O   UNL A   1      35.367  23.213  22.699  1.00  0.00    -0.269 OA
BRANCH   9  11
ATOM     11  C   UNL A   1      33.725  24.792  23.221  1.00  0.00     0.126 A 
ATOM     12  C   UNL A   1      33.973  25.148  25.732  1.00  0.00     0.068 C 
ATOM     13  C   UNL A   1      33.589  25.554  24.333  1.00  0.00     0.058 A 
ATOM     14  N   UNL A   1      32.976  26.795  24.360  1.00  0.00    -0.239 NA
ATOM     15  C   UNL A   1      32.332  27.197  23.318  1.00  0.00     0.111 A 
ATOM     16  C   UNL A   1      33.115  25.392  21.988  1.00  0.00     0.264 A 
ATOM     17  N   UNL A   1      32.331  26.496  22.160  1.00  0.00    -0.310 N 
ATOM     18  O   UNL A   1      33.320  24.974  20.852  1.00  0.00    -0.269 OA
ATOM     19  H   UNL A   1      31.749  26.789  21.422  1.00  0.00     0.171 HD
BRANCH  15  20
ATOM     20  C   UNL A   1      31.535  28.493  23.373  1.00  0.00     0.049 C 
ATOM     21  C   UNL A   1      30.246  28.396  22.565  1.00  0.00     0.016 C 
ATOM     22  C   UNL A   1      31.252  28.896  24.818  1.00  0.00     0.016 C 
ENDBRANCH  15  20
ENDBRANCH   9  11
ENDBRANCH   7   9
ENDBRANCH   6   7
ENDBRANCH   3   6
ENDBRANCH   1   2
BRANCH   1  23
ATOM     23  C   UNL A   1      37.766  19.657  24.943  1.00  0.00     0.042 C 
BRANCH  23  24
ATOM     24  C   UNL A   1      38.948  20.236  25.711  1.00  0.00     0.118 C 
BRANCH  24  25
ATOM     25  N   UNL A   1      40.062  19.305  25.814  1.00  0.00    -0.352 N 
ATOM     26  C   UNL A   1      41.377  19.541  26.142  1.00  0.00     0.251 C 
ATOM     27  H   UNL A   1      39.842  18.364  25.620  1.00  0.00     0.163 HD
ATOM     28  O   UNL A   1      42.210  18.656  26.012  1.00  0.00    -0.269 OA
BRANCH  26  29
ATOM     29  C   UNL A   1      41.785  20.876  26.632  1.00  0.00     0.039 A 
ATOM     30  C   UNL A   1      42.295  21.806  25.720  1.00  0.00     0.014 A 
ATOM     31  C   UNL A   1      41.675  21.208  27.985  1.00  0.00     0.014 A 
ATOM     32  C   UNL A   1      42.630  23.090  26.155  1.00  0.00     0.010 A 
ATOM     33  C   UNL A   1      41.931  22.510  28.399  1.00  0.00     0.010 A 
ATOM     34  C   UNL A   1      42.417  23.464  27.491  1.00  0.00    -0.014 A 
BRANCH  34  35
ATOM     35  C   UNL A   1      42.712  24.835  27.978  1.00  0.00     0.031 A 
ATOM     36  C   UNL A   1      44.113  25.190  28.399  1.00  0.00     0.074 A 
ATOM     37  C   UNL A   1      41.717  25.732  28.115  1.00  0.00     0.049 A 
ATOM     38  N   UNL A   1      44.553  26.281  28.972  1.00  0.00    -0.248 NA
ATOM     39  C   UNL A   1      45.152  24.172  28.167  1.00  0.00     0.031 C 
ATOM     40  C   UNL A   1      40.314  25.511  27.756  1.00  0.00     0.029 A 
ATOM     41  N   UNL A   1      41.733  27.014  28.606  1.00  0.00    -0.354 N 
ATOM     42  C   UNL A   1      45.911  26.074  29.182  1.00  0.00     0.074 A 
ATOM     43  C   UNL A   1      46.213  24.736  28.726  1.00  0.00     0.031 C 
ATOM     44  C   UNL A   1      39.610  26.624  28.021  1.00  0.00     0.029 A 
ATOM     45  C   UNL A   1      40.498  27.618  28.616  1.00  0.00     0.049 A 
ATOM     46  H   UNL A   1      42.553  27.459  28.922  1.00  0.00     0.167 HD
ATOM     47  C   UNL A   1      46.830  26.929  29.687  1.00  0.00     0.031 A 
ATOM     48  C   UNL A   1      40.122  28.830  29.069  1.00  0.00     0.031 A 
ATOM     49  C   UNL A   1      46.532  28.263  30.135  1.00  0.00     0.049 A 
ATOM     50  C   UNL A   1      41.157  29.739  29.675  1.00  0.00     0.074 A 
ATOM     51  C   UNL A   1      47.400  29.215  30.642  1.00  0.00     0.029 A 
ATOM     52  N   UNL A   1      45.271  28.835  30.122  1.00  0.00    -0.354 N 
ATOM     53  N   UNL A   1      42.444  29.543  29.830  1.00  0.00    -0.248 NA
ATOM     54  C   UNL A   1      40.685  31.045  30.161  1.00  0.00     0.031 C 
ATOM     55  C   UNL A   1      46.653  30.348  30.981  1.00  0.00     0.029 A 
ATOM     56  C   UNL A   1      45.334  30.122  30.624  1.00  0.00     0.049 A 
ATOM     57  H   UNL A   1      44.451  28.391  29.804  1.00  0.00     0.167 HD
ATOM     58  C   UNL A   1      42.941  30.716  30.385  1.00  0.00     0.074 A 
ATOM     59  C   UNL A   1      41.821  31.620  30.533  1.00  0.00     0.031 C 
ATOM     60  C   UNL A   1      44.214  31.019  30.738  1.00  0.00     0.031 A 
BRANCH  47  61
ATOM     61  C   UNL A   1      48.252  26.449  29.781  1.00  0.00    -0.014 A 
ATOM     62  C   UNL A   1      48.714  25.774  30.922  1.00  0.00     0.009 A 
ATOM     63  C   UNL A   1      49.126  26.625  28.697  1.00  0.00     0.009 A 
ATOM     64  C   UNL A   1      50.030  25.311  30.987  1.00  0.00     0.001 A 
ATOM     65  C   UNL A   1      50.432  26.134  28.752  1.00  0.00     0.001 A 
ATOM     66  C   UNL A   1      50.884  25.485  29.899  1.00  0.00     0.000 A 
ENDBRANCH  47  61
BRANCH  48  67
ATOM     67  C   UNL A   1      38.703  29.267  28.973  1.00  0.00    -0.014 A 
ATOM     68  C   UNL A   1      37.824  29.074  30.051  1.00  0.00     0.009 A 
ATOM     69  C   UNL A   1      38.204  29.832  27.788  1.00  0.00     0.009 A 
ATOM     70  C   UNL A   1      36.470  29.394  29.930  1.00  0.00     0.001 A 
ATOM     71  C   UNL A   1      36.857  30.185  27.682  1.00  0.00     0.001 A 
ATOM     72  C   UNL A   1      35.988  29.949  28.747  1.00  0.00     0.000 A 
ENDBRANCH  48  67
BRANCH  60  73
ATOM     73  C   UNL A   1      44.482  32.408  31.247  1.00  0.00    -0.014 A 
ATOM     74  C   UNL A   1      44.453  32.710  32.616  1.00  0.00     0.009 A 
ATOM     75  C   UNL A   1      44.827  33.417  30.334  1.00  0.00     0.009 A 
ATOM     76  C   UNL A   1      44.736  34.004  33.058  1.00  0.00     0.001 A 
ATOM     77  C   UNL A   1      45.140  34.701  30.781  1.00  0.00     0.001 A 
ATOM     78  C   UNL A   1      45.085  34.995  32.141  1.00  0.00     0.000 A 
ENDBRANCH  60  73
ENDBRANCH  34  35
ENDBRANCH  26  29
ENDBRANCH  24  25
ENDBRANCH  23  24
ENDBRANCH   1  23
TORSDOF 14
ENDMDL
MODEL 3
REMARK VINA RESULT:     -10.7      1.856      7.203
REMARK SMILES Cc1nc(C(C)C)[nH]c(=O)c1C(=O)N(C)CC(=O)NCCCNC(=O)c1ccc(-c2c3nc(c(-c4ccccc4)c4ccc([nH]4)c(-c4ccccc4)c4nc(c(-c5ccccc5)c5ccc2[nH]5)C=C4)C=C3)cc1
REMARK SMILES IDX 20 1 19 2 17 3 18 4 16 6 14 7 15 8 12 9 13 10 11 11 1 12
REMARK SMILES IDX 2 13 3 14 4 15 9 16 8 17 10 18 5 20 6 21 7 22 21 23 22 24
REMARK SMILES IDX 23 25 24 26 25 28 26 29 27 30 73 31 28 32 72 33 29 34 30 35
REMARK SMILES IDX 31 36 66 37 32 38 71 39 65 40 67 41 33 42 70 43 64 44 63 45
REMARK SMILES IDX 34 47 56 48 41 49 55 50 42 51 45 52 54 53 68 54 43 55 44 56
REMARK SMILES IDX 53 58 69 59 46 60 35 61 36 62 40 63 37 64 39 65 38 66 57 67
REMARK SMILES IDX 58 68 62 69 59 70 61 71 60 72 47 73 48 74 52 75 49 76 51 77
REMARK SMILES IDX 50 78
REMARK H PARENT 19 5 8 19 23 27 67 46 45 57
REMARK Flexibility Score: inf
ROOT
ATOM      1  C   UNL A   1      31.457  27.319  26.481  1.00  0.00     0.117 C 
ENDROOT
BRANCH   1   2
ATOM      2  N   UNL A   1      31.063  25.976  26.828  1.00  0.00    -0.354 N 
ATOM      3  C   UNL A   1      31.712  24.799  26.606  1.00  0.00     0.239 C 
ATOM      4  O   UNL A   1      31.296  23.807  27.213  1.00  0.00    -0.273 OA
ATOM      5  H   UNL A   1      30.198  25.897  27.293  1.00  0.00     0.163 HD
BRANCH   3   6
ATOM      6  C   UNL A   1      33.051  24.750  25.845  1.00  0.00     0.219 C 
BRANCH   6   7
ATOM      7  N   UNL A   1      33.923  23.558  25.888  1.00  0.00    -0.332 N 
ATOM      8  C   UNL A   1      34.530  23.287  27.181  1.00  0.00     0.147 C 
BRANCH   7   9
ATOM      9  C   UNL A   1      33.790  22.666  24.830  1.00  0.00     0.261 C 
ATOM     10  O   UNL A   1      33.469  23.101  23.719  1.00  0.00    -0.269 OA
BRANCH   9  11
ATOM     11  C   UNL A   1      34.045  21.183  24.922  1.00  0.00     0.126 A 
ATOM     12  C   UNL A   1      36.583  21.111  24.717  1.00  0.00     0.068 C 
ATOM     13  C   UNL A   1      35.213  20.501  24.845  1.00  0.00     0.058 A 
ATOM     14  N   UNL A   1      35.309  19.122  24.771  1.00  0.00    -0.239 NA
ATOM     15  C   UNL A   1      34.237  18.429  24.584  1.00  0.00     0.111 A 
ATOM     16  C   UNL A   1      32.822  20.312  24.886  1.00  0.00     0.264 A 
ATOM     17  N   UNL A   1      33.008  18.997  24.573  1.00  0.00    -0.310 N 
ATOM     18  O   UNL A   1      31.694  20.708  25.164  1.00  0.00    -0.269 OA
ATOM     19  H   UNL A   1      32.228  18.448  24.331  1.00  0.00     0.171 HD
BRANCH  15  20
ATOM     20  C   UNL A   1      34.335  16.927  24.360  1.00  0.00     0.049 C 
ATOM     21  C   UNL A   1      33.383  16.159  25.271  1.00  0.00     0.016 C 
ATOM     22  C   UNL A   1      34.097  16.579  22.893  1.00  0.00     0.016 C 
ENDBRANCH  15  20
ENDBRANCH   9  11
ENDBRANCH   7   9
ENDBRANCH   6   7
ENDBRANCH   3   6
ENDBRANCH   1   2
BRANCH   1  23
ATOM     23  C   UNL A   1      32.086  28.065  27.648  1.00  0.00     0.042 C 
BRANCH  23  24
ATOM     24  C   UNL A   1      33.435  28.699  27.331  1.00  0.00     0.118 C 
BRANCH  24  25
ATOM     25  N   UNL A   1      33.471  30.124  27.626  1.00  0.00    -0.352 N 
ATOM     26  C   UNL A   1      34.468  30.878  28.198  1.00  0.00     0.251 C 
ATOM     27  H   UNL A   1      32.659  30.624  27.377  1.00  0.00     0.163 HD
ATOM     28  O   UNL A   1      34.252  32.036  28.523  1.00  0.00    -0.269 OA
BRANCH  26  29
ATOM     29  C   UNL A   1      35.798  30.277  28.442  1.00  0.00     0.039 A 
ATOM     30  C   UNL A   1      36.751  30.302  27.418  1.00  0.00     0.014 A 
ATOM     31  C   UNL A   1      36.102  29.684  29.669  1.00  0.00     0.014 A 
ATOM     32  C   UNL A   1      38.030  29.792  27.651  1.00  0.00     0.010 A 
ATOM     33  C   UNL A   1      37.399  29.252  29.925  1.00  0.00     0.010 A 
ATOM     34  C   UNL A   1      38.375  29.296  28.917  1.00  0.00    -0.014 A 
BRANCH  34  35
ATOM     35  C   UNL A   1      39.740  28.793  29.217  1.00  0.00     0.031 A 
ATOM     36  C   UNL A   1      40.735  29.700  29.891  1.00  0.00     0.074 A 
ATOM     37  C   UNL A   1      40.109  27.561  28.820  1.00  0.00     0.049 A 
ATOM     38  N   UNL A   1      42.008  29.503  30.122  1.00  0.00    -0.248 NA
ATOM     39  C   UNL A   1      40.237  31.010  30.343  1.00  0.00     0.031 C 
ATOM     40  C   UNL A   1      39.245  26.588  28.145  1.00  0.00     0.029 A 
ATOM     41  N   UNL A   1      41.317  26.917  28.915  1.00  0.00    -0.354 N 
ATOM     42  C   UNL A   1      42.464  30.667  30.728  1.00  0.00     0.074 A 
ATOM     43  C   UNL A   1      41.348  31.584  30.782  1.00  0.00     0.031 C 
ATOM     44  C   UNL A   1      39.946  25.467  27.907  1.00  0.00     0.029 A 
ATOM     45  C   UNL A   1      41.319  25.657  28.362  1.00  0.00     0.049 A 
ATOM     46  H   UNL A   1      42.110  27.319  29.340  1.00  0.00     0.167 HD
ATOM     47  C   UNL A   1      43.696  30.941  31.219  1.00  0.00     0.031 A 
ATOM     48  C   UNL A   1      42.319  24.767  28.222  1.00  0.00     0.031 A 
ATOM     49  C   UNL A   1      44.805  30.027  31.173  1.00  0.00     0.049 A 
ATOM     50  C   UNL A   1      43.692  25.120  28.730  1.00  0.00     0.074 A 
ATOM     51  C   UNL A   1      46.087  30.204  31.663  1.00  0.00     0.029 A 
ATOM     52  N   UNL A   1      44.761  28.763  30.608  1.00  0.00    -0.354 N 
ATOM     53  N   UNL A   1      44.097  26.210  29.336  1.00  0.00    -0.248 NA
ATOM     54  C   UNL A   1      44.746  24.111  28.541  1.00  0.00     0.031 C 
ATOM     55  C   UNL A   1      46.833  29.062  31.353  1.00  0.00     0.029 A 
ATOM     56  C   UNL A   1      45.996  28.152  30.727  1.00  0.00     0.049 A 
ATOM     57  H   UNL A   1      43.969  28.359  30.184  1.00  0.00     0.167 HD
ATOM     58  C   UNL A   1      45.435  25.997  29.643  1.00  0.00     0.074 A 
ATOM     59  C   UNL A   1      45.773  24.674  29.163  1.00  0.00     0.031 C 
ATOM     60  C   UNL A   1      46.307  26.824  30.269  1.00  0.00     0.031 A 
BRANCH  47  61
ATOM     61  C   UNL A   1      43.909  32.287  31.854  1.00  0.00    -0.014 A 
ATOM     62  C   UNL A   1      43.751  32.468  33.237  1.00  0.00     0.009 A 
ATOM     63  C   UNL A   1      44.324  33.376  31.071  1.00  0.00     0.009 A 
ATOM     64  C   UNL A   1      43.975  33.717  33.818  1.00  0.00     0.001 A 
ATOM     65  C   UNL A   1      44.578  34.616  31.659  1.00  0.00     0.001 A 
ATOM     66  C   UNL A   1      44.396  34.787  33.030  1.00  0.00     0.000 A 
ENDBRANCH  47  61
BRANCH  48  67
ATOM     67  C   UNL A   1      42.075  23.449  27.576  1.00  0.00    -0.014 A 
ATOM     68  C   UNL A   1      41.536  22.383  28.314  1.00  0.00     0.009 A 
ATOM     69  C   UNL A   1      42.427  23.232  26.234  1.00  0.00     0.009 A 
ATOM     70  C   UNL A   1      41.397  21.119  27.737  1.00  0.00     0.001 A 
ATOM     71  C   UNL A   1      42.253  21.975  25.649  1.00  0.00     0.001 A 
ATOM     72  C   UNL A   1      41.754  20.916  26.406  1.00  0.00     0.000 A 
ENDBRANCH  48  67
BRANCH  60  73
ATOM     73  C   UNL A   1      47.689  26.298  30.542  1.00  0.00    -0.014 A 
ATOM     74  C   UNL A   1      48.699  26.339  29.571  1.00  0.00     0.009 A 
ATOM     75  C   UNL A   1      47.993  25.804  31.822  1.00  0.00     0.009 A 
ATOM     76  C   UNL A   1      49.981  25.870  29.867  1.00  0.00     0.001 A 
ATOM     77  C   UNL A   1      49.282  25.365  32.124  1.00  0.00     0.001 A 
ATOM     78  C   UNL A   1      50.272  25.390  31.144  1.00  0.00     0.000 A 
ENDBRANCH  60  73
ENDBRANCH  34  35
ENDBRANCH  26  29
ENDBRANCH  24  25
ENDBRANCH  23  24
ENDBRANCH   1  23
TORSDOF 14
ENDMDL
