MODEL 1
REMARK VINA RESULT:      -9.6      0.000      0.000
REMARK SMILES C[C@@H](C(=O)NCCCNC(=O)c1ccc(-c2c3nc(c(-c4ccccc4)c4ccc([nH]4)c(-c4ccccc4)c4nc(c(-c5ccccc5)c5ccc2[nH]5)C=C4)C=C3)cc1)c1ccc(-c2ccccc2)cc1
REMARK SMILES IDX 7 1 6 2 5 3 3 4 4 5 2 7 1 8 60 9 61 10 71 11 62 12 70 13
REMARK SMILES IDX 63 14 64 15 65 16 69 17 66 18 68 19 67 20 8 21 9 22 10 23
REMARK SMILES IDX 11 25 12 26 13 27 59 28 14 29 58 30 15 31 16 32 17 33 52 34
REMARK SMILES IDX 18 35 57 36 51 37 53 38 19 39 56 40 50 41 49 42 20 44 42 45
REMARK SMILES IDX 27 46 41 47 28 48 31 49 40 50 54 51 29 52 30 53 39 55 55 56
REMARK SMILES IDX 32 57 21 58 22 59 26 60 23 61 25 62 24 63 43 64 44 65 48 66
REMARK SMILES IDX 45 67 47 68 46 69 33 70 34 71 38 72 35 73 37 74 36 75
REMARK H PARENT 5 6 9 24 53 43 31 54
REMARK Flexibility Score: inf
ROOT
ATOM      1  C   UNL A   1      44.364  18.658  24.388  1.00  0.00     0.042 C 
ENDROOT
BRANCH   1   2
ATOM      2  C   UNL A   1      45.422  19.722  24.083  1.00  0.00     0.117 C 
BRANCH   2   3
ATOM      3  N   UNL A   1      44.847  20.882  23.425  1.00  0.00    -0.356 N 
ATOM      4  C   UNL A   1      44.939  22.214  23.721  1.00  0.00     0.227 C 
ATOM      5  O   UNL A   1      44.169  22.960  23.113  1.00  0.00    -0.274 OA
ATOM      6  H   UNL A   1      44.298  20.674  22.634  1.00  0.00     0.163 HD
BRANCH   4   7
ATOM      7  C   UNL A   1      45.961  22.708  24.763  1.00  0.00     0.105 C 
ATOM      8  C   UNL A   1      45.829  21.823  26.011  1.00  0.00     0.023 C 
BRANCH   7   9
ATOM      9  C   UNL A   1      45.857  24.205  25.090  1.00  0.00    -0.036 A 
ATOM     10  C   UNL A   1      46.981  24.954  25.474  1.00  0.00     0.005 A 
ATOM     11  C   UNL A   1      44.638  24.896  24.976  1.00  0.00     0.005 A 
ATOM     12  C   UNL A   1      46.875  26.305  25.819  1.00  0.00     0.009 A 
ATOM     13  C   UNL A   1      44.529  26.247  25.335  1.00  0.00     0.009 A 
ATOM     14  C   UNL A   1      45.644  26.966  25.784  1.00  0.00    -0.018 A 
BRANCH  14  15
ATOM     15  C   UNL A   1      45.536  28.357  26.243  1.00  0.00    -0.018 A 
ATOM     16  C   UNL A   1      44.295  28.912  26.591  1.00  0.00     0.009 A 
ATOM     17  C   UNL A   1      46.670  29.185  26.291  1.00  0.00     0.009 A 
ATOM     18  C   UNL A   1      44.186  30.254  26.962  1.00  0.00     0.001 A 
ATOM     19  C   UNL A   1      46.563  30.528  26.660  1.00  0.00     0.001 A 
ATOM     20  C   UNL A   1      45.321  31.062  26.993  1.00  0.00     0.000 A 
ENDBRANCH  14  15
ENDBRANCH   7   9
ENDBRANCH   4   7
ENDBRANCH   2   3
ENDBRANCH   1   2
BRANCH   1  21
ATOM     21  C   UNL A   1      43.675  18.808  25.740  1.00  0.00     0.118 C 
BRANCH  21  22
ATOM     22  N   UNL A   1      42.230  18.706  25.648  1.00  0.00    -0.352 N 
ATOM     23  C   UNL A   1      41.261  19.573  26.081  1.00  0.00     0.251 C 
ATOM     24  H   UNL A   1      41.896  17.890  25.211  1.00  0.00     0.163 HD
ATOM     25  O   UNL A   1      40.082  19.217  26.056  1.00  0.00    -0.269 OA
BRANCH  23  26
ATOM     26  C   UNL A   1      41.603  20.921  26.594  1.00  0.00     0.039 A 
ATOM     27  C   UNL A   1      41.599  21.126  27.977  1.00  0.00     0.014 A 
ATOM     28  C   UNL A   1      41.862  21.995  25.736  1.00  0.00     0.014 A 
ATOM     29  C   UNL A   1      41.883  22.390  28.501  1.00  0.00     0.010 A 
ATOM     30  C   UNL A   1      42.211  23.241  26.260  1.00  0.00     0.010 A 
ATOM     31  C   UNL A   1      42.206  23.456  27.646  1.00  0.00    -0.014 A 
BRANCH  31  32
ATOM     32  C   UNL A   1      42.500  24.806  28.192  1.00  0.00     0.031 A 
ATOM     33  C   UNL A   1      43.901  25.167  28.610  1.00  0.00     0.074 A 
ATOM     34  C   UNL A   1      41.506  25.702  28.342  1.00  0.00     0.049 A 
ATOM     35  N   UNL A   1      44.348  26.286  29.122  1.00  0.00    -0.248 NA
ATOM     36  C   UNL A   1      44.929  24.126  28.451  1.00  0.00     0.031 C 
ATOM     37  C   UNL A   1      40.098  25.471  28.012  1.00  0.00     0.029 A 
ATOM     38  N   UNL A   1      41.532  26.991  28.813  1.00  0.00    -0.354 N 
ATOM     39  C   UNL A   1      45.700  26.078  29.363  1.00  0.00     0.074 A 
ATOM     40  C   UNL A   1      45.992  24.713  28.982  1.00  0.00     0.031 C 
ATOM     41  C   UNL A   1      39.400  26.590  28.267  1.00  0.00     0.029 A 
ATOM     42  C   UNL A   1      40.303  27.605  28.802  1.00  0.00     0.049 A 
ATOM     43  H   UNL A   1      42.352  27.434  29.128  1.00  0.00     0.167 HD
ATOM     44  C   UNL A   1      46.623  26.946  29.842  1.00  0.00     0.031 A 
ATOM     45  C   UNL A   1      39.943  28.846  29.175  1.00  0.00     0.031 A 
ATOM     46  C   UNL A   1      46.346  28.309  30.205  1.00  0.00     0.049 A 
ATOM     47  C   UNL A   1      40.988  29.799  29.684  1.00  0.00     0.074 A 
ATOM     48  C   UNL A   1      47.226  29.279  30.654  1.00  0.00     0.029 A 
ATOM     49  N   UNL A   1      45.092  28.897  30.156  1.00  0.00    -0.354 N 
ATOM     50  N   UNL A   1      42.273  29.603  29.852  1.00  0.00    -0.248 NA
ATOM     51  C   UNL A   1      40.533  31.151  30.037  1.00  0.00     0.031 C 
ATOM     52  C   UNL A   1      46.497  30.447  30.907  1.00  0.00     0.029 A 
ATOM     53  C   UNL A   1      45.172  30.215  30.576  1.00  0.00     0.049 A 
ATOM     54  H   UNL A   1      44.267  28.446  29.866  1.00  0.00     0.167 HD
ATOM     55  C   UNL A   1      42.783  30.811  30.306  1.00  0.00     0.074 A 
ATOM     56  C   UNL A   1      41.673  31.738  30.373  1.00  0.00     0.031 C 
ATOM     57  C   UNL A   1      44.059  31.125  30.636  1.00  0.00     0.031 A 
BRANCH  44  58
ATOM     58  C   UNL A   1      48.027  26.436  30.003  1.00  0.00    -0.014 A 
ATOM     59  C   UNL A   1      48.955  26.526  28.953  1.00  0.00     0.009 A 
ATOM     60  C   UNL A   1      48.435  25.881  31.226  1.00  0.00     0.009 A 
ATOM     61  C   UNL A   1      50.252  26.034  29.113  1.00  0.00     0.001 A 
ATOM     62  C   UNL A   1      49.740  25.415  31.391  1.00  0.00     0.001 A 
ATOM     63  C   UNL A   1      50.645  25.483  30.332  1.00  0.00     0.000 A 
ENDBRANCH  44  58
BRANCH  45  64
ATOM     64  C   UNL A   1      38.527  29.275  29.054  1.00  0.00    -0.014 A 
ATOM     65  C   UNL A   1      38.034  29.759  27.832  1.00  0.00     0.009 A 
ATOM     66  C   UNL A   1      37.663  29.204  30.157  1.00  0.00     0.009 A 
ATOM     67  C   UNL A   1      36.709  30.186  27.724  1.00  0.00     0.001 A 
ATOM     68  C   UNL A   1      36.331  29.609  30.038  1.00  0.00     0.001 A 
ATOM     69  C   UNL A   1      35.858  30.107  28.825  1.00  0.00     0.000 A 
ENDBRANCH  45  64
BRANCH  57  70
ATOM     70  C   UNL A   1      44.328  32.538  31.066  1.00  0.00    -0.014 A 
ATOM     71  C   UNL A   1      44.636  33.537  30.131  1.00  0.00     0.009 A 
ATOM     72  C   UNL A   1      44.240  32.878  32.425  1.00  0.00     0.009 A 
ATOM     73  C   UNL A   1      44.883  34.845  30.553  1.00  0.00     0.001 A 
ATOM     74  C   UNL A   1      44.464  34.191  32.842  1.00  0.00     0.001 A 
ATOM     75  C   UNL A   1      44.794  35.171  31.906  1.00  0.00     0.000 A 
ENDBRANCH  57  70
ENDBRANCH  31  32
ENDBRANCH  23  26
ENDBRANCH  21  22
ENDBRANCH   1  21
TORSDOF 12
ENDMDL
MODEL 2
REMARK VINA RESULT:      -8.9      3.803     10.123
REMARK SMILES C[C@@H](C(=O)NCCCNC(=O)c1ccc(-c2c3nc(c(-c4ccccc4)c4ccc([nH]4)c(-c4ccccc4)c4nc(c(-c5ccccc5)c5ccc2[nH]5)C=C4)C=C3)cc1)c1ccc(-c2ccccc2)cc1
REMARK SMILES IDX 7 1 6 2 5 3 3 4 4 5 2 7 1 8 60 9 61 10 71 11 62 12 70 13
REMARK SMILES IDX 63 14 64 15 65 16 69 17 66 18 68 19 67 20 8 21 9 22 10 23
REMARK SMILES IDX 11 25 12 26 13 27 59 28 14 29 58 30 15 31 16 32 17 33 52 34
REMARK SMILES IDX 18 35 57 36 51 37 53 38 19 39 56 40 50 41 49 42 20 44 42 45
REMARK SMILES IDX 27 46 41 47 28 48 31 49 40 50 54 51 29 52 30 53 39 55 55 56
REMARK SMILES IDX 32 57 21 58 22 59 26 60 23 61 25 62 24 63 43 64 44 65 48 66
REMARK SMILES IDX 45 67 47 68 46 69 33 70 34 71 38 72 35 73 37 74 36 75
REMARK H PARENT 5 6 9 24 53 43 31 54
REMARK Flexibility Score: inf
ROOT
ATOM      1  C   UNL A   1      34.016  34.115  29.708  1.00  0.00     0.042 C 
ENDROOT
BRANCH   1   2
ATOM      2  C   UNL A   1      34.487  34.089  31.164  1.00  0.00     0.117 C 
BRANCH   2   3
ATOM      3  N   UNL A   1      35.903  34.390  31.280  1.00  0.00    -0.356 N 
ATOM      4  C   UNL A   1      36.807  34.074  32.255  1.00  0.00     0.227 C 
ATOM      5  O   UNL A   1      37.897  34.646  32.192  1.00  0.00    -0.274 OA
ATOM      6  H   UNL A   1      36.273  34.909  30.529  1.00  0.00     0.163 HD
BRANCH   4   7
ATOM      7  C   UNL A   1      36.440  33.055  33.352  1.00  0.00     0.105 C 
ATOM      8  C   UNL A   1      35.940  33.838  34.575  1.00  0.00     0.023 C 
BRANCH   7   9
ATOM      9  C   UNL A   1      37.566  32.071  33.703  1.00  0.00    -0.036 A 
ATOM     10  C   UNL A   1      38.653  32.454  34.506  1.00  0.00     0.005 A 
ATOM     11  C   UNL A   1      37.531  30.735  33.270  1.00  0.00     0.005 A 
ATOM     12  C   UNL A   1      39.701  31.571  34.783  1.00  0.00     0.009 A 
ATOM     13  C   UNL A   1      38.589  29.854  33.536  1.00  0.00     0.009 A 
ATOM     14  C   UNL A   1      39.702  30.266  34.280  1.00  0.00    -0.018 A 
BRANCH  14  15
ATOM     15  C   UNL A   1      40.857  29.388  34.500  1.00  0.00    -0.018 A 
ATOM     16  C   UNL A   1      41.815  29.683  35.482  1.00  0.00     0.009 A 
ATOM     17  C   UNL A   1      41.063  28.258  33.691  1.00  0.00     0.009 A 
ATOM     18  C   UNL A   1      42.949  28.884  35.644  1.00  0.00     0.001 A 
ATOM     19  C   UNL A   1      42.197  27.458  33.850  1.00  0.00     0.001 A 
ATOM     20  C   UNL A   1      43.141  27.773  34.824  1.00  0.00     0.000 A 
ENDBRANCH  14  15
ENDBRANCH   7   9
ENDBRANCH   4   7
ENDBRANCH   2   3
ENDBRANCH   1   2
BRANCH   1  21
ATOM     21  C   UNL A   1      34.806  33.217  28.763  1.00  0.00     0.118 C 
BRANCH  21  22
ATOM     22  N   UNL A   1      34.010  32.126  28.229  1.00  0.00    -0.352 N 
ATOM     23  C   UNL A   1      34.385  30.852  27.890  1.00  0.00     0.251 C 
ATOM     24  H   UNL A   1      33.059  32.333  28.087  1.00  0.00     0.163 HD
ATOM     25  O   UNL A   1      33.586  30.129  27.294  1.00  0.00    -0.269 OA
BRANCH  23  26
ATOM     26  C   UNL A   1      35.735  30.332  28.212  1.00  0.00     0.039 A 
ATOM     27  C   UNL A   1      35.951  29.785  29.481  1.00  0.00     0.014 A 
ATOM     28  C   UNL A   1      36.802  30.433  27.313  1.00  0.00     0.014 A 
ATOM     29  C   UNL A   1      37.218  29.315  29.837  1.00  0.00     0.010 A 
ATOM     30  C   UNL A   1      38.050  29.903  27.643  1.00  0.00     0.010 A 
ATOM     31  C   UNL A   1      38.275  29.357  28.915  1.00  0.00    -0.014 A 
BRANCH  31  32
ATOM     32  C   UNL A   1      39.628  28.868  29.287  1.00  0.00     0.031 A 
ATOM     33  C   UNL A   1      40.544  29.727  30.118  1.00  0.00     0.074 A 
ATOM     34  C   UNL A   1      40.050  27.664  28.857  1.00  0.00     0.049 A 
ATOM     35  N   UNL A   1      41.762  29.480  30.528  1.00  0.00    -0.248 NA
ATOM     36  C   UNL A   1      40.029  31.045  30.523  1.00  0.00     0.031 C 
ATOM     37  C   UNL A   1      39.280  26.745  28.016  1.00  0.00     0.029 A 
ATOM     38  N   UNL A   1      41.236  27.007  29.069  1.00  0.00    -0.354 N 
ATOM     39  C   UNL A   1      42.165  30.616  31.219  1.00  0.00     0.074 A 
ATOM     40  C   UNL A   1      41.080  31.568  31.138  1.00  0.00     0.031 C 
ATOM     41  C   UNL A   1      40.004  25.633  27.806  1.00  0.00     0.029 A 
ATOM     42  C   UNL A   1      41.296  25.771  28.472  1.00  0.00     0.049 A 
ATOM     43  H   UNL A   1      41.974  27.385  29.600  1.00  0.00     0.167 HD
ATOM     44  C   UNL A   1      43.327  30.844  31.878  1.00  0.00     0.031 A 
ATOM     45  C   UNL A   1      42.276  24.850  28.465  1.00  0.00     0.031 A 
ATOM     46  C   UNL A   1      44.403  29.896  31.981  1.00  0.00     0.049 A 
ATOM     47  C   UNL A   1      43.548  25.115  29.222  1.00  0.00     0.074 A 
ATOM     48  C   UNL A   1      45.599  30.018  32.668  1.00  0.00     0.029 A 
ATOM     49  N   UNL A   1      44.412  28.647  31.381  1.00  0.00    -0.354 N 
ATOM     50  N   UNL A   1      43.889  26.172  29.918  1.00  0.00    -0.248 NA
ATOM     51  C   UNL A   1      44.561  24.051  29.204  1.00  0.00     0.031 C 
ATOM     52  C   UNL A   1      46.345  28.853  32.458  1.00  0.00     0.029 A 
ATOM     53  C   UNL A   1      45.596  27.991  31.673  1.00  0.00     0.049 A 
ATOM     54  H   UNL A   1      43.684  28.280  30.828  1.00  0.00     0.167 HD
ATOM     55  C   UNL A   1      45.143  25.891  30.441  1.00  0.00     0.074 A 
ATOM     56  C   UNL A   1      45.496  24.559  29.994  1.00  0.00     0.031 C 
ATOM     57  C   UNL A   1      45.932  26.666  31.223  1.00  0.00     0.031 A 
BRANCH  44  58
ATOM     58  C   UNL A   1      43.490  32.182  32.541  1.00  0.00    -0.014 A 
ATOM     59  C   UNL A   1      44.010  33.281  31.837  1.00  0.00     0.009 A 
ATOM     60  C   UNL A   1      43.099  32.354  33.879  1.00  0.00     0.009 A 
ATOM     61  C   UNL A   1      44.169  34.514  32.472  1.00  0.00     0.001 A 
ATOM     62  C   UNL A   1      43.236  33.595  34.502  1.00  0.00     0.001 A 
ATOM     63  C   UNL A   1      43.779  34.672  33.801  1.00  0.00     0.000 A 
ENDBRANCH  44  58
BRANCH  45  64
ATOM     64  C   UNL A   1      42.084  23.569  27.739  1.00  0.00    -0.014 A 
ATOM     65  C   UNL A   1      42.545  23.424  26.422  1.00  0.00     0.009 A 
ATOM     66  C   UNL A   1      41.440  22.488  28.360  1.00  0.00     0.009 A 
ATOM     67  C   UNL A   1      42.343  22.228  25.731  1.00  0.00     0.001 A 
ATOM     68  C   UNL A   1      41.262  21.284  27.673  1.00  0.00     0.001 A 
ATOM     69  C   UNL A   1      41.705  21.158  26.358  1.00  0.00     0.000 A 
ENDBRANCH  45  64
BRANCH  57  70
ATOM     70  C   UNL A   1      47.238  26.079  31.674  1.00  0.00    -0.014 A 
ATOM     71  C   UNL A   1      48.379  26.130  30.859  1.00  0.00     0.009 A 
ATOM     72  C   UNL A   1      47.334  25.494  32.946  1.00  0.00     0.009 A 
ATOM     73  C   UNL A   1      49.583  25.577  31.297  1.00  0.00     0.001 A 
ATOM     74  C   UNL A   1      48.545  24.963  33.391  1.00  0.00     0.001 A 
ATOM     75  C   UNL A   1      49.666  24.997  32.563  1.00  0.00     0.000 A 
ENDBRANCH  57  70
ENDBRANCH  31  32
ENDBRANCH  23  26
ENDBRANCH  21  22
ENDBRANCH   1  21
TORSDOF 12
ENDMDL
MODEL 3
REMARK VINA RESULT:      -8.9      2.104      3.221
REMARK SMILES C[C@@H](C(=O)NCCCNC(=O)c1ccc(-c2c3nc(c(-c4ccccc4)c4ccc([nH]4)c(-c4ccccc4)c4nc(c(-c5ccccc5)c5ccc2[nH]5)C=C4)C=C3)cc1)c1ccc(-c2ccccc2)cc1
REMARK SMILES IDX 7 1 6 2 5 3 3 4 4 5 2 7 1 8 60 9 61 10 71 11 62 12 70 13
REMARK SMILES IDX 63 14 64 15 65 16 69 17 66 18 68 19 67 20 8 21 9 22 10 23
REMARK SMILES IDX 11 25 12 26 13 27 59 28 14 29 58 30 15 31 16 32 17 33 52 34
REMARK SMILES IDX 18 35 57 36 51 37 53 38 19 39 56 40 50 41 49 42 20 44 42 45
REMARK SMILES IDX 27 46 41 47 28 48 31 49 40 50 54 51 29 52 30 53 39 55 55 56
REMARK SMILES IDX 32 57 21 58 22 59 26 60 23 61 25 62 24 63 43 64 44 65 48 66
REMARK SMILES IDX 45 67 47 68 46 69 33 70 34 71 38 72 35 73 37 74 36 75
REMARK H PARENT 5 6 9 24 53 43 31 54
REMARK Flexibility Score: inf
ROOT
ATOM      1  C   UNL A   1      42.167  22.247  25.776  1.00  0.00     0.042 C 
ENDROOT
BRANCH   1   2
ATOM      2  C   UNL A   1      43.490  21.481  25.695  1.00  0.00     0.117 C 
BRANCH   2   3
ATOM      3  N   UNL A   1      44.487  22.028  26.597  1.00  0.00    -0.356 N 
ATOM      4  C   UNL A   1      45.414  23.016  26.411  1.00  0.00     0.227 C 
ATOM      5  O   UNL A   1      46.275  23.124  27.287  1.00  0.00    -0.274 OA
ATOM      6  H   UNL A   1      44.497  21.619  27.493  1.00  0.00     0.163 HD
BRANCH   4   7
ATOM      7  C   UNL A   1      45.347  23.917  25.163  1.00  0.00     0.105 C 
ATOM      8  C   UNL A   1      46.492  23.510  24.225  1.00  0.00     0.023 C 
BRANCH   7   9
ATOM      9  C   UNL A   1      45.346  25.423  25.470  1.00  0.00    -0.036 A 
ATOM     10  C   UNL A   1      46.524  26.104  25.814  1.00  0.00     0.005 A 
ATOM     11  C   UNL A   1      44.170  26.187  25.377  1.00  0.00     0.005 A 
ATOM     12  C   UNL A   1      46.511  27.464  26.142  1.00  0.00     0.009 A 
ATOM     13  C   UNL A   1      44.155  27.547  25.718  1.00  0.00     0.009 A 
ATOM     14  C   UNL A   1      45.323  28.201  26.127  1.00  0.00    -0.018 A 
BRANCH  14  15
ATOM     15  C   UNL A   1      45.315  29.601  26.569  1.00  0.00    -0.018 A 
ATOM     16  C   UNL A   1      44.114  30.253  26.890  1.00  0.00     0.009 A 
ATOM     17  C   UNL A   1      46.507  30.342  26.624  1.00  0.00     0.009 A 
ATOM     18  C   UNL A   1      44.102  31.604  27.243  1.00  0.00     0.001 A 
ATOM     19  C   UNL A   1      46.498  31.694  26.975  1.00  0.00     0.001 A 
ATOM     20  C   UNL A   1      45.295  32.325  27.282  1.00  0.00     0.000 A 
ENDBRANCH  14  15
ENDBRANCH   7   9
ENDBRANCH   4   7
ENDBRANCH   2   3
ENDBRANCH   1   2
BRANCH   1  21
ATOM     21  C   UNL A   1      41.068  21.546  26.567  1.00  0.00     0.118 C 
BRANCH  21  22
ATOM     22  N   UNL A   1      39.747  21.759  26.003  1.00  0.00    -0.352 N 
ATOM     23  C   UNL A   1      38.915  22.843  26.105  1.00  0.00     0.251 C 
ATOM     24  H   UNL A   1      39.396  21.011  25.468  1.00  0.00     0.163 HD
ATOM     25  O   UNL A   1      37.760  22.755  25.687  1.00  0.00    -0.269 OA
BRANCH  23  26
ATOM     26  C   UNL A   1      39.370  24.112  26.721  1.00  0.00     0.039 A 
ATOM     27  C   UNL A   1      39.054  24.349  28.062  1.00  0.00     0.014 A 
ATOM     28  C   UNL A   1      40.043  25.092  25.985  1.00  0.00     0.014 A 
ATOM     29  C   UNL A   1      39.436  25.547  28.672  1.00  0.00     0.010 A 
ATOM     30  C   UNL A   1      40.483  26.260  26.611  1.00  0.00     0.010 A 
ATOM     31  C   UNL A   1      40.166  26.508  27.954  1.00  0.00    -0.014 A 
BRANCH  31  32
ATOM     32  C   UNL A   1      40.568  27.788  28.591  1.00  0.00     0.031 A 
ATOM     33  C   UNL A   1      41.981  27.987  29.071  1.00  0.00     0.074 A 
ATOM     34  C   UNL A   1      39.660  28.767  28.765  1.00  0.00     0.049 A 
ATOM     35  N   UNL A   1      42.514  29.026  29.664  1.00  0.00    -0.248 NA
ATOM     36  C   UNL A   1      42.910  26.862  28.880  1.00  0.00     0.031 C 
ATOM     37  C   UNL A   1      38.249  28.694  28.380  1.00  0.00     0.029 A 
ATOM     38  N   UNL A   1      39.791  30.018  29.315  1.00  0.00    -0.354 N 
ATOM     39  C   UNL A   1      43.831  28.673  29.932  1.00  0.00     0.074 A 
ATOM     40  C   UNL A   1      44.005  27.311  29.477  1.00  0.00     0.031 C 
ATOM     41  C   UNL A   1      37.652  29.859  28.682  1.00  0.00     0.029 A 
ATOM     42  C   UNL A   1      38.628  30.748  29.305  1.00  0.00     0.049 A 
ATOM     43  H   UNL A   1      40.638  30.360  29.681  1.00  0.00     0.167 HD
ATOM     44  C   UNL A   1      44.815  29.417  30.491  1.00  0.00     0.031 A 
ATOM     45  C   UNL A   1      38.375  31.995  29.742  1.00  0.00     0.031 A 
ATOM     46  C   UNL A   1      44.656  30.778  30.928  1.00  0.00     0.049 A 
ATOM     47  C   UNL A   1      39.487  32.811  30.339  1.00  0.00     0.074 A 
ATOM     48  C   UNL A   1      45.608  31.630  31.462  1.00  0.00     0.029 A 
ATOM     49  N   UNL A   1      43.467  31.487  30.878  1.00  0.00    -0.354 N 
ATOM     50  N   UNL A   1      40.741  32.480  30.533  1.00  0.00    -0.248 NA
ATOM     51  C   UNL A   1      39.151  34.178  30.761  1.00  0.00     0.031 C 
ATOM     52  C   UNL A   1      44.986  32.847  31.764  1.00  0.00     0.029 A 
ATOM     53  C   UNL A   1      43.657  32.764  31.380  1.00  0.00     0.049 A 
ATOM     54  H   UNL A   1      42.614  31.136  30.536  1.00  0.00     0.167 HD
ATOM     55  C   UNL A   1      41.347  33.605  31.075  1.00  0.00     0.074 A 
ATOM     56  C   UNL A   1      40.329  34.630  31.166  1.00  0.00     0.031 C 
ATOM     57  C   UNL A   1      42.635  33.773  31.462  1.00  0.00     0.031 A 
BRANCH  44  58
ATOM     58  C   UNL A   1      46.158  28.765  30.663  1.00  0.00    -0.014 A 
ATOM     59  C   UNL A   1      46.478  28.064  31.837  1.00  0.00     0.009 A 
ATOM     60  C   UNL A   1      47.106  28.833  29.630  1.00  0.00     0.009 A 
ATOM     61  C   UNL A   1      47.736  27.477  31.987  1.00  0.00     0.001 A 
ATOM     62  C   UNL A   1      48.352  28.222  29.774  1.00  0.00     0.001 A 
ATOM     63  C   UNL A   1      48.670  27.552  30.955  1.00  0.00     0.000 A 
ENDBRANCH  44  58
BRANCH  45  64
ATOM     64  C   UNL A   1      37.012  32.566  29.605  1.00  0.00    -0.014 A 
ATOM     65  C   UNL A   1      36.647  33.263  28.442  1.00  0.00     0.009 A 
ATOM     66  C   UNL A   1      36.069  32.419  30.634  1.00  0.00     0.009 A 
ATOM     67  C   UNL A   1      35.373  33.821  28.323  1.00  0.00     0.001 A 
ATOM     68  C   UNL A   1      34.788  32.959  30.501  1.00  0.00     0.001 A 
ATOM     69  C   UNL A   1      34.443  33.665  29.350  1.00  0.00     0.000 A 
ENDBRANCH  45  64
BRANCH  57  70
ATOM     70  C   UNL A   1      43.022  35.126  31.986  1.00  0.00    -0.014 A 
ATOM     71  C   UNL A   1      43.605  36.090  31.151  1.00  0.00     0.009 A 
ATOM     72  C   UNL A   1      42.768  35.449  33.328  1.00  0.00     0.009 A 
ATOM     73  C   UNL A   1      43.958  37.342  31.659  1.00  0.00     0.001 A 
ATOM     74  C   UNL A   1      43.100  36.709  33.827  1.00  0.00     0.001 A 
ATOM     75  C   UNL A   1      43.702  37.651  32.995  1.00  0.00     0.000 A 
ENDBRANCH  57  70
ENDBRANCH  31  32
ENDBRANCH  23  26
ENDBRANCH  21  22
ENDBRANCH   1  21
TORSDOF 12
ENDMDL
