MODEL 1
REMARK VINA RESULT:     -12.0      0.000      0.000
REMARK SMILES Cc1ccc(F)c(C(=O)Nc2cccc(C(=O)NCCCNC(=O)c3ccc(-c4c5nc(c(-c6ccccc6)c6ccc([nH]6)c(-c6ccccc6)c6nc(c(-c7ccccc7)c7ccc4[nH]7)C=C6)C=C5)cc3)c2)c1
REMARK SMILES IDX 20 1 19 2 18 3 16 4 17 5 15 7 11 8 12 9 73 10 13 11 14 12
REMARK SMILES IDX 10 13 8 14 9 15 7 17 1 18 2 19 3 20 74 21 4 22 5 23 6 24
REMARK SMILES IDX 21 25 22 26 23 27 24 29 25 30 26 31 72 32 27 33 71 34 28 35
REMARK SMILES IDX 29 36 30 37 65 38 31 39 70 40 64 41 66 42 32 43 69 44 63 45
REMARK SMILES IDX 62 46 33 48 55 49 40 50 54 51 41 52 44 53 53 54 67 55 42 56
REMARK SMILES IDX 43 57 52 59 68 60 45 61 34 62 35 63 39 64 36 65 38 66 37 67
REMARK SMILES IDX 56 68 57 69 61 70 58 71 60 72 59 73 46 74 47 75 51 76 48 77
REMARK SMILES IDX 50 78 49 79
REMARK H PARENT 18 6 10 16 22 28 66 47 44 58
REMARK Flexibility Score: inf
ROOT
ATOM      1  C   UNL A   1      31.420  31.940  26.877  1.00  0.00     0.042 C 
ENDROOT
BRANCH   1   2
ATOM      2  C   UNL A   1      31.769  30.467  26.717  1.00  0.00     0.118 C 
BRANCH   2   3
ATOM      3  N   UNL A   1      32.519  30.222  25.504  1.00  0.00    -0.352 N 
ATOM      4  C   UNL A   1      32.438  29.246  24.545  1.00  0.00     0.251 C 
ATOM      5  O   UNL A   1      33.200  29.352  23.582  1.00  0.00    -0.269 OA
ATOM      6  H   UNL A   1      33.225  30.887  25.335  1.00  0.00     0.163 HD
BRANCH   4   7
ATOM      7  C   UNL A   1      31.457  28.120  24.570  1.00  0.00     0.041 A 
ATOM      8  C   UNL A   1      30.485  26.076  25.452  1.00  0.00     0.042 A 
ATOM      9  C   UNL A   1      29.445  26.150  24.527  1.00  0.00     0.026 A 
ATOM     10  C   UNL A   1      31.537  26.996  25.397  1.00  0.00     0.040 A 
ATOM     11  C   UNL A   1      29.377  27.232  23.655  1.00  0.00     0.003 A 
ATOM     12  C   UNL A   1      30.359  28.224  23.698  1.00  0.00     0.014 A 
BRANCH   8  13
ATOM     13  N   UNL A   1      30.393  25.107  26.460  1.00  0.00    -0.322 N 
ATOM     14  C   UNL A   1      31.025  23.881  26.593  1.00  0.00     0.258 C 
ATOM     15  O   UNL A   1      30.639  23.134  27.492  1.00  0.00    -0.269 OA
ATOM     16  H   UNL A   1      29.778  25.335  27.194  1.00  0.00     0.170 HD
BRANCH  14  17
ATOM     17  C   UNL A   1      32.223  23.498  25.786  1.00  0.00     0.076 A 
ATOM     18  C   UNL A   1      36.033  23.517  25.985  1.00  0.00     0.044 C 
ATOM     19  C   UNL A   1      34.641  23.253  25.487  1.00  0.00    -0.050 A 
ATOM     20  C   UNL A   1      34.435  22.825  24.172  1.00  0.00     0.006 A 
ATOM     21  C   UNL A   1      33.528  23.500  26.308  1.00  0.00     0.020 A 
ATOM     22  C   UNL A   1      33.139  22.714  23.672  1.00  0.00     0.040 A 
ATOM     23  C   UNL A   1      32.047  23.071  24.465  1.00  0.00     0.135 A 
ATOM     24  F   UNL A   1      30.831  23.015  23.906  1.00  0.00    -0.206 F 
ENDBRANCH  14  17
ENDBRANCH   8  13
ENDBRANCH   4   7
ENDBRANCH   2   3
ENDBRANCH   1   2
BRANCH   1  25
ATOM     25  C   UNL A   1      32.659  32.819  26.908  1.00  0.00     0.118 C 
BRANCH  25  26
ATOM     26  N   UNL A   1      32.449  34.015  27.712  1.00  0.00    -0.352 N 
ATOM     27  C   UNL A   1      33.145  34.477  28.799  1.00  0.00     0.251 C 
ATOM     28  H   UNL A   1      31.693  34.579  27.431  1.00  0.00     0.163 HD
ATOM     29  O   UNL A   1      32.685  35.401  29.462  1.00  0.00    -0.269 OA
BRANCH  27  30
ATOM     30  C   UNL A   1      34.435  33.864  29.180  1.00  0.00     0.039 A 
ATOM     31  C   UNL A   1      35.575  34.188  28.441  1.00  0.00     0.014 A 
ATOM     32  C   UNL A   1      34.518  32.943  30.228  1.00  0.00     0.014 A 
ATOM     33  C   UNL A   1      36.801  33.610  28.771  1.00  0.00     0.010 A 
ATOM     34  C   UNL A   1      35.754  32.441  30.615  1.00  0.00     0.010 A 
ATOM     35  C   UNL A   1      36.903  32.746  29.873  1.00  0.00    -0.014 A 
BRANCH  35  36
ATOM     36  C   UNL A   1      38.193  32.110  30.230  1.00  0.00     0.031 A 
ATOM     37  C   UNL A   1      39.138  32.805  31.174  1.00  0.00     0.074 A 
ATOM     38  C   UNL A   1      38.536  30.936  29.670  1.00  0.00     0.049 A 
ATOM     39  N   UNL A   1      40.318  32.425  31.590  1.00  0.00    -0.248 NA
ATOM     40  C   UNL A   1      38.713  34.116  31.696  1.00  0.00     0.031 C 
ATOM     41  C   UNL A   1      37.731  30.192  28.698  1.00  0.00     0.029 A 
ATOM     42  N   UNL A   1      39.654  30.162  29.837  1.00  0.00    -0.354 N 
ATOM     43  C   UNL A   1      40.785  33.457  32.394  1.00  0.00     0.074 A 
ATOM     44  C   UNL A   1      39.786  34.502  32.366  1.00  0.00     0.031 C 
ATOM     45  C   UNL A   1      38.366  29.052  28.383  1.00  0.00     0.029 A 
ATOM     46  C   UNL A   1      39.635  29.001  29.103  1.00  0.00     0.049 A 
ATOM     47  H   UNL A   1      40.401  30.413  30.429  1.00  0.00     0.167 HD
ATOM     48  C   UNL A   1      41.931  33.522  33.112  1.00  0.00     0.031 A 
ATOM     49  C   UNL A   1      40.536  28.006  29.025  1.00  0.00     0.031 A 
ATOM     50  C   UNL A   1      42.909  32.470  33.159  1.00  0.00     0.049 A 
ATOM     51  C   UNL A   1      41.786  28.084  29.856  1.00  0.00     0.074 A 
ATOM     52  C   UNL A   1      44.070  32.403  33.911  1.00  0.00     0.029 A 
ATOM     53  N   UNL A   1      42.838  31.297  32.424  1.00  0.00    -0.354 N 
ATOM     54  N   UNL A   1      42.176  29.031  30.674  1.00  0.00    -0.248 NA
ATOM     55  C   UNL A   1      42.709  26.944  29.766  1.00  0.00     0.031 C 
ATOM     56  C   UNL A   1      44.724  31.207  33.594  1.00  0.00     0.029 A 
ATOM     57  C   UNL A   1      43.944  30.507  32.687  1.00  0.00     0.049 A 
ATOM     58  H   UNL A   1      42.109  31.061  31.805  1.00  0.00     0.167 HD
ATOM     59  C   UNL A   1      43.376  28.591  31.216  1.00  0.00     0.074 A 
ATOM     60  C   UNL A   1      43.639  27.285  30.646  1.00  0.00     0.031 C 
ATOM     61  C   UNL A   1      44.188  29.212  32.107  1.00  0.00     0.031 A 
BRANCH  48  62
ATOM     62  C   UNL A   1      42.183  34.779  33.898  1.00  0.00    -0.014 A 
ATOM     63  C   UNL A   1      42.834  35.883  33.323  1.00  0.00     0.009 A 
ATOM     64  C   UNL A   1      41.749  34.868  35.230  1.00  0.00     0.009 A 
ATOM     65  C   UNL A   1      43.086  37.030  34.079  1.00  0.00     0.001 A 
ATOM     66  C   UNL A   1      41.974  36.029  35.973  1.00  0.00     0.001 A 
ATOM     67  C   UNL A   1      42.652  37.104  35.401  1.00  0.00     0.000 A 
ENDBRANCH  48  62
BRANCH  49  68
ATOM     68  C   UNL A   1      40.269  26.833  28.152  1.00  0.00    -0.014 A 
ATOM     69  C   UNL A   1      40.795  26.778  26.853  1.00  0.00     0.009 A 
ATOM     70  C   UNL A   1      39.496  25.757  28.618  1.00  0.00     0.009 A 
ATOM     71  C   UNL A   1      40.534  25.681  26.029  1.00  0.00     0.001 A 
ATOM     72  C   UNL A   1      39.260  24.650  27.801  1.00  0.00     0.001 A 
ATOM     73  C   UNL A   1      39.770  24.617  26.505  1.00  0.00     0.000 A 
ENDBRANCH  49  68
BRANCH  61  74
ATOM     74  C   UNL A   1      45.419  28.470  32.540  1.00  0.00    -0.014 A 
ATOM     75  C   UNL A   1      45.401  27.611  33.650  1.00  0.00     0.009 A 
ATOM     76  C   UNL A   1      46.607  28.609  31.805  1.00  0.00     0.009 A 
ATOM     77  C   UNL A   1      46.560  26.935  34.036  1.00  0.00     0.001 A 
ATOM     78  C   UNL A   1      47.756  27.909  32.176  1.00  0.00     0.001 A 
ATOM     79  C   UNL A   1      47.733  27.081  33.296  1.00  0.00     0.000 A 
ENDBRANCH  61  74
ENDBRANCH  35  36
ENDBRANCH  27  30
ENDBRANCH  25  26
ENDBRANCH   1  25
TORSDOF 12
ENDMDL
MODEL 2
REMARK VINA RESULT:     -11.9      3.330      8.606
REMARK SMILES Cc1ccc(F)c(C(=O)Nc2cccc(C(=O)NCCCNC(=O)c3ccc(-c4c5nc(c(-c6ccccc6)c6ccc([nH]6)c(-c6ccccc6)c6nc(c(-c7ccccc7)c7ccc4[nH]7)C=C6)C=C5)cc3)c2)c1
REMARK SMILES IDX 20 1 19 2 18 3 16 4 17 5 15 7 11 8 12 9 73 10 13 11 14 12
REMARK SMILES IDX 10 13 8 14 9 15 7 17 1 18 2 19 3 20 74 21 4 22 5 23 6 24
REMARK SMILES IDX 21 25 22 26 23 27 24 29 25 30 26 31 72 32 27 33 71 34 28 35
REMARK SMILES IDX 29 36 30 37 65 38 31 39 70 40 64 41 66 42 32 43 69 44 63 45
REMARK SMILES IDX 62 46 33 48 55 49 40 50 54 51 41 52 44 53 53 54 67 55 42 56
REMARK SMILES IDX 43 57 52 59 68 60 45 61 34 62 35 63 39 64 36 65 38 66 37 67
REMARK SMILES IDX 56 68 57 69 61 70 58 71 60 72 59 73 46 74 47 75 51 76 48 77
REMARK SMILES IDX 50 78 49 79
REMARK H PARENT 18 6 10 16 22 28 66 47 44 58
REMARK Flexibility Score: inf
ROOT
ATOM      1  C   UNL A   1      37.422  19.481  24.942  1.00  0.00     0.042 C 
ENDROOT
BRANCH   1   2
ATOM      2  C   UNL A   1      36.160  20.331  25.002  1.00  0.00     0.118 C 
BRANCH   2   3
ATOM      3  N   UNL A   1      36.452  21.700  25.369  1.00  0.00    -0.352 N 
ATOM      4  C   UNL A   1      35.723  22.858  25.286  1.00  0.00     0.251 C 
ATOM      5  O   UNL A   1      36.245  23.875  25.747  1.00  0.00    -0.269 OA
ATOM      6  H   UNL A   1      37.349  21.823  25.754  1.00  0.00     0.163 HD
BRANCH   4   7
ATOM      7  C   UNL A   1      34.337  22.942  24.735  1.00  0.00     0.041 A 
ATOM      8  C   UNL A   1      31.921  23.128  24.895  1.00  0.00     0.042 A 
ATOM      9  C   UNL A   1      31.817  23.218  23.508  1.00  0.00     0.026 A 
ATOM     10  C   UNL A   1      33.162  22.883  25.490  1.00  0.00     0.040 A 
ATOM     11  C   UNL A   1      32.973  23.221  22.732  1.00  0.00     0.003 A 
ATOM     12  C   UNL A   1      34.223  23.115  23.345  1.00  0.00     0.014 A 
BRANCH   8  13
ATOM     13  N   UNL A   1      30.763  23.363  25.650  1.00  0.00    -0.322 N 
ATOM     14  C   UNL A   1      30.276  24.531  26.215  1.00  0.00     0.258 C 
ATOM     15  O   UNL A   1      29.319  24.438  26.984  1.00  0.00    -0.269 OA
ATOM     16  H   UNL A   1      30.204  22.567  25.804  1.00  0.00     0.170 HD
BRANCH  14  17
ATOM     17  C   UNL A   1      30.777  25.885  25.829  1.00  0.00     0.076 A 
ATOM     18  C   UNL A   1      33.028  28.673  27.141  1.00  0.00     0.044 C 
ATOM     19  C   UNL A   1      32.147  27.877  26.222  1.00  0.00    -0.050 A 
ATOM     20  C   UNL A   1      31.615  28.469  25.072  1.00  0.00     0.006 A 
ATOM     21  C   UNL A   1      31.788  26.556  26.539  1.00  0.00     0.020 A 
ATOM     22  C   UNL A   1      30.690  27.773  24.296  1.00  0.00     0.040 A 
ATOM     23  C   UNL A   1      30.259  26.504  24.687  1.00  0.00     0.135 A 
ATOM     24  F   UNL A   1      29.313  25.915  23.943  1.00  0.00    -0.206 F 
ENDBRANCH  14  17
ENDBRANCH   8  13
ENDBRANCH   4   7
ENDBRANCH   2   3
ENDBRANCH   1   2
BRANCH   1  25
ATOM     25  C   UNL A   1      38.625  20.206  25.521  1.00  0.00     0.118 C 
BRANCH  25  26
ATOM     26  N   UNL A   1      39.768  19.316  25.672  1.00  0.00    -0.352 N 
ATOM     27  C   UNL A   1      41.060  19.597  26.033  1.00  0.00     0.251 C 
ATOM     28  H   UNL A   1      39.585  18.367  25.486  1.00  0.00     0.163 HD
ATOM     29  O   UNL A   1      41.924  18.736  25.904  1.00  0.00    -0.269 OA
BRANCH  27  30
ATOM     30  C   UNL A   1      41.417  20.929  26.566  1.00  0.00     0.039 A 
ATOM     31  C   UNL A   1      41.245  21.173  27.930  1.00  0.00     0.014 A 
ATOM     32  C   UNL A   1      41.876  21.947  25.724  1.00  0.00     0.014 A 
ATOM     33  C   UNL A   1      41.561  22.428  28.454  1.00  0.00     0.010 A 
ATOM     34  C   UNL A   1      42.277  23.164  26.261  1.00  0.00     0.010 A 
ATOM     35  C   UNL A   1      42.096  23.426  27.626  1.00  0.00    -0.014 A 
BRANCH  35  36
ATOM     36  C   UNL A   1      42.423  24.769  28.160  1.00  0.00     0.031 A 
ATOM     37  C   UNL A   1      43.835  25.094  28.566  1.00  0.00     0.074 A 
ATOM     38  C   UNL A   1      41.443  25.677  28.326  1.00  0.00     0.049 A 
ATOM     39  N   UNL A   1      44.315  26.200  29.075  1.00  0.00    -0.248 NA
ATOM     40  C   UNL A   1      44.836  24.024  28.409  1.00  0.00     0.031 C 
ATOM     41  C   UNL A   1      40.026  25.463  28.022  1.00  0.00     0.029 A 
ATOM     42  N   UNL A   1      41.492  26.965  28.793  1.00  0.00    -0.354 N 
ATOM     43  C   UNL A   1      45.659  25.948  29.323  1.00  0.00     0.074 A 
ATOM     44  C   UNL A   1      45.907  24.572  28.960  1.00  0.00     0.031 C 
ATOM     45  C   UNL A   1      39.347  26.592  28.278  1.00  0.00     0.029 A 
ATOM     46  C   UNL A   1      40.272  27.596  28.793  1.00  0.00     0.049 A 
ATOM     47  H   UNL A   1      42.323  27.398  29.098  1.00  0.00     0.167 HD
ATOM     48  C   UNL A   1      46.609  26.794  29.788  1.00  0.00     0.031 A 
ATOM     49  C   UNL A   1      39.940  28.847  29.162  1.00  0.00     0.031 A 
ATOM     50  C   UNL A   1      46.364  28.170  30.122  1.00  0.00     0.049 A 
ATOM     51  C   UNL A   1      41.017  29.777  29.644  1.00  0.00     0.074 A 
ATOM     52  C   UNL A   1      47.270  29.133  30.533  1.00  0.00     0.029 A 
ATOM     53  N   UNL A   1      45.121  28.780  30.080  1.00  0.00    -0.354 N 
ATOM     54  N   UNL A   1      42.298  29.549  29.798  1.00  0.00    -0.248 NA
ATOM     55  C   UNL A   1      40.601  31.145  29.986  1.00  0.00     0.031 C 
ATOM     56  C   UNL A   1      46.564  30.315  30.784  1.00  0.00     0.029 A 
ATOM     57  C   UNL A   1      45.229  30.102  30.477  1.00  0.00     0.049 A 
ATOM     58  H   UNL A   1      44.283  28.338  29.809  1.00  0.00     0.167 HD
ATOM     59  C   UNL A   1      42.847  30.750  30.228  1.00  0.00     0.074 A 
ATOM     60  C   UNL A   1      41.761  31.707  30.294  1.00  0.00     0.031 C 
ATOM     61  C   UNL A   1      44.135  31.036  30.539  1.00  0.00     0.031 A 
BRANCH  48  62
ATOM     62  C   UNL A   1      47.997  26.242  29.965  1.00  0.00    -0.014 A 
ATOM     63  C   UNL A   1      48.905  26.190  28.895  1.00  0.00     0.009 A 
ATOM     64  C   UNL A   1      48.408  25.780  31.225  1.00  0.00     0.009 A 
ATOM     65  C   UNL A   1      50.179  25.645  29.072  1.00  0.00     0.001 A 
ATOM     66  C   UNL A   1      49.694  25.265  31.406  1.00  0.00     0.001 A 
ATOM     67  C   UNL A   1      50.573  25.187  30.327  1.00  0.00     0.000 A 
ENDBRANCH  48  62
BRANCH  49  68
ATOM     68  C   UNL A   1      38.529  29.299  29.052  1.00  0.00    -0.014 A 
ATOM     69  C   UNL A   1      37.679  29.255  30.167  1.00  0.00     0.009 A 
ATOM     70  C   UNL A   1      38.028  29.789  27.836  1.00  0.00     0.009 A 
ATOM     71  C   UNL A   1      36.349  29.669  30.061  1.00  0.00     0.001 A 
ATOM     72  C   UNL A   1      36.706  30.227  27.740  1.00  0.00     0.001 A 
ATOM     73  C   UNL A   1      35.865  30.159  28.849  1.00  0.00     0.000 A 
ENDBRANCH  49  68
BRANCH  61  74
ATOM     74  C   UNL A   1      44.441  32.447  30.950  1.00  0.00    -0.014 A 
ATOM     75  C   UNL A   1      44.413  32.838  32.298  1.00  0.00     0.009 A 
ATOM     76  C   UNL A   1      44.793  33.392  29.973  1.00  0.00     0.009 A 
ATOM     77  C   UNL A   1      44.697  34.157  32.655  1.00  0.00     0.001 A 
ATOM     78  C   UNL A   1      45.104  34.703  30.337  1.00  0.00     0.001 A 
ATOM     79  C   UNL A   1      45.046  35.086  31.675  1.00  0.00     0.000 A 
ENDBRANCH  61  74
ENDBRANCH  35  36
ENDBRANCH  27  30
ENDBRANCH  25  26
ENDBRANCH   1  25
TORSDOF 12
ENDMDL
MODEL 3
REMARK VINA RESULT:     -11.9      3.551      8.831
REMARK SMILES Cc1ccc(F)c(C(=O)Nc2cccc(C(=O)NCCCNC(=O)c3ccc(-c4c5nc(c(-c6ccccc6)c6ccc([nH]6)c(-c6ccccc6)c6nc(c(-c7ccccc7)c7ccc4[nH]7)C=C6)C=C5)cc3)c2)c1
REMARK SMILES IDX 20 1 19 2 18 3 16 4 17 5 15 7 11 8 12 9 73 10 13 11 14 12
REMARK SMILES IDX 10 13 8 14 9 15 7 17 1 18 2 19 3 20 74 21 4 22 5 23 6 24
REMARK SMILES IDX 21 25 22 26 23 27 24 29 25 30 26 31 72 32 27 33 71 34 28 35
REMARK SMILES IDX 29 36 30 37 65 38 31 39 70 40 64 41 66 42 32 43 69 44 63 45
REMARK SMILES IDX 62 46 33 48 55 49 40 50 54 51 41 52 44 53 53 54 67 55 42 56
REMARK SMILES IDX 43 57 52 59 68 60 45 61 34 62 35 63 39 64 36 65 38 66 37 67
REMARK SMILES IDX 56 68 57 69 61 70 58 71 60 72 59 73 46 74 47 75 51 76 48 77
REMARK SMILES IDX 50 78 49 79
REMARK H PARENT 18 6 10 16 22 28 66 47 44 58
REMARK Flexibility Score: inf
ROOT
ATOM      1  C   UNL A   1      37.967  19.556  24.895  1.00  0.00     0.042 C 
ENDROOT
BRANCH   1   2
ATOM      2  C   UNL A   1      36.950  20.649  24.599  1.00  0.00     0.118 C 
BRANCH   2   3
ATOM      3  N   UNL A   1      36.065  20.878  25.721  1.00  0.00    -0.352 N 
ATOM      4  C   UNL A   1      34.739  21.216  25.802  1.00  0.00     0.251 C 
ATOM      5  O   UNL A   1      34.253  21.281  26.932  1.00  0.00    -0.269 OA
ATOM      6  H   UNL A   1      36.501  20.768  26.596  1.00  0.00     0.163 HD
BRANCH   4   7
ATOM      7  C   UNL A   1      33.855  21.446  24.620  1.00  0.00     0.041 A 
ATOM      8  C   UNL A   1      33.069  22.665  22.672  1.00  0.00     0.042 A 
ATOM      9  C   UNL A   1      32.177  21.639  22.366  1.00  0.00     0.026 A 
ATOM     10  C   UNL A   1      33.821  22.612  23.850  1.00  0.00     0.040 A 
ATOM     11  C   UNL A   1      32.154  20.492  23.154  1.00  0.00     0.003 A 
ATOM     12  C   UNL A   1      33.008  20.385  24.253  1.00  0.00     0.014 A 
BRANCH   8  13
ATOM     13  N   UNL A   1      33.228  23.692  21.731  1.00  0.00    -0.322 N 
ATOM     14  C   UNL A   1      32.835  25.020  21.770  1.00  0.00     0.258 C 
ATOM     15  O   UNL A   1      32.941  25.678  20.734  1.00  0.00    -0.269 OA
ATOM     16  H   UNL A   1      33.696  23.425  20.907  1.00  0.00     0.170 HD
BRANCH  14  17
ATOM     17  C   UNL A   1      32.421  25.704  23.033  1.00  0.00     0.076 A 
ATOM     18  C   UNL A   1      33.866  27.901  25.797  1.00  0.00     0.044 C 
ATOM     19  C   UNL A   1      32.875  27.145  24.960  1.00  0.00    -0.050 A 
ATOM     20  C   UNL A   1      31.588  26.898  25.448  1.00  0.00     0.006 A 
ATOM     21  C   UNL A   1      33.247  26.616  23.712  1.00  0.00     0.020 A 
ATOM     22  C   UNL A   1      30.717  26.080  24.729  1.00  0.00     0.040 A 
ATOM     23  C   UNL A   1      31.141  25.471  23.546  1.00  0.00     0.135 A 
ATOM     24  F   UNL A   1      30.287  24.636  22.939  1.00  0.00    -0.206 F 
ENDBRANCH  14  17
ENDBRANCH   8  13
ENDBRANCH   4   7
ENDBRANCH   2   3
ENDBRANCH   1   2
BRANCH   1  25
ATOM     25  C   UNL A   1      38.985  19.991  25.936  1.00  0.00     0.118 C 
BRANCH  25  26
ATOM     26  N   UNL A   1      40.222  19.230  25.830  1.00  0.00    -0.352 N 
ATOM     27  C   UNL A   1      41.522  19.639  25.977  1.00  0.00     0.251 C 
ATOM     28  H   UNL A   1      40.107  18.275  25.621  1.00  0.00     0.163 HD
ATOM     29  O   UNL A   1      42.433  18.887  25.647  1.00  0.00    -0.269 OA
BRANCH  27  30
ATOM     30  C   UNL A   1      41.829  20.979  26.520  1.00  0.00     0.039 A 
ATOM     31  C   UNL A   1      41.709  21.188  27.896  1.00  0.00     0.014 A 
ATOM     32  C   UNL A   1      42.191  22.036  25.680  1.00  0.00     0.014 A 
ATOM     33  C   UNL A   1      41.979  22.448  28.431  1.00  0.00     0.010 A 
ATOM     34  C   UNL A   1      42.550  23.263  26.223  1.00  0.00     0.010 A 
ATOM     35  C   UNL A   1      42.419  23.491  27.600  1.00  0.00    -0.014 A 
BRANCH  35  36
ATOM     36  C   UNL A   1      42.696  24.840  28.147  1.00  0.00     0.031 A 
ATOM     37  C   UNL A   1      44.094  25.210  28.564  1.00  0.00     0.074 A 
ATOM     38  C   UNL A   1      41.685  25.712  28.314  1.00  0.00     0.049 A 
ATOM     39  N   UNL A   1      44.533  26.328  29.083  1.00  0.00    -0.248 NA
ATOM     40  C   UNL A   1      45.132  24.176  28.404  1.00  0.00     0.031 C 
ATOM     41  C   UNL A   1      40.278  25.451  28.000  1.00  0.00     0.029 A 
ATOM     42  N   UNL A   1      41.686  26.997  28.791  1.00  0.00    -0.354 N 
ATOM     43  C   UNL A   1      45.882  26.121  29.338  1.00  0.00     0.074 A 
ATOM     44  C   UNL A   1      46.180  24.756  28.966  1.00  0.00     0.031 C 
ATOM     45  C   UNL A   1      39.558  26.554  28.260  1.00  0.00     0.029 A 
ATOM     46  C   UNL A   1      40.445  27.585  28.788  1.00  0.00     0.049 A 
ATOM     47  H   UNL A   1      42.500  27.455  29.104  1.00  0.00     0.167 HD
ATOM     48  C   UNL A   1      46.800  26.995  29.815  1.00  0.00     0.031 A 
ATOM     49  C   UNL A   1      40.068  28.821  29.164  1.00  0.00     0.031 A 
ATOM     50  C   UNL A   1      46.506  28.359  30.158  1.00  0.00     0.049 A 
ATOM     51  C   UNL A   1      41.109  29.784  29.661  1.00  0.00     0.074 A 
ATOM     52  C   UNL A   1      47.375  29.349  30.582  1.00  0.00     0.029 A 
ATOM     53  N   UNL A   1      45.242  28.926  30.114  1.00  0.00    -0.354 N 
ATOM     54  N   UNL A   1      42.397  29.599  29.820  1.00  0.00    -0.248 NA
ATOM     55  C   UNL A   1      40.644  31.134  30.010  1.00  0.00     0.031 C 
ATOM     56  C   UNL A   1      46.627  30.504  30.838  1.00  0.00     0.029 A 
ATOM     57  C   UNL A   1      45.303  30.247  30.522  1.00  0.00     0.049 A 
ATOM     58  H   UNL A   1      44.422  28.458  29.834  1.00  0.00     0.167 HD
ATOM     59  C   UNL A   1      42.901  30.815  30.263  1.00  0.00     0.074 A 
ATOM     60  C   UNL A   1      41.783  31.733  30.329  1.00  0.00     0.031 C 
ATOM     61  C   UNL A   1      44.177  31.142  30.584  1.00  0.00     0.031 A 
BRANCH  48  62
ATOM     62  C   UNL A   1      48.205  26.490  29.996  1.00  0.00    -0.014 A 
ATOM     63  C   UNL A   1      48.614  25.879  31.192  1.00  0.00     0.009 A 
ATOM     64  C   UNL A   1      49.131  26.613  28.948  1.00  0.00     0.009 A 
ATOM     65  C   UNL A   1      49.932  25.444  31.352  1.00  0.00     0.001 A 
ATOM     66  C   UNL A   1      50.439  26.149  29.100  1.00  0.00     0.001 A 
ATOM     67  C   UNL A   1      50.842  25.576  30.305  1.00  0.00     0.000 A 
ENDBRANCH  48  62
BRANCH  49  68
ATOM     68  C   UNL A   1      38.643  29.225  29.050  1.00  0.00    -0.014 A 
ATOM     69  C   UNL A   1      37.789  29.144  30.160  1.00  0.00     0.009 A 
ATOM     70  C   UNL A   1      38.132  29.705  27.834  1.00  0.00     0.009 A 
ATOM     71  C   UNL A   1      36.446  29.513  30.049  1.00  0.00     0.001 A 
ATOM     72  C   UNL A   1      36.796  30.099  27.734  1.00  0.00     0.001 A 
ATOM     73  C   UNL A   1      35.952  29.994  28.838  1.00  0.00     0.000 A 
ENDBRANCH  49  68
BRANCH  61  74
ATOM     74  C   UNL A   1      44.431  32.561  31.007  1.00  0.00    -0.014 A 
ATOM     75  C   UNL A   1      44.384  32.939  32.358  1.00  0.00     0.009 A 
ATOM     76  C   UNL A   1      44.754  33.525  30.040  1.00  0.00     0.009 A 
ATOM     77  C   UNL A   1      44.619  34.264  32.727  1.00  0.00     0.001 A 
ATOM     78  C   UNL A   1      45.018  34.843  30.416  1.00  0.00     0.001 A 
ATOM     79  C   UNL A   1      44.941  35.213  31.757  1.00  0.00     0.000 A 
ENDBRANCH  61  74
ENDBRANCH  35  36
ENDBRANCH  27  30
ENDBRANCH  25  26
ENDBRANCH   1  25
TORSDOF 12
ENDMDL
