MODEL 1
REMARK VINA RESULT:     -10.5      0.000      0.000
REMARK SMILES C[C@H](CC(=O)NCCCNC(=O)c1ccc(-c2c3nc(c(-c4ccccc4)c4ccc([nH]4)c(-c4ccccc4)c4nc(c(-c5ccccc5)c5ccc2[nH]5)C=C4)C=C3)cc1)NC(=O)[C@H]1CC(=O)N(C2CC2)C1
REMARK SMILES IDX 7 1 6 2 4 3 5 4 3 6 2 7 1 8 61 9 62 10 63 12 64 13 65 14
REMARK SMILES IDX 72 15 66 16 68 17 67 18 69 19 70 20 71 21 8 22 9 23 10 24
REMARK SMILES IDX 11 25 12 27 13 28 14 29 60 30 15 31 59 32 16 33 17 34 18 35
REMARK SMILES IDX 53 36 19 37 58 38 52 39 54 40 20 41 57 42 51 43 50 44 21 46
REMARK SMILES IDX 43 47 28 48 42 49 29 50 32 51 41 52 55 53 30 54 31 55 40 57
REMARK SMILES IDX 56 58 33 59 22 60 23 61 27 62 24 63 26 64 25 65 44 66 45 67
REMARK SMILES IDX 49 68 46 69 48 70 47 71 34 72 35 73 39 74 36 75 38 76 37 77
REMARK H PARENT 6 5 61 11 10 26 54 45 32 56
REMARK Flexibility Score: inf
ROOT
ATOM      1  C   UNL A   1      36.199  19.901  24.965  1.00  0.00     0.117 C 
ENDROOT
BRANCH   1   2
ATOM      2  N   UNL A   1      36.146  21.208  25.594  1.00  0.00    -0.356 N 
ATOM      3  C   UNL A   1      35.121  21.838  26.225  1.00  0.00     0.222 C 
ATOM      4  O   UNL A   1      35.292  22.999  26.600  1.00  0.00    -0.275 OA
ATOM      5  H   UNL A   1      36.987  21.720  25.558  1.00  0.00     0.163 HD
BRANCH   3   6
ATOM      6  C   UNL A   1      33.800  21.136  26.463  1.00  0.00     0.124 C 
BRANCH   6   7
ATOM      7  C   UNL A   1      32.691  21.416  25.430  1.00  0.00     0.088 C 
ATOM      8  C   UNL A   1      32.313  20.215  24.569  1.00  0.00     0.031 C 
BRANCH   7   9
ATOM      9  N   UNL A   1      31.504  22.006  26.063  1.00  0.00    -0.353 N 
ATOM     10  C   UNL A   1      31.142  23.280  26.372  1.00  0.00     0.225 C 
ATOM     11  H   UNL A   1      30.827  21.339  26.318  1.00  0.00     0.163 HD
ATOM     12  O   UNL A   1      30.328  23.401  27.293  1.00  0.00    -0.275 OA
BRANCH  10  13
ATOM     13  C   UNL A   1      31.542  24.481  25.541  1.00  0.00     0.107 C 
ATOM     14  C   UNL A   1      30.337  25.174  24.893  1.00  0.00     0.115 C 
ATOM     15  C   UNL A   1      32.222  25.602  26.272  1.00  0.00     0.133 C 
ATOM     16  C   UNL A   1      30.771  26.621  24.759  1.00  0.00     0.223 C 
ATOM     17  N   UNL A   1      31.897  26.796  25.561  1.00  0.00    -0.339 N 
ATOM     18  O   UNL A   1      30.177  27.459  24.108  1.00  0.00    -0.275 OA
BRANCH  17  19
ATOM     19  C   UNL A   1      32.566  28.004  25.920  1.00  0.00     0.085 C 
ATOM     20  C   UNL A   1      33.966  28.113  26.431  1.00  0.00     0.027 C 
ATOM     21  C   UNL A   1      33.643  28.561  25.032  1.00  0.00     0.027 C 
ENDBRANCH  17  19
ENDBRANCH  10  13
ENDBRANCH   7   9
ENDBRANCH   6   7
ENDBRANCH   3   6
ENDBRANCH   1   2
BRANCH   1  22
ATOM     22  C   UNL A   1      37.637  19.478  24.689  1.00  0.00     0.042 C 
BRANCH  22  23
ATOM     23  C   UNL A   1      38.665  20.044  25.655  1.00  0.00     0.118 C 
BRANCH  23  24
ATOM     24  N   UNL A   1      39.869  19.240  25.738  1.00  0.00    -0.352 N 
ATOM     25  C   UNL A   1      41.156  19.587  26.067  1.00  0.00     0.251 C 
ATOM     26  H   UNL A   1      39.742  18.288  25.524  1.00  0.00     0.163 HD
ATOM     27  O   UNL A   1      42.051  18.759  25.911  1.00  0.00    -0.269 OA
BRANCH  25  28
ATOM     28  C   UNL A   1      41.494  20.936  26.582  1.00  0.00     0.039 A 
ATOM     29  C   UNL A   1      41.343  21.179  27.952  1.00  0.00     0.014 A 
ATOM     30  C   UNL A   1      41.895  21.980  25.744  1.00  0.00     0.014 A 
ATOM     31  C   UNL A   1      41.635  22.441  28.478  1.00  0.00     0.010 A 
ATOM     32  C   UNL A   1      42.280  23.207  26.282  1.00  0.00     0.010 A 
ATOM     33  C   UNL A   1      42.132  23.461  27.652  1.00  0.00    -0.014 A 
BRANCH  33  34
ATOM     34  C   UNL A   1      42.457  24.803  28.202  1.00  0.00     0.031 A 
ATOM     35  C   UNL A   1      43.872  25.141  28.598  1.00  0.00     0.074 A 
ATOM     36  C   UNL A   1      41.478  25.711  28.381  1.00  0.00     0.049 A 
ATOM     37  N   UNL A   1      44.343  26.250  29.111  1.00  0.00    -0.248 NA
ATOM     38  C   UNL A   1      44.884  24.087  28.420  1.00  0.00     0.031 C 
ATOM     39  C   UNL A   1      40.060  25.500  28.084  1.00  0.00     0.029 A 
ATOM     40  N   UNL A   1      41.530  26.998  28.853  1.00  0.00    -0.354 N 
ATOM     41  C   UNL A   1      45.695  26.018  29.336  1.00  0.00     0.074 A 
ATOM     42  C   UNL A   1      45.958  24.649  28.953  1.00  0.00     0.031 C 
ATOM     43  C   UNL A   1      39.384  26.631  28.344  1.00  0.00     0.029 A 
ATOM     44  C   UNL A   1      40.312  27.634  28.856  1.00  0.00     0.049 A 
ATOM     45  H   UNL A   1      42.362  27.426  29.161  1.00  0.00     0.167 HD
ATOM     46  C   UNL A   1      46.641  26.872  29.797  1.00  0.00     0.031 A 
ATOM     47  C   UNL A   1      39.980  28.885  29.223  1.00  0.00     0.031 A 
ATOM     48  C   UNL A   1      46.392  28.242  30.152  1.00  0.00     0.049 A 
ATOM     49  C   UNL A   1      41.049  29.819  29.713  1.00  0.00     0.074 A 
ATOM     50  C   UNL A   1      47.298  29.203  30.569  1.00  0.00     0.029 A 
ATOM     51  N   UNL A   1      45.147  28.849  30.125  1.00  0.00    -0.354 N 
ATOM     52  N   UNL A   1      42.334  29.602  29.858  1.00  0.00    -0.248 NA
ATOM     53  C   UNL A   1      40.623  31.180  30.075  1.00  0.00     0.031 C 
ATOM     54  C   UNL A   1      46.592  30.382  30.833  1.00  0.00     0.029 A 
ATOM     55  C   UNL A   1      45.256  30.166  30.536  1.00  0.00     0.049 A 
ATOM     56  H   UNL A   1      44.310  28.408  29.855  1.00  0.00     0.167 HD
ATOM     57  C   UNL A   1      42.872  30.801  30.306  1.00  0.00     0.074 A 
ATOM     58  C   UNL A   1      41.779  31.747  30.390  1.00  0.00     0.031 C 
ATOM     59  C   UNL A   1      44.158  31.093  30.619  1.00  0.00     0.031 A 
BRANCH  46  60
ATOM     60  C   UNL A   1      48.039  26.337  29.943  1.00  0.00    -0.014 A 
ATOM     61  C   UNL A   1      48.955  26.399  28.880  1.00  0.00     0.009 A 
ATOM     62  C   UNL A   1      48.454  25.790  31.166  1.00  0.00     0.009 A 
ATOM     63  C   UNL A   1      50.246  25.886  29.028  1.00  0.00     0.001 A 
ATOM     64  C   UNL A   1      49.754  25.303  31.319  1.00  0.00     0.001 A 
ATOM     65  C   UNL A   1      50.645  25.343  30.248  1.00  0.00     0.000 A 
ENDBRANCH  46  60
BRANCH  47  66
ATOM     66  C   UNL A   1      38.570  29.343  29.112  1.00  0.00    -0.014 A 
ATOM     67  C   UNL A   1      38.084  29.859  27.901  1.00  0.00     0.009 A 
ATOM     68  C   UNL A   1      37.705  29.267  30.215  1.00  0.00     0.009 A 
ATOM     69  C   UNL A   1      36.768  30.315  27.804  1.00  0.00     0.001 A 
ATOM     70  C   UNL A   1      36.381  29.699  30.107  1.00  0.00     0.001 A 
ATOM     71  C   UNL A   1      35.917  30.230  28.905  1.00  0.00     0.000 A 
ENDBRANCH  47  66
BRANCH  59  72
ATOM     72  C   UNL A   1      44.452  32.498  31.055  1.00  0.00    -0.014 A 
ATOM     73  C   UNL A   1      44.406  32.863  32.410  1.00  0.00     0.009 A 
ATOM     74  C   UNL A   1      44.806  33.465  30.101  1.00  0.00     0.009 A 
ATOM     75  C   UNL A   1      44.675  34.178  32.795  1.00  0.00     0.001 A 
ATOM     76  C   UNL A   1      45.100  34.771  30.492  1.00  0.00     0.001 A 
ATOM     77  C   UNL A   1      45.025  35.129  31.837  1.00  0.00     0.000 A 
ENDBRANCH  59  72
ENDBRANCH  33  34
ENDBRANCH  25  28
ENDBRANCH  23  24
ENDBRANCH  22  23
ENDBRANCH   1  22
TORSDOF 14
ENDMDL
MODEL 2
REMARK VINA RESULT:     -10.4      3.222      8.729
REMARK SMILES C[C@H](CC(=O)NCCCNC(=O)c1ccc(-c2c3nc(c(-c4ccccc4)c4ccc([nH]4)c(-c4ccccc4)c4nc(c(-c5ccccc5)c5ccc2[nH]5)C=C4)C=C3)cc1)NC(=O)[C@H]1CC(=O)N(C2CC2)C1
REMARK SMILES IDX 7 1 6 2 4 3 5 4 3 6 2 7 1 8 61 9 62 10 63 12 64 13 65 14
REMARK SMILES IDX 72 15 66 16 68 17 67 18 69 19 70 20 71 21 8 22 9 23 10 24
REMARK SMILES IDX 11 25 12 27 13 28 14 29 60 30 15 31 59 32 16 33 17 34 18 35
REMARK SMILES IDX 53 36 19 37 58 38 52 39 54 40 20 41 57 42 51 43 50 44 21 46
REMARK SMILES IDX 43 47 28 48 42 49 29 50 32 51 41 52 55 53 30 54 31 55 40 57
REMARK SMILES IDX 56 58 33 59 22 60 23 61 27 62 24 63 26 64 25 65 44 66 45 67
REMARK SMILES IDX 49 68 46 69 48 70 47 71 34 72 35 73 39 74 36 75 38 76 37 77
REMARK H PARENT 6 5 61 11 10 26 54 45 32 56
REMARK Flexibility Score: inf
ROOT
ATOM      1  C   UNL A   1      31.525  30.586  26.044  1.00  0.00     0.117 C 
ENDROOT
BRANCH   1   2
ATOM      2  N   UNL A   1      31.677  29.650  27.143  1.00  0.00    -0.356 N 
ATOM      3  C   UNL A   1      31.547  28.298  27.169  1.00  0.00     0.222 C 
ATOM      4  O   UNL A   1      31.632  27.724  28.256  1.00  0.00    -0.275 OA
ATOM      5  H   UNL A   1      31.911  30.060  28.007  1.00  0.00     0.163 HD
BRANCH   3   6
ATOM      6  C   UNL A   1      31.305  27.511  25.897  1.00  0.00     0.124 C 
BRANCH   6   7
ATOM      7  C   UNL A   1      32.136  26.224  25.732  1.00  0.00     0.088 C 
ATOM      8  C   UNL A   1      33.646  26.436  25.785  1.00  0.00     0.031 C 
BRANCH   7   9
ATOM      9  N   UNL A   1      31.715  25.186  26.683  1.00  0.00    -0.353 N 
ATOM     10  C   UNL A   1      31.462  23.855  26.568  1.00  0.00     0.225 C 
ATOM     11  H   UNL A   1      31.589  25.526  27.598  1.00  0.00     0.163 HD
ATOM     12  O   UNL A   1      30.697  23.376  27.410  1.00  0.00    -0.275 OA
BRANCH  10  13
ATOM     13  C   UNL A   1      32.200  22.951  25.601  1.00  0.00     0.107 C 
ATOM     14  C   UNL A   1      31.996  23.363  24.139  1.00  0.00     0.115 C 
ATOM     15  C   UNL A   1      33.695  22.911  25.736  1.00  0.00     0.133 C 
ATOM     16  C   UNL A   1      33.263  22.901  23.445  1.00  0.00     0.223 C 
ATOM     17  N   UNL A   1      34.203  22.619  24.434  1.00  0.00    -0.339 N 
ATOM     18  O   UNL A   1      33.409  22.859  22.239  1.00  0.00    -0.275 OA
BRANCH  17  19
ATOM     19  C   UNL A   1      35.593  22.330  24.296  1.00  0.00     0.085 C 
ATOM     20  C   UNL A   1      36.526  22.961  23.314  1.00  0.00     0.027 C 
ATOM     21  C   UNL A   1      36.620  23.320  24.771  1.00  0.00     0.027 C 
ENDBRANCH  17  19
ENDBRANCH  10  13
ENDBRANCH   7   9
ENDBRANCH   6   7
ENDBRANCH   3   6
ENDBRANCH   1   2
BRANCH   1  22
ATOM     22  C   UNL A   1      31.387  32.017  26.551  1.00  0.00     0.042 C 
BRANCH  22  23
ATOM     23  C   UNL A   1      32.693  32.677  26.960  1.00  0.00     0.118 C 
BRANCH  23  24
ATOM     24  N   UNL A   1      32.499  33.916  27.687  1.00  0.00    -0.352 N 
ATOM     25  C   UNL A   1      33.199  34.457  28.737  1.00  0.00     0.251 C 
ATOM     26  H   UNL A   1      31.741  34.461  27.375  1.00  0.00     0.163 HD
ATOM     27  O   UNL A   1      32.748  35.452  29.301  1.00  0.00    -0.269 OA
BRANCH  25  28
ATOM     28  C   UNL A   1      34.468  33.861  29.221  1.00  0.00     0.039 A 
ATOM     29  C   UNL A   1      35.654  34.204  28.562  1.00  0.00     0.014 A 
ATOM     30  C   UNL A   1      34.510  32.928  30.260  1.00  0.00     0.014 A 
ATOM     31  C   UNL A   1      36.872  33.652  28.974  1.00  0.00     0.010 A 
ATOM     32  C   UNL A   1      35.733  32.456  30.734  1.00  0.00     0.010 A 
ATOM     33  C   UNL A   1      36.927  32.793  30.082  1.00  0.00    -0.014 A 
BRANCH  33  34
ATOM     34  C   UNL A   1      38.217  32.210  30.536  1.00  0.00     0.031 A 
ATOM     35  C   UNL A   1      38.720  30.919  29.942  1.00  0.00     0.074 A 
ATOM     36  C   UNL A   1      38.924  32.819  31.507  1.00  0.00     0.049 A 
ATOM     37  N   UNL A   1      39.810  30.250  30.222  1.00  0.00    -0.248 NA
ATOM     38  C   UNL A   1      37.874  30.283  28.918  1.00  0.00     0.031 C 
ATOM     39  C   UNL A   1      38.532  34.047  32.201  1.00  0.00     0.029 A 
ATOM     40  N   UNL A   1      40.128  32.487  32.077  1.00  0.00    -0.354 N 
ATOM     41  C   UNL A   1      39.768  29.110  29.429  1.00  0.00     0.074 A 
ATOM     42  C   UNL A   1      38.523  29.150  28.696  1.00  0.00     0.031 C 
ATOM     43  C   UNL A   1      39.495  34.386  33.074  1.00  0.00     0.029 A 
ATOM     44  C   UNL A   1      40.555  33.383  33.026  1.00  0.00     0.049 A 
ATOM     45  H   UNL A   1      40.637  31.681  31.828  1.00  0.00     0.167 HD
ATOM     46  C   UNL A   1      40.691  28.126  29.302  1.00  0.00     0.031 A 
ATOM     47  C   UNL A   1      41.676  33.401  33.770  1.00  0.00     0.031 A 
ATOM     48  C   UNL A   1      41.944  28.094  30.007  1.00  0.00     0.049 A 
ATOM     49  C   UNL A   1      42.694  32.310  33.597  1.00  0.00     0.074 A 
ATOM     50  C   UNL A   1      42.972  27.173  29.898  1.00  0.00     0.029 A 
ATOM     51  N   UNL A   1      42.343  29.030  30.947  1.00  0.00    -0.354 N 
ATOM     52  N   UNL A   1      42.666  31.273  32.796  1.00  0.00    -0.248 NA
ATOM     53  C   UNL A   1      43.907  32.402  34.424  1.00  0.00     0.031 C 
ATOM     54  C   UNL A   1      43.977  27.531  30.803  1.00  0.00     0.029 A 
ATOM     55  C   UNL A   1      43.593  28.700  31.441  1.00  0.00     0.049 A 
ATOM     56  H   UNL A   1      41.814  29.813  31.224  1.00  0.00     0.167 HD
ATOM     57  C   UNL A   1      43.864  30.602  33.004  1.00  0.00     0.074 A 
ATOM     58  C   UNL A   1      44.603  31.359  33.993  1.00  0.00     0.031 C 
ATOM     59  C   UNL A   1      44.313  29.461  32.427  1.00  0.00     0.031 A 
BRANCH  46  60
ATOM     60  C   UNL A   1      40.372  26.999  28.360  1.00  0.00    -0.014 A 
ATOM     61  C   UNL A   1      39.600  25.901  28.774  1.00  0.00     0.009 A 
ATOM     62  C   UNL A   1      40.825  27.047  27.033  1.00  0.00     0.009 A 
ATOM     63  C   UNL A   1      39.324  24.856  27.890  1.00  0.00     0.001 A 
ATOM     64  C   UNL A   1      40.524  26.014  26.143  1.00  0.00     0.001 A 
ATOM     65  C   UNL A   1      39.782  24.916  26.575  1.00  0.00     0.000 A 
ENDBRANCH  46  60
BRANCH  47  66
ATOM     66  C   UNL A   1      41.913  34.511  34.730  1.00  0.00    -0.014 A 
ATOM     67  C   UNL A   1      41.521  34.386  36.071  1.00  0.00     0.009 A 
ATOM     68  C   UNL A   1      42.529  35.700  34.308  1.00  0.00     0.009 A 
ATOM     69  C   UNL A   1      41.718  35.440  36.967  1.00  0.00     0.001 A 
ATOM     70  C   UNL A   1      42.748  36.742  35.213  1.00  0.00     0.001 A 
ATOM     71  C   UNL A   1      42.335  36.613  36.538  1.00  0.00     0.000 A 
ENDBRANCH  47  66
BRANCH  59  72
ATOM     72  C   UNL A   1      45.675  28.980  32.834  1.00  0.00    -0.014 A 
ATOM     73  C   UNL A   1      45.841  28.086  33.904  1.00  0.00     0.009 A 
ATOM     74  C   UNL A   1      46.806  29.406  32.120  1.00  0.00     0.009 A 
ATOM     75  C   UNL A   1      47.118  27.657  34.271  1.00  0.00     0.001 A 
ATOM     76  C   UNL A   1      48.078  28.955  32.473  1.00  0.00     0.001 A 
ATOM     77  C   UNL A   1      48.233  28.088  33.555  1.00  0.00     0.000 A 
ENDBRANCH  59  72
ENDBRANCH  33  34
ENDBRANCH  25  28
ENDBRANCH  23  24
ENDBRANCH  22  23
ENDBRANCH   1  22
TORSDOF 14
ENDMDL
MODEL 3
REMARK VINA RESULT:     -10.4      3.166      8.875
REMARK SMILES C[C@H](CC(=O)NCCCNC(=O)c1ccc(-c2c3nc(c(-c4ccccc4)c4ccc([nH]4)c(-c4ccccc4)c4nc(c(-c5ccccc5)c5ccc2[nH]5)C=C4)C=C3)cc1)NC(=O)[C@H]1CC(=O)N(C2CC2)C1
REMARK SMILES IDX 7 1 6 2 4 3 5 4 3 6 2 7 1 8 61 9 62 10 63 12 64 13 65 14
REMARK SMILES IDX 72 15 66 16 68 17 67 18 69 19 70 20 71 21 8 22 9 23 10 24
REMARK SMILES IDX 11 25 12 27 13 28 14 29 60 30 15 31 59 32 16 33 17 34 18 35
REMARK SMILES IDX 53 36 19 37 58 38 52 39 54 40 20 41 57 42 51 43 50 44 21 46
REMARK SMILES IDX 43 47 28 48 42 49 29 50 32 51 41 52 55 53 30 54 31 55 40 57
REMARK SMILES IDX 56 58 33 59 22 60 23 61 27 62 24 63 26 64 25 65 44 66 45 67
REMARK SMILES IDX 49 68 46 69 48 70 47 71 34 72 35 73 39 74 36 75 38 76 37 77
REMARK H PARENT 6 5 61 11 10 26 54 45 32 56
REMARK Flexibility Score: inf
ROOT
ATOM      1  C   UNL A   1      31.071  30.708  25.343  1.00  0.00     0.117 C 
ENDROOT
BRANCH   1   2
ATOM      2  N   UNL A   1      32.353  30.039  25.459  1.00  0.00    -0.356 N 
ATOM      3  C   UNL A   1      33.005  29.232  24.581  1.00  0.00     0.222 C 
ATOM      4  O   UNL A   1      34.054  28.698  24.947  1.00  0.00    -0.275 OA
ATOM      5  H   UNL A   1      32.827  30.194  26.308  1.00  0.00     0.163 HD
BRANCH   3   6
ATOM      6  C   UNL A   1      32.463  28.992  23.188  1.00  0.00     0.124 C 
BRANCH   6   7
ATOM      7  C   UNL A   1      31.503  27.796  23.035  1.00  0.00     0.088 C 
ATOM      8  C   UNL A   1      30.032  28.179  22.905  1.00  0.00     0.031 C 
BRANCH   7   9
ATOM      9  N   UNL A   1      31.917  26.912  21.936  1.00  0.00    -0.353 N 
ATOM     10  C   UNL A   1      32.734  25.828  21.862  1.00  0.00     0.225 C 
ATOM     11  H   UNL A   1      31.519  27.157  21.069  1.00  0.00     0.163 HD
ATOM     12  O   UNL A   1      33.234  25.604  20.755  1.00  0.00    -0.275 OA
BRANCH  10  13
ATOM     13  C   UNL A   1      32.891  24.829  22.990  1.00  0.00     0.107 C 
ATOM     14  C   UNL A   1      32.370  23.436  22.618  1.00  0.00     0.115 C 
ATOM     15  C   UNL A   1      34.294  24.554  23.447  1.00  0.00     0.133 C 
ATOM     16  C   UNL A   1      33.207  22.491  23.458  1.00  0.00     0.223 C 
ATOM     17  N   UNL A   1      34.296  23.216  23.942  1.00  0.00    -0.339 N 
ATOM     18  O   UNL A   1      32.970  21.309  23.606  1.00  0.00    -0.275 OA
BRANCH  17  19
ATOM     19  C   UNL A   1      35.458  22.743  24.621  1.00  0.00     0.085 C 
ATOM     20  C   UNL A   1      36.760  22.382  23.983  1.00  0.00     0.027 C 
ATOM     21  C   UNL A   1      36.649  23.644  24.793  1.00  0.00     0.027 C 
ENDBRANCH  17  19
ENDBRANCH  10  13
ENDBRANCH   7   9
ENDBRANCH   6   7
ENDBRANCH   3   6
ENDBRANCH   1   2
BRANCH   1  22
ATOM     22  C   UNL A   1      30.982  31.901  26.287  1.00  0.00     0.042 C 
BRANCH  22  23
ATOM     23  C   UNL A   1      32.306  32.331  26.898  1.00  0.00     0.118 C 
BRANCH  23  24
ATOM     24  N   UNL A   1      32.258  33.657  27.482  1.00  0.00    -0.352 N 
ATOM     25  C   UNL A   1      33.094  34.269  28.382  1.00  0.00     0.251 C 
ATOM     26  H   UNL A   1      31.501  34.209  27.183  1.00  0.00     0.163 HD
ATOM     27  O   UNL A   1      32.760  35.351  28.860  1.00  0.00    -0.269 OA
BRANCH  25  28
ATOM     28  C   UNL A   1      34.375  33.651  28.805  1.00  0.00     0.039 A 
ATOM     29  C   UNL A   1      35.518  33.904  28.038  1.00  0.00     0.014 A 
ATOM     30  C   UNL A   1      34.463  32.783  29.896  1.00  0.00     0.014 A 
ATOM     31  C   UNL A   1      36.742  33.329  28.391  1.00  0.00     0.010 A 
ATOM     32  C   UNL A   1      35.701  32.290  30.305  1.00  0.00     0.010 A 
ATOM     33  C   UNL A   1      36.852  32.537  29.544  1.00  0.00    -0.014 A 
BRANCH  33  34
ATOM     34  C   UNL A   1      38.151  31.930  29.935  1.00  0.00     0.031 A 
ATOM     35  C   UNL A   1      39.071  32.648  30.890  1.00  0.00     0.074 A 
ATOM     36  C   UNL A   1      38.526  30.747  29.409  1.00  0.00     0.049 A 
ATOM     37  N   UNL A   1      40.249  32.286  31.333  1.00  0.00    -0.248 NA
ATOM     38  C   UNL A   1      38.620  33.958  31.391  1.00  0.00     0.031 C 
ATOM     39  C   UNL A   1      37.755  29.967  28.440  1.00  0.00     0.029 A 
ATOM     40  N   UNL A   1      39.653  29.993  29.621  1.00  0.00    -0.354 N 
ATOM     41  C   UNL A   1      40.685  33.329  32.142  1.00  0.00     0.074 A 
ATOM     42  C   UNL A   1      39.672  34.358  32.088  1.00  0.00     0.031 C 
ATOM     43  C   UNL A   1      38.413  28.827  28.172  1.00  0.00     0.029 A 
ATOM     44  C   UNL A   1      39.665  28.811  28.922  1.00  0.00     0.049 A 
ATOM     45  H   UNL A   1      40.384  30.274  30.218  1.00  0.00     0.167 HD
ATOM     46  C   UNL A   1      41.816  33.415  32.884  1.00  0.00     0.031 A 
ATOM     47  C   UNL A   1      40.576  27.821  28.893  1.00  0.00     0.031 A 
ATOM     48  C   UNL A   1      42.813  32.383  32.965  1.00  0.00     0.049 A 
ATOM     49  C   UNL A   1      41.812  27.931  29.738  1.00  0.00     0.074 A 
ATOM     50  C   UNL A   1      43.962  32.352  33.737  1.00  0.00     0.029 A 
ATOM     51  N   UNL A   1      42.778  31.196  32.252  1.00  0.00    -0.354 N 
ATOM     52  N   UNL A   1      42.178  28.897  30.546  1.00  0.00    -0.248 NA
ATOM     53  C   UNL A   1      42.756  26.805  29.678  1.00  0.00     0.031 C 
ATOM     54  C   UNL A   1      44.642  31.161  33.461  1.00  0.00     0.029 A 
ATOM     55  C   UNL A   1      43.892  30.432  32.551  1.00  0.00     0.049 A 
ATOM     56  H   UNL A   1      42.065  30.935  31.624  1.00  0.00     0.167 HD
ATOM     57  C   UNL A   1      43.379  28.485  31.107  1.00  0.00     0.074 A 
ATOM     58  C   UNL A   1      43.672  27.176  30.562  1.00  0.00     0.031 C 
ATOM     59  C   UNL A   1      44.171  29.134  31.996  1.00  0.00     0.031 A 
BRANCH  46  60
ATOM     60  C   UNL A   1      42.030  34.679  33.669  1.00  0.00    -0.014 A 
ATOM     61  C   UNL A   1      42.731  35.766  33.120  1.00  0.00     0.009 A 
ATOM     62  C   UNL A   1      41.500  34.797  34.962  1.00  0.00     0.009 A 
ATOM     63  C   UNL A   1      42.932  36.929  33.868  1.00  0.00     0.001 A 
ATOM     64  C   UNL A   1      41.679  35.971  35.697  1.00  0.00     0.001 A 
ATOM     65  C   UNL A   1      42.403  37.031  35.153  1.00  0.00     0.000 A 
ENDBRANCH  46  60
BRANCH  47  66
ATOM     66  C   UNL A   1      40.339  26.618  28.053  1.00  0.00    -0.014 A 
ATOM     67  C   UNL A   1      39.551  25.561  28.532  1.00  0.00     0.009 A 
ATOM     68  C   UNL A   1      40.902  26.520  26.770  1.00  0.00     0.009 A 
ATOM     69  C   UNL A   1      39.351  24.418  27.754  1.00  0.00     0.001 A 
ATOM     70  C   UNL A   1      40.679  25.387  25.985  1.00  0.00     0.001 A 
ATOM     71  C   UNL A   1      39.911  24.334  26.481  1.00  0.00     0.000 A 
ENDBRANCH  47  66
BRANCH  59  72
ATOM     72  C   UNL A   1      45.412  28.423  32.451  1.00  0.00    -0.014 A 
ATOM     73  C   UNL A   1      46.637  28.604  31.788  1.00  0.00     0.009 A 
ATOM     74  C   UNL A   1      45.363  27.583  33.573  1.00  0.00     0.009 A 
ATOM     75  C   UNL A   1      47.779  27.928  32.221  1.00  0.00     0.001 A 
ATOM     76  C   UNL A   1      46.511  26.929  34.020  1.00  0.00     0.001 A 
ATOM     77  C   UNL A   1      47.716  27.095  33.338  1.00  0.00     0.000 A 
ENDBRANCH  59  72
ENDBRANCH  33  34
ENDBRANCH  25  28
ENDBRANCH  23  24
ENDBRANCH  22  23
ENDBRANCH   1  22
TORSDOF 14
ENDMDL
