MODEL 1
REMARK VINA RESULT:     -12.5      0.000      0.000
REMARK SMILES O=C(NCCCNC(=O)[C@H]1CC=CC[C@H]1C(=O)N[C@@H]1CCN(c2cccc(Cl)c2)C1)c1ccc(-c2c3nc(c(-c4ccccc4)c4ccc([nH]4)c(-c4ccccc4)c4nc(c(-c5ccccc5)c5ccc2[nH]5)C=C4)C=C3)cc1
REMARK SMILES IDX 5 1 4 2 3 3 1 4 2 5 31 7 32 8 78 9 33 10 77 11 34 12 35 13
REMARK SMILES IDX 36 14 71 15 37 16 76 17 70 18 72 19 38 20 75 21 69 22 68 23
REMARK SMILES IDX 39 25 61 26 46 27 60 28 47 29 50 30 59 31 73 32 48 33 49 34
REMARK SMILES IDX 58 36 74 37 51 38 40 39 41 40 45 41 42 42 44 43 43 44 62 45
REMARK SMILES IDX 63 46 67 47 64 48 66 49 65 50 52 51 53 52 57 53 54 54 56 55
REMARK SMILES IDX 55 56 6 57 7 58 8 59 9 61 10 62 11 63 15 64 12 65 14 66
REMARK SMILES IDX 13 67 16 68 17 69 18 70 19 72 20 73 30 74 21 75 22 76 23 77
REMARK SMILES IDX 24 78 29 79 25 80 27 81 26 82 28 83
REMARK H PARENT 3 6 72 24 50 35 7 60 18 71
REMARK Flexibility Score: inf
ROOT
ATOM      1  C   UNL A   1      31.347  31.946  26.439  1.00  0.00     0.042 C 
ENDROOT
BRANCH   1   2
ATOM      2  C   UNL A   1      32.615  32.615  26.957  1.00  0.00     0.118 C 
BRANCH   2   3
ATOM      3  N   UNL A   1      32.373  33.926  27.544  1.00  0.00    -0.352 N 
ATOM      4  O   UNL A   1      32.529  35.615  29.021  1.00  0.00    -0.269 OA
ATOM      5  C   UNL A   1      33.009  34.583  28.569  1.00  0.00     0.251 C 
ATOM      6  H   UNL A   1      31.627  34.425  27.139  1.00  0.00     0.163 HD
BRANCH   5   7
ATOM      7  C   UNL A   1      34.254  34.039  29.146  1.00  0.00     0.039 A 
ATOM      8  C   UNL A   1      35.504  34.438  28.669  1.00  0.00     0.014 A 
ATOM      9  C   UNL A   1      34.164  33.138  30.211  1.00  0.00     0.014 A 
ATOM     10  C   UNL A   1      36.657  33.828  29.152  1.00  0.00     0.010 A 
ATOM     11  C   UNL A   1      35.327  32.596  30.759  1.00  0.00     0.010 A 
ATOM     12  C   UNL A   1      36.581  32.914  30.214  1.00  0.00    -0.014 A 
BRANCH  12  13
ATOM     13  C   UNL A   1      37.820  32.347  30.796  1.00  0.00     0.031 A 
ATOM     14  C   UNL A   1      38.488  31.156  30.177  1.00  0.00     0.074 A 
ATOM     15  C   UNL A   1      38.321  32.898  31.918  1.00  0.00     0.049 A 
ATOM     16  N   UNL A   1      39.528  30.481  30.598  1.00  0.00    -0.248 NA
ATOM     17  C   UNL A   1      37.906  30.646  28.925  1.00  0.00     0.031 C 
ATOM     18  C   UNL A   1      37.759  34.059  32.612  1.00  0.00     0.029 A 
ATOM     19  N   UNL A   1      39.407  32.548  32.679  1.00  0.00    -0.354 N 
ATOM     20  C   UNL A   1      39.708  29.452  29.684  1.00  0.00     0.074 A 
ATOM     21  C   UNL A   1      38.656  29.577  28.697  1.00  0.00     0.031 C 
ATOM     22  C   UNL A   1      38.509  34.331  33.689  1.00  0.00     0.029 A 
ATOM     23  C   UNL A   1      39.558  33.326  33.800  1.00  0.00     0.049 A 
ATOM     24  H   UNL A   1      40.018  31.812  32.445  1.00  0.00     0.167 HD
ATOM     25  C   UNL A   1      40.662  28.489  29.672  1.00  0.00     0.031 A 
ATOM     26  C   UNL A   1      40.415  33.220  34.832  1.00  0.00     0.031 A 
ATOM     27  C   UNL A   1      41.694  28.365  30.670  1.00  0.00     0.049 A 
ATOM     28  C   UNL A   1      41.429  32.116  34.827  1.00  0.00     0.074 A 
ATOM     29  C   UNL A   1      42.732  27.452  30.727  1.00  0.00     0.029 A 
ATOM     30  N   UNL A   1      41.805  29.167  31.797  1.00  0.00    -0.354 N 
ATOM     31  N   UNL A   1      41.619  31.177  33.932  1.00  0.00    -0.248 NA
ATOM     32  C   UNL A   1      42.349  32.057  35.970  1.00  0.00     0.031 C 
ATOM     33  C   UNL A   1      43.427  27.657  31.923  1.00  0.00     0.029 A 
ATOM     34  C   UNL A   1      42.871  28.746  32.574  1.00  0.00     0.049 A 
ATOM     35  H   UNL A   1      41.213  29.925  32.011  1.00  0.00     0.167 HD
ATOM     36  C   UNL A   1      42.696  30.430  34.389  1.00  0.00     0.074 A 
ATOM     37  C   UNL A   1      43.122  31.030  35.638  1.00  0.00     0.031 C 
ATOM     38  C   UNL A   1      43.282  29.350  33.817  1.00  0.00     0.031 A 
BRANCH  25  39
ATOM     39  C   UNL A   1      40.597  27.464  28.572  1.00  0.00    -0.014 A 
ATOM     40  C   UNL A   1      41.299  27.625  27.366  1.00  0.00     0.009 A 
ATOM     41  C   UNL A   1      39.822  26.306  28.751  1.00  0.00     0.009 A 
ATOM     42  C   UNL A   1      41.183  26.678  26.346  1.00  0.00     0.001 A 
ATOM     43  C   UNL A   1      39.735  25.344  27.745  1.00  0.00     0.001 A 
ATOM     44  C   UNL A   1      40.403  25.537  26.536  1.00  0.00     0.000 A 
ENDBRANCH  25  39
BRANCH  26  45
ATOM     45  C   UNL A   1      40.310  34.181  35.959  1.00  0.00    -0.014 A 
ATOM     46  C   UNL A   1      41.008  35.395  35.935  1.00  0.00     0.009 A 
ATOM     47  C   UNL A   1      39.451  33.911  37.038  1.00  0.00     0.009 A 
ATOM     48  C   UNL A   1      40.856  36.317  36.974  1.00  0.00     0.001 A 
ATOM     49  C   UNL A   1      39.277  34.846  38.059  1.00  0.00     0.001 A 
ATOM     50  C   UNL A   1      39.985  36.046  38.029  1.00  0.00     0.000 A 
ENDBRANCH  26  45
BRANCH  38  51
ATOM     51  C   UNL A   1      44.478  28.763  34.511  1.00  0.00    -0.014 A 
ATOM     52  C   UNL A   1      45.775  29.245  34.275  1.00  0.00     0.009 A 
ATOM     53  C   UNL A   1      44.290  27.760  35.477  1.00  0.00     0.009 A 
ATOM     54  C   UNL A   1      46.860  28.722  34.983  1.00  0.00     0.001 A 
ATOM     55  C   UNL A   1      45.372  27.262  36.203  1.00  0.00     0.001 A 
ATOM     56  C   UNL A   1      46.657  27.740  35.951  1.00  0.00     0.000 A 
ENDBRANCH  38  51
ENDBRANCH  12  13
ENDBRANCH   5   7
ENDBRANCH   2   3
ENDBRANCH   1   2
BRANCH   1  57
ATOM     57  C   UNL A   1      31.463  30.446  26.217  1.00  0.00     0.117 C 
BRANCH  57  58
ATOM     58  N   UNL A   1      32.506  30.078  25.279  1.00  0.00    -0.356 N 
ATOM     59  C   UNL A   1      32.547  29.016  24.427  1.00  0.00     0.224 C 
ATOM     60  H   UNL A   1      33.289  30.676  25.256  1.00  0.00     0.163 HD
ATOM     61  O   UNL A   1      33.223  29.153  23.408  1.00  0.00    -0.275 OA
BRANCH  59  62
ATOM     62  C   UNL A   1      31.744  27.762  24.754  1.00  0.00     0.095 C 
ATOM     63  C   UNL A   1      30.376  27.961  24.063  1.00  0.00     0.041 C 
ATOM     64  C   UNL A   1      32.341  26.418  24.278  1.00  0.00     0.095 C 
ATOM     65  C   UNL A   1      30.428  27.683  22.582  1.00  0.00    -0.030 C 
ATOM     66  C   UNL A   1      32.527  26.312  22.763  1.00  0.00     0.041 C 
ATOM     67  C   UNL A   1      31.401  26.962  22.001  1.00  0.00    -0.030 C 
BRANCH  64  68
ATOM     68  C   UNL A   1      33.459  25.794  25.122  1.00  0.00     0.224 C 
ATOM     69  O   UNL A   1      34.193  26.534  25.790  1.00  0.00    -0.275 OA
ATOM     70  N   UNL A   1      33.725  24.468  25.212  1.00  0.00    -0.351 N 
ATOM     71  H   UNL A   1      34.428  24.238  25.862  1.00  0.00     0.163 HD
BRANCH  70  72
ATOM     72  C   UNL A   1      33.157  23.331  24.518  1.00  0.00     0.103 C 
ATOM     73  C   UNL A   1      31.731  22.974  24.945  1.00  0.00     0.048 C 
ATOM     74  C   UNL A   1      33.985  22.034  24.608  1.00  0.00     0.141 C 
ATOM     75  C   UNL A   1      31.778  21.520  25.385  1.00  0.00     0.119 C 
ATOM     76  N   UNL A   1      32.977  20.998  24.758  1.00  0.00    -0.369 N 
BRANCH  76  77
ATOM     77  C   UNL A   1      33.109  19.744  24.226  1.00  0.00     0.038 A 
ATOM     78  C   UNL A   1      32.392  19.353  23.086  1.00  0.00     0.026 A 
ATOM     79  C   UNL A   1      33.985  18.807  24.789  1.00  0.00     0.046 A 
ATOM     80  C   UNL A   1      32.528  18.077  22.531  1.00  0.00     0.004 A 
ATOM     81  C   UNL A   1      34.106  17.523  24.253  1.00  0.00     0.043 A 
ATOM     82  C   UNL A   1      33.381  17.153  23.124  1.00  0.00     0.020 A 
ATOM     83  Cl  UNL A   1      35.157  16.383  25.001  1.00  0.00    -0.084 Cl
ENDBRANCH  76  77
ENDBRANCH  70  72
ENDBRANCH  64  68
ENDBRANCH  59  62
ENDBRANCH  57  58
ENDBRANCH   1  57
TORSDOF 13
ENDMDL
MODEL 2
REMARK VINA RESULT:     -12.4      4.686      9.907
REMARK SMILES O=C(NCCCNC(=O)[C@H]1CC=CC[C@H]1C(=O)N[C@@H]1CCN(c2cccc(Cl)c2)C1)c1ccc(-c2c3nc(c(-c4ccccc4)c4ccc([nH]4)c(-c4ccccc4)c4nc(c(-c5ccccc5)c5ccc2[nH]5)C=C4)C=C3)cc1
REMARK SMILES IDX 5 1 4 2 3 3 1 4 2 5 31 7 32 8 78 9 33 10 77 11 34 12 35 13
REMARK SMILES IDX 36 14 71 15 37 16 76 17 70 18 72 19 38 20 75 21 69 22 68 23
REMARK SMILES IDX 39 25 61 26 46 27 60 28 47 29 50 30 59 31 73 32 48 33 49 34
REMARK SMILES IDX 58 36 74 37 51 38 40 39 41 40 45 41 42 42 44 43 43 44 62 45
REMARK SMILES IDX 63 46 67 47 64 48 66 49 65 50 52 51 53 52 57 53 54 54 56 55
REMARK SMILES IDX 55 56 6 57 7 58 8 59 9 61 10 62 11 63 15 64 12 65 14 66
REMARK SMILES IDX 13 67 16 68 17 69 18 70 19 72 20 73 30 74 21 75 22 76 23 77
REMARK SMILES IDX 24 78 29 79 25 80 27 81 26 82 28 83
REMARK H PARENT 3 6 72 24 50 35 7 60 18 71
REMARK Flexibility Score: inf
ROOT
ATOM      1  C   UNL A   1      37.771  19.529  24.983  1.00  0.00     0.042 C 
ENDROOT
BRANCH   1   2
ATOM      2  C   UNL A   1      38.955  20.134  25.730  1.00  0.00     0.118 C 
BRANCH   2   3
ATOM      3  N   UNL A   1      40.115  19.255  25.774  1.00  0.00    -0.352 N 
ATOM      4  O   UNL A   1      42.280  18.656  25.884  1.00  0.00    -0.269 OA
ATOM      5  C   UNL A   1      41.429  19.515  26.078  1.00  0.00     0.251 C 
ATOM      6  H   UNL A   1      39.926  18.315  25.547  1.00  0.00     0.163 HD
BRANCH   5   7
ATOM      7  C   UNL A   1      41.824  20.833  26.612  1.00  0.00     0.039 A 
ATOM      8  C   UNL A   1      41.857  21.073  27.987  1.00  0.00     0.014 A 
ATOM      9  C   UNL A   1      42.205  21.834  25.715  1.00  0.00     0.014 A 
ATOM     10  C   UNL A   1      42.125  22.353  28.461  1.00  0.00     0.010 A 
ATOM     11  C   UNL A   1      42.565  23.094  26.197  1.00  0.00     0.010 A 
ATOM     12  C   UNL A   1      42.498  23.371  27.571  1.00  0.00    -0.014 A 
BRANCH  12  13
ATOM     13  C   UNL A   1      42.886  24.705  28.089  1.00  0.00     0.031 A 
ATOM     14  C   UNL A   1      41.851  25.757  28.358  1.00  0.00     0.074 A 
ATOM     15  C   UNL A   1      44.191  24.973  28.281  1.00  0.00     0.049 A 
ATOM     16  N   UNL A   1      42.018  27.000  28.733  1.00  0.00    -0.248 NA
ATOM     17  C   UNL A   1      40.445  25.368  28.171  1.00  0.00     0.031 C 
ATOM     18  C   UNL A   1      45.288  24.029  28.054  1.00  0.00     0.029 A 
ATOM     19  N   UNL A   1      44.817  26.119  28.698  1.00  0.00    -0.354 N 
ATOM     20  C   UNL A   1      40.745  27.550  28.799  1.00  0.00     0.074 A 
ATOM     21  C   UNL A   1      39.817  26.512  28.403  1.00  0.00     0.031 C 
ATOM     22  C   UNL A   1      46.450  24.631  28.344  1.00  0.00     0.029 A 
ATOM     23  C   UNL A   1      46.186  26.017  28.707  1.00  0.00     0.049 A 
ATOM     24  H   UNL A   1      44.333  26.934  28.964  1.00  0.00     0.167 HD
ATOM     25  C   UNL A   1      40.385  28.808  29.154  1.00  0.00     0.031 A 
ATOM     26  C   UNL A   1      47.133  26.945  28.937  1.00  0.00     0.031 A 
ATOM     27  C   UNL A   1      41.319  29.837  29.531  1.00  0.00     0.049 A 
ATOM     28  C   UNL A   1      46.716  28.344  29.276  1.00  0.00     0.074 A 
ATOM     29  C   UNL A   1      41.055  31.130  29.948  1.00  0.00     0.029 A 
ATOM     30  N   UNL A   1      42.700  29.697  29.515  1.00  0.00    -0.354 N 
ATOM     31  N   UNL A   1      45.506  28.840  29.381  1.00  0.00    -0.248 NA
ATOM     32  C   UNL A   1      47.790  29.312  29.532  1.00  0.00     0.031 C 
ATOM     33  C   UNL A   1      42.275  31.792  30.116  1.00  0.00     0.029 A 
ATOM     34  C   UNL A   1      43.301  30.891  29.879  1.00  0.00     0.049 A 
ATOM     35  H   UNL A   1      43.180  28.870  29.282  1.00  0.00     0.167 HD
ATOM     36  C   UNL A   1      45.671  30.170  29.741  1.00  0.00     0.074 A 
ATOM     37  C   UNL A   1      47.099  30.402  29.842  1.00  0.00     0.031 C 
ATOM     38  C   UNL A   1      44.723  31.109  29.974  1.00  0.00     0.031 A 
BRANCH  25  39
ATOM     39  C   UNL A   1      38.919  29.150  29.099  1.00  0.00    -0.014 A 
ATOM     40  C   UNL A   1      38.315  29.629  27.925  1.00  0.00     0.009 A 
ATOM     41  C   UNL A   1      38.126  28.978  30.245  1.00  0.00     0.009 A 
ATOM     42  C   UNL A   1      36.963  29.981  27.917  1.00  0.00     0.001 A 
ATOM     43  C   UNL A   1      36.767  29.296  30.224  1.00  0.00     0.001 A 
ATOM     44  C   UNL A   1      36.189  29.812  29.065  1.00  0.00     0.000 A 
ENDBRANCH  25  39
BRANCH  26  45
ATOM     45  C   UNL A   1      48.563  26.563  28.817  1.00  0.00    -0.014 A 
ATOM     46  C   UNL A   1      49.241  26.691  27.597  1.00  0.00     0.009 A 
ATOM     47  C   UNL A   1      49.274  26.128  29.948  1.00  0.00     0.009 A 
ATOM     48  C   UNL A   1      50.600  26.382  27.510  1.00  0.00     0.001 A 
ATOM     49  C   UNL A   1      50.639  25.849  29.865  1.00  0.00     0.001 A 
ATOM     50  C   UNL A   1      51.300  25.971  28.644  1.00  0.00     0.000 A 
ENDBRANCH  26  45
BRANCH  38  51
ATOM     51  C   UNL A   1      45.187  32.472  30.403  1.00  0.00    -0.014 A 
ATOM     52  C   UNL A   1      45.418  33.496  29.473  1.00  0.00     0.009 A 
ATOM     53  C   UNL A   1      45.319  32.753  31.773  1.00  0.00     0.009 A 
ATOM     54  C   UNL A   1      45.787  34.772  29.907  1.00  0.00     0.001 A 
ATOM     55  C   UNL A   1      45.659  34.036  32.204  1.00  0.00     0.001 A 
ATOM     56  C   UNL A   1      45.897  35.042  31.271  1.00  0.00     0.000 A 
ENDBRANCH  38  51
ENDBRANCH  12  13
ENDBRANCH   5   7
ENDBRANCH   2   3
ENDBRANCH   1   2
BRANCH   1  57
ATOM     57  C   UNL A   1      36.659  20.511  24.650  1.00  0.00     0.117 C 
BRANCH  57  58
ATOM     58  N   UNL A   1      35.952  21.004  25.816  1.00  0.00    -0.356 N 
ATOM     59  C   UNL A   1      34.709  21.555  25.887  1.00  0.00     0.224 C 
ATOM     60  H   UNL A   1      36.437  20.930  26.671  1.00  0.00     0.163 HD
ATOM     61  O   UNL A   1      34.114  21.435  26.957  1.00  0.00    -0.275 OA
BRANCH  59  62
ATOM     62  C   UNL A   1      34.121  22.239  24.658  1.00  0.00     0.095 C 
ATOM     63  C   UNL A   1      33.063  21.255  24.110  1.00  0.00     0.041 C 
ATOM     64  C   UNL A   1      33.443  23.608  24.889  1.00  0.00     0.095 C 
ATOM     65  C   UNL A   1      31.774  21.295  24.891  1.00  0.00    -0.030 C 
ATOM     66  C   UNL A   1      32.254  23.568  25.851  1.00  0.00     0.041 C 
ATOM     67  C   UNL A   1      31.424  22.322  25.685  1.00  0.00    -0.030 C 
BRANCH  64  68
ATOM     68  C   UNL A   1      34.346  24.841  25.013  1.00  0.00     0.224 C 
ATOM     69  O   UNL A   1      35.350  24.782  25.734  1.00  0.00    -0.275 OA
ATOM     70  N   UNL A   1      34.146  26.025  24.384  1.00  0.00    -0.351 N 
ATOM     71  H   UNL A   1      34.867  26.682  24.514  1.00  0.00     0.163 HD
BRANCH  70  72
ATOM     72  C   UNL A   1      33.054  26.493  23.554  1.00  0.00     0.103 C 
ATOM     73  C   UNL A   1      33.452  27.544  22.516  1.00  0.00     0.048 C 
ATOM     74  C   UNL A   1      31.850  27.065  24.327  1.00  0.00     0.141 C 
ATOM     75  C   UNL A   1      32.558  28.747  22.775  1.00  0.00     0.119 C 
ATOM     76  N   UNL A   1      31.440  28.203  23.523  1.00  0.00    -0.369 N 
BRANCH  76  77
ATOM     77  C   UNL A   1      30.135  28.591  23.386  1.00  0.00     0.038 A 
ATOM     78  C   UNL A   1      29.095  27.652  23.327  1.00  0.00     0.026 A 
ATOM     79  C   UNL A   1      29.785  29.945  23.321  1.00  0.00     0.046 A 
ATOM     80  C   UNL A   1      27.759  28.040  23.196  1.00  0.00     0.004 A 
ATOM     81  C   UNL A   1      28.454  30.337  23.166  1.00  0.00     0.043 A 
ATOM     82  C   UNL A   1      27.436  29.389  23.104  1.00  0.00     0.020 A 
ATOM     83  Cl  UNL A   1      28.067  32.011  23.041  1.00  0.00    -0.084 Cl
ENDBRANCH  76  77
ENDBRANCH  70  72
ENDBRANCH  64  68
ENDBRANCH  59  62
ENDBRANCH  57  58
ENDBRANCH   1  57
TORSDOF 13
ENDMDL
MODEL 3
REMARK VINA RESULT:     -12.3      4.936     10.839
REMARK SMILES O=C(NCCCNC(=O)[C@H]1CC=CC[C@H]1C(=O)N[C@@H]1CCN(c2cccc(Cl)c2)C1)c1ccc(-c2c3nc(c(-c4ccccc4)c4ccc([nH]4)c(-c4ccccc4)c4nc(c(-c5ccccc5)c5ccc2[nH]5)C=C4)C=C3)cc1
REMARK SMILES IDX 5 1 4 2 3 3 1 4 2 5 31 7 32 8 78 9 33 10 77 11 34 12 35 13
REMARK SMILES IDX 36 14 71 15 37 16 76 17 70 18 72 19 38 20 75 21 69 22 68 23
REMARK SMILES IDX 39 25 61 26 46 27 60 28 47 29 50 30 59 31 73 32 48 33 49 34
REMARK SMILES IDX 58 36 74 37 51 38 40 39 41 40 45 41 42 42 44 43 43 44 62 45
REMARK SMILES IDX 63 46 67 47 64 48 66 49 65 50 52 51 53 52 57 53 54 54 56 55
REMARK SMILES IDX 55 56 6 57 7 58 8 59 9 61 10 62 11 63 15 64 12 65 14 66
REMARK SMILES IDX 13 67 16 68 17 69 18 70 19 72 20 73 30 74 21 75 22 76 23 77
REMARK SMILES IDX 24 78 29 79 25 80 27 81 26 82 28 83
REMARK H PARENT 3 6 72 24 50 35 7 60 18 71
REMARK Flexibility Score: inf
ROOT
ATOM      1  C   UNL A   1      34.723  32.987  30.580  1.00  0.00     0.042 C 
ENDROOT
BRANCH   1   2
ATOM      2  C   UNL A   1      35.026  32.854  29.092  1.00  0.00     0.118 C 
BRANCH   2   3
ATOM      3  N   UNL A   1      34.289  31.775  28.450  1.00  0.00    -0.352 N 
ATOM      4  O   UNL A   1      33.947  29.840  27.356  1.00  0.00    -0.269 OA
ATOM      5  C   UNL A   1      34.697  30.531  28.035  1.00  0.00     0.251 C 
ATOM      6  H   UNL A   1      33.338  31.970  28.285  1.00  0.00     0.163 HD
BRANCH   5   7
ATOM      7  C   UNL A   1      36.043  30.032  28.380  1.00  0.00     0.039 A 
ATOM      8  C   UNL A   1      36.291  29.422  29.611  1.00  0.00     0.014 A 
ATOM      9  C   UNL A   1      37.065  30.147  27.434  1.00  0.00     0.014 A 
ATOM     10  C   UNL A   1      37.589  29.063  29.956  1.00  0.00     0.010 A 
ATOM     11  C   UNL A   1      38.349  29.700  27.746  1.00  0.00     0.010 A 
ATOM     12  C   UNL A   1      38.628  29.182  29.021  1.00  0.00    -0.014 A 
BRANCH  12  13
ATOM     13  C   UNL A   1      39.989  28.699  29.356  1.00  0.00     0.031 A 
ATOM     14  C   UNL A   1      40.962  29.580  30.082  1.00  0.00     0.074 A 
ATOM     15  C   UNL A   1      40.354  27.464  28.964  1.00  0.00     0.049 A 
ATOM     16  N   UNL A   1      42.215  29.351  30.383  1.00  0.00    -0.248 NA
ATOM     17  C   UNL A   1      40.467  30.895  30.519  1.00  0.00     0.031 C 
ATOM     18  C   UNL A   1      39.494  26.517  28.251  1.00  0.00     0.029 A 
ATOM     19  N   UNL A   1      41.545  26.799  29.098  1.00  0.00    -0.354 N 
ATOM     20  C   UNL A   1      42.669  30.500  31.016  1.00  0.00     0.074 A 
ATOM     21  C   UNL A   1      41.563  31.434  31.036  1.00  0.00     0.031 C 
ATOM     22  C   UNL A   1      40.182  25.389  28.020  1.00  0.00     0.029 A 
ATOM     23  C   UNL A   1      41.546  25.561  28.503  1.00  0.00     0.049 A 
ATOM     24  H   UNL A   1      42.323  27.171  29.573  1.00  0.00     0.167 HD
ATOM     25  C   UNL A   1      43.897  30.753  31.530  1.00  0.00     0.031 A 
ATOM     26  C   UNL A   1      42.543  24.676  28.322  1.00  0.00     0.031 A 
ATOM     27  C   UNL A   1      44.995  29.822  31.489  1.00  0.00     0.049 A 
ATOM     28  C   UNL A   1      43.908  24.996  28.851  1.00  0.00     0.074 A 
ATOM     29  C   UNL A   1      46.266  29.964  32.018  1.00  0.00     0.029 A 
ATOM     30  N   UNL A   1      44.958  28.582  30.866  1.00  0.00    -0.354 N 
ATOM     31  N   UNL A   1      44.312  26.068  29.490  1.00  0.00    -0.248 NA
ATOM     32  C   UNL A   1      44.954  23.988  28.639  1.00  0.00     0.031 C 
ATOM     33  C   UNL A   1      47.018  28.842  31.654  1.00  0.00     0.029 A 
ATOM     34  C   UNL A   1      46.195  27.966  30.965  1.00  0.00     0.049 A 
ATOM     35  H   UNL A   1      44.168  28.197  30.422  1.00  0.00     0.167 HD
ATOM     36  C   UNL A   1      45.652  25.854  29.780  1.00  0.00     0.074 A 
ATOM     37  C   UNL A   1      45.991  24.546  29.252  1.00  0.00     0.031 C 
ATOM     38  C   UNL A   1      46.519  26.666  30.432  1.00  0.00     0.031 A 
BRANCH  25  39
ATOM     39  C   UNL A   1      44.129  32.114  32.132  1.00  0.00    -0.014 A 
ATOM     40  C   UNL A   1      43.904  32.369  33.495  1.00  0.00     0.009 A 
ATOM     41  C   UNL A   1      44.591  33.160  31.317  1.00  0.00     0.009 A 
ATOM     42  C   UNL A   1      44.084  33.652  34.014  1.00  0.00     0.001 A 
ATOM     43  C   UNL A   1      44.804  34.434  31.846  1.00  0.00     0.001 A 
ATOM     44  C   UNL A   1      44.536  34.684  33.191  1.00  0.00     0.000 A 
ENDBRANCH  25  39
BRANCH  26  45
ATOM     45  C   UNL A   1      42.268  23.422  27.576  1.00  0.00    -0.014 A 
ATOM     46  C   UNL A   1      42.594  23.307  26.218  1.00  0.00     0.009 A 
ATOM     47  C   UNL A   1      41.734  22.306  28.243  1.00  0.00     0.009 A 
ATOM     48  C   UNL A   1      42.384  22.103  25.541  1.00  0.00     0.001 A 
ATOM     49  C   UNL A   1      41.553  21.096  27.573  1.00  0.00     0.001 A 
ATOM     50  C   UNL A   1      41.873  20.998  26.221  1.00  0.00     0.000 A 
ENDBRANCH  26  45
BRANCH  38  51
ATOM     51  C   UNL A   1      47.914  26.154  30.655  1.00  0.00    -0.014 A 
ATOM     52  C   UNL A   1      48.888  26.213  29.647  1.00  0.00     0.009 A 
ATOM     53  C   UNL A   1      48.278  25.678  31.926  1.00  0.00     0.009 A 
ATOM     54  C   UNL A   1      50.194  25.790  29.903  1.00  0.00     0.001 A 
ATOM     55  C   UNL A   1      49.590  25.283  32.187  1.00  0.00     0.001 A 
ATOM     56  C   UNL A   1      50.546  25.335  31.174  1.00  0.00     0.000 A 
ENDBRANCH  38  51
ENDBRANCH  12  13
ENDBRANCH   5   7
ENDBRANCH   2   3
ENDBRANCH   1   2
BRANCH   1  57
ATOM     57  C   UNL A   1      35.535  32.070  31.481  1.00  0.00     0.117 C 
BRANCH  57  58
ATOM     58  N   UNL A   1      35.333  32.321  32.896  1.00  0.00    -0.356 N 
ATOM     59  C   UNL A   1      36.255  32.661  33.838  1.00  0.00     0.224 C 
ATOM     60  H   UNL A   1      34.406  32.233  33.216  1.00  0.00     0.163 HD
ATOM     61  O   UNL A   1      35.844  33.301  34.805  1.00  0.00    -0.275 OA
BRANCH  59  62
ATOM     62  C   UNL A   1      37.715  32.273  33.633  1.00  0.00     0.095 C 
ATOM     63  C   UNL A   1      38.260  33.271  32.586  1.00  0.00     0.041 C 
ATOM     64  C   UNL A   1      38.625  32.329  34.881  1.00  0.00     0.095 C 
ATOM     65  C   UNL A   1      38.581  34.619  33.181  1.00  0.00    -0.030 C 
ATOM     66  C   UNL A   1      38.733  33.714  35.521  1.00  0.00     0.041 C 
ATOM     67  C   UNL A   1      38.772  34.817  34.496  1.00  0.00    -0.030 C 
BRANCH  64  68
ATOM     68  C   UNL A   1      38.562  31.154  35.864  1.00  0.00     0.224 C 
ATOM     69  O   UNL A   1      37.676  31.140  36.729  1.00  0.00    -0.275 OA
ATOM     70  N   UNL A   1      39.407  30.094  35.874  1.00  0.00    -0.351 N 
ATOM     71  H   UNL A   1      39.172  29.393  36.523  1.00  0.00     0.163 HD
BRANCH  70  72
ATOM     72  C   UNL A   1      40.596  29.814  35.096  1.00  0.00     0.103 C 
ATOM     73  C   UNL A   1      40.322  29.312  33.677  1.00  0.00     0.048 C 
ATOM     74  C   UNL A   1      41.573  28.811  35.740  1.00  0.00     0.141 C 
ATOM     75  C   UNL A   1      41.042  27.979  33.558  1.00  0.00     0.119 C 
ATOM     76  N   UNL A   1      42.035  28.016  34.615  1.00  0.00    -0.369 N 
BRANCH  76  77
ATOM     77  C   UNL A   1      43.304  27.513  34.526  1.00  0.00     0.038 A 
ATOM     78  C   UNL A   1      44.398  28.184  35.090  1.00  0.00     0.026 A 
ATOM     79  C   UNL A   1      43.556  26.293  33.886  1.00  0.00     0.046 A 
ATOM     80  C   UNL A   1      45.697  27.672  35.011  1.00  0.00     0.004 A 
ATOM     81  C   UNL A   1      44.854  25.790  33.783  1.00  0.00     0.043 A 
ATOM     82  C   UNL A   1      45.928  26.474  34.344  1.00  0.00     0.020 A 
ATOM     83  Cl  UNL A   1      45.131  24.311  32.946  1.00  0.00    -0.084 Cl
ENDBRANCH  76  77
ENDBRANCH  70  72
ENDBRANCH  64  68
ENDBRANCH  59  62
ENDBRANCH  57  58
ENDBRANCH   1  57
TORSDOF 13
ENDMDL
