MODEL 1
REMARK VINA RESULT:     -12.3      0.000      0.000
REMARK SMILES CC(C)[C@H](NC(=O)[C@H](C)NC(=O)CNC(=O)OCc1ccccc1)C(=O)NCCCNC(=O)c1ccc(-c2c3nc(c(-c4ccccc4)c4ccc([nH]4)c(-c4ccccc4)c4nc(c(-c5ccccc5)c5ccc2[nH]5)C=C4)C=C3)cc1
REMARK SMILES IDX 4 1 2 2 1 3 3 4 25 5 26 6 27 7 28 9 29 10 30 11 31 12 32 13
REMARK SMILES IDX 33 15 34 16 35 17 81 18 36 19 80 20 37 21 38 22 39 23 74 24
REMARK SMILES IDX 40 25 79 26 73 27 75 28 41 29 78 30 72 31 71 32 42 34 64 35
REMARK SMILES IDX 49 36 63 37 50 38 53 39 62 40 76 41 51 42 52 43 61 45 77 46
REMARK SMILES IDX 54 47 43 48 44 49 48 50 45 51 47 52 46 53 65 54 66 55 70 56
REMARK SMILES IDX 67 57 69 58 68 59 55 60 56 61 60 62 57 63 59 64 58 65 5 66
REMARK SMILES IDX 6 67 7 69 8 70 9 71 10 72 11 73 12 75 13 76 14 77 15 78
REMARK SMILES IDX 16 80 17 81 18 82 19 83 20 84 24 85 21 86 23 87 22 88
REMARK H PARENT 27 8 31 14 75 33 53 44 5 68 10 74 14 79
REMARK Flexibility Score: inf
ROOT
ATOM      1  C   UNL A   1      32.397  27.657  23.713  1.00  0.00     0.173 C 
ENDROOT
BRANCH   1   2
ATOM      2  C   UNL A   1      31.037  28.614  23.438  1.00  0.00     0.015 C 
ATOM      3  C   UNL A   1      31.082  29.390  22.063  1.00  0.00     0.010 C 
ATOM      4  C   UNL A   1      29.536  28.273  23.533  1.00  0.00     0.010 C 
ENDBRANCH   1   2
BRANCH   1   5
ATOM      5  C   UNL A   1      33.516  26.350  23.117  1.00  0.00     0.242 C 
ATOM      6  O   UNL A   1      33.588  26.285  21.870  1.00  0.00    -0.273 OA
ATOM      7  N   UNL A   1      34.126  25.150  23.740  1.00  0.00    -0.354 N 
ATOM      8  H   UNL A   1      34.094  24.453  23.048  1.00  0.00     0.163 HD
BRANCH   7   9
ATOM      9  C   UNL A   1      34.854  24.412  25.086  1.00  0.00     0.117 C 
BRANCH   9  10
ATOM     10  C   UNL A   1      35.832  23.205  25.220  1.00  0.00     0.042 C 
BRANCH  10  11
ATOM     11  C   UNL A   1      37.253  23.722  25.361  1.00  0.00     0.118 C 
BRANCH  11  12
ATOM     12  N   UNL A   1      38.228  22.680  25.618  1.00  0.00    -0.352 N 
ATOM     13  C   UNL A   1      39.451  22.851  26.229  1.00  0.00     0.251 C 
ATOM     14  H   UNL A   1      37.996  21.768  25.329  1.00  0.00     0.163 HD
ATOM     15  O   UNL A   1      40.289  21.958  26.245  1.00  0.00    -0.269 OA
BRANCH  13  16
ATOM     16  C   UNL A   1      39.735  24.172  26.829  1.00  0.00     0.039 A 
ATOM     17  C   UNL A   1      39.398  24.410  28.161  1.00  0.00     0.014 A 
ATOM     18  C   UNL A   1      40.444  25.126  26.092  1.00  0.00     0.014 A 
ATOM     19  C   UNL A   1      39.801  25.605  28.759  1.00  0.00     0.010 A 
ATOM     20  C   UNL A   1      40.974  26.233  26.731  1.00  0.00     0.010 A 
ATOM     21  C   UNL A   1      40.608  26.514  28.053  1.00  0.00    -0.014 A 
BRANCH  21  22
ATOM     22  C   UNL A   1      40.998  27.818  28.636  1.00  0.00     0.031 A 
ATOM     23  C   UNL A   1      39.945  28.881  28.821  1.00  0.00     0.074 A 
ATOM     24  C   UNL A   1      42.282  28.057  28.964  1.00  0.00     0.049 A 
ATOM     25  N   UNL A   1      40.071  30.096  29.288  1.00  0.00    -0.248 NA
ATOM     26  C   UNL A   1      38.574  28.552  28.387  1.00  0.00     0.031 C 
ATOM     27  C   UNL A   1      43.395  27.123  28.783  1.00  0.00     0.029 A 
ATOM     28  N   UNL A   1      42.863  29.162  29.531  1.00  0.00    -0.354 N 
ATOM     29  C   UNL A   1      38.810  30.670  29.180  1.00  0.00     0.074 A 
ATOM     30  C   UNL A   1      37.954  29.710  28.528  1.00  0.00     0.031 C 
ATOM     31  C   UNL A   1      44.515  27.675  29.279  1.00  0.00     0.029 A 
ATOM     32  C   UNL A   1      44.208  29.014  29.771  1.00  0.00     0.049 A 
ATOM     33  H   UNL A   1      42.365  29.984  29.745  1.00  0.00     0.167 HD
ATOM     34  C   UNL A   1      38.386  31.876  29.621  1.00  0.00     0.031 A 
ATOM     35  C   UNL A   1      45.088  29.864  30.329  1.00  0.00     0.031 A 
ATOM     36  C   UNL A   1      39.234  32.816  30.296  1.00  0.00     0.049 A 
ATOM     37  C   UNL A   1      44.596  31.205  30.805  1.00  0.00     0.074 A 
ATOM     38  C   UNL A   1      38.901  34.043  30.839  1.00  0.00     0.029 A 
ATOM     39  N   UNL A   1      40.589  32.628  30.520  1.00  0.00    -0.354 N 
ATOM     40  N   UNL A   1      43.382  31.702  30.766  1.00  0.00    -0.248 NA
ATOM     41  C   UNL A   1      45.593  32.094  31.415  1.00  0.00     0.031 C 
ATOM     42  C   UNL A   1      40.070  34.625  31.339  1.00  0.00     0.029 A 
ATOM     43  C   UNL A   1      41.116  33.729  31.169  1.00  0.00     0.049 A 
ATOM     44  H   UNL A   1      41.101  31.828  30.256  1.00  0.00     0.167 HD
ATOM     45  C   UNL A   1      43.465  32.950  31.373  1.00  0.00     0.074 A 
ATOM     46  C   UNL A   1      44.842  33.121  31.787  1.00  0.00     0.031 C 
ATOM     47  C   UNL A   1      42.491  33.872  31.570  1.00  0.00     0.031 A 
BRANCH  34  48
ATOM     48  C   UNL A   1      36.945  32.235  29.382  1.00  0.00    -0.014 A 
ATOM     49  C   UNL A   1      35.972  32.066  30.383  1.00  0.00     0.009 A 
ATOM     50  C   UNL A   1      36.554  32.763  28.143  1.00  0.00     0.009 A 
ATOM     51  C   UNL A   1      34.634  32.376  30.132  1.00  0.00     0.001 A 
ATOM     52  C   UNL A   1      35.222  33.107  27.906  1.00  0.00     0.001 A 
ATOM     53  C   UNL A   1      34.262  32.902  28.896  1.00  0.00     0.000 A 
ENDBRANCH  34  48
BRANCH  35  54
ATOM     54  C   UNL A   1      46.513  29.471  30.489  1.00  0.00    -0.014 A 
ATOM     55  C   UNL A   1      46.952  28.833  31.660  1.00  0.00     0.009 A 
ATOM     56  C   UNL A   1      47.446  29.740  29.476  1.00  0.00     0.009 A 
ATOM     57  C   UNL A   1      48.301  28.504  31.826  1.00  0.00     0.001 A 
ATOM     58  C   UNL A   1      48.787  29.379  29.630  1.00  0.00     0.001 A 
ATOM     59  C   UNL A   1      49.215  28.773  30.809  1.00  0.00     0.000 A 
ENDBRANCH  35  54
BRANCH  47  60
ATOM     60  C   UNL A   1      42.874  35.130  32.297  1.00  0.00    -0.014 A 
ATOM     61  C   UNL A   1      43.498  36.196  31.634  1.00  0.00     0.009 A 
ATOM     62  C   UNL A   1      42.553  35.265  33.658  1.00  0.00     0.009 A 
ATOM     63  C   UNL A   1      43.829  37.361  32.328  1.00  0.00     0.001 A 
ATOM     64  C   UNL A   1      42.852  36.444  34.340  1.00  0.00     0.001 A 
ATOM     65  C   UNL A   1      43.500  37.486  33.679  1.00  0.00     0.000 A 
ENDBRANCH  47  60
ENDBRANCH  21  22
ENDBRANCH  13  16
ENDBRANCH  11  12
ENDBRANCH  10  11
ENDBRANCH   9  10
ENDBRANCH   7   9
ENDBRANCH   1   5
BRANCH   1  66
ATOM     66  N   UNL A   1      33.357  28.611  24.258  1.00  0.00    -0.342 N 
ATOM     67  C   UNL A   1      33.523  28.609  25.620  1.00  0.00     0.242 C 
ATOM     68  H   UNL A   1      33.862  29.226  23.677  1.00  0.00     0.164 HD
ATOM     69  O   UNL A   1      34.485  29.148  26.168  1.00  0.00    -0.273 OA
BRANCH  67  70
ATOM     70  C   UNL A   1      32.237  28.182  26.317  1.00  0.00     0.168 C 
ATOM     71  C   UNL A   1      31.454  29.396  26.876  1.00  0.00     0.041 C 
BRANCH  70  72
ATOM     72  N   UNL A   1      31.990  26.483  26.721  1.00  0.00    -0.343 N 
ATOM     73  C   UNL A   1      31.473  25.132  26.280  1.00  0.00     0.240 C 
ATOM     74  H   UNL A   1      32.342  26.361  27.633  1.00  0.00     0.164 HD
ATOM     75  O   UNL A   1      31.594  24.252  27.158  1.00  0.00    -0.273 OA
BRANCH  73  76
ATOM     76  C   UNL A   1      30.526  24.538  24.830  1.00  0.00     0.219 C 
BRANCH  76  77
ATOM     77  N   UNL A   1      31.085  23.797  23.600  1.00  0.00    -0.312 N 
ATOM     78  C   UNL A   1      31.799  22.615  23.412  1.00  0.00     0.407 C 
ATOM     79  H   UNL A   1      30.894  24.266  22.755  1.00  0.00     0.167 HD
ATOM     80  O   UNL A   1      32.556  22.532  22.447  1.00  0.00    -0.225 OA
BRANCH  78  81
ATOM     81  O   UNL A   1      31.731  21.672  24.390  1.00  0.00    -0.445 OA
BRANCH  81  82
ATOM     82  C   UNL A   1      32.947  20.942  24.784  1.00  0.00     0.270 C 
BRANCH  82  83
ATOM     83  C   UNL A   1      33.208  19.544  24.271  1.00  0.00    -0.011 A 
ATOM     84  C   UNL A   1      34.364  18.850  24.690  1.00  0.00     0.007 A 
ATOM     85  C   UNL A   1      32.370  18.931  23.340  1.00  0.00     0.007 A 
ATOM     86  C   UNL A   1      34.683  17.596  24.155  1.00  0.00     0.000 A 
ATOM     87  C   UNL A   1      32.697  17.689  22.795  1.00  0.00     0.000 A 
ATOM     88  C   UNL A   1      33.854  17.024  23.195  1.00  0.00     0.000 A 
ENDBRANCH  82  83
ENDBRANCH  81  82
ENDBRANCH  78  81
ENDBRANCH  76  77
ENDBRANCH  73  76
ENDBRANCH  70  72
ENDBRANCH  67  70
ENDBRANCH   1  66
TORSDOF 19
ENDMDL
MODEL 2
REMARK VINA RESULT:     -12.1      1.239      5.767
REMARK SMILES CC(C)[C@H](NC(=O)[C@H](C)NC(=O)CNC(=O)OCc1ccccc1)C(=O)NCCCNC(=O)c1ccc(-c2c3nc(c(-c4ccccc4)c4ccc([nH]4)c(-c4ccccc4)c4nc(c(-c5ccccc5)c5ccc2[nH]5)C=C4)C=C3)cc1
REMARK SMILES IDX 4 1 2 2 1 3 3 4 25 5 26 6 27 7 28 9 29 10 30 11 31 12 32 13
REMARK SMILES IDX 33 15 34 16 35 17 81 18 36 19 80 20 37 21 38 22 39 23 74 24
REMARK SMILES IDX 40 25 79 26 73 27 75 28 41 29 78 30 72 31 71 32 42 34 64 35
REMARK SMILES IDX 49 36 63 37 50 38 53 39 62 40 76 41 51 42 52 43 61 45 77 46
REMARK SMILES IDX 54 47 43 48 44 49 48 50 45 51 47 52 46 53 65 54 66 55 70 56
REMARK SMILES IDX 67 57 69 58 68 59 55 60 56 61 60 62 57 63 59 64 58 65 5 66
REMARK SMILES IDX 6 67 7 69 8 70 9 71 10 72 11 73 12 75 13 76 14 77 15 78
REMARK SMILES IDX 16 80 17 81 18 82 19 83 20 84 24 85 21 86 23 87 22 88
REMARK H PARENT 27 8 31 14 75 33 53 44 5 68 10 74 14 79
REMARK Flexibility Score: inf
ROOT
ATOM      1  C   UNL A   1      32.392  26.962  23.880  1.00  0.00     0.173 C 
ENDROOT
BRANCH   1   2
ATOM      2  C   UNL A   1      30.883  27.711  23.832  1.00  0.00     0.015 C 
ATOM      3  C   UNL A   1      30.937  29.198  23.303  1.00  0.00     0.010 C 
ATOM      4  C   UNL A   1      29.546  27.234  23.231  1.00  0.00     0.010 C 
ENDBRANCH   1   2
BRANCH   1   5
ATOM      5  C   UNL A   1      33.623  25.905  23.053  1.00  0.00     0.242 C 
ATOM      6  O   UNL A   1      33.567  25.958  21.804  1.00  0.00    -0.273 OA
ATOM      7  N   UNL A   1      34.471  24.770  23.492  1.00  0.00    -0.354 N 
ATOM      8  H   UNL A   1      34.468  24.137  22.739  1.00  0.00     0.163 HD
BRANCH   7   9
ATOM      9  C   UNL A   1      35.444  24.047  24.682  1.00  0.00     0.117 C 
BRANCH   9  10
ATOM     10  C   UNL A   1      36.646  23.058  24.596  1.00  0.00     0.042 C 
BRANCH  10  11
ATOM     11  C   UNL A   1      37.405  23.072  25.912  1.00  0.00     0.118 C 
BRANCH  11  12
ATOM     12  N   UNL A   1      38.491  22.113  25.967  1.00  0.00    -0.352 N 
ATOM     13  C   UNL A   1      39.789  22.385  26.342  1.00  0.00     0.251 C 
ATOM     14  H   UNL A   1      38.284  21.186  25.712  1.00  0.00     0.163 HD
ATOM     15  O   UNL A   1      40.684  21.564  26.188  1.00  0.00    -0.269 OA
BRANCH  13  16
ATOM     16  C   UNL A   1      40.072  23.724  26.901  1.00  0.00     0.039 A 
ATOM     17  C   UNL A   1      40.565  23.838  28.200  1.00  0.00     0.014 A 
ATOM     18  C   UNL A   1      39.955  24.851  26.082  1.00  0.00     0.014 A 
ATOM     19  C   UNL A   1      40.965  25.091  28.665  1.00  0.00     0.010 A 
ATOM     20  C   UNL A   1      40.498  26.056  26.490  1.00  0.00     0.010 A 
ATOM     21  C   UNL A   1      40.953  26.204  27.806  1.00  0.00    -0.014 A 
BRANCH  21  22
ATOM     22  C   UNL A   1      41.310  27.558  28.287  1.00  0.00     0.031 A 
ATOM     23  C   UNL A   1      42.758  27.979  28.276  1.00  0.00     0.074 A 
ATOM     24  C   UNL A   1      40.357  28.385  28.755  1.00  0.00     0.049 A 
ATOM     25  N   UNL A   1      43.294  29.105  28.672  1.00  0.00    -0.248 NA
ATOM     26  C   UNL A   1      43.742  26.992  27.795  1.00  0.00     0.031 C 
ATOM     27  C   UNL A   1      38.931  28.068  28.861  1.00  0.00     0.029 A 
ATOM     28  N   UNL A   1      40.447  29.671  29.221  1.00  0.00    -0.354 N 
ATOM     29  C   UNL A   1      44.664  28.944  28.507  1.00  0.00     0.074 A 
ATOM     30  C   UNL A   1      44.889  27.592  28.060  1.00  0.00     0.031 C 
ATOM     31  C   UNL A   1      38.273  29.149  29.310  1.00  0.00     0.029 A 
ATOM     32  C   UNL A   1      39.233  30.218  29.565  1.00  0.00     0.049 A 
ATOM     33  H   UNL A   1      41.299  30.157  29.302  1.00  0.00     0.167 HD
ATOM     34  C   UNL A   1      45.651  29.854  28.673  1.00  0.00     0.031 A 
ATOM     35  C   UNL A   1      38.936  31.445  30.029  1.00  0.00     0.031 A 
ATOM     36  C   UNL A   1      45.420  31.207  29.090  1.00  0.00     0.049 A 
ATOM     37  C   UNL A   1      40.051  32.438  30.214  1.00  0.00     0.074 A 
ATOM     38  C   UNL A   1      46.335  32.233  29.235  1.00  0.00     0.029 A 
ATOM     39  N   UNL A   1      44.177  31.720  29.427  1.00  0.00    -0.354 N 
ATOM     40  N   UNL A   1      41.334  32.296  29.979  1.00  0.00    -0.248 NA
ATOM     41  C   UNL A   1      39.674  33.767  30.715  1.00  0.00     0.031 C 
ATOM     42  C   UNL A   1      45.653  33.353  29.720  1.00  0.00     0.029 A 
ATOM     43  C   UNL A   1      44.304  33.044  29.809  1.00  0.00     0.049 A 
ATOM     44  H   UNL A   1      43.330  31.219  29.399  1.00  0.00     0.167 HD
ATOM     45  C   UNL A   1      41.913  33.524  30.275  1.00  0.00     0.074 A 
ATOM     46  C   UNL A   1      40.836  34.403  30.686  1.00  0.00     0.031 C 
ATOM     47  C   UNL A   1      43.215  33.894  30.213  1.00  0.00     0.031 A 
BRANCH  34  48
ATOM     48  C   UNL A   1      47.061  29.405  28.402  1.00  0.00    -0.014 A 
ATOM     49  C   UNL A   1      47.646  29.552  27.131  1.00  0.00     0.009 A 
ATOM     50  C   UNL A   1      47.823  28.839  29.434  1.00  0.00     0.009 A 
ATOM     51  C   UNL A   1      48.945  29.101  26.892  1.00  0.00     0.001 A 
ATOM     52  C   UNL A   1      49.135  28.422  29.202  1.00  0.00     0.001 A 
ATOM     53  C   UNL A   1      49.690  28.543  27.929  1.00  0.00     0.000 A 
ENDBRANCH  34  48
BRANCH  35  54
ATOM     54  C   UNL A   1      37.526  31.811  30.330  1.00  0.00    -0.014 A 
ATOM     55  C   UNL A   1      36.987  31.592  31.607  1.00  0.00     0.009 A 
ATOM     56  C   UNL A   1      36.708  32.375  29.338  1.00  0.00     0.009 A 
ATOM     57  C   UNL A   1      35.649  31.898  31.874  1.00  0.00     0.001 A 
ATOM     58  C   UNL A   1      35.381  32.711  29.618  1.00  0.00     0.001 A 
ATOM     59  C   UNL A   1      34.850  32.461  30.881  1.00  0.00     0.000 A 
ENDBRANCH  35  54
BRANCH  47  60
ATOM     60  C   UNL A   1      43.541  35.319  30.562  1.00  0.00    -0.014 A 
ATOM     61  C   UNL A   1      43.535  36.329  29.589  1.00  0.00     0.009 A 
ATOM     62  C   UNL A   1      43.807  35.659  31.898  1.00  0.00     0.009 A 
ATOM     63  C   UNL A   1      43.826  37.648  29.941  1.00  0.00     0.001 A 
ATOM     64  C   UNL A   1      44.062  36.983  32.253  1.00  0.00     0.001 A 
ATOM     65  C   UNL A   1      44.082  37.975  31.274  1.00  0.00     0.000 A 
ENDBRANCH  47  60
ENDBRANCH  21  22
ENDBRANCH  13  16
ENDBRANCH  11  12
ENDBRANCH  10  11
ENDBRANCH   9  10
ENDBRANCH   7   9
ENDBRANCH   1   5
BRANCH   1  66
ATOM     66  N   UNL A   1      33.252  28.005  24.429  1.00  0.00    -0.342 N 
ATOM     67  C   UNL A   1      33.580  27.898  25.758  1.00  0.00     0.242 C 
ATOM     68  H   UNL A   1      33.582  28.749  23.874  1.00  0.00     0.164 HD
ATOM     69  O   UNL A   1      34.507  28.534  26.262  1.00  0.00    -0.273 OA
BRANCH  67  70
ATOM     70  C   UNL A   1      32.469  27.197  26.530  1.00  0.00     0.168 C 
ATOM     71  C   UNL A   1      31.532  28.209  27.237  1.00  0.00     0.041 C 
BRANCH  70  72
ATOM     72  N   UNL A   1      32.582  25.464  26.836  1.00  0.00    -0.343 N 
ATOM     73  C   UNL A   1      32.204  24.067  26.395  1.00  0.00     0.240 C 
ATOM     74  H   UNL A   1      33.130  25.360  27.648  1.00  0.00     0.164 HD
ATOM     75  O   UNL A   1      32.641  23.179  27.159  1.00  0.00    -0.273 OA
BRANCH  73  76
ATOM     76  C   UNL A   1      31.083  23.389  25.117  1.00  0.00     0.219 C 
BRANCH  76  77
ATOM     77  N   UNL A   1      31.466  22.949  23.690  1.00  0.00    -0.312 N 
ATOM     78  C   UNL A   1      32.467  22.144  23.152  1.00  0.00     0.407 C 
ATOM     79  H   UNL A   1      30.866  23.322  23.004  1.00  0.00     0.167 HD
ATOM     80  O   UNL A   1      32.864  22.381  22.013  1.00  0.00    -0.225 OA
BRANCH  78  81
ATOM     81  O   UNL A   1      33.056  21.232  23.972  1.00  0.00    -0.445 OA
BRANCH  81  82
ATOM     82  C   UNL A   1      32.303  20.040  24.397  1.00  0.00     0.270 C 
BRANCH  82  83
ATOM     83  C   UNL A   1      33.002  18.712  24.583  1.00  0.00    -0.011 A 
ATOM     84  C   UNL A   1      32.286  17.613  25.108  1.00  0.00     0.007 A 
ATOM     85  C   UNL A   1      34.358  18.547  24.308  1.00  0.00     0.007 A 
ATOM     86  C   UNL A   1      32.931  16.402  25.384  1.00  0.00     0.000 A 
ATOM     87  C   UNL A   1      35.004  17.345  24.601  1.00  0.00     0.000 A 
ATOM     88  C   UNL A   1      34.295  16.276  25.143  1.00  0.00     0.000 A 
ENDBRANCH  82  83
ENDBRANCH  81  82
ENDBRANCH  78  81
ENDBRANCH  76  77
ENDBRANCH  73  76
ENDBRANCH  70  72
ENDBRANCH  67  70
ENDBRANCH   1  66
TORSDOF 19
ENDMDL
MODEL 3
REMARK VINA RESULT:     -12.0      1.142      2.121
REMARK SMILES CC(C)[C@H](NC(=O)[C@H](C)NC(=O)CNC(=O)OCc1ccccc1)C(=O)NCCCNC(=O)c1ccc(-c2c3nc(c(-c4ccccc4)c4ccc([nH]4)c(-c4ccccc4)c4nc(c(-c5ccccc5)c5ccc2[nH]5)C=C4)C=C3)cc1
REMARK SMILES IDX 4 1 2 2 1 3 3 4 25 5 26 6 27 7 28 9 29 10 30 11 31 12 32 13
REMARK SMILES IDX 33 15 34 16 35 17 81 18 36 19 80 20 37 21 38 22 39 23 74 24
REMARK SMILES IDX 40 25 79 26 73 27 75 28 41 29 78 30 72 31 71 32 42 34 64 35
REMARK SMILES IDX 49 36 63 37 50 38 53 39 62 40 76 41 51 42 52 43 61 45 77 46
REMARK SMILES IDX 54 47 43 48 44 49 48 50 45 51 47 52 46 53 65 54 66 55 70 56
REMARK SMILES IDX 67 57 69 58 68 59 55 60 56 61 60 62 57 63 59 64 58 65 5 66
REMARK SMILES IDX 6 67 7 69 8 70 9 71 10 72 11 73 12 75 13 76 14 77 15 78
REMARK SMILES IDX 16 80 17 81 18 82 19 83 20 84 24 85 21 86 23 87 22 88
REMARK H PARENT 27 8 31 14 75 33 53 44 5 68 10 74 14 79
REMARK Flexibility Score: inf
ROOT
ATOM      1  C   UNL A   1      32.372  28.129  25.387  1.00  0.00     0.173 C 
ENDROOT
BRANCH   1   2
ATOM      2  C   UNL A   1      32.023  29.491  26.317  1.00  0.00     0.015 C 
ATOM      3  C   UNL A   1      33.259  30.015  27.150  1.00  0.00     0.010 C 
ATOM      4  C   UNL A   1      31.344  30.820  25.931  1.00  0.00     0.010 C 
ENDBRANCH   1   2
BRANCH   1   5
ATOM      5  C   UNL A   1      33.612  26.933  24.796  1.00  0.00     0.242 C 
ATOM      6  O   UNL A   1      34.197  27.297  23.752  1.00  0.00    -0.273 OA
ATOM      7  N   UNL A   1      33.882  25.502  25.077  1.00  0.00    -0.354 N 
ATOM      8  H   UNL A   1      34.129  25.109  24.210  1.00  0.00     0.163 HD
BRANCH   7   9
ATOM      9  C   UNL A   1      33.966  24.222  26.190  1.00  0.00     0.117 C 
BRANCH   9  10
ATOM     10  C   UNL A   1      35.058  23.145  26.470  1.00  0.00     0.042 C 
BRANCH  10  11
ATOM     11  C   UNL A   1      36.416  23.687  26.059  1.00  0.00     0.118 C 
BRANCH  11  12
ATOM     12  N   UNL A   1      37.461  22.682  26.039  1.00  0.00    -0.352 N 
ATOM     13  C   UNL A   1      38.790  22.893  26.339  1.00  0.00     0.251 C 
ATOM     14  H   UNL A   1      37.199  21.767  25.788  1.00  0.00     0.163 HD
ATOM     15  O   UNL A   1      39.638  22.036  26.124  1.00  0.00    -0.269 OA
BRANCH  13  16
ATOM     16  C   UNL A   1      39.164  24.212  26.893  1.00  0.00     0.039 A 
ATOM     17  C   UNL A   1      38.952  24.477  28.246  1.00  0.00     0.014 A 
ATOM     18  C   UNL A   1      39.832  25.135  26.083  1.00  0.00     0.014 A 
ATOM     19  C   UNL A   1      39.440  25.666  28.787  1.00  0.00     0.010 A 
ATOM     20  C   UNL A   1      40.448  26.233  26.656  1.00  0.00     0.010 A 
ATOM     21  C   UNL A   1      40.208  26.541  28.001  1.00  0.00    -0.014 A 
BRANCH  21  22
ATOM     22  C   UNL A   1      40.686  27.840  28.528  1.00  0.00     0.031 A 
ATOM     23  C   UNL A   1      39.690  28.951  28.748  1.00  0.00     0.074 A 
ATOM     24  C   UNL A   1      41.995  28.032  28.774  1.00  0.00     0.049 A 
ATOM     25  N   UNL A   1      39.893  30.169  29.177  1.00  0.00    -0.248 NA
ATOM     26  C   UNL A   1      38.284  28.671  28.403  1.00  0.00     0.031 C 
ATOM     27  C   UNL A   1      43.057  27.048  28.550  1.00  0.00     0.029 A 
ATOM     28  N   UNL A   1      42.654  29.123  29.278  1.00  0.00    -0.354 N 
ATOM     29  C   UNL A   1      38.653  30.794  29.129  1.00  0.00     0.074 A 
ATOM     30  C   UNL A   1      37.721  29.857  28.552  1.00  0.00     0.031 C 
ATOM     31  C   UNL A   1      44.226  27.562  28.967  1.00  0.00     0.029 A 
ATOM     32  C   UNL A   1      44.004  28.923  29.443  1.00  0.00     0.049 A 
ATOM     33  H   UNL A   1      42.204  29.970  29.501  1.00  0.00     0.167 HD
ATOM     34  C   UNL A   1      38.306  32.027  29.564  1.00  0.00     0.031 A 
ATOM     35  C   UNL A   1      44.950  29.747  29.928  1.00  0.00     0.031 A 
ATOM     36  C   UNL A   1      39.231  32.944  30.165  1.00  0.00     0.049 A 
ATOM     37  C   UNL A   1      44.542  31.117  30.399  1.00  0.00     0.074 A 
ATOM     38  C   UNL A   1      38.981  34.196  30.697  1.00  0.00     0.029 A 
ATOM     39  N   UNL A   1      40.588  32.703  30.314  1.00  0.00    -0.354 N 
ATOM     40  N   UNL A   1      43.350  31.666  30.419  1.00  0.00    -0.248 NA
ATOM     41  C   UNL A   1      45.610  31.977  30.927  1.00  0.00     0.031 C 
ATOM     42  C   UNL A   1      40.201  34.738  31.113  1.00  0.00     0.029 A 
ATOM     43  C   UNL A   1      41.197  33.795  30.904  1.00  0.00     0.049 A 
ATOM     44  H   UNL A   1      41.049  31.877  30.040  1.00  0.00     0.167 HD
ATOM     45  C   UNL A   1      43.520  32.922  30.989  1.00  0.00     0.074 A 
ATOM     46  C   UNL A   1      44.926  33.043  31.317  1.00  0.00     0.031 C 
ATOM     47  C   UNL A   1      42.599  33.888  31.220  1.00  0.00     0.031 A 
BRANCH  34  48
ATOM     48  C   UNL A   1      36.869  32.441  29.402  1.00  0.00    -0.014 A 
ATOM     49  C   UNL A   1      35.958  32.363  30.470  1.00  0.00     0.009 A 
ATOM     50  C   UNL A   1      36.421  32.930  28.166  1.00  0.00     0.009 A 
ATOM     51  C   UNL A   1      34.621  32.724  30.291  1.00  0.00     0.001 A 
ATOM     52  C   UNL A   1      35.091  33.324  27.999  1.00  0.00     0.001 A 
ATOM     53  C   UNL A   1      34.191  33.210  29.057  1.00  0.00     0.000 A 
ENDBRANCH  34  48
BRANCH  35  54
ATOM     54  C   UNL A   1      46.365  29.298  30.014  1.00  0.00    -0.014 A 
ATOM     55  C   UNL A   1      47.268  29.576  28.975  1.00  0.00     0.009 A 
ATOM     56  C   UNL A   1      46.819  28.579  31.130  1.00  0.00     0.009 A 
ATOM     57  C   UNL A   1      48.586  29.114  29.040  1.00  0.00     0.001 A 
ATOM     58  C   UNL A   1      48.146  28.149  31.208  1.00  0.00     0.001 A 
ATOM     59  C   UNL A   1      49.024  28.406  30.157  1.00  0.00     0.000 A 
ENDBRANCH  35  54
BRANCH  47  60
ATOM     60  C   UNL A   1      43.075  35.144  31.893  1.00  0.00    -0.014 A 
ATOM     61  C   UNL A   1      43.002  35.300  33.285  1.00  0.00     0.009 A 
ATOM     62  C   UNL A   1      43.655  36.163  31.121  1.00  0.00     0.009 A 
ATOM     63  C   UNL A   1      43.466  36.471  33.888  1.00  0.00     0.001 A 
ATOM     64  C   UNL A   1      44.151  37.316  31.729  1.00  0.00     0.001 A 
ATOM     65  C   UNL A   1      44.046  37.474  33.110  1.00  0.00     0.000 A 
ENDBRANCH  47  60
ENDBRANCH  21  22
ENDBRANCH  13  16
ENDBRANCH  11  12
ENDBRANCH  10  11
ENDBRANCH   9  10
ENDBRANCH   7   9
ENDBRANCH   1   5
BRANCH   1  66
ATOM     66  N   UNL A   1      31.257  27.237  25.690  1.00  0.00    -0.342 N 
ATOM     67  C   UNL A   1      30.691  26.574  24.630  1.00  0.00     0.242 C 
ATOM     68  H   UNL A   1      30.925  27.118  26.611  1.00  0.00     0.164 HD
ATOM     69  O   UNL A   1      29.953  25.599  24.780  1.00  0.00    -0.273 OA
BRANCH  67  70
ATOM     70  C   UNL A   1      30.821  27.393  23.353  1.00  0.00     0.168 C 
ATOM     71  C   UNL A   1      29.796  28.555  23.307  1.00  0.00     0.041 C 
BRANCH  70  72
ATOM     72  N   UNL A   1      31.768  26.761  22.006  1.00  0.00    -0.343 N 
ATOM     73  C   UNL A   1      32.539  25.595  21.428  1.00  0.00     0.240 C 
ATOM     74  H   UNL A   1      31.818  27.484  21.338  1.00  0.00     0.164 HD
ATOM     75  O   UNL A   1      33.043  25.846  20.313  1.00  0.00    -0.273 OA
BRANCH  73  76
ATOM     76  C   UNL A   1      33.072  23.969  22.079  1.00  0.00     0.219 C 
BRANCH  76  77
ATOM     77  N   UNL A   1      32.242  22.671  22.120  1.00  0.00    -0.312 N 
ATOM     78  C   UNL A   1      32.382  21.441  22.760  1.00  0.00     0.407 C 
ATOM     79  H   UNL A   1      31.428  22.723  21.569  1.00  0.00     0.167 HD
ATOM     80  O   UNL A   1      31.903  20.443  22.228  1.00  0.00    -0.225 OA
BRANCH  78  81
ATOM     81  O   UNL A   1      33.172  21.390  23.867  1.00  0.00    -0.445 OA
BRANCH  81  82
ATOM     82  C   UNL A   1      32.792  20.523  24.994  1.00  0.00     0.270 C 
BRANCH  82  83
ATOM     83  C   UNL A   1      33.253  19.084  25.049  1.00  0.00    -0.011 A 
ATOM     84  C   UNL A   1      34.448  18.707  24.395  1.00  0.00     0.007 A 
ATOM     85  C   UNL A   1      32.502  18.091  25.676  1.00  0.00     0.007 A 
ATOM     86  C   UNL A   1      34.846  17.367  24.344  1.00  0.00     0.000 A 
ATOM     87  C   UNL A   1      32.891  16.753  25.609  1.00  0.00     0.000 A 
ATOM     88  C   UNL A   1      34.057  16.388  24.940  1.00  0.00     0.000 A 
ENDBRANCH  82  83
ENDBRANCH  81  82
ENDBRANCH  78  81
ENDBRANCH  76  77
ENDBRANCH  73  76
ENDBRANCH  70  72
ENDBRANCH  67  70
ENDBRANCH   1  66
TORSDOF 19
ENDMDL
