MODEL 1
REMARK VINA RESULT:     -11.9      0.000      0.000
REMARK SMILES Cc1cc(=O)cc(C)n1-c1ccc(Cl)cc1C(=O)NCCCNC(=O)c1ccc(-c2c3nc(c(-c4ccccc4)c4ccc([nH]4)c(-c4ccccc4)c4nc(c(-c5ccccc5)c5ccc2[nH]5)C=C4)C=C3)cc1
REMARK SMILES IDX 21 1 20 2 19 3 17 4 18 5 16 7 10 8 11 9 12 10 15 11 13 12
REMARK SMILES IDX 14 13 9 14 1 15 2 16 3 17 4 18 7 19 5 20 6 21 8 22 22 23
REMARK SMILES IDX 23 24 24 25 25 27 26 28 27 29 73 30 28 31 72 32 29 33 30 34
REMARK SMILES IDX 31 35 66 36 32 37 71 38 65 39 67 40 33 41 70 42 64 43 63 44
REMARK SMILES IDX 34 46 56 47 41 48 55 49 42 50 45 51 54 52 68 53 43 54 44 55
REMARK SMILES IDX 53 57 69 58 46 59 35 60 36 61 40 62 37 63 39 64 38 65 57 66
REMARK SMILES IDX 58 67 62 68 59 69 61 70 60 71 47 72 48 73 52 74 49 75 51 76
REMARK SMILES IDX 50 77
REMARK H PARENT 19 6 23 26 67 45 45 56
REMARK Flexibility Score: inf
ROOT
ATOM      1  C   UNL A   1      37.657  19.701  25.002  1.00  0.00     0.042 C 
ENDROOT
BRANCH   1   2
ATOM      2  C   UNL A   1      36.539  20.707  24.913  1.00  0.00     0.118 C 
BRANCH   2   3
ATOM      3  N   UNL A   1      35.722  20.949  26.059  1.00  0.00    -0.352 N 
ATOM      4  C   UNL A   1      34.352  21.065  26.098  1.00  0.00     0.253 C 
ATOM      5  O   UNL A   1      33.850  21.096  27.226  1.00  0.00    -0.269 OA
ATOM      6  H   UNL A   1      36.194  21.046  26.918  1.00  0.00     0.163 HD
BRANCH   4   7
ATOM      7  C   UNL A   1      33.434  21.234  24.907  1.00  0.00     0.065 A 
ATOM      8  C   UNL A   1      32.827  22.393  24.346  1.00  0.00     0.058 A 
ATOM      9  C   UNL A   1      32.039  22.245  23.169  1.00  0.00     0.029 A 
ATOM     10  C   UNL A   1      31.821  21.007  22.569  1.00  0.00     0.023 A 
ATOM     11  C   UNL A   1      33.205  19.993  24.257  1.00  0.00     0.036 A 
ATOM     12  C   UNL A   1      32.409  19.883  23.117  1.00  0.00     0.041 A 
ATOM     13  Cl  UNL A   1      32.155  18.347  22.387  1.00  0.00    -0.084 Cl
BRANCH   8  14
ATOM     14  N   UNL A   1      32.900  23.738  24.851  1.00  0.00    -0.317 N 
ATOM     15  C   UNL A   1      35.032  24.142  23.527  1.00  0.00     0.065 C 
ATOM     16  C   UNL A   1      33.945  24.616  24.461  1.00  0.00     0.024 A 
ATOM     17  C   UNL A   1      34.027  25.878  24.932  1.00  0.00     0.073 A 
ATOM     18  C   UNL A   1      33.006  26.384  25.870  1.00  0.00     0.182 A 
ATOM     19  C   UNL A   1      31.867  24.234  25.706  1.00  0.00     0.024 A 
ATOM     20  O   UNL A   1      33.079  27.502  26.365  1.00  0.00    -0.290 OA
ATOM     21  C   UNL A   1      31.894  25.482  26.208  1.00  0.00     0.073 A 
ATOM     22  C   UNL A   1      30.762  23.341  26.241  1.00  0.00     0.065 C 
ENDBRANCH   8  14
ENDBRANCH   4   7
ENDBRANCH   2   3
ENDBRANCH   1   2
BRANCH   1  23
ATOM     23  C   UNL A   1      38.891  20.186  25.737  1.00  0.00     0.118 C 
BRANCH  23  24
ATOM     24  N   UNL A   1      40.006  19.239  25.765  1.00  0.00    -0.352 N 
ATOM     25  C   UNL A   1      41.351  19.371  26.030  1.00  0.00     0.251 C 
ATOM     26  H   UNL A   1      39.740  18.316  25.551  1.00  0.00     0.163 HD
ATOM     27  O   UNL A   1      42.071  18.375  25.957  1.00  0.00    -0.269 OA
BRANCH  25  28
ATOM     28  C   UNL A   1      41.955  20.676  26.379  1.00  0.00     0.039 A 
ATOM     29  C   UNL A   1      42.238  21.607  25.371  1.00  0.00     0.014 A 
ATOM     30  C   UNL A   1      42.278  20.986  27.695  1.00  0.00     0.014 A 
ATOM     31  C   UNL A   1      42.761  22.864  25.702  1.00  0.00     0.010 A 
ATOM     32  C   UNL A   1      42.639  22.280  28.040  1.00  0.00     0.010 A 
ATOM     33  C   UNL A   1      42.923  23.226  27.047  1.00  0.00    -0.014 A 
BRANCH  33  34
ATOM     34  C   UNL A   1      43.447  24.546  27.479  1.00  0.00     0.031 A 
ATOM     35  C   UNL A   1      42.482  25.611  27.936  1.00  0.00     0.074 A 
ATOM     36  C   UNL A   1      44.756  24.834  27.347  1.00  0.00     0.049 A 
ATOM     37  N   UNL A   1      42.697  26.880  28.172  1.00  0.00    -0.248 NA
ATOM     38  C   UNL A   1      41.075  25.203  28.097  1.00  0.00     0.031 C 
ATOM     39  C   UNL A   1      45.788  23.908  26.878  1.00  0.00     0.029 A 
ATOM     40  N   UNL A   1      45.436  26.003  27.577  1.00  0.00    -0.354 N 
ATOM     41  C   UNL A   1      41.450  27.423  28.460  1.00  0.00     0.074 A 
ATOM     42  C   UNL A   1      40.478  26.366  28.306  1.00  0.00     0.031 C 
ATOM     43  C   UNL A   1      46.974  24.536  26.885  1.00  0.00     0.029 A 
ATOM     44  C   UNL A   1      46.779  25.920  27.304  1.00  0.00     0.049 A 
ATOM     45  H   UNL A   1      45.003  26.823  27.908  1.00  0.00     0.167 HD
ATOM     46  C   UNL A   1      41.141  28.683  28.846  1.00  0.00     0.031 A 
ATOM     47  C   UNL A   1      47.744  26.856  27.371  1.00  0.00     0.031 A 
ATOM     48  C   UNL A   1      42.116  29.723  29.036  1.00  0.00     0.049 A 
ATOM     49  C   UNL A   1      47.387  28.246  27.815  1.00  0.00     0.074 A 
ATOM     50  C   UNL A   1      41.923  31.011  29.500  1.00  0.00     0.029 A 
ATOM     51  N   UNL A   1      43.472  29.588  28.774  1.00  0.00    -0.354 N 
ATOM     52  N   UNL A   1      46.213  28.733  28.137  1.00  0.00    -0.248 NA
ATOM     53  C   UNL A   1      48.490  29.210  27.914  1.00  0.00     0.031 C 
ATOM     54  C   UNL A   1      43.153  31.675  29.461  1.00  0.00     0.029 A 
ATOM     55  C   UNL A   1      44.123  30.780  29.038  1.00  0.00     0.049 A 
ATOM     56  H   UNL A   1      43.906  28.766  28.449  1.00  0.00     0.167 HD
ATOM     57  C   UNL A   1      46.436  30.057  28.492  1.00  0.00     0.074 A 
ATOM     58  C   UNL A   1      47.862  30.286  28.369  1.00  0.00     0.031 C 
ATOM     59  C   UNL A   1      45.541  30.998  28.885  1.00  0.00     0.031 A 
BRANCH  46  60
ATOM     60  C   UNL A   1      39.688  29.002  29.081  1.00  0.00    -0.014 A 
ATOM     61  C   UNL A   1      39.096  28.845  30.345  1.00  0.00     0.009 A 
ATOM     62  C   UNL A   1      38.902  29.484  28.023  1.00  0.00     0.009 A 
ATOM     63  C   UNL A   1      37.739  29.117  30.533  1.00  0.00     0.001 A 
ATOM     64  C   UNL A   1      37.553  29.792  28.222  1.00  0.00     0.001 A 
ATOM     65  C   UNL A   1      36.971  29.596  29.473  1.00  0.00     0.000 A 
ENDBRANCH  46  60
BRANCH  47  66
ATOM     66  C   UNL A   1      49.144  26.481  27.040  1.00  0.00    -0.014 A 
ATOM     67  C   UNL A   1      50.003  26.002  28.039  1.00  0.00     0.009 A 
ATOM     68  C   UNL A   1      49.607  26.535  25.715  1.00  0.00     0.009 A 
ATOM     69  C   UNL A   1      51.298  25.585  27.720  1.00  0.00     0.001 A 
ATOM     70  C   UNL A   1      50.893  26.092  25.394  1.00  0.00     0.001 A 
ATOM     71  C   UNL A   1      51.738  25.619  26.398  1.00  0.00     0.000 A 
ENDBRANCH  47  66
BRANCH  59  72
ATOM     72  C   UNL A   1      46.079  32.363  29.214  1.00  0.00    -0.014 A 
ATOM     73  C   UNL A   1      46.219  33.347  28.223  1.00  0.00     0.009 A 
ATOM     74  C   UNL A   1      46.402  32.684  30.542  1.00  0.00     0.009 A 
ATOM     75  C   UNL A   1      46.709  34.613  28.551  1.00  0.00     0.001 A 
ATOM     76  C   UNL A   1      46.858  33.961  30.872  1.00  0.00     0.001 A 
ATOM     77  C   UNL A   1      47.021  34.921  29.875  1.00  0.00     0.000 A 
ENDBRANCH  59  72
ENDBRANCH  33  34
ENDBRANCH  25  28
ENDBRANCH  23  24
ENDBRANCH   1  23
TORSDOF 11
ENDMDL
MODEL 2
REMARK VINA RESULT:     -11.8      4.930      9.774
REMARK SMILES Cc1cc(=O)cc(C)n1-c1ccc(Cl)cc1C(=O)NCCCNC(=O)c1ccc(-c2c3nc(c(-c4ccccc4)c4ccc([nH]4)c(-c4ccccc4)c4nc(c(-c5ccccc5)c5ccc2[nH]5)C=C4)C=C3)cc1
REMARK SMILES IDX 21 1 20 2 19 3 17 4 18 5 16 7 10 8 11 9 12 10 15 11 13 12
REMARK SMILES IDX 14 13 9 14 1 15 2 16 3 17 4 18 7 19 5 20 6 21 8 22 22 23
REMARK SMILES IDX 23 24 24 25 25 27 26 28 27 29 73 30 28 31 72 32 29 33 30 34
REMARK SMILES IDX 31 35 66 36 32 37 71 38 65 39 67 40 33 41 70 42 64 43 63 44
REMARK SMILES IDX 34 46 56 47 41 48 55 49 42 50 45 51 54 52 68 53 43 54 44 55
REMARK SMILES IDX 53 57 69 58 46 59 35 60 36 61 40 62 37 63 39 64 38 65 57 66
REMARK SMILES IDX 58 67 62 68 59 69 61 70 60 71 47 72 48 73 52 74 49 75 51 76
REMARK SMILES IDX 50 77
REMARK H PARENT 19 6 23 26 67 45 45 56
REMARK Flexibility Score: inf
ROOT
ATOM      1  C   UNL A   1      31.426  31.542  26.510  1.00  0.00     0.042 C 
ENDROOT
BRANCH   1   2
ATOM      2  C   UNL A   1      31.672  30.136  26.028  1.00  0.00     0.118 C 
BRANCH   2   3
ATOM      3  N   UNL A   1      32.473  29.924  24.866  1.00  0.00    -0.352 N 
ATOM      4  C   UNL A   1      32.186  29.116  23.790  1.00  0.00     0.253 C 
ATOM      5  O   UNL A   1      32.942  29.228  22.820  1.00  0.00    -0.269 OA
ATOM      6  H   UNL A   1      33.329  30.410  24.830  1.00  0.00     0.163 HD
BRANCH   4   7
ATOM      7  C   UNL A   1      31.096  28.069  23.724  1.00  0.00     0.065 A 
ATOM      8  C   UNL A   1      31.137  26.657  23.905  1.00  0.00     0.058 A 
ATOM      9  C   UNL A   1      29.917  25.927  23.832  1.00  0.00     0.029 A 
ATOM     10  C   UNL A   1      28.696  26.540  23.563  1.00  0.00     0.023 A 
ATOM     11  C   UNL A   1      29.830  28.661  23.470  1.00  0.00     0.036 A 
ATOM     12  C   UNL A   1      28.659  27.910  23.384  1.00  0.00     0.041 A 
ATOM     13  Cl  UNL A   1      27.159  28.686  23.056  1.00  0.00    -0.084 Cl
BRANCH   8  14
ATOM     14  N   UNL A   1      32.304  25.849  24.143  1.00  0.00    -0.317 N 
ATOM     15  C   UNL A   1      32.560  25.446  21.646  1.00  0.00     0.065 C 
ATOM     16  C   UNL A   1      33.025  25.263  23.071  1.00  0.00     0.024 A 
ATOM     17  C   UNL A   1      34.117  24.499  23.282  1.00  0.00     0.073 A 
ATOM     18  C   UNL A   1      34.600  24.264  24.657  1.00  0.00     0.182 A 
ATOM     19  C   UNL A   1      32.795  25.687  25.475  1.00  0.00     0.024 A 
ATOM     20  O   UNL A   1      35.551  23.529  24.893  1.00  0.00    -0.290 OA
ATOM     21  C   UNL A   1      33.879  24.936  25.749  1.00  0.00     0.073 A 
ATOM     22  C   UNL A   1      32.040  26.204  26.686  1.00  0.00     0.065 C 
ENDBRANCH   8  14
ENDBRANCH   4   7
ENDBRANCH   2   3
ENDBRANCH   1   2
BRANCH   1  23
ATOM     23  C   UNL A   1      32.675  32.308  26.903  1.00  0.00     0.118 C 
BRANCH  23  24
ATOM     24  N   UNL A   1      32.433  33.611  27.522  1.00  0.00    -0.352 N 
ATOM     25  C   UNL A   1      33.115  34.352  28.461  1.00  0.00     0.251 C 
ATOM     26  H   UNL A   1      31.612  34.049  27.201  1.00  0.00     0.163 HD
ATOM     27  O   UNL A   1      32.649  35.435  28.816  1.00  0.00    -0.269 OA
BRANCH  25  28
ATOM     28  C   UNL A   1      34.378  33.874  29.067  1.00  0.00     0.039 A 
ATOM     29  C   UNL A   1      34.341  32.984  30.149  1.00  0.00     0.014 A 
ATOM     30  C   UNL A   1      35.609  34.319  28.600  1.00  0.00     0.014 A 
ATOM     31  C   UNL A   1      35.534  32.489  30.692  1.00  0.00     0.010 A 
ATOM     32  C   UNL A   1      36.780  33.710  29.025  1.00  0.00     0.010 A 
ATOM     33  C   UNL A   1      36.763  32.815  30.101  1.00  0.00    -0.014 A 
BRANCH  33  34
ATOM     34  C   UNL A   1      38.067  32.311  30.602  1.00  0.00     0.031 A 
ATOM     35  C   UNL A   1      38.664  31.068  29.991  1.00  0.00     0.074 A 
ATOM     36  C   UNL A   1      38.651  32.882  31.673  1.00  0.00     0.049 A 
ATOM     37  N   UNL A   1      39.681  30.351  30.394  1.00  0.00    -0.248 NA
ATOM     38  C   UNL A   1      37.990  30.531  28.796  1.00  0.00     0.031 C 
ATOM     39  C   UNL A   1      38.156  34.063  32.382  1.00  0.00     0.029 A 
ATOM     40  N   UNL A   1      39.782  32.527  32.363  1.00  0.00    -0.354 N 
ATOM     41  C   UNL A   1      39.736  29.261  29.532  1.00  0.00     0.074 A 
ATOM     42  C   UNL A   1      38.614  29.375  28.630  1.00  0.00     0.031 C 
ATOM     43  C   UNL A   1      38.996  34.352  33.389  1.00  0.00     0.029 A 
ATOM     44  C   UNL A   1      40.055  33.348  33.430  1.00  0.00     0.049 A 
ATOM     45  H   UNL A   1      40.345  31.758  32.117  1.00  0.00     0.167 HD
ATOM     46  C   UNL A   1      40.652  28.267  29.477  1.00  0.00     0.031 A 
ATOM     47  C   UNL A   1      41.040  33.293  34.345  1.00  0.00     0.031 A 
ATOM     48  C   UNL A   1      41.789  28.178  30.353  1.00  0.00     0.049 A 
ATOM     49  C   UNL A   1      42.057  32.191  34.261  1.00  0.00     0.074 A 
ATOM     50  C   UNL A   1      42.822  27.259  30.333  1.00  0.00     0.029 A 
ATOM     51  N   UNL A   1      42.043  29.048  31.403  1.00  0.00    -0.354 N 
ATOM     52  N   UNL A   1      42.129  31.197  33.409  1.00  0.00    -0.248 NA
ATOM     53  C   UNL A   1      43.135  32.211  35.259  1.00  0.00     0.031 C 
ATOM     54  C   UNL A   1      43.669  27.535  31.412  1.00  0.00     0.029 A 
ATOM     55  C   UNL A   1      43.201  28.668  32.060  1.00  0.00     0.049 A 
ATOM     56  H   UNL A   1      41.484  29.821  31.645  1.00  0.00     0.167 HD
ATOM     57  C   UNL A   1      43.266  30.480  33.757  1.00  0.00     0.074 A 
ATOM     58  C   UNL A   1      43.865  31.170  34.882  1.00  0.00     0.031 C 
ATOM     59  C   UNL A   1      43.769  29.353  33.195  1.00  0.00     0.031 A 
BRANCH  46  60
ATOM     60  C   UNL A   1      40.454  27.195  28.438  1.00  0.00    -0.014 A 
ATOM     61  C   UNL A   1      39.692  26.046  28.704  1.00  0.00     0.009 A 
ATOM     62  C   UNL A   1      41.025  27.346  27.164  1.00  0.00     0.009 A 
ATOM     63  C   UNL A   1      39.547  25.050  27.736  1.00  0.00     0.001 A 
ATOM     64  C   UNL A   1      40.846  26.366  26.184  1.00  0.00     0.001 A 
ATOM     65  C   UNL A   1      40.118  25.214  26.475  1.00  0.00     0.000 A 
ENDBRANCH  46  60
BRANCH  47  66
ATOM     66  C   UNL A   1      41.117  34.344  35.394  1.00  0.00    -0.014 A 
ATOM     67  C   UNL A   1      41.833  35.526  35.160  1.00  0.00     0.009 A 
ATOM     68  C   UNL A   1      40.419  34.202  36.605  1.00  0.00     0.009 A 
ATOM     69  C   UNL A   1      41.853  36.545  36.115  1.00  0.00     0.001 A 
ATOM     70  C   UNL A   1      40.417  35.234  37.547  1.00  0.00     0.001 A 
ATOM     71  C   UNL A   1      41.136  36.403  37.302  1.00  0.00     0.000 A 
ENDBRANCH  47  66
BRANCH  59  72
ATOM     72  C   UNL A   1      45.034  28.795  33.787  1.00  0.00    -0.014 A 
ATOM     73  C   UNL A   1      44.996  27.809  34.785  1.00  0.00     0.009 A 
ATOM     74  C   UNL A   1      46.280  29.226  33.304  1.00  0.00     0.009 A 
ATOM     75  C   UNL A   1      46.182  27.295  35.314  1.00  0.00     0.001 A 
ATOM     76  C   UNL A   1      47.462  28.685  33.810  1.00  0.00     0.001 A 
ATOM     77  C   UNL A   1      47.412  27.728  34.822  1.00  0.00     0.000 A 
ENDBRANCH  59  72
ENDBRANCH  33  34
ENDBRANCH  25  28
ENDBRANCH  23  24
ENDBRANCH   1  23
TORSDOF 11
ENDMDL
MODEL 3
REMARK VINA RESULT:     -11.7      5.392     10.354
REMARK SMILES Cc1cc(=O)cc(C)n1-c1ccc(Cl)cc1C(=O)NCCCNC(=O)c1ccc(-c2c3nc(c(-c4ccccc4)c4ccc([nH]4)c(-c4ccccc4)c4nc(c(-c5ccccc5)c5ccc2[nH]5)C=C4)C=C3)cc1
REMARK SMILES IDX 21 1 20 2 19 3 17 4 18 5 16 7 10 8 11 9 12 10 15 11 13 12
REMARK SMILES IDX 14 13 9 14 1 15 2 16 3 17 4 18 7 19 5 20 6 21 8 22 22 23
REMARK SMILES IDX 23 24 24 25 25 27 26 28 27 29 73 30 28 31 72 32 29 33 30 34
REMARK SMILES IDX 31 35 66 36 32 37 71 38 65 39 67 40 33 41 70 42 64 43 63 44
REMARK SMILES IDX 34 46 56 47 41 48 55 49 42 50 45 51 54 52 68 53 43 54 44 55
REMARK SMILES IDX 53 57 69 58 46 59 35 60 36 61 40 62 37 63 39 64 38 65 57 66
REMARK SMILES IDX 58 67 62 68 59 69 61 70 60 71 47 72 48 73 52 74 49 75 51 76
REMARK SMILES IDX 50 77
REMARK H PARENT 19 6 23 26 67 45 45 56
REMARK Flexibility Score: inf
ROOT
ATOM      1  C   UNL A   1      31.418  31.537  26.759  1.00  0.00     0.042 C 
ENDROOT
BRANCH   1   2
ATOM      2  C   UNL A   1      31.882  30.120  26.548  1.00  0.00     0.118 C 
BRANCH   2   3
ATOM      3  N   UNL A   1      32.743  29.822  25.448  1.00  0.00    -0.352 N 
ATOM      4  C   UNL A   1      32.381  29.334  24.214  1.00  0.00     0.253 C 
ATOM      5  O   UNL A   1      33.275  29.323  23.361  1.00  0.00    -0.269 OA
ATOM      6  H   UNL A   1      33.704  29.982  25.590  1.00  0.00     0.163 HD
BRANCH   4   7
ATOM      7  C   UNL A   1      31.036  28.750  23.841  1.00  0.00     0.065 A 
ATOM      8  C   UNL A   1      30.573  27.404  23.808  1.00  0.00     0.058 A 
ATOM      9  C   UNL A   1      29.213  27.163  23.459  1.00  0.00     0.029 A 
ATOM     10  C   UNL A   1      28.335  28.190  23.126  1.00  0.00     0.023 A 
ATOM     11  C   UNL A   1      30.106  29.772  23.513  1.00  0.00     0.036 A 
ATOM     12  C   UNL A   1      28.788  29.496  23.156  1.00  0.00     0.041 A 
ATOM     13  Cl  UNL A   1      27.716  30.779  22.751  1.00  0.00    -0.084 Cl
BRANCH   8  14
ATOM     14  N   UNL A   1      31.342  26.218  24.074  1.00  0.00    -0.317 N 
ATOM     15  C   UNL A   1      30.930  26.485  26.569  1.00  0.00     0.065 C 
ATOM     16  C   UNL A   1      31.520  25.737  25.397  1.00  0.00     0.024 A 
ATOM     17  C   UNL A   1      32.244  24.629  25.660  1.00  0.00     0.073 A 
ATOM     18  C   UNL A   1      32.866  23.874  24.555  1.00  0.00     0.182 A 
ATOM     19  C   UNL A   1      31.882  25.463  22.987  1.00  0.00     0.024 A 
ATOM     20  O   UNL A   1      33.579  22.898  24.757  1.00  0.00    -0.290 OA
ATOM     21  C   UNL A   1      32.613  24.350  23.186  1.00  0.00     0.073 A 
ATOM     22  C   UNL A   1      31.814  25.949  21.551  1.00  0.00     0.065 C 
ENDBRANCH   8  14
ENDBRANCH   4   7
ENDBRANCH   2   3
ENDBRANCH   1   2
BRANCH   1  23
ATOM     23  C   UNL A   1      32.493  32.592  26.582  1.00  0.00     0.118 C 
BRANCH  23  24
ATOM     24  N   UNL A   1      32.280  33.825  27.341  1.00  0.00    -0.352 N 
ATOM     25  C   UNL A   1      32.967  34.431  28.369  1.00  0.00     0.251 C 
ATOM     26  H   UNL A   1      31.482  34.325  27.057  1.00  0.00     0.163 HD
ATOM     27  O   UNL A   1      32.529  35.483  28.837  1.00  0.00    -0.269 OA
BRANCH  25  28
ATOM     28  C   UNL A   1      34.199  33.844  28.939  1.00  0.00     0.039 A 
ATOM     29  C   UNL A   1      35.446  34.411  28.640  1.00  0.00     0.014 A 
ATOM     30  C   UNL A   1      34.148  32.713  29.747  1.00  0.00     0.014 A 
ATOM     31  C   UNL A   1      36.611  33.890  29.219  1.00  0.00     0.010 A 
ATOM     32  C   UNL A   1      35.272  32.301  30.446  1.00  0.00     0.010 A 
ATOM     33  C   UNL A   1      36.526  32.858  30.165  1.00  0.00    -0.014 A 
BRANCH  33  34
ATOM     34  C   UNL A   1      37.711  32.271  30.840  1.00  0.00     0.031 A 
ATOM     35  C   UNL A   1      38.469  31.156  30.164  1.00  0.00     0.074 A 
ATOM     36  C   UNL A   1      38.032  32.640  32.094  1.00  0.00     0.049 A 
ATOM     37  N   UNL A   1      39.404  30.377  30.645  1.00  0.00    -0.248 NA
ATOM     38  C   UNL A   1      38.085  30.842  28.776  1.00  0.00     0.031 C 
ATOM     39  C   UNL A   1      37.355  33.676  32.875  1.00  0.00     0.029 A 
ATOM     40  N   UNL A   1      39.003  32.166  32.939  1.00  0.00    -0.354 N 
ATOM     41  C   UNL A   1      39.681  29.458  29.638  1.00  0.00     0.074 A 
ATOM     42  C   UNL A   1      38.773  29.734  28.549  1.00  0.00     0.031 C 
ATOM     43  C   UNL A   1      37.950  33.780  34.074  1.00  0.00     0.029 A 
ATOM     44  C   UNL A   1      39.012  32.783  34.166  1.00  0.00     0.049 A 
ATOM     45  H   UNL A   1      39.634  31.452  32.690  1.00  0.00     0.167 HD
ATOM     46  C   UNL A   1      40.624  28.489  29.609  1.00  0.00     0.031 A 
ATOM     47  C   UNL A   1      39.781  32.563  35.248  1.00  0.00     0.031 A 
ATOM     48  C   UNL A   1      41.551  28.243  30.680  1.00  0.00     0.049 A 
ATOM     49  C   UNL A   1      40.833  31.493  35.194  1.00  0.00     0.074 A 
ATOM     50  C   UNL A   1      42.597  27.340  30.724  1.00  0.00     0.029 A 
ATOM     51  N   UNL A   1      41.544  28.911  31.896  1.00  0.00    -0.354 N 
ATOM     52  N   UNL A   1      41.121  30.667  34.218  1.00  0.00    -0.248 NA
ATOM     53  C   UNL A   1      41.673  31.332  36.389  1.00  0.00     0.031 C 
ATOM     54  C   UNL A   1      43.185  27.418  31.991  1.00  0.00     0.029 A 
ATOM     55  C   UNL A   1      42.549  28.417  32.710  1.00  0.00     0.049 A 
ATOM     56  H   UNL A   1      40.917  29.628  32.143  1.00  0.00     0.167 HD
ATOM     57  C   UNL A   1      42.184  29.897  34.671  1.00  0.00     0.074 A 
ATOM     58  C   UNL A   1      42.504  30.374  36.002  1.00  0.00     0.031 C 
ATOM     59  C   UNL A   1      42.837  28.887  34.043  1.00  0.00     0.031 A 
BRANCH  46  60
ATOM     60  C   UNL A   1      40.691  27.620  28.381  1.00  0.00    -0.014 A 
ATOM     61  C   UNL A   1      41.442  27.996  27.255  1.00  0.00     0.009 A 
ATOM     62  C   UNL A   1      40.003  26.397  28.355  1.00  0.00     0.009 A 
ATOM     63  C   UNL A   1      41.465  27.190  26.115  1.00  0.00     0.001 A 
ATOM     64  C   UNL A   1      40.058  25.574  27.227  1.00  0.00     0.001 A 
ATOM     65  C   UNL A   1      40.779  25.977  26.104  1.00  0.00     0.000 A 
ENDBRANCH  46  60
BRANCH  47  66
ATOM     66  C   UNL A   1      39.595  33.410  36.457  1.00  0.00    -0.014 A 
ATOM     67  C   UNL A   1      40.196  34.674  36.533  1.00  0.00     0.009 A 
ATOM     68  C   UNL A   1      38.761  32.989  37.506  1.00  0.00     0.009 A 
ATOM     69  C   UNL A   1      39.968  35.501  37.636  1.00  0.00     0.001 A 
ATOM     70  C   UNL A   1      38.514  33.829  38.594  1.00  0.00     0.001 A 
ATOM     71  C   UNL A   1      39.120  35.083  38.660  1.00  0.00     0.000 A 
ENDBRANCH  47  66
BRANCH  59  72
ATOM     72  C   UNL A   1      43.967  28.231  34.787  1.00  0.00    -0.014 A 
ATOM     73  C   UNL A   1      43.752  27.089  35.576  1.00  0.00     0.009 A 
ATOM     74  C   UNL A   1      45.272  28.731  34.658  1.00  0.00     0.009 A 
ATOM     75  C   UNL A   1      44.816  26.487  36.249  1.00  0.00     0.001 A 
ATOM     76  C   UNL A   1      46.338  28.106  35.304  1.00  0.00     0.001 A 
ATOM     77  C   UNL A   1      46.108  26.991  36.108  1.00  0.00     0.000 A 
ENDBRANCH  59  72
ENDBRANCH  33  34
ENDBRANCH  25  28
ENDBRANCH  23  24
ENDBRANCH   1  23
TORSDOF 11
ENDMDL
