MODEL 1
REMARK VINA RESULT:     -14.0      0.000      0.000
REMARK SMILES O=C(NCCCNC(=O)c1ccccc1C(=O)Nc1ccc(N2C(=O)[C@H]3[C@@H]4CC[C@@H](C4)[C@@H]3C2=O)cc1)c1ccc(-c2c3nc(c(-c4ccccc4)c4ccc([nH]4)c(-c4ccccc4)c4nc(c(-c5ccccc5)c5ccc2[nH]5)C=C4)C=C3)cc1
REMARK SMILES IDX 5 1 4 2 3 3 1 4 2 5 37 7 38 8 84 9 39 10 83 11 40 12 41 13
REMARK SMILES IDX 42 14 77 15 43 16 82 17 76 18 78 19 44 20 81 21 75 22 74 23
REMARK SMILES IDX 45 25 67 26 52 27 66 28 53 29 56 30 65 31 79 32 54 33 55 34
REMARK SMILES IDX 64 36 80 37 57 38 46 39 47 40 51 41 48 42 50 43 49 44 68 45
REMARK SMILES IDX 69 46 73 47 70 48 72 49 71 50 58 51 59 52 63 53 60 54 62 55
REMARK SMILES IDX 61 56 6 57 7 58 8 59 9 61 10 62 11 63 15 64 12 65 14 66
REMARK SMILES IDX 13 67 16 68 17 69 18 70 19 72 20 73 36 74 21 75 35 76 22 77
REMARK SMILES IDX 23 78 24 79 33 80 25 81 26 82 32 83 34 84 27 85 30 86 28 87
REMARK SMILES IDX 31 88 29 89
REMARK H PARENT 3 6 78 24 56 35 7 60 18 71
REMARK Flexibility Score: inf
ROOT
ATOM      1  C   UNL A   1      31.586  32.073  26.600  1.00  0.00     0.042 C 
ENDROOT
BRANCH   1   2
ATOM      2  C   UNL A   1      32.685  32.847  27.315  1.00  0.00     0.118 C 
BRANCH   2   3
ATOM      3  N   UNL A   1      32.318  34.217  27.646  1.00  0.00    -0.352 N 
ATOM      4  O   UNL A   1      32.453  36.178  28.777  1.00  0.00    -0.269 OA
ATOM      5  C   UNL A   1      32.919  35.069  28.547  1.00  0.00     0.251 C 
ATOM      6  H   UNL A   1      31.542  34.583  27.163  1.00  0.00     0.163 HD
BRANCH   5   7
ATOM      7  C   UNL A   1      34.114  34.594  29.273  1.00  0.00     0.039 A 
ATOM      8  C   UNL A   1      35.366  34.642  28.659  1.00  0.00     0.014 A 
ATOM      9  C   UNL A   1      33.957  34.000  30.527  1.00  0.00     0.014 A 
ATOM     10  C   UNL A   1      36.419  33.925  29.210  1.00  0.00     0.010 A 
ATOM     11  C   UNL A   1      35.051  33.375  31.132  1.00  0.00     0.010 A 
ATOM     12  C   UNL A   1      36.279  33.295  30.458  1.00  0.00    -0.014 A 
BRANCH  12  13
ATOM     13  C   UNL A   1      37.454  32.616  31.059  1.00  0.00     0.031 A 
ATOM     14  C   UNL A   1      38.122  31.447  30.388  1.00  0.00     0.074 A 
ATOM     15  C   UNL A   1      37.938  33.095  32.222  1.00  0.00     0.049 A 
ATOM     16  N   UNL A   1      39.155  30.749  30.793  1.00  0.00    -0.248 NA
ATOM     17  C   UNL A   1      37.561  30.993  29.105  1.00  0.00     0.031 C 
ATOM     18  C   UNL A   1      37.373  34.225  32.968  1.00  0.00     0.029 A 
ATOM     19  N   UNL A   1      39.022  32.716  32.968  1.00  0.00    -0.354 N 
ATOM     20  C   UNL A   1      39.349  29.760  29.836  1.00  0.00     0.074 A 
ATOM     21  C   UNL A   1      38.321  29.939  28.833  1.00  0.00     0.031 C 
ATOM     22  C   UNL A   1      38.148  34.483  34.029  1.00  0.00     0.029 A 
ATOM     23  C   UNL A   1      39.214  33.492  34.084  1.00  0.00     0.049 A 
ATOM     24  H   UNL A   1      39.606  31.960  32.727  1.00  0.00     0.167 HD
ATOM     25  C   UNL A   1      40.297  28.793  29.801  1.00  0.00     0.031 A 
ATOM     26  C   UNL A   1      40.131  33.406  35.063  1.00  0.00     0.031 A 
ATOM     27  C   UNL A   1      41.327  28.629  30.795  1.00  0.00     0.049 A 
ATOM     28  C   UNL A   1      41.153  32.313  35.006  1.00  0.00     0.074 A 
ATOM     29  C   UNL A   1      42.352  27.698  30.828  1.00  0.00     0.029 A 
ATOM     30  N   UNL A   1      41.464  29.413  31.929  1.00  0.00    -0.354 N 
ATOM     31  N   UNL A   1      41.329  31.398  34.085  1.00  0.00    -0.248 NA
ATOM     32  C   UNL A   1      42.098  32.237  36.127  1.00  0.00     0.031 C 
ATOM     33  C   UNL A   1      43.081  27.891  32.006  1.00  0.00     0.029 A 
ATOM     34  C   UNL A   1      42.541  28.973  32.681  1.00  0.00     0.049 A 
ATOM     35  H   UNL A   1      40.883  30.171  32.166  1.00  0.00     0.167 HD
ATOM     36  C   UNL A   1      42.411  30.641  34.509  1.00  0.00     0.074 A 
ATOM     37  C   UNL A   1      42.866  31.222  35.757  1.00  0.00     0.031 C 
ATOM     38  C   UNL A   1      42.974  29.559  33.922  1.00  0.00     0.031 A 
BRANCH  25  39
ATOM     39  C   UNL A   1      40.258  27.809  28.665  1.00  0.00    -0.014 A 
ATOM     40  C   UNL A   1      40.943  28.050  27.464  1.00  0.00     0.009 A 
ATOM     41  C   UNL A   1      39.589  26.585  28.830  1.00  0.00     0.009 A 
ATOM     42  C   UNL A   1      40.941  27.093  26.445  1.00  0.00     0.001 A 
ATOM     43  C   UNL A   1      39.607  25.621  27.819  1.00  0.00     0.001 A 
ATOM     44  C   UNL A   1      40.279  25.878  26.626  1.00  0.00     0.000 A 
ENDBRANCH  25  39
BRANCH  26  45
ATOM     45  C   UNL A   1      40.095  34.369  36.192  1.00  0.00    -0.014 A 
ATOM     46  C   UNL A   1      39.390  34.071  37.367  1.00  0.00     0.009 A 
ATOM     47  C   UNL A   1      40.785  35.589  36.103  1.00  0.00     0.009 A 
ATOM     48  C   UNL A   1      39.363  34.983  38.423  1.00  0.00     0.001 A 
ATOM     49  C   UNL A   1      40.782  36.485  37.172  1.00  0.00     0.001 A 
ATOM     50  C   UNL A   1      40.064  36.185  38.327  1.00  0.00     0.000 A 
ENDBRANCH  26  45
BRANCH  38  51
ATOM     51  C   UNL A   1      44.155  28.951  34.619  1.00  0.00    -0.014 A 
ATOM     52  C   UNL A   1      43.986  27.992  35.628  1.00  0.00     0.009 A 
ATOM     53  C   UNL A   1      45.453  29.337  34.251  1.00  0.00     0.009 A 
ATOM     54  C   UNL A   1      45.096  27.454  36.281  1.00  0.00     0.001 A 
ATOM     55  C   UNL A   1      46.561  28.779  34.888  1.00  0.00     0.001 A 
ATOM     56  C   UNL A   1      46.382  27.847  35.910  1.00  0.00     0.000 A 
ENDBRANCH  38  51
ENDBRANCH  12  13
ENDBRANCH   5   7
ENDBRANCH   2   3
ENDBRANCH   1   2
BRANCH   1  57
ATOM     57  C   UNL A   1      31.776  30.572  26.685  1.00  0.00     0.118 C 
BRANCH  57  58
ATOM     58  N   UNL A   1      32.838  30.112  25.809  1.00  0.00    -0.352 N 
ATOM     59  C   UNL A   1      32.801  29.164  24.828  1.00  0.00     0.252 C 
ATOM     60  H   UNL A   1      33.711  30.547  25.941  1.00  0.00     0.163 HD
ATOM     61  O   UNL A   1      33.842  28.835  24.261  1.00  0.00    -0.269 OA
BRANCH  59  62
ATOM     62  C   UNL A   1      31.565  28.425  24.533  1.00  0.00     0.052 A 
ATOM     63  C   UNL A   1      31.025  28.777  23.276  1.00  0.00     0.014 A 
ATOM     64  C   UNL A   1      30.956  27.432  25.315  1.00  0.00     0.052 A 
ATOM     65  C   UNL A   1      29.934  28.098  22.745  1.00  0.00     0.001 A 
ATOM     66  C   UNL A   1      29.858  26.749  24.742  1.00  0.00     0.014 A 
ATOM     67  C   UNL A   1      29.361  27.068  23.474  1.00  0.00     0.001 A 
BRANCH  64  68
ATOM     68  C   UNL A   1      31.403  26.870  26.627  1.00  0.00     0.256 C 
ATOM     69  O   UNL A   1      31.387  27.635  27.598  1.00  0.00    -0.269 OA
ATOM     70  N   UNL A   1      31.718  25.559  26.894  1.00  0.00    -0.322 N 
ATOM     71  H   UNL A   1      31.825  25.360  27.852  1.00  0.00     0.170 HD
BRANCH  70  72
ATOM     72  C   UNL A   1      31.913  24.461  26.062  1.00  0.00     0.041 A 
ATOM     73  C   UNL A   1      33.092  24.442  25.309  1.00  0.00     0.028 A 
ATOM     74  C   UNL A   1      31.031  23.388  26.011  1.00  0.00     0.028 A 
ATOM     75  C   UNL A   1      33.503  23.257  24.705  1.00  0.00     0.029 A 
ATOM     76  C   UNL A   1      31.392  22.240  25.302  1.00  0.00     0.029 A 
ATOM     77  C   UNL A   1      32.672  22.134  24.735  1.00  0.00     0.052 A 
BRANCH  77  78
ATOM     78  N   UNL A   1      33.162  20.866  24.368  1.00  0.00    -0.250 N 
ATOM     79  C   UNL A   1      32.547  20.037  23.421  1.00  0.00     0.237 C 
ATOM     80  C   UNL A   1      34.166  20.190  25.095  1.00  0.00     0.237 C 
ATOM     81  O   UNL A   1      31.791  20.307  22.503  1.00  0.00    -0.274 OA
ATOM     82  C   UNL A   1      32.904  18.674  23.901  1.00  0.00     0.095 C 
ATOM     83  C   UNL A   1      34.342  18.918  24.323  1.00  0.00     0.095 C 
ATOM     84  O   UNL A   1      34.826  20.542  26.050  1.00  0.00    -0.274 OA
ATOM     85  C   UNL A   1      32.980  17.279  23.280  1.00  0.00     0.002 C 
ATOM     86  C   UNL A   1      34.794  17.495  24.623  1.00  0.00     0.002 C 
ATOM     87  C   UNL A   1      32.636  16.336  24.455  1.00  0.00     0.005 C 
ATOM     88  C   UNL A   1      34.490  16.948  23.204  1.00  0.00     0.009 C 
ATOM     89  C   UNL A   1      33.788  16.651  25.455  1.00  0.00     0.005 C 
ENDBRANCH  77  78
ENDBRANCH  70  72
ENDBRANCH  64  68
ENDBRANCH  59  62
ENDBRANCH  57  58
ENDBRANCH   1  57
TORSDOF 13
ENDMDL
MODEL 2
REMARK VINA RESULT:     -14.0      0.272      5.605
REMARK SMILES O=C(NCCCNC(=O)c1ccccc1C(=O)Nc1ccc(N2C(=O)[C@H]3[C@@H]4CC[C@@H](C4)[C@@H]3C2=O)cc1)c1ccc(-c2c3nc(c(-c4ccccc4)c4ccc([nH]4)c(-c4ccccc4)c4nc(c(-c5ccccc5)c5ccc2[nH]5)C=C4)C=C3)cc1
REMARK SMILES IDX 5 1 4 2 3 3 1 4 2 5 37 7 38 8 84 9 39 10 83 11 40 12 41 13
REMARK SMILES IDX 42 14 77 15 43 16 82 17 76 18 78 19 44 20 81 21 75 22 74 23
REMARK SMILES IDX 45 25 67 26 52 27 66 28 53 29 56 30 65 31 79 32 54 33 55 34
REMARK SMILES IDX 64 36 80 37 57 38 46 39 47 40 51 41 48 42 50 43 49 44 68 45
REMARK SMILES IDX 69 46 73 47 70 48 72 49 71 50 58 51 59 52 63 53 60 54 62 55
REMARK SMILES IDX 61 56 6 57 7 58 8 59 9 61 10 62 11 63 15 64 12 65 14 66
REMARK SMILES IDX 13 67 16 68 17 69 18 70 19 72 20 73 36 74 21 75 35 76 22 77
REMARK SMILES IDX 23 78 24 79 33 80 25 81 26 82 32 83 34 84 27 85 30 86 28 87
REMARK SMILES IDX 31 88 29 89
REMARK H PARENT 3 6 78 24 56 35 7 60 18 71
REMARK Flexibility Score: inf
ROOT
ATOM      1  C   UNL A   1      31.620  32.082  26.552  1.00  0.00     0.042 C 
ENDROOT
BRANCH   1   2
ATOM      2  C   UNL A   1      32.694  32.862  27.299  1.00  0.00     0.118 C 
BRANCH   2   3
ATOM      3  N   UNL A   1      32.316  34.236  27.604  1.00  0.00    -0.352 N 
ATOM      4  O   UNL A   1      32.425  36.213  28.709  1.00  0.00    -0.269 OA
ATOM      5  C   UNL A   1      32.900  35.103  28.502  1.00  0.00     0.251 C 
ATOM      6  H   UNL A   1      31.546  34.590  27.105  1.00  0.00     0.163 HD
BRANCH   5   7
ATOM      7  C   UNL A   1      34.085  34.644  29.253  1.00  0.00     0.039 A 
ATOM      8  C   UNL A   1      35.340  34.645  28.641  1.00  0.00     0.014 A 
ATOM      9  C   UNL A   1      33.916  34.110  30.532  1.00  0.00     0.014 A 
ATOM     10  C   UNL A   1      36.380  33.940  29.228  1.00  0.00     0.010 A 
ATOM     11  C   UNL A   1      34.999  33.497  31.168  1.00  0.00     0.010 A 
ATOM     12  C   UNL A   1      36.228  33.369  30.503  1.00  0.00    -0.014 A 
BRANCH  12  13
ATOM     13  C   UNL A   1      37.391  32.701  31.139  1.00  0.00     0.031 A 
ATOM     14  C   UNL A   1      37.903  33.121  32.489  1.00  0.00     0.074 A 
ATOM     15  C   UNL A   1      37.969  31.675  30.485  1.00  0.00     0.049 A 
ATOM     16  N   UNL A   1      38.911  32.635  33.171  1.00  0.00    -0.248 NA
ATOM     17  C   UNL A   1      37.207  34.230  33.162  1.00  0.00     0.031 C 
ATOM     18  C   UNL A   1      37.559  31.177  29.167  1.00  0.00     0.029 A 
ATOM     19  N   UNL A   1      39.002  30.850  30.843  1.00  0.00    -0.354 N 
ATOM     20  C   UNL A   1      38.990  33.393  34.333  1.00  0.00     0.074 A 
ATOM     21  C   UNL A   1      37.934  34.380  34.263  1.00  0.00     0.031 C 
ATOM     22  C   UNL A   1      38.292  30.100  28.856  1.00  0.00     0.029 A 
ATOM     23  C   UNL A   1      39.273  29.879  29.910  1.00  0.00     0.049 A 
ATOM     24  H   UNL A   1      39.502  30.944  31.686  1.00  0.00     0.167 HD
ATOM     25  C   UNL A   1      39.865  33.275  35.361  1.00  0.00     0.031 A 
ATOM     26  C   UNL A   1      40.221  28.927  29.887  1.00  0.00     0.031 A 
ATOM     27  C   UNL A   1      40.905  32.280  35.433  1.00  0.00     0.049 A 
ATOM     28  C   UNL A   1      41.184  28.835  31.030  1.00  0.00     0.074 A 
ATOM     29  C   UNL A   1      41.819  32.062  36.450  1.00  0.00     0.029 A 
ATOM     30  N   UNL A   1      41.168  31.339  34.451  1.00  0.00    -0.354 N 
ATOM     31  N   UNL A   1      41.232  29.551  32.126  1.00  0.00    -0.248 NA
ATOM     32  C   UNL A   1      42.230  27.809  30.928  1.00  0.00     0.031 C 
ATOM     33  C   UNL A   1      42.665  31.017  36.062  1.00  0.00     0.029 A 
ATOM     34  C   UNL A   1      42.245  30.553  34.826  1.00  0.00     0.049 A 
ATOM     35  H   UNL A   1      40.665  31.243  33.610  1.00  0.00     0.167 HD
ATOM     36  C   UNL A   1      42.307  29.057  32.851  1.00  0.00     0.074 A 
ATOM     37  C   UNL A   1      42.866  27.964  32.081  1.00  0.00     0.031 C 
ATOM     38  C   UNL A   1      42.791  29.476  34.044  1.00  0.00     0.031 A 
BRANCH  25  39
ATOM     39  C   UNL A   1      39.762  34.262  36.491  1.00  0.00    -0.014 A 
ATOM     40  C   UNL A   1      39.051  33.961  37.663  1.00  0.00     0.009 A 
ATOM     41  C   UNL A   1      40.452  35.482  36.411  1.00  0.00     0.009 A 
ATOM     42  C   UNL A   1      39.020  34.871  38.724  1.00  0.00     0.001 A 
ATOM     43  C   UNL A   1      40.438  36.380  37.481  1.00  0.00     0.001 A 
ATOM     44  C   UNL A   1      39.718  36.076  38.634  1.00  0.00     0.000 A 
ENDBRANCH  25  39
BRANCH  26  45
ATOM     45  C   UNL A   1      40.315  28.009  28.724  1.00  0.00    -0.014 A 
ATOM     46  C   UNL A   1      39.693  26.753  28.750  1.00  0.00     0.009 A 
ATOM     47  C   UNL A   1      41.016  28.398  27.572  1.00  0.00     0.009 A 
ATOM     48  C   UNL A   1      39.787  25.897  27.651  1.00  0.00     0.001 A 
ATOM     49  C   UNL A   1      41.082  27.554  26.463  1.00  0.00     0.001 A 
ATOM     50  C   UNL A   1      40.474  26.301  26.507  1.00  0.00     0.000 A 
ENDBRANCH  26  45
BRANCH  38  51
ATOM     51  C   UNL A   1      43.972  28.730  34.592  1.00  0.00    -0.014 A 
ATOM     52  C   UNL A   1      45.280  29.187  34.377  1.00  0.00     0.009 A 
ATOM     53  C   UNL A   1      43.769  27.561  35.341  1.00  0.00     0.009 A 
ATOM     54  C   UNL A   1      46.368  28.467  34.874  1.00  0.00     0.001 A 
ATOM     55  C   UNL A   1      44.857  26.858  35.859  1.00  0.00     0.001 A 
ATOM     56  C   UNL A   1      46.155  27.305  35.616  1.00  0.00     0.000 A 
ENDBRANCH  38  51
ENDBRANCH  12  13
ENDBRANCH   5   7
ENDBRANCH   2   3
ENDBRANCH   1   2
BRANCH   1  57
ATOM     57  C   UNL A   1      31.803  30.581  26.663  1.00  0.00     0.118 C 
BRANCH  57  58
ATOM     58  N   UNL A   1      32.860  30.101  25.792  1.00  0.00    -0.352 N 
ATOM     59  C   UNL A   1      32.816  29.134  24.830  1.00  0.00     0.252 C 
ATOM     60  H   UNL A   1      33.735  30.535  25.912  1.00  0.00     0.163 HD
ATOM     61  O   UNL A   1      33.853  28.790  24.265  1.00  0.00    -0.269 OA
BRANCH  59  62
ATOM     62  C   UNL A   1      31.576  28.394  24.554  1.00  0.00     0.052 A 
ATOM     63  C   UNL A   1      31.021  28.739  23.302  1.00  0.00     0.014 A 
ATOM     64  C   UNL A   1      30.976  27.405  25.349  1.00  0.00     0.052 A 
ATOM     65  C   UNL A   1      29.923  28.058  22.789  1.00  0.00     0.001 A 
ATOM     66  C   UNL A   1      29.872  26.719  24.793  1.00  0.00     0.014 A 
ATOM     67  C   UNL A   1      29.359  27.032  23.530  1.00  0.00     0.001 A 
BRANCH  64  68
ATOM     68  C   UNL A   1      31.440  26.850  26.658  1.00  0.00     0.256 C 
ATOM     69  O   UNL A   1      31.443  27.623  27.623  1.00  0.00    -0.269 OA
ATOM     70  N   UNL A   1      31.750  25.539  26.930  1.00  0.00    -0.322 N 
ATOM     71  H   UNL A   1      31.871  25.346  27.888  1.00  0.00     0.170 HD
BRANCH  70  72
ATOM     72  C   UNL A   1      31.926  24.433  26.103  1.00  0.00     0.041 A 
ATOM     73  C   UNL A   1      33.061  24.431  25.286  1.00  0.00     0.028 A 
ATOM     74  C   UNL A   1      31.069  23.340  26.116  1.00  0.00     0.028 A 
ATOM     75  C   UNL A   1      33.467  23.247  24.676  1.00  0.00     0.029 A 
ATOM     76  C   UNL A   1      31.418  22.190  25.404  1.00  0.00     0.029 A 
ATOM     77  C   UNL A   1      32.667  22.106  24.769  1.00  0.00     0.052 A 
BRANCH  77  78
ATOM     78  N   UNL A   1      33.166  20.844  24.391  1.00  0.00    -0.250 N 
ATOM     79  C   UNL A   1      32.558  20.017  23.438  1.00  0.00     0.237 C 
ATOM     80  C   UNL A   1      34.174  20.170  25.114  1.00  0.00     0.237 C 
ATOM     81  O   UNL A   1      31.799  20.289  22.522  1.00  0.00    -0.274 OA
ATOM     82  C   UNL A   1      32.924  18.654  23.907  1.00  0.00     0.095 C 
ATOM     83  C   UNL A   1      34.360  18.905  24.333  1.00  0.00     0.095 C 
ATOM     84  O   UNL A   1      34.832  20.519  26.072  1.00  0.00    -0.274 OA
ATOM     85  C   UNL A   1      33.011  17.264  23.276  1.00  0.00     0.002 C 
ATOM     86  C   UNL A   1      34.823  17.483  24.622  1.00  0.00     0.002 C 
ATOM     87  C   UNL A   1      32.673  16.309  24.444  1.00  0.00     0.005 C 
ATOM     88  C   UNL A   1      34.523  16.945  23.199  1.00  0.00     0.009 C 
ATOM     89  C   UNL A   1      33.822  16.626  25.447  1.00  0.00     0.005 C 
ENDBRANCH  77  78
ENDBRANCH  70  72
ENDBRANCH  64  68
ENDBRANCH  59  62
ENDBRANCH  57  58
ENDBRANCH   1  57
TORSDOF 13
ENDMDL
MODEL 3
REMARK VINA RESULT:     -13.8      3.099      7.166
REMARK SMILES O=C(NCCCNC(=O)c1ccccc1C(=O)Nc1ccc(N2C(=O)[C@H]3[C@@H]4CC[C@@H](C4)[C@@H]3C2=O)cc1)c1ccc(-c2c3nc(c(-c4ccccc4)c4ccc([nH]4)c(-c4ccccc4)c4nc(c(-c5ccccc5)c5ccc2[nH]5)C=C4)C=C3)cc1
REMARK SMILES IDX 5 1 4 2 3 3 1 4 2 5 37 7 38 8 84 9 39 10 83 11 40 12 41 13
REMARK SMILES IDX 42 14 77 15 43 16 82 17 76 18 78 19 44 20 81 21 75 22 74 23
REMARK SMILES IDX 45 25 67 26 52 27 66 28 53 29 56 30 65 31 79 32 54 33 55 34
REMARK SMILES IDX 64 36 80 37 57 38 46 39 47 40 51 41 48 42 50 43 49 44 68 45
REMARK SMILES IDX 69 46 73 47 70 48 72 49 71 50 58 51 59 52 63 53 60 54 62 55
REMARK SMILES IDX 61 56 6 57 7 58 8 59 9 61 10 62 11 63 15 64 12 65 14 66
REMARK SMILES IDX 13 67 16 68 17 69 18 70 19 72 20 73 36 74 21 75 35 76 22 77
REMARK SMILES IDX 23 78 24 79 33 80 25 81 26 82 32 83 34 84 27 85 30 86 28 87
REMARK SMILES IDX 31 88 29 89
REMARK H PARENT 3 6 78 24 56 35 7 60 18 71
REMARK Flexibility Score: inf
ROOT
ATOM      1  C   UNL A   1      35.189  23.795  25.785  1.00  0.00     0.042 C 
ENDROOT
BRANCH   1   2
ATOM      2  C   UNL A   1      36.678  24.111  25.746  1.00  0.00     0.118 C 
BRANCH   2   3
ATOM      3  N   UNL A   1      37.530  22.935  25.858  1.00  0.00    -0.352 N 
ATOM      4  O   UNL A   1      39.433  21.799  26.339  1.00  0.00    -0.269 OA
ATOM      5  C   UNL A   1      38.803  22.848  26.379  1.00  0.00     0.251 C 
ATOM      6  H   UNL A   1      37.149  22.094  25.517  1.00  0.00     0.163 HD
BRANCH   5   7
ATOM      7  C   UNL A   1      39.416  24.068  26.943  1.00  0.00     0.039 A 
ATOM      8  C   UNL A   1      39.269  24.356  28.300  1.00  0.00     0.014 A 
ATOM      9  C   UNL A   1      40.041  24.974  26.085  1.00  0.00     0.014 A 
ATOM     10  C   UNL A   1      39.573  25.630  28.759  1.00  0.00     0.010 A 
ATOM     11  C   UNL A   1      40.449  26.216  26.578  1.00  0.00     0.010 A 
ATOM     12  C   UNL A   1      40.179  26.571  27.909  1.00  0.00    -0.014 A 
BRANCH  12  13
ATOM     13  C   UNL A   1      40.574  27.891  28.459  1.00  0.00     0.031 A 
ATOM     14  C   UNL A   1      39.567  28.984  28.694  1.00  0.00     0.074 A 
ATOM     15  C   UNL A   1      41.869  28.084  28.776  1.00  0.00     0.049 A 
ATOM     16  N   UNL A   1      39.762  30.191  29.166  1.00  0.00    -0.248 NA
ATOM     17  C   UNL A   1      38.165  28.696  28.353  1.00  0.00     0.031 C 
ATOM     18  C   UNL A   1      42.938  27.097  28.592  1.00  0.00     0.029 A 
ATOM     19  N   UNL A   1      42.504  29.158  29.342  1.00  0.00    -0.354 N 
ATOM     20  C   UNL A   1      38.521  30.815  29.151  1.00  0.00     0.074 A 
ATOM     21  C   UNL A   1      37.577  29.858  28.613  1.00  0.00     0.031 C 
ATOM     22  C   UNL A   1      44.081  27.588  29.089  1.00  0.00     0.029 A 
ATOM     23  C   UNL A   1      43.845  28.949  29.553  1.00  0.00     0.049 A 
ATOM     24  H   UNL A   1      42.045  29.997  29.574  1.00  0.00     0.167 HD
ATOM     25  C   UNL A   1      38.202  32.070  29.548  1.00  0.00     0.031 A 
ATOM     26  C   UNL A   1      44.793  29.767  30.042  1.00  0.00     0.031 A 
ATOM     27  C   UNL A   1      39.142  33.013  30.096  1.00  0.00     0.049 A 
ATOM     28  C   UNL A   1      44.411  31.155  30.453  1.00  0.00     0.074 A 
ATOM     29  C   UNL A   1      38.906  34.298  30.557  1.00  0.00     0.029 A 
ATOM     30  N   UNL A   1      40.497  32.775  30.258  1.00  0.00    -0.354 N 
ATOM     31  N   UNL A   1      43.228  31.720  30.446  1.00  0.00    -0.248 NA
ATOM     32  C   UNL A   1      45.495  32.021  30.933  1.00  0.00     0.031 C 
ATOM     33  C   UNL A   1      40.127  34.852  30.955  1.00  0.00     0.029 A 
ATOM     34  C   UNL A   1      41.114  33.895  30.789  1.00  0.00     0.049 A 
ATOM     35  H   UNL A   1      40.955  31.933  30.031  1.00  0.00     0.167 HD
ATOM     36  C   UNL A   1      43.424  33.006  30.928  1.00  0.00     0.074 A 
ATOM     37  C   UNL A   1      44.833  33.127  31.244  1.00  0.00     0.031 C 
ATOM     38  C   UNL A   1      42.518  33.999  31.090  1.00  0.00     0.031 A 
BRANCH  25  39
ATOM     39  C   UNL A   1      36.776  32.520  29.381  1.00  0.00    -0.014 A 
ATOM     40  C   UNL A   1      35.854  32.433  30.436  1.00  0.00     0.009 A 
ATOM     41  C   UNL A   1      36.372  33.112  28.174  1.00  0.00     0.009 A 
ATOM     42  C   UNL A   1      34.551  32.914  30.277  1.00  0.00     0.001 A 
ATOM     43  C   UNL A   1      35.076  33.611  28.024  1.00  0.00     0.001 A 
ATOM     44  C   UNL A   1      34.165  33.507  29.074  1.00  0.00     0.000 A 
ENDBRANCH  25  39
BRANCH  26  45
ATOM     45  C   UNL A   1      46.196  29.294  30.137  1.00  0.00    -0.014 A 
ATOM     46  C   UNL A   1      47.084  29.465  29.065  1.00  0.00     0.009 A 
ATOM     47  C   UNL A   1      46.659  28.683  31.313  1.00  0.00     0.009 A 
ATOM     48  C   UNL A   1      48.402  29.017  29.163  1.00  0.00     0.001 A 
ATOM     49  C   UNL A   1      47.986  28.265  31.420  1.00  0.00     0.001 A 
ATOM     50  C   UNL A   1      48.854  28.424  30.342  1.00  0.00     0.000 A 
ENDBRANCH  26  45
BRANCH  38  51
ATOM     51  C   UNL A   1      43.029  35.293  31.651  1.00  0.00    -0.014 A 
ATOM     52  C   UNL A   1      42.947  35.569  33.024  1.00  0.00     0.009 A 
ATOM     53  C   UNL A   1      43.610  36.241  30.796  1.00  0.00     0.009 A 
ATOM     54  C   UNL A   1      43.406  36.788  33.525  1.00  0.00     0.001 A 
ATOM     55  C   UNL A   1      44.092  37.447  31.304  1.00  0.00     0.001 A 
ATOM     56  C   UNL A   1      43.980  37.724  32.666  1.00  0.00     0.000 A 
ENDBRANCH  38  51
ENDBRANCH  12  13
ENDBRANCH   5   7
ENDBRANCH   2   3
ENDBRANCH   1   2
BRANCH   1  57
ATOM     57  C   UNL A   1      34.334  24.939  25.277  1.00  0.00     0.118 C 
BRANCH  57  58
ATOM     58  N   UNL A   1      33.337  25.343  26.252  1.00  0.00    -0.352 N 
ATOM     59  C   UNL A   1      32.386  26.317  26.164  1.00  0.00     0.252 C 
ATOM     60  H   UNL A   1      33.350  24.841  27.099  1.00  0.00     0.163 HD
ATOM     61  O   UNL A   1      31.696  26.583  27.147  1.00  0.00    -0.269 OA
BRANCH  59  62
ATOM     62  C   UNL A   1      32.264  27.152  24.961  1.00  0.00     0.052 A 
ATOM     63  C   UNL A   1      33.387  27.990  24.782  1.00  0.00     0.014 A 
ATOM     64  C   UNL A   1      31.227  27.142  24.015  1.00  0.00     0.052 A 
ATOM     65  C   UNL A   1      33.535  28.761  23.635  1.00  0.00     0.001 A 
ATOM     66  C   UNL A   1      31.414  27.924  22.851  1.00  0.00     0.014 A 
ATOM     67  C   UNL A   1      32.554  28.712  22.658  1.00  0.00     0.001 A 
BRANCH  64  68
ATOM     68  C   UNL A   1      30.001  26.287  23.981  1.00  0.00     0.256 C 
ATOM     69  O   UNL A   1      28.913  26.872  23.933  1.00  0.00    -0.269 OA
ATOM     70  N   UNL A   1      29.957  24.917  23.879  1.00  0.00    -0.322 N 
ATOM     71  H   UNL A   1      29.058  24.557  23.702  1.00  0.00     0.170 HD
BRANCH  70  72
ATOM     72  C   UNL A   1      30.948  23.945  23.977  1.00  0.00     0.041 A 
ATOM     73  C   UNL A   1      30.925  23.134  25.117  1.00  0.00     0.028 A 
ATOM     74  C   UNL A   1      31.887  23.722  22.977  1.00  0.00     0.028 A 
ATOM     75  C   UNL A   1      31.672  21.959  25.140  1.00  0.00     0.029 A 
ATOM     76  C   UNL A   1      32.721  22.605  23.060  1.00  0.00     0.029 A 
ATOM     77  C   UNL A   1      32.544  21.667  24.089  1.00  0.00     0.052 A 
BRANCH  77  78
ATOM     78  N   UNL A   1      33.108  20.383  23.958  1.00  0.00    -0.250 N 
ATOM     79  C   UNL A   1      32.567  19.371  23.155  1.00  0.00     0.237 C 
ATOM     80  C   UNL A   1      34.121  19.898  24.814  1.00  0.00     0.237 C 
ATOM     81  O   UNL A   1      31.828  19.438  22.187  1.00  0.00    -0.274 OA
ATOM     82  C   UNL A   1      32.976  18.133  23.871  1.00  0.00     0.095 C 
ATOM     83  C   UNL A   1      34.385  18.524  24.279  1.00  0.00     0.095 C 
ATOM     84  O   UNL A   1      34.731  20.445  25.709  1.00  0.00    -0.274 OA
ATOM     85  C   UNL A   1      33.142  16.658  23.503  1.00  0.00     0.002 C 
ATOM     86  C   UNL A   1      34.899  17.201  24.831  1.00  0.00     0.002 C 
ATOM     87  C   UNL A   1      32.808  15.913  24.816  1.00  0.00     0.005 C 
ATOM     88  C   UNL A   1      34.669  16.403  23.521  1.00  0.00     0.009 C 
ATOM     89  C   UNL A   1      33.909  16.458  25.773  1.00  0.00     0.005 C 
ENDBRANCH  77  78
ENDBRANCH  70  72
ENDBRANCH  64  68
ENDBRANCH  59  62
ENDBRANCH  57  58
ENDBRANCH   1  57
TORSDOF 13
ENDMDL
