MODEL 1
REMARK VINA RESULT:     -10.8      0.000      0.000
REMARK SMILES Cc1nsc(N(C)C(=O)[C@H]2CCOC2)c1C(=O)NCCCNC(=O)c1ccc(-c2c3nc(c(-c4ccccc4)c4ccc([nH]4)c(-c4ccccc4)c4nc(c(-c5ccccc5)c5ccc2[nH]5)C=C4)C=C3)cc1
REMARK SMILES IDX 19 1 18 2 16 3 17 4 15 6 1 7 2 8 3 9 4 10 5 11 6 12 7 13
REMARK SMILES IDX 8 14 9 15 10 16 11 17 14 18 12 19 13 20 20 21 21 22 22 23
REMARK SMILES IDX 23 24 24 26 25 27 26 28 72 29 27 30 71 31 28 32 29 33 30 34
REMARK SMILES IDX 65 35 31 36 70 37 64 38 66 39 32 40 69 41 63 42 62 43 33 45
REMARK SMILES IDX 55 46 40 47 54 48 41 49 44 50 53 51 67 52 42 53 43 54 52 56
REMARK SMILES IDX 68 57 45 58 34 59 35 60 39 61 36 62 38 63 37 64 56 65 57 66
REMARK SMILES IDX 61 67 58 68 60 69 59 70 46 71 47 72 51 73 48 74 50 75 49 76
REMARK H PARENT 18 5 22 25 66 44 44 55
REMARK Flexibility Score: inf
ROOT
ATOM      1  C   UNL A   1      36.689  34.617  32.752  1.00  0.00     0.118 C 
ENDROOT
BRANCH   1   2
ATOM      2  N   UNL A   1      35.464  33.959  33.168  1.00  0.00    -0.352 N 
ATOM      3  C   UNL A   1      34.204  33.991  32.588  1.00  0.00     0.256 C 
ATOM      4  O   UNL A   1      33.426  33.079  32.877  1.00  0.00    -0.269 OA
ATOM      5  H   UNL A   1      35.538  33.408  33.979  1.00  0.00     0.163 HD
BRANCH   3   6
ATOM      6  C   UNL A   1      33.806  35.066  31.674  1.00  0.00     0.097 A 
ATOM      7  C   UNL A   1      33.652  37.151  33.342  1.00  0.00     0.069 C 
ATOM      8  C   UNL A   1      33.540  36.466  32.018  1.00  0.00     0.066 A 
ATOM      9  N   UNL A   1      33.179  37.264  31.018  1.00  0.00    -0.195 NA
ATOM     10  S   UNL A   1      33.313  36.451  29.611  1.00  0.00    -0.017 S 
ATOM     11  C   UNL A   1      33.831  34.952  30.272  1.00  0.00     0.131 A 
BRANCH  11  12
ATOM     12  N   UNL A   1      34.164  33.932  29.341  1.00  0.00    -0.305 N 
ATOM     13  C   UNL A   1      33.268  33.537  28.245  1.00  0.00     0.154 C 
BRANCH  12  14
ATOM     14  C   UNL A   1      35.395  33.268  29.491  1.00  0.00     0.232 C 
ATOM     15  O   UNL A   1      36.474  33.857  29.602  1.00  0.00    -0.274 OA
BRANCH  14  16
ATOM     16  C   UNL A   1      35.344  31.738  29.588  1.00  0.00     0.107 C 
ATOM     17  C   UNL A   1      36.264  31.036  28.612  1.00  0.00     0.044 C 
ATOM     18  C   UNL A   1      35.883  31.248  30.918  1.00  0.00     0.173 C 
ATOM     19  C   UNL A   1      36.497  29.702  29.290  1.00  0.00     0.161 C 
ATOM     20  O   UNL A   1      36.376  29.917  30.703  1.00  0.00    -0.381 OA
ENDBRANCH  14  16
ENDBRANCH  12  14
ENDBRANCH  11  12
ENDBRANCH   3   6
ENDBRANCH   1   2
BRANCH   1  21
ATOM     21  C   UNL A   1      38.012  34.163  33.351  1.00  0.00     0.042 C 
BRANCH  21  22
ATOM     22  C   UNL A   1      39.263  34.576  32.609  1.00  0.00     0.118 C 
BRANCH  22  23
ATOM     23  N   UNL A   1      39.128  34.768  31.165  1.00  0.00    -0.352 N 
ATOM     24  C   UNL A   1      39.669  33.943  30.186  1.00  0.00     0.251 C 
ATOM     25  H   UNL A   1      38.610  35.547  30.861  1.00  0.00     0.163 HD
ATOM     26  O   UNL A   1      39.716  34.282  29.008  1.00  0.00    -0.269 OA
BRANCH  24  27
ATOM     27  C   UNL A   1      40.239  32.653  30.626  1.00  0.00     0.039 A 
ATOM     28  C   UNL A   1      39.426  31.658  31.163  1.00  0.00     0.014 A 
ATOM     29  C   UNL A   1      41.552  32.378  30.260  1.00  0.00     0.014 A 
ATOM     30  C   UNL A   1      39.901  30.346  31.185  1.00  0.00     0.010 A 
ATOM     31  C   UNL A   1      41.945  31.063  30.125  1.00  0.00     0.010 A 
ATOM     32  C   UNL A   1      41.141  30.028  30.598  1.00  0.00    -0.014 A 
BRANCH  32  33
ATOM     33  C   UNL A   1      41.527  28.621  30.405  1.00  0.00     0.031 A 
ATOM     34  C   UNL A   1      42.288  27.970  31.518  1.00  0.00     0.074 A 
ATOM     35  C   UNL A   1      41.151  27.822  29.381  1.00  0.00     0.049 A 
ATOM     36  N   UNL A   1      43.534  27.624  31.509  1.00  0.00    -0.248 NA
ATOM     37  C   UNL A   1      41.611  27.725  32.800  1.00  0.00     0.031 C 
ATOM     38  C   UNL A   1      40.198  28.076  28.294  1.00  0.00     0.029 A 
ATOM     39  N   UNL A   1      41.518  26.526  29.153  1.00  0.00    -0.354 N 
ATOM     40  C   UNL A   1      43.775  26.968  32.713  1.00  0.00     0.074 A 
ATOM     41  C   UNL A   1      42.588  27.157  33.514  1.00  0.00     0.031 C 
ATOM     42  C   UNL A   1      39.885  26.915  27.680  1.00  0.00     0.029 A 
ATOM     43  C   UNL A   1      40.769  25.883  28.181  1.00  0.00     0.049 A 
ATOM     44  H   UNL A   1      42.254  26.086  29.638  1.00  0.00     0.167 HD
ATOM     45  C   UNL A   1      44.861  26.162  32.889  1.00  0.00     0.031 A 
ATOM     46  C   UNL A   1      40.879  24.600  27.774  1.00  0.00     0.031 A 
ATOM     47  C   UNL A   1      45.844  26.344  31.852  1.00  0.00     0.049 A 
ATOM     48  C   UNL A   1      42.242  24.142  28.105  1.00  0.00     0.074 A 
ATOM     49  C   UNL A   1      46.587  27.407  31.375  1.00  0.00     0.029 A 
ATOM     50  N   UNL A   1      45.927  25.375  30.882  1.00  0.00    -0.354 N 
ATOM     51  N   UNL A   1      43.311  24.589  27.514  1.00  0.00    -0.248 NA
ATOM     52  C   UNL A   1      42.467  23.439  29.355  1.00  0.00     0.031 C 
ATOM     53  C   UNL A   1      46.635  27.213  29.960  1.00  0.00     0.029 A 
ATOM     54  C   UNL A   1      45.964  26.022  29.674  1.00  0.00     0.049 A 
ATOM     55  H   UNL A   1      45.954  24.403  31.026  1.00  0.00     0.167 HD
ATOM     56  C   UNL A   1      44.273  24.625  28.510  1.00  0.00     0.074 A 
ATOM     57  C   UNL A   1      43.741  23.774  29.571  1.00  0.00     0.031 C 
ATOM     58  C   UNL A   1      45.273  25.557  28.491  1.00  0.00     0.031 A 
BRANCH  45  59
ATOM     59  C   UNL A   1      44.881  24.941  33.779  1.00  0.00    -0.014 A 
ATOM     60  C   UNL A   1      45.947  24.777  34.686  1.00  0.00     0.009 A 
ATOM     61  C   UNL A   1      44.061  23.819  33.560  1.00  0.00     0.009 A 
ATOM     62  C   UNL A   1      46.223  23.536  35.277  1.00  0.00     0.001 A 
ATOM     63  C   UNL A   1      44.308  22.590  34.183  1.00  0.00     0.001 A 
ATOM     64  C   UNL A   1      45.407  22.442  35.018  1.00  0.00     0.000 A 
ENDBRANCH  45  59
BRANCH  46  65
ATOM     65  C   UNL A   1      39.841  23.701  27.244  1.00  0.00    -0.014 A 
ATOM     66  C   UNL A   1      38.613  24.209  26.797  1.00  0.00     0.009 A 
ATOM     67  C   UNL A   1      40.167  22.372  26.917  1.00  0.00     0.009 A 
ATOM     68  C   UNL A   1      37.765  23.432  26.000  1.00  0.00     0.001 A 
ATOM     69  C   UNL A   1      39.319  21.596  26.124  1.00  0.00     0.001 A 
ATOM     70  C   UNL A   1      38.128  22.133  25.648  1.00  0.00     0.000 A 
ENDBRANCH  46  65
BRANCH  58  71
ATOM     71  C   UNL A   1      45.469  26.357  27.225  1.00  0.00    -0.014 A 
ATOM     72  C   UNL A   1      44.834  27.590  26.989  1.00  0.00     0.009 A 
ATOM     73  C   UNL A   1      46.412  25.910  26.287  1.00  0.00     0.009 A 
ATOM     74  C   UNL A   1      45.093  28.323  25.825  1.00  0.00     0.001 A 
ATOM     75  C   UNL A   1      46.690  26.655  25.136  1.00  0.00     0.001 A 
ATOM     76  C   UNL A   1      46.021  27.854  24.900  1.00  0.00     0.000 A 
ENDBRANCH  58  71
ENDBRANCH  32  33
ENDBRANCH  24  27
ENDBRANCH  22  23
ENDBRANCH  21  22
ENDBRANCH   1  21
TORSDOF 13
ENDMDL
MODEL 2
REMARK VINA RESULT:     -10.7      4.760      6.900
REMARK SMILES Cc1nsc(N(C)C(=O)[C@H]2CCOC2)c1C(=O)NCCCNC(=O)c1ccc(-c2c3nc(c(-c4ccccc4)c4ccc([nH]4)c(-c4ccccc4)c4nc(c(-c5ccccc5)c5ccc2[nH]5)C=C4)C=C3)cc1
REMARK SMILES IDX 19 1 18 2 16 3 17 4 15 6 1 7 2 8 3 9 4 10 5 11 6 12 7 13
REMARK SMILES IDX 8 14 9 15 10 16 11 17 14 18 12 19 13 20 20 21 21 22 22 23
REMARK SMILES IDX 23 24 24 26 25 27 26 28 72 29 27 30 71 31 28 32 29 33 30 34
REMARK SMILES IDX 65 35 31 36 70 37 64 38 66 39 32 40 69 41 63 42 62 43 33 45
REMARK SMILES IDX 55 46 40 47 54 48 41 49 44 50 53 51 67 52 42 53 43 54 52 56
REMARK SMILES IDX 68 57 45 58 34 59 35 60 39 61 36 62 38 63 37 64 56 65 57 66
REMARK SMILES IDX 61 67 58 68 60 69 59 70 46 71 47 72 51 73 48 74 50 75 49 76
REMARK H PARENT 18 5 22 25 66 44 44 55
REMARK Flexibility Score: inf
ROOT
ATOM      1  C   UNL A   1      32.343  28.349  27.292  1.00  0.00     0.118 C 
ENDROOT
BRANCH   1   2
ATOM      2  N   UNL A   1      31.176  27.546  26.974  1.00  0.00    -0.352 N 
ATOM      3  C   UNL A   1      31.097  26.318  26.334  1.00  0.00     0.256 C 
ATOM      4  O   UNL A   1      30.071  25.656  26.508  1.00  0.00    -0.269 OA
ATOM      5  H   UNL A   1      30.315  27.929  27.255  1.00  0.00     0.163 HD
BRANCH   3   6
ATOM      6  C   UNL A   1      32.182  25.825  25.481  1.00  0.00     0.097 A 
ATOM      7  C   UNL A   1      32.629  23.408  26.534  1.00  0.00     0.069 C 
ATOM      8  C   UNL A   1      32.876  24.537  25.588  1.00  0.00     0.066 A 
ATOM      9  N   UNL A   1      33.843  24.310  24.704  1.00  0.00    -0.195 NA
ATOM     10  S   UNL A   1      33.855  25.513  23.604  1.00  0.00    -0.017 S 
ATOM     11  C   UNL A   1      32.576  26.441  24.278  1.00  0.00     0.131 A 
BRANCH  11  12
ATOM     12  N   UNL A   1      32.176  27.592  23.549  1.00  0.00    -0.305 N 
ATOM     13  C   UNL A   1      32.928  28.854  23.588  1.00  0.00     0.154 C 
BRANCH  12  14
ATOM     14  C   UNL A   1      31.005  27.519  22.773  1.00  0.00     0.232 C 
ATOM     15  O   UNL A   1      30.931  26.885  21.717  1.00  0.00    -0.274 OA
BRANCH  14  16
ATOM     16  C   UNL A   1      29.761  28.214  23.338  1.00  0.00     0.107 C 
ATOM     17  C   UNL A   1      29.139  29.215  22.388  1.00  0.00     0.044 C 
ATOM     18  C   UNL A   1      28.619  27.235  23.536  1.00  0.00     0.173 C 
ATOM     19  C   UNL A   1      27.703  29.268  22.868  1.00  0.00     0.161 C 
ATOM     20  O   UNL A   1      27.402  27.991  23.447  1.00  0.00    -0.381 OA
ENDBRANCH  14  16
ENDBRANCH  12  14
ENDBRANCH  11  12
ENDBRANCH   3   6
ENDBRANCH   1   2
BRANCH   1  21
ATOM     21  C   UNL A   1      32.273  29.859  27.114  1.00  0.00     0.042 C 
BRANCH  21  22
ATOM     22  C   UNL A   1      33.578  30.611  27.238  1.00  0.00     0.118 C 
BRANCH  22  23
ATOM     23  N   UNL A   1      33.646  31.625  28.290  1.00  0.00    -0.352 N 
ATOM     24  C   UNL A   1      34.741  31.866  29.112  1.00  0.00     0.251 C 
ATOM     25  H   UNL A   1      32.848  32.185  28.428  1.00  0.00     0.163 HD
ATOM     26  O   UNL A   1      34.655  32.565  30.117  1.00  0.00    -0.269 OA
BRANCH  24  27
ATOM     27  C   UNL A   1      36.012  31.201  28.758  1.00  0.00     0.039 A 
ATOM     28  C   UNL A   1      37.219  31.896  28.802  1.00  0.00     0.014 A 
ATOM     29  C   UNL A   1      35.992  29.817  28.624  1.00  0.00     0.014 A 
ATOM     30  C   UNL A   1      38.408  31.167  28.865  1.00  0.00     0.010 A 
ATOM     31  C   UNL A   1      37.151  29.108  28.861  1.00  0.00     0.010 A 
ATOM     32  C   UNL A   1      38.377  29.762  28.967  1.00  0.00    -0.014 A 
BRANCH  32  33
ATOM     33  C   UNL A   1      39.608  29.018  29.277  1.00  0.00     0.031 A 
ATOM     34  C   UNL A   1      39.930  28.816  30.724  1.00  0.00     0.074 A 
ATOM     35  C   UNL A   1      40.407  28.389  28.385  1.00  0.00     0.049 A 
ATOM     36  N   UNL A   1      40.887  29.372  31.393  1.00  0.00    -0.248 NA
ATOM     37  C   UNL A   1      39.067  27.943  31.533  1.00  0.00     0.031 C 
ATOM     38  C   UNL A   1      40.218  28.171  26.946  1.00  0.00     0.029 A 
ATOM     39  N   UNL A   1      41.573  27.722  28.632  1.00  0.00    -0.354 N 
ATOM     40  C   UNL A   1      40.863  28.810  32.667  1.00  0.00     0.074 A 
ATOM     41  C   UNL A   1      39.656  28.019  32.731  1.00  0.00     0.031 C 
ATOM     42  C   UNL A   1      41.088  27.237  26.507  1.00  0.00     0.029 A 
ATOM     43  C   UNL A   1      42.028  26.955  27.572  1.00  0.00     0.049 A 
ATOM     44  H   UNL A   1      42.050  27.781  29.492  1.00  0.00     0.167 HD
ATOM     45  C   UNL A   1      41.933  28.889  33.508  1.00  0.00     0.031 A 
ATOM     46  C   UNL A   1      43.122  26.164  27.540  1.00  0.00     0.031 A 
ATOM     47  C   UNL A   1      42.896  29.866  33.069  1.00  0.00     0.049 A 
ATOM     48  C   UNL A   1      44.052  26.647  28.578  1.00  0.00     0.074 A 
ATOM     49  C   UNL A   1      42.875  31.223  32.810  1.00  0.00     0.029 A 
ATOM     50  N   UNL A   1      44.047  29.400  32.481  1.00  0.00    -0.354 N 
ATOM     51  N   UNL A   1      44.677  27.787  28.506  1.00  0.00    -0.248 NA
ATOM     52  C   UNL A   1      44.029  26.031  29.891  1.00  0.00     0.031 C 
ATOM     53  C   UNL A   1      43.721  31.391  31.670  1.00  0.00     0.029 A 
ATOM     54  C   UNL A   1      44.240  30.137  31.342  1.00  0.00     0.049 A 
ATOM     55  H   UNL A   1      44.622  28.674  32.814  1.00  0.00     0.167 HD
ATOM     56  C   UNL A   1      44.728  28.242  29.812  1.00  0.00     0.074 A 
ATOM     57  C   UNL A   1      44.449  27.062  30.628  1.00  0.00     0.031 C 
ATOM     58  C   UNL A   1      44.717  29.579  30.095  1.00  0.00     0.031 A 
BRANCH  45  59
ATOM     59  C   UNL A   1      42.301  27.830  34.521  1.00  0.00    -0.014 A 
ATOM     60  C   UNL A   1      42.914  26.643  34.072  1.00  0.00     0.009 A 
ATOM     61  C   UNL A   1      41.812  27.826  35.840  1.00  0.00     0.009 A 
ATOM     62  C   UNL A   1      42.961  25.494  34.873  1.00  0.00     0.001 A 
ATOM     63  C   UNL A   1      41.897  26.694  36.658  1.00  0.00     0.001 A 
ATOM     64  C   UNL A   1      42.445  25.519  36.163  1.00  0.00     0.000 A 
ENDBRANCH  45  59
BRANCH  46  65
ATOM     65  C   UNL A   1      43.358  24.935  26.766  1.00  0.00    -0.014 A 
ATOM     66  C   UNL A   1      42.531  23.814  26.930  1.00  0.00     0.009 A 
ATOM     67  C   UNL A   1      44.227  24.960  25.660  1.00  0.00     0.009 A 
ATOM     68  C   UNL A   1      42.531  22.780  25.988  1.00  0.00     0.001 A 
ATOM     69  C   UNL A   1      44.230  23.926  24.721  1.00  0.00     0.001 A 
ATOM     70  C   UNL A   1      43.367  22.846  24.874  1.00  0.00     0.000 A 
ENDBRANCH  46  65
BRANCH  58  71
ATOM     71  C   UNL A   1      44.932  30.544  28.952  1.00  0.00    -0.014 A 
ATOM     72  C   UNL A   1      46.190  31.086  28.632  1.00  0.00     0.009 A 
ATOM     73  C   UNL A   1      43.855  30.828  28.099  1.00  0.00     0.009 A 
ATOM     74  C   UNL A   1      46.351  31.931  27.527  1.00  0.00     0.001 A 
ATOM     75  C   UNL A   1      44.020  31.650  26.981  1.00  0.00     0.001 A 
ATOM     76  C   UNL A   1      45.265  32.212  26.702  1.00  0.00     0.000 A 
ENDBRANCH  58  71
ENDBRANCH  32  33
ENDBRANCH  24  27
ENDBRANCH  22  23
ENDBRANCH  21  22
ENDBRANCH   1  21
TORSDOF 13
ENDMDL
MODEL 3
REMARK VINA RESULT:     -10.7      4.271      6.394
REMARK SMILES Cc1nsc(N(C)C(=O)[C@H]2CCOC2)c1C(=O)NCCCNC(=O)c1ccc(-c2c3nc(c(-c4ccccc4)c4ccc([nH]4)c(-c4ccccc4)c4nc(c(-c5ccccc5)c5ccc2[nH]5)C=C4)C=C3)cc1
REMARK SMILES IDX 19 1 18 2 16 3 17 4 15 6 1 7 2 8 3 9 4 10 5 11 6 12 7 13
REMARK SMILES IDX 8 14 9 15 10 16 11 17 14 18 12 19 13 20 20 21 21 22 22 23
REMARK SMILES IDX 23 24 24 26 25 27 26 28 72 29 27 30 71 31 28 32 29 33 30 34
REMARK SMILES IDX 65 35 31 36 70 37 64 38 66 39 32 40 69 41 63 42 62 43 33 45
REMARK SMILES IDX 55 46 40 47 54 48 41 49 44 50 53 51 67 52 42 53 43 54 52 56
REMARK SMILES IDX 68 57 45 58 34 59 35 60 39 61 36 62 38 63 37 64 56 65 57 66
REMARK SMILES IDX 61 67 58 68 60 69 59 70 46 71 47 72 51 73 48 74 50 75 49 76
REMARK H PARENT 18 5 22 25 66 44 44 55
REMARK Flexibility Score: inf
ROOT
ATOM      1  C   UNL A   1      32.104  30.157  25.787  1.00  0.00     0.118 C 
ENDROOT
BRANCH   1   2
ATOM      2  N   UNL A   1      32.918  29.705  24.674  1.00  0.00    -0.352 N 
ATOM      3  C   UNL A   1      32.576  28.894  23.601  1.00  0.00     0.256 C 
ATOM      4  O   UNL A   1      33.293  28.950  22.599  1.00  0.00    -0.269 OA
ATOM      5  H   UNL A   1      33.850  30.020  24.680  1.00  0.00     0.163 HD
BRANCH   3   6
ATOM      6  C   UNL A   1      31.414  28.001  23.653  1.00  0.00     0.097 A 
ATOM      7  C   UNL A   1      29.437  29.659  22.952  1.00  0.00     0.069 C 
ATOM      8  C   UNL A   1      30.016  28.351  23.385  1.00  0.00     0.066 A 
ATOM      9  N   UNL A   1      29.127  27.371  23.506  1.00  0.00    -0.195 NA
ATOM     10  S   UNL A   1      29.911  25.964  23.759  1.00  0.00    -0.017 S 
ATOM     11  C   UNL A   1      31.507  26.600  23.762  1.00  0.00     0.131 A 
BRANCH  11  12
ATOM     12  N   UNL A   1      32.563  25.658  23.871  1.00  0.00    -0.305 N 
ATOM     13  C   UNL A   1      33.131  24.966  22.705  1.00  0.00     0.154 C 
BRANCH  12  14
ATOM     14  C   UNL A   1      33.070  25.367  25.151  1.00  0.00     0.232 C 
ATOM     15  O   UNL A   1      33.700  26.182  25.831  1.00  0.00    -0.274 OA
BRANCH  14  16
ATOM     16  C   UNL A   1      32.740  23.984  25.725  1.00  0.00     0.107 C 
ATOM     17  C   UNL A   1      33.850  23.395  26.569  1.00  0.00     0.044 C 
ATOM     18  C   UNL A   1      31.603  24.054  26.727  1.00  0.00     0.173 C 
ATOM     19  C   UNL A   1      33.100  22.431  27.464  1.00  0.00     0.161 C 
ATOM     20  O   UNL A   1      31.772  22.949  27.627  1.00  0.00    -0.381 OA
ENDBRANCH  14  16
ENDBRANCH  12  14
ENDBRANCH  11  12
ENDBRANCH   3   6
ENDBRANCH   1   2
BRANCH   1  21
ATOM     21  C   UNL A   1      32.747  30.312  27.158  1.00  0.00     0.042 C 
BRANCH  21  22
ATOM     22  C   UNL A   1      33.909  31.273  27.250  1.00  0.00     0.118 C 
BRANCH  22  23
ATOM     23  N   UNL A   1      34.002  32.066  28.476  1.00  0.00    -0.352 N 
ATOM     24  C   UNL A   1      35.024  31.987  29.415  1.00  0.00     0.251 C 
ATOM     25  H   UNL A   1      33.279  32.710  28.651  1.00  0.00     0.163 HD
ATOM     26  O   UNL A   1      34.926  32.505  30.523  1.00  0.00    -0.269 OA
BRANCH  24  27
ATOM     27  C   UNL A   1      36.222  31.206  29.047  1.00  0.00     0.039 A 
ATOM     28  C   UNL A   1      37.494  31.769  29.119  1.00  0.00     0.014 A 
ATOM     29  C   UNL A   1      36.060  29.836  28.870  1.00  0.00     0.014 A 
ATOM     30  C   UNL A   1      38.601  30.920  29.166  1.00  0.00     0.010 A 
ATOM     31  C   UNL A   1      37.138  29.004  29.091  1.00  0.00     0.010 A 
ATOM     32  C   UNL A   1      38.424  29.524  29.224  1.00  0.00    -0.014 A 
BRANCH  32  33
ATOM     33  C   UNL A   1      39.569  28.647  29.516  1.00  0.00     0.031 A 
ATOM     34  C   UNL A   1      39.941  28.478  30.956  1.00  0.00     0.074 A 
ATOM     35  C   UNL A   1      40.235  27.879  28.624  1.00  0.00     0.049 A 
ATOM     36  N   UNL A   1      40.993  28.942  31.547  1.00  0.00    -0.248 NA
ATOM     37  C   UNL A   1      39.021  27.762  31.853  1.00  0.00     0.031 C 
ATOM     38  C   UNL A   1      39.944  27.614  27.211  1.00  0.00     0.029 A 
ATOM     39  N   UNL A   1      41.322  27.083  28.854  1.00  0.00    -0.354 N 
ATOM     40  C   UNL A   1      40.969  28.452  32.850  1.00  0.00     0.074 A 
ATOM     41  C   UNL A   1      39.679  27.823  33.015  1.00  0.00     0.031 C 
ATOM     42  C   UNL A   1      40.667  26.557  26.784  1.00  0.00     0.029 A 
ATOM     43  C   UNL A   1      41.621  26.213  27.818  1.00  0.00     0.049 A 
ATOM     44  H   UNL A   1      41.848  27.124  29.686  1.00  0.00     0.167 HD
ATOM     45  C   UNL A   1      42.084  28.437  33.634  1.00  0.00     0.031 A 
ATOM     46  C   UNL A   1      42.606  25.290  27.779  1.00  0.00     0.031 A 
ATOM     47  C   UNL A   1      43.135  29.262  33.096  1.00  0.00     0.049 A 
ATOM     48  C   UNL A   1      43.644  25.704  28.743  1.00  0.00     0.074 A 
ATOM     49  C   UNL A   1      43.267  30.596  32.762  1.00  0.00     0.029 A 
ATOM     50  N   UNL A   1      44.187  28.626  32.482  1.00  0.00    -0.354 N 
ATOM     51  N   UNL A   1      44.399  26.751  28.578  1.00  0.00    -0.248 NA
ATOM     52  C   UNL A   1      43.615  25.162  30.089  1.00  0.00     0.031 C 
ATOM     53  C   UNL A   1      44.065  30.599  31.577  1.00  0.00     0.029 A 
ATOM     54  C   UNL A   1      44.408  29.275  31.295  1.00  0.00     0.049 A 
ATOM     55  H   UNL A   1      44.685  27.851  32.827  1.00  0.00     0.167 HD
ATOM     56  C   UNL A   1      44.576  27.261  29.853  1.00  0.00     0.074 A 
ATOM     57  C   UNL A   1      44.198  26.167  30.746  1.00  0.00     0.031 C 
ATOM     58  C   UNL A   1      44.744  28.601  30.060  1.00  0.00     0.031 A 
BRANCH  45  59
ATOM     59  C   UNL A   1      42.372  27.392  34.687  1.00  0.00    -0.014 A 
ATOM     60  C   UNL A   1      42.839  26.126  34.279  1.00  0.00     0.009 A 
ATOM     61  C   UNL A   1      41.934  27.502  36.018  1.00  0.00     0.009 A 
ATOM     62  C   UNL A   1      42.792  25.017  35.134  1.00  0.00     0.001 A 
ATOM     63  C   UNL A   1      41.926  26.406  36.888  1.00  0.00     0.001 A 
ATOM     64  C   UNL A   1      42.327  25.157  36.436  1.00  0.00     0.000 A 
ENDBRANCH  45  59
BRANCH  46  65
ATOM     65  C   UNL A   1      42.647  24.004  27.065  1.00  0.00    -0.014 A 
ATOM     66  C   UNL A   1      43.545  23.799  26.008  1.00  0.00     0.009 A 
ATOM     67  C   UNL A   1      41.996  22.881  27.609  1.00  0.00     0.009 A 
ATOM     68  C   UNL A   1      43.826  22.508  25.547  1.00  0.00     0.001 A 
ATOM     69  C   UNL A   1      42.274  21.592  27.146  1.00  0.00     0.001 A 
ATOM     70  C   UNL A   1      43.204  21.404  26.130  1.00  0.00     0.000 A 
ENDBRANCH  46  65
BRANCH  58  71
ATOM     71  C   UNL A   1      45.015  29.473  28.856  1.00  0.00    -0.014 A 
ATOM     72  C   UNL A   1      43.995  30.002  28.046  1.00  0.00     0.009 A 
ATOM     73  C   UNL A   1      46.337  29.867  28.596  1.00  0.00     0.009 A 
ATOM     74  C   UNL A   1      44.293  30.853  26.975  1.00  0.00     0.001 A 
ATOM     75  C   UNL A   1      46.632  30.738  27.543  1.00  0.00     0.001 A 
ATOM     76  C   UNL A   1      45.612  31.220  26.725  1.00  0.00     0.000 A 
ENDBRANCH  58  71
ENDBRANCH  32  33
ENDBRANCH  24  27
ENDBRANCH  22  23
ENDBRANCH  21  22
ENDBRANCH   1  21
TORSDOF 13
ENDMDL
