MODEL 1
REMARK VINA RESULT:     -12.5      0.000      0.000
REMARK SMILES Cc1ncc(CC(=O)N2CCc3c(c(C(=O)NCCCNC(=O)c4ccc(-c5c6nc(c(-c7ccccc7)c7ccc([nH]7)c(-c7ccccc7)c7nc(c(-c8ccccc8)c8ccc5[nH]8)C=C7)C=C6)cc4)nn3CC3CC3)C2)c(=O)[nH]1
REMARK SMILES IDX 18 1 17 2 15 3 16 4 14 6 9 7 10 8 78 9 11 10 13 11 12 12
REMARK SMILES IDX 73 13 72 14 7 15 8 16 6 17 5 18 1 19 2 20 3 21 81 22 4 23
REMARK SMILES IDX 79 24 80 26 74 27 75 28 76 29 77 30 19 31 20 32 21 33 22 34
REMARK SMILES IDX 23 36 24 37 25 38 71 39 26 40 70 41 27 42 28 43 29 44 64 45
REMARK SMILES IDX 30 46 69 47 63 48 65 49 31 50 68 51 62 52 61 53 32 55 54 56
REMARK SMILES IDX 39 57 53 58 40 59 43 60 52 61 66 62 41 63 42 64 51 66 67 67
REMARK SMILES IDX 44 68 33 69 34 70 38 71 35 72 37 73 36 74 55 75 56 76 60 77
REMARK SMILES IDX 57 78 59 79 58 80 45 81 46 82 50 83 47 84 49 85 48 86
REMARK H PARENT 17 5 81 25 21 35 65 54 43 65
REMARK Flexibility Score: inf
ROOT
ATOM      1  C   UNL A   1      33.700  30.157  26.911  1.00  0.00     0.118 C 
ENDROOT
BRANCH   1   2
ATOM      2  N   UNL A   1      32.799  29.272  27.647  1.00  0.00    -0.351 N 
ATOM      3  C   UNL A   1      31.877  28.349  27.188  1.00  0.00     0.272 C 
ATOM      4  O   UNL A   1      31.300  27.655  28.027  1.00  0.00    -0.267 OA
ATOM      5  H   UNL A   1      32.857  29.346  28.626  1.00  0.00     0.163 HD
BRANCH   3   6
ATOM      6  C   UNL A   1      31.582  28.217  25.749  1.00  0.00     0.155 A 
ATOM      7  N   UNL A   1      32.635  25.064  23.899  1.00  0.00    -0.338 N 
ATOM      8  C   UNL A   1      31.485  25.116  22.979  1.00  0.00     0.126 C 
ATOM      9  C   UNL A   1      32.413  25.730  25.207  1.00  0.00     0.159 C 
ATOM     10  C   UNL A   1      31.238  26.554  22.494  1.00  0.00     0.078 C 
ATOM     11  C   UNL A   1      31.800  27.075  24.922  1.00  0.00     0.026 A 
ATOM     12  C   UNL A   1      31.279  27.429  23.690  1.00  0.00     0.046 A 
ATOM     13  N   UNL A   1      30.850  28.709  23.794  1.00  0.00    -0.268 N 
ATOM     14  N   UNL A   1      31.017  29.204  25.029  1.00  0.00    -0.167 NA
BRANCH   7  15
ATOM     15  C   UNL A   1      33.855  24.451  23.672  1.00  0.00     0.227 C 
ATOM     16  O   UNL A   1      34.385  24.517  22.556  1.00  0.00    -0.275 OA
BRANCH  15  17
ATOM     17  C   UNL A   1      34.428  23.439  24.687  1.00  0.00     0.143 C 
BRANCH  17  18
ATOM     18  C   UNL A   1      34.123  21.987  24.565  1.00  0.00     0.045 A 
ATOM     19  C   UNL A   1      33.089  17.889  24.698  1.00  0.00     0.087 C 
ATOM     20  C   UNL A   1      33.445  19.341  24.569  1.00  0.00     0.105 A 
ATOM     21  N   UNL A   1      32.646  20.172  23.985  1.00  0.00    -0.243 NA
ATOM     22  N   UNL A   1      34.636  19.712  25.128  1.00  0.00    -0.311 N 
ATOM     23  C   UNL A   1      33.026  21.488  23.975  1.00  0.00     0.123 A 
ATOM     24  C   UNL A   1      35.063  21.008  25.147  1.00  0.00     0.254 A 
ATOM     25  H   UNL A   1      35.207  19.017  25.531  1.00  0.00     0.171 HD
ATOM     26  O   UNL A   1      36.128  21.338  25.652  1.00  0.00    -0.269 OA
ENDBRANCH  17  18
ENDBRANCH  15  17
ENDBRANCH   7  15
BRANCH  13  27
ATOM     27  C   UNL A   1      30.286  29.563  22.757  1.00  0.00     0.148 C 
BRANCH  27  28
ATOM     28  C   UNL A   1      28.799  29.424  22.563  1.00  0.00     0.011 C 
ATOM     29  C   UNL A   1      27.771  30.447  23.001  1.00  0.00     0.006 C 
ATOM     30  C   UNL A   1      28.104  30.298  21.545  1.00  0.00     0.006 C 
ENDBRANCH  27  28
ENDBRANCH  13  27
ENDBRANCH   3   6
ENDBRANCH   1   2
BRANCH   1  31
ATOM     31  C   UNL A   1      33.577  31.630  27.324  1.00  0.00     0.042 C 
BRANCH  31  32
ATOM     32  C   UNL A   1      34.858  32.130  27.969  1.00  0.00     0.118 C 
BRANCH  32  33
ATOM     33  N   UNL A   1      34.663  32.594  29.357  1.00  0.00    -0.352 N 
ATOM     34  C   UNL A   1      35.212  32.130  30.547  1.00  0.00     0.251 C 
ATOM     35  H   UNL A   1      34.043  33.352  29.456  1.00  0.00     0.163 HD
ATOM     36  O   UNL A   1      34.734  32.439  31.622  1.00  0.00    -0.269 OA
BRANCH  34  37
ATOM     37  C   UNL A   1      36.397  31.252  30.483  1.00  0.00     0.039 A 
ATOM     38  C   UNL A   1      36.332  29.873  30.259  1.00  0.00     0.014 A 
ATOM     39  C   UNL A   1      37.622  31.874  30.635  1.00  0.00     0.014 A 
ATOM     40  C   UNL A   1      37.528  29.159  30.161  1.00  0.00     0.010 A 
ATOM     41  C   UNL A   1      38.741  31.260  30.181  1.00  0.00     0.010 A 
ATOM     42  C   UNL A   1      38.726  29.878  30.136  1.00  0.00    -0.014 A 
BRANCH  42  43
ATOM     43  C   UNL A   1      40.047  29.283  30.078  1.00  0.00     0.031 A 
ATOM     44  C   UNL A   1      40.659  29.021  31.397  1.00  0.00     0.074 A 
ATOM     45  C   UNL A   1      40.462  28.663  28.949  1.00  0.00     0.049 A 
ATOM     46  N   UNL A   1      41.695  29.593  31.908  1.00  0.00    -0.248 NA
ATOM     47  C   UNL A   1      39.947  28.124  32.325  1.00  0.00     0.031 C 
ATOM     48  C   UNL A   1      39.732  28.483  27.682  1.00  0.00     0.029 A 
ATOM     49  N   UNL A   1      41.561  27.890  28.761  1.00  0.00    -0.354 N 
ATOM     50  C   UNL A   1      41.894  28.973  33.136  1.00  0.00     0.074 A 
ATOM     51  C   UNL A   1      40.666  28.285  33.438  1.00  0.00     0.031 C 
ATOM     52  C   UNL A   1      40.281  27.460  26.990  1.00  0.00     0.029 A 
ATOM     53  C   UNL A   1      41.474  27.014  27.686  1.00  0.00     0.049 A 
ATOM     54  H   UNL A   1      42.356  27.946  29.340  1.00  0.00     0.167 HD
ATOM     55  C   UNL A   1      43.144  28.822  33.658  1.00  0.00     0.031 A 
ATOM     56  C   UNL A   1      42.283  25.949  27.448  1.00  0.00     0.031 A 
ATOM     57  C   UNL A   1      44.118  29.585  32.911  1.00  0.00     0.049 A 
ATOM     58  C   UNL A   1      43.513  26.150  28.258  1.00  0.00     0.074 A 
ATOM     59  C   UNL A   1      44.248  30.915  32.558  1.00  0.00     0.029 A 
ATOM     60  N   UNL A   1      44.919  28.886  32.034  1.00  0.00    -0.354 N 
ATOM     61  N   UNL A   1      44.354  27.126  28.053  1.00  0.00    -0.248 NA
ATOM     62  C   UNL A   1      43.543  25.579  29.599  1.00  0.00     0.031 C 
ATOM     63  C   UNL A   1      44.689  30.887  31.202  1.00  0.00     0.029 A 
ATOM     64  C   UNL A   1      44.894  29.554  30.838  1.00  0.00     0.049 A 
ATOM     65  H   UNL A   1      45.415  28.059  32.230  1.00  0.00     0.167 HD
ATOM     66  C   UNL A   1      44.678  27.590  29.323  1.00  0.00     0.074 A 
ATOM     67  C   UNL A   1      44.228  26.536  30.235  1.00  0.00     0.031 C 
ATOM     68  C   UNL A   1      44.983  28.905  29.547  1.00  0.00     0.031 A 
BRANCH  55  69
ATOM     69  C   UNL A   1      43.563  27.663  34.534  1.00  0.00    -0.014 A 
ATOM     70  C   UNL A   1      43.614  26.382  33.954  1.00  0.00     0.009 A 
ATOM     71  C   UNL A   1      43.640  27.716  35.938  1.00  0.00     0.009 A 
ATOM     72  C   UNL A   1      43.623  25.223  34.738  1.00  0.00     0.001 A 
ATOM     73  C   UNL A   1      43.696  26.564  36.725  1.00  0.00     0.001 A 
ATOM     74  C   UNL A   1      43.650  25.316  36.124  1.00  0.00     0.000 A 
ENDBRANCH  55  69
BRANCH  56  75
ATOM     75  C   UNL A   1      41.912  24.648  26.836  1.00  0.00    -0.014 A 
ATOM     76  C   UNL A   1      42.732  24.033  25.874  1.00  0.00     0.009 A 
ATOM     77  C   UNL A   1      40.861  23.877  27.371  1.00  0.00     0.009 A 
ATOM     78  C   UNL A   1      42.523  22.698  25.490  1.00  0.00     0.001 A 
ATOM     79  C   UNL A   1      40.646  22.549  26.984  1.00  0.00     0.001 A 
ATOM     80  C   UNL A   1      41.488  21.954  26.053  1.00  0.00     0.000 A 
ENDBRANCH  56  75
BRANCH  68  81
ATOM     81  C   UNL A   1      45.157  29.823  28.359  1.00  0.00    -0.014 A 
ATOM     82  C   UNL A   1      44.099  30.549  27.786  1.00  0.00     0.009 A 
ATOM     83  C   UNL A   1      46.462  30.117  27.936  1.00  0.00     0.009 A 
ATOM     84  C   UNL A   1      44.337  31.524  26.810  1.00  0.00     0.001 A 
ATOM     85  C   UNL A   1      46.702  31.105  26.977  1.00  0.00     0.001 A 
ATOM     86  C   UNL A   1      45.640  31.805  26.412  1.00  0.00     0.000 A 
ENDBRANCH  68  81
ENDBRANCH  42  43
ENDBRANCH  34  37
ENDBRANCH  32  33
ENDBRANCH  31  32
ENDBRANCH   1  31
TORSDOF 15
ENDMDL
MODEL 2
REMARK VINA RESULT:     -12.5      2.187      8.239
REMARK SMILES Cc1ncc(CC(=O)N2CCc3c(c(C(=O)NCCCNC(=O)c4ccc(-c5c6nc(c(-c7ccccc7)c7ccc([nH]7)c(-c7ccccc7)c7nc(c(-c8ccccc8)c8ccc5[nH]8)C=C7)C=C6)cc4)nn3CC3CC3)C2)c(=O)[nH]1
REMARK SMILES IDX 18 1 17 2 15 3 16 4 14 6 9 7 10 8 78 9 11 10 13 11 12 12
REMARK SMILES IDX 73 13 72 14 7 15 8 16 6 17 5 18 1 19 2 20 3 21 81 22 4 23
REMARK SMILES IDX 79 24 80 26 74 27 75 28 76 29 77 30 19 31 20 32 21 33 22 34
REMARK SMILES IDX 23 36 24 37 25 38 71 39 26 40 70 41 27 42 28 43 29 44 64 45
REMARK SMILES IDX 30 46 69 47 63 48 65 49 31 50 68 51 62 52 61 53 32 55 54 56
REMARK SMILES IDX 39 57 53 58 40 59 43 60 52 61 66 62 41 63 42 64 51 66 67 67
REMARK SMILES IDX 44 68 33 69 34 70 38 71 35 72 37 73 36 74 55 75 56 76 60 77
REMARK SMILES IDX 57 78 59 79 58 80 45 81 46 82 50 83 47 84 49 85 48 86
REMARK H PARENT 17 5 81 25 21 35 65 54 43 65
REMARK Flexibility Score: inf
ROOT
ATOM      1  C   UNL A   1      37.771  22.084  25.923  1.00  0.00     0.118 C 
ENDROOT
BRANCH   1   2
ATOM      2  N   UNL A   1      37.574  22.526  24.545  1.00  0.00    -0.351 N 
ATOM      3  C   UNL A   1      36.433  22.543  23.763  1.00  0.00     0.272 C 
ATOM      4  O   UNL A   1      36.515  23.058  22.646  1.00  0.00    -0.267 OA
ATOM      5  H   UNL A   1      38.383  22.865  24.100  1.00  0.00     0.163 HD
BRANCH   3   6
ATOM      6  C   UNL A   1      35.172  21.948  24.243  1.00  0.00     0.155 A 
ATOM      7  N   UNL A   1      32.227  24.208  25.077  1.00  0.00    -0.338 N 
ATOM      8  C   UNL A   1      31.229  23.206  24.663  1.00  0.00     0.126 C 
ATOM      9  C   UNL A   1      33.552  24.073  24.420  1.00  0.00     0.159 C 
ATOM     10  C   UNL A   1      31.620  21.806  25.164  1.00  0.00     0.078 C 
ATOM     11  C   UNL A   1      33.939  22.620  24.497  1.00  0.00     0.026 A 
ATOM     12  C   UNL A   1      33.054  21.613  24.839  1.00  0.00     0.046 A 
ATOM     13  N   UNL A   1      33.753  20.453  24.839  1.00  0.00    -0.268 N 
ATOM     14  N   UNL A   1      35.032  20.630  24.477  1.00  0.00    -0.167 NA
BRANCH   7  15
ATOM     15  C   UNL A   1      32.042  25.244  25.975  1.00  0.00     0.227 C 
ATOM     16  O   UNL A   1      31.334  25.080  26.976  1.00  0.00    -0.275 OA
BRANCH  15  17
ATOM     17  C   UNL A   1      32.452  26.687  25.608  1.00  0.00     0.143 C 
BRANCH  17  18
ATOM     18  C   UNL A   1      31.551  27.547  24.792  1.00  0.00     0.045 A 
ATOM     19  C   UNL A   1      29.329  29.931  22.098  1.00  0.00     0.087 C 
ATOM     20  C   UNL A   1      30.047  29.068  23.093  1.00  0.00     0.105 A 
ATOM     21  N   UNL A   1      29.686  27.843  23.294  1.00  0.00    -0.243 NA
ATOM     22  N   UNL A   1      31.103  29.653  23.734  1.00  0.00    -0.311 N 
ATOM     23  C   UNL A   1      30.442  27.114  24.172  1.00  0.00     0.123 A 
ATOM     24  C   UNL A   1      31.891  28.974  24.617  1.00  0.00     0.254 A 
ATOM     25  H   UNL A   1      31.302  30.600  23.551  1.00  0.00     0.171 HD
ATOM     26  O   UNL A   1      32.840  29.499  25.185  1.00  0.00    -0.269 OA
ENDBRANCH  17  18
ENDBRANCH  15  17
ENDBRANCH   7  15
BRANCH  13  27
ATOM     27  C   UNL A   1      33.294  19.118  25.198  1.00  0.00     0.148 C 
BRANCH  27  28
ATOM     28  C   UNL A   1      33.856  18.007  24.352  1.00  0.00     0.011 C 
ATOM     29  C   UNL A   1      33.298  16.600  24.289  1.00  0.00     0.006 C 
ATOM     30  C   UNL A   1      33.085  17.541  23.139  1.00  0.00     0.006 C 
ENDBRANCH  27  28
ENDBRANCH  13  27
ENDBRANCH   3   6
ENDBRANCH   1   2
BRANCH   1  31
ATOM     31  C   UNL A   1      39.067  21.288  26.127  1.00  0.00     0.042 C 
BRANCH  31  32
ATOM     32  C   UNL A   1      39.077  20.026  25.282  1.00  0.00     0.118 C 
BRANCH  32  33
ATOM     33  N   UNL A   1      40.131  19.072  25.680  1.00  0.00    -0.352 N 
ATOM     34  C   UNL A   1      41.440  19.298  26.091  1.00  0.00     0.251 C 
ATOM     35  H   UNL A   1      39.866  18.125  25.647  1.00  0.00     0.163 HD
ATOM     36  O   UNL A   1      42.256  18.396  26.112  1.00  0.00    -0.269 OA
BRANCH  34  37
ATOM     37  C   UNL A   1      41.825  20.659  26.509  1.00  0.00     0.039 A 
ATOM     38  C   UNL A   1      42.331  21.628  25.636  1.00  0.00     0.014 A 
ATOM     39  C   UNL A   1      41.634  20.961  27.845  1.00  0.00     0.014 A 
ATOM     40  C   UNL A   1      42.604  22.900  26.141  1.00  0.00     0.010 A 
ATOM     41  C   UNL A   1      41.549  22.258  28.228  1.00  0.00     0.010 A 
ATOM     42  C   UNL A   1      42.211  23.189  27.451  1.00  0.00    -0.014 A 
BRANCH  42  43
ATOM     43  C   UNL A   1      42.457  24.446  28.129  1.00  0.00     0.031 A 
ATOM     44  C   UNL A   1      41.377  25.445  27.978  1.00  0.00     0.074 A 
ATOM     45  C   UNL A   1      43.373  24.514  29.123  1.00  0.00     0.049 A 
ATOM     46  N   UNL A   1      41.431  26.568  27.348  1.00  0.00    -0.248 NA
ATOM     47  C   UNL A   1      40.029  25.085  28.453  1.00  0.00     0.031 C 
ATOM     48  C   UNL A   1      44.218  23.434  29.662  1.00  0.00     0.029 A 
ATOM     49  N   UNL A   1      43.606  25.526  29.994  1.00  0.00    -0.354 N 
ATOM     50  C   UNL A   1      40.186  27.158  27.532  1.00  0.00     0.074 A 
ATOM     51  C   UNL A   1      39.312  26.107  27.983  1.00  0.00     0.031 C 
ATOM     52  C   UNL A   1      44.648  23.777  30.897  1.00  0.00     0.029 A 
ATOM     53  C   UNL A   1      44.235  25.140  31.172  1.00  0.00     0.049 A 
ATOM     54  H   UNL A   1      43.350  26.459  29.808  1.00  0.00     0.167 HD
ATOM     55  C   UNL A   1      40.047  28.512  27.593  1.00  0.00     0.031 A 
ATOM     56  C   UNL A   1      44.325  25.872  32.313  1.00  0.00     0.031 A 
ATOM     57  C   UNL A   1      41.266  29.182  27.202  1.00  0.00     0.049 A 
ATOM     58  C   UNL A   1      44.045  27.285  31.945  1.00  0.00     0.074 A 
ATOM     59  C   UNL A   1      42.076  29.151  26.082  1.00  0.00     0.029 A 
ATOM     60  N   UNL A   1      42.048  29.695  28.214  1.00  0.00    -0.354 N 
ATOM     61  N   UNL A   1      44.815  27.988  31.163  1.00  0.00    -0.248 NA
ATOM     62  C   UNL A   1      42.665  27.747  32.033  1.00  0.00     0.031 C 
ATOM     63  C   UNL A   1      43.406  29.152  26.598  1.00  0.00     0.029 A 
ATOM     64  C   UNL A   1      43.334  29.279  27.988  1.00  0.00     0.049 A 
ATOM     65  H   UNL A   1      41.740  30.255  28.962  1.00  0.00     0.167 HD
ATOM     66  C   UNL A   1      43.942  28.672  30.325  1.00  0.00     0.074 A 
ATOM     67  C   UNL A   1      42.633  28.562  30.973  1.00  0.00     0.031 C 
ATOM     68  C   UNL A   1      44.286  28.987  29.038  1.00  0.00     0.031 A 
BRANCH  55  69
ATOM     69  C   UNL A   1      38.995  29.220  28.418  1.00  0.00    -0.014 A 
ATOM     70  C   UNL A   1      38.999  29.012  29.810  1.00  0.00     0.009 A 
ATOM     71  C   UNL A   1      37.855  29.847  27.883  1.00  0.00     0.009 A 
ATOM     72  C   UNL A   1      37.880  29.308  30.597  1.00  0.00     0.001 A 
ATOM     73  C   UNL A   1      36.754  30.186  28.671  1.00  0.00     0.001 A 
ATOM     74  C   UNL A   1      36.753  29.882  30.023  1.00  0.00     0.000 A 
ENDBRANCH  55  69
BRANCH  56  75
ATOM     75  C   UNL A   1      44.312  25.374  33.712  1.00  0.00    -0.014 A 
ATOM     76  C   UNL A   1      44.820  26.149  34.768  1.00  0.00     0.009 A 
ATOM     77  C   UNL A   1      43.575  24.224  34.057  1.00  0.00     0.009 A 
ATOM     78  C   UNL A   1      44.575  25.801  36.107  1.00  0.00     0.001 A 
ATOM     79  C   UNL A   1      43.336  23.871  35.390  1.00  0.00     0.001 A 
ATOM     80  C   UNL A   1      43.825  24.669  36.417  1.00  0.00     0.000 A 
ENDBRANCH  56  75
BRANCH  68  81
ATOM     81  C   UNL A   1      45.711  28.755  28.589  1.00  0.00    -0.014 A 
ATOM     82  C   UNL A   1      46.715  29.735  28.674  1.00  0.00     0.009 A 
ATOM     83  C   UNL A   1      46.096  27.446  28.262  1.00  0.00     0.009 A 
ATOM     84  C   UNL A   1      48.055  29.421  28.420  1.00  0.00     0.001 A 
ATOM     85  C   UNL A   1      47.436  27.126  28.029  1.00  0.00     0.001 A 
ATOM     86  C   UNL A   1      48.415  28.114  28.106  1.00  0.00     0.000 A 
ENDBRANCH  68  81
ENDBRANCH  42  43
ENDBRANCH  34  37
ENDBRANCH  32  33
ENDBRANCH  31  32
ENDBRANCH   1  31
TORSDOF 15
ENDMDL
MODEL 3
REMARK VINA RESULT:     -12.2      2.363      8.303
REMARK SMILES Cc1ncc(CC(=O)N2CCc3c(c(C(=O)NCCCNC(=O)c4ccc(-c5c6nc(c(-c7ccccc7)c7ccc([nH]7)c(-c7ccccc7)c7nc(c(-c8ccccc8)c8ccc5[nH]8)C=C7)C=C6)cc4)nn3CC3CC3)C2)c(=O)[nH]1
REMARK SMILES IDX 18 1 17 2 15 3 16 4 14 6 9 7 10 8 78 9 11 10 13 11 12 12
REMARK SMILES IDX 73 13 72 14 7 15 8 16 6 17 5 18 1 19 2 20 3 21 81 22 4 23
REMARK SMILES IDX 79 24 80 26 74 27 75 28 76 29 77 30 19 31 20 32 21 33 22 34
REMARK SMILES IDX 23 36 24 37 25 38 71 39 26 40 70 41 27 42 28 43 29 44 64 45
REMARK SMILES IDX 30 46 69 47 63 48 65 49 31 50 68 51 62 52 61 53 32 55 54 56
REMARK SMILES IDX 39 57 53 58 40 59 43 60 52 61 66 62 41 63 42 64 51 66 67 67
REMARK SMILES IDX 44 68 33 69 34 70 38 71 35 72 37 73 36 74 55 75 56 76 60 77
REMARK SMILES IDX 57 78 59 79 58 80 45 81 46 82 50 83 47 84 49 85 48 86
REMARK H PARENT 17 5 81 25 21 35 65 54 43 65
REMARK Flexibility Score: inf
ROOT
ATOM      1  C   UNL A   1      37.356  22.373  25.225  1.00  0.00     0.118 C 
ENDROOT
BRANCH   1   2
ATOM      2  N   UNL A   1      36.504  22.767  26.344  1.00  0.00    -0.351 N 
ATOM      3  C   UNL A   1      35.162  22.529  26.577  1.00  0.00     0.272 C 
ATOM      4  O   UNL A   1      34.697  22.897  27.657  1.00  0.00    -0.267 OA
ATOM      5  H   UNL A   1      36.958  23.287  27.046  1.00  0.00     0.163 HD
BRANCH   3   6
ATOM      6  C   UNL A   1      34.317  21.878  25.559  1.00  0.00     0.155 A 
ATOM      7  N   UNL A   1      32.577  24.003  22.926  1.00  0.00    -0.338 N 
ATOM      8  C   UNL A   1      32.667  22.955  21.895  1.00  0.00     0.126 C 
ATOM      9  C   UNL A   1      33.618  23.927  23.982  1.00  0.00     0.159 C 
ATOM     10  C   UNL A   1      32.329  21.576  22.486  1.00  0.00     0.078 C 
ATOM     11  C   UNL A   1      33.681  22.494  24.439  1.00  0.00     0.026 A 
ATOM     12  C   UNL A   1      33.089  21.448  23.753  1.00  0.00     0.046 A 
ATOM     13  N   UNL A   1      33.322  20.322  24.468  1.00  0.00    -0.268 N 
ATOM     14  N   UNL A   1      34.065  20.556  25.559  1.00  0.00    -0.167 NA
BRANCH   7  15
ATOM     15  C   UNL A   1      31.655  25.034  22.986  1.00  0.00     0.227 C 
ATOM     16  O   UNL A   1      30.447  24.783  23.069  1.00  0.00    -0.275 OA
BRANCH  15  17
ATOM     17  C   UNL A   1      32.072  26.483  22.653  1.00  0.00     0.143 C 
BRANCH  17  18
ATOM     18  C   UNL A   1      32.242  27.491  23.736  1.00  0.00     0.045 A 
ATOM     19  C   UNL A   1      32.424  30.658  26.531  1.00  0.00     0.087 C 
ATOM     20  C   UNL A   1      32.374  29.482  25.601  1.00  0.00     0.105 A 
ATOM     21  N   UNL A   1      31.577  28.490  25.825  1.00  0.00    -0.243 NA
ATOM     22  N   UNL A   1      33.196  29.552  24.511  1.00  0.00    -0.311 N 
ATOM     23  C   UNL A   1      31.552  27.494  24.887  1.00  0.00     0.123 A 
ATOM     24  C   UNL A   1      33.212  28.589  23.544  1.00  0.00     0.254 A 
ATOM     25  H   UNL A   1      33.798  30.325  24.421  1.00  0.00     0.171 HD
ATOM     26  O   UNL A   1      33.944  28.656  22.566  1.00  0.00    -0.269 OA
ENDBRANCH  17  18
ENDBRANCH  15  17
ENDBRANCH   7  15
BRANCH  13  27
ATOM     27  C   UNL A   1      32.850  18.969  24.206  1.00  0.00     0.148 C 
BRANCH  27  28
ATOM     28  C   UNL A   1      33.929  17.920  24.166  1.00  0.00     0.011 C 
ATOM     29  C   UNL A   1      33.694  16.431  24.321  1.00  0.00     0.006 C 
ATOM     30  C   UNL A   1      34.020  17.000  22.970  1.00  0.00     0.006 C 
ENDBRANCH  27  28
ENDBRANCH  13  27
ENDBRANCH   3   6
ENDBRANCH   1   2
BRANCH   1  31
ATOM     31  C   UNL A   1      38.542  21.492  25.644  1.00  0.00     0.042 C 
BRANCH  31  32
ATOM     32  C   UNL A   1      39.550  22.279  26.463  1.00  0.00     0.118 C 
BRANCH  32  33
ATOM     33  N   UNL A   1      40.938  22.110  25.989  1.00  0.00    -0.352 N 
ATOM     34  C   UNL A   1      41.947  23.048  25.806  1.00  0.00     0.251 C 
ATOM     35  H   UNL A   1      41.187  21.185  25.764  1.00  0.00     0.163 HD
ATOM     36  O   UNL A   1      42.937  22.786  25.148  1.00  0.00    -0.269 OA
BRANCH  34  37
ATOM     37  C   UNL A   1      41.801  24.375  26.434  1.00  0.00     0.039 A 
ATOM     38  C   UNL A   1      41.007  25.401  25.909  1.00  0.00     0.014 A 
ATOM     39  C   UNL A   1      42.485  24.565  27.621  1.00  0.00     0.014 A 
ATOM     40  C   UNL A   1      40.902  26.593  26.627  1.00  0.00     0.010 A 
ATOM     41  C   UNL A   1      42.091  25.549  28.465  1.00  0.00     0.010 A 
ATOM     42  C   UNL A   1      41.466  26.647  27.905  1.00  0.00    -0.014 A 
BRANCH  42  43
ATOM     43  C   UNL A   1      41.474  27.820  28.756  1.00  0.00     0.031 A 
ATOM     44  C   UNL A   1      42.492  28.830  28.395  1.00  0.00     0.074 A 
ATOM     45  C   UNL A   1      40.393  28.117  29.513  1.00  0.00     0.049 A 
ATOM     46  N   UNL A   1      43.528  29.177  29.079  1.00  0.00    -0.248 NA
ATOM     47  C   UNL A   1      42.436  29.418  27.046  1.00  0.00     0.031 C 
ATOM     48  C   UNL A   1      39.118  27.386  29.614  1.00  0.00     0.029 A 
ATOM     49  N   UNL A   1      40.133  29.250  30.212  1.00  0.00    -0.354 N 
ATOM     50  C   UNL A   1      44.139  30.185  28.342  1.00  0.00     0.074 A 
ATOM     51  C   UNL A   1      43.581  30.102  27.017  1.00  0.00     0.031 C 
ATOM     52  C   UNL A   1      38.164  28.213  30.099  1.00  0.00     0.029 A 
ATOM     53  C   UNL A   1      38.785  29.469  30.474  1.00  0.00     0.049 A 
ATOM     54  H   UNL A   1      40.840  29.866  30.510  1.00  0.00     0.167 HD
ATOM     55  C   UNL A   1      44.822  31.194  28.954  1.00  0.00     0.031 A 
ATOM     56  C   UNL A   1      38.226  30.636  30.888  1.00  0.00     0.031 A 
ATOM     57  C   UNL A   1      45.014  30.918  30.359  1.00  0.00     0.049 A 
ATOM     58  C   UNL A   1      39.326  31.474  31.433  1.00  0.00     0.074 A 
ATOM     59  C   UNL A   1      45.576  29.881  31.078  1.00  0.00     0.029 A 
ATOM     60  N   UNL A   1      44.191  31.583  31.243  1.00  0.00    -0.354 N 
ATOM     61  N   UNL A   1      40.007  31.158  32.499  1.00  0.00    -0.248 NA
ATOM     62  C   UNL A   1      39.998  32.389  30.519  1.00  0.00     0.031 C 
ATOM     63  C   UNL A   1      44.682  29.673  32.171  1.00  0.00     0.029 A 
ATOM     64  C   UNL A   1      43.686  30.650  32.110  1.00  0.00     0.049 A 
ATOM     65  H   UNL A   1      44.001  32.548  31.249  1.00  0.00     0.167 HD
ATOM     66  C   UNL A   1      41.328  31.447  32.177  1.00  0.00     0.074 A 
ATOM     67  C   UNL A   1      41.248  32.296  30.985  1.00  0.00     0.031 C 
ATOM     68  C   UNL A   1      42.366  30.726  32.700  1.00  0.00     0.031 A 
BRANCH  55  69
ATOM     69  C   UNL A   1      44.918  32.602  28.411  1.00  0.00    -0.014 A 
ATOM     70  C   UNL A   1      43.752  33.390  28.411  1.00  0.00     0.009 A 
ATOM     71  C   UNL A   1      46.004  33.091  27.661  1.00  0.00     0.009 A 
ATOM     72  C   UNL A   1      43.644  34.535  27.614  1.00  0.00     0.001 A 
ATOM     73  C   UNL A   1      45.916  34.259  26.901  1.00  0.00     0.001 A 
ATOM     74  C   UNL A   1      44.723  34.961  26.849  1.00  0.00     0.000 A 
ENDBRANCH  55  69
BRANCH  56  75
ATOM     75  C   UNL A   1      36.886  31.173  30.538  1.00  0.00    -0.014 A 
ATOM     76  C   UNL A   1      36.176  31.998  31.426  1.00  0.00     0.009 A 
ATOM     77  C   UNL A   1      36.396  31.074  29.221  1.00  0.00     0.009 A 
ATOM     78  C   UNL A   1      35.042  32.713  31.003  1.00  0.00     0.001 A 
ATOM     79  C   UNL A   1      35.262  31.780  28.799  1.00  0.00     0.001 A 
ATOM     80  C   UNL A   1      34.593  32.611  29.688  1.00  0.00     0.000 A 
ENDBRANCH  56  75
BRANCH  68  81
ATOM     81  C   UNL A   1      42.076  29.723  33.794  1.00  0.00    -0.014 A 
ATOM     82  C   UNL A   1      41.696  28.394  33.539  1.00  0.00     0.009 A 
ATOM     83  C   UNL A   1      42.391  30.075  35.115  1.00  0.00     0.009 A 
ATOM     84  C   UNL A   1      41.617  27.454  34.573  1.00  0.00     0.001 A 
ATOM     85  C   UNL A   1      42.333  29.132  36.144  1.00  0.00     0.001 A 
ATOM     86  C   UNL A   1      41.943  27.823  35.874  1.00  0.00     0.000 A 
ENDBRANCH  68  81
ENDBRANCH  42  43
ENDBRANCH  34  37
ENDBRANCH  32  33
ENDBRANCH  31  32
ENDBRANCH   1  31
TORSDOF 15
ENDMDL
