MODEL 1
REMARK VINA RESULT:     -12.3      0.000      0.000
REMARK SMILES O=C(CC1CCN(C(=O)c2ccc3[nH]ccc3c2)CC1)NCCCNC(=O)c1ccc(-c2c3nc(c(-c4ccccc4)c4ccc([nH]4)c(-c4ccccc4)c4nc(c(-c5ccccc5)c5ccc2[nH]5)C=C4)C=C3)cc1
REMARK SMILES IDX 23 1 22 2 21 3 1 4 2 5 3 7 4 8 5 9 20 10 6 11 19 12 7 13
REMARK SMILES IDX 8 14 9 15 10 16 11 17 18 18 12 19 17 20 13 21 16 22 14 23
REMARK SMILES IDX 15 24 24 26 25 27 26 28 27 30 28 31 29 32 75 33 30 34 74 35
REMARK SMILES IDX 31 36 32 37 33 38 68 39 34 40 73 41 67 42 69 43 35 44 72 45
REMARK SMILES IDX 66 46 65 47 36 49 58 50 43 51 57 52 44 53 47 54 56 55 70 56
REMARK SMILES IDX 45 57 46 58 55 60 71 61 48 62 37 63 38 64 42 65 39 66 41 67
REMARK SMILES IDX 40 68 59 69 60 70 64 71 61 72 63 73 62 74 49 75 50 76 54 77
REMARK SMILES IDX 51 78 53 79 52 80
REMARK H PARENT 21 6 14 25 25 29 69 48 47 59
REMARK Flexibility Score: inf
ROOT
ATOM      1  C   UNL A   1      37.632  20.921  24.639  1.00  0.00     0.042 C 
ENDROOT
BRANCH   1   2
ATOM      2  C   UNL A   1      36.351  20.181  25.000  1.00  0.00     0.117 C 
BRANCH   2   3
ATOM      3  N   UNL A   1      35.203  21.062  25.062  1.00  0.00    -0.356 N 
ATOM      4  O   UNL A   1      33.641  19.415  24.698  1.00  0.00    -0.275 OA
ATOM      5  C   UNL A   1      33.918  20.571  24.990  1.00  0.00     0.220 C 
ATOM      6  H   UNL A   1      35.344  22.031  25.156  1.00  0.00     0.163 HD
BRANCH   5   7
ATOM      7  C   UNL A   1      32.876  21.582  25.422  1.00  0.00     0.103 C 
BRANCH   7   8
ATOM      8  C   UNL A   1      31.915  22.011  24.290  1.00  0.00     0.002 C 
ATOM      9  C   UNL A   1      32.659  22.141  22.948  1.00  0.00     0.026 C 
ATOM     10  C   UNL A   1      31.097  23.295  24.515  1.00  0.00     0.026 C 
ATOM     11  C   UNL A   1      33.490  23.422  22.857  1.00  0.00     0.120 C 
ATOM     12  C   UNL A   1      31.904  24.582  24.382  1.00  0.00     0.120 C 
ATOM     13  N   UNL A   1      32.709  24.617  23.164  1.00  0.00    -0.339 N 
ATOM     14  C   UNL A   1      32.902  25.759  22.382  1.00  0.00     0.253 C 
ATOM     15  O   UNL A   1      33.600  25.791  21.373  1.00  0.00    -0.269 OA
BRANCH  14  16
ATOM     16  C   UNL A   1      32.247  27.015  22.801  1.00  0.00     0.040 A 
ATOM     17  C   UNL A   1      32.911  27.877  23.674  1.00  0.00     0.016 A 
ATOM     18  C   UNL A   1      30.969  27.313  22.305  1.00  0.00     0.024 A 
ATOM     19  C   UNL A   1      32.289  29.043  24.122  1.00  0.00     0.027 A 
ATOM     20  C   UNL A   1      30.327  28.482  22.760  1.00  0.00     0.000 A 
ATOM     21  C   UNL A   1      30.993  29.304  23.668  1.00  0.00     0.045 A 
ATOM     22  C   UNL A   1      29.065  29.085  22.506  1.00  0.00     0.028 A 
ATOM     23  N   UNL A   1      30.145  30.344  23.980  1.00  0.00    -0.361 N 
ATOM     24  C   UNL A   1      28.979  30.225  23.273  1.00  0.00     0.083 A 
ATOM     25  H   UNL A   1      30.349  31.067  24.617  1.00  0.00     0.166 HD
ENDBRANCH  14  16
ENDBRANCH   7   8
ENDBRANCH   5   7
ENDBRANCH   2   3
ENDBRANCH   1   2
BRANCH   1  26
ATOM     26  C   UNL A   1      38.660  20.991  25.767  1.00  0.00     0.118 C 
BRANCH  26  27
ATOM     27  N   UNL A   1      39.583  19.866  25.771  1.00  0.00    -0.352 N 
ATOM     28  C   UNL A   1      40.931  19.843  26.041  1.00  0.00     0.251 C 
ATOM     29  H   UNL A   1      39.184  18.994  25.547  1.00  0.00     0.163 HD
ATOM     30  O   UNL A   1      41.585  18.834  25.786  1.00  0.00    -0.269 OA
BRANCH  28  31
ATOM     31  C   UNL A   1      41.614  21.027  26.613  1.00  0.00     0.039 A 
ATOM     32  C   UNL A   1      42.235  21.918  25.733  1.00  0.00     0.014 A 
ATOM     33  C   UNL A   1      41.632  21.283  27.986  1.00  0.00     0.014 A 
ATOM     34  C   UNL A   1      42.749  23.123  26.212  1.00  0.00     0.010 A 
ATOM     35  C   UNL A   1      42.070  22.520  28.455  1.00  0.00     0.010 A 
ATOM     36  C   UNL A   1      42.598  23.467  27.565  1.00  0.00    -0.014 A 
BRANCH  36  37
ATOM     37  C   UNL A   1      42.894  24.843  28.039  1.00  0.00     0.031 A 
ATOM     38  C   UNL A   1      44.284  25.243  28.435  1.00  0.00     0.074 A 
ATOM     39  C   UNL A   1      41.872  25.712  28.185  1.00  0.00     0.049 A 
ATOM     40  N   UNL A   1      44.704  26.381  28.928  1.00  0.00    -0.248 NA
ATOM     41  C   UNL A   1      45.338  24.229  28.277  1.00  0.00     0.031 C 
ATOM     42  C   UNL A   1      40.468  25.430  27.872  1.00  0.00     0.029 A 
ATOM     43  N   UNL A   1      41.853  27.007  28.641  1.00  0.00    -0.354 N 
ATOM     44  C   UNL A   1      46.065  26.217  29.148  1.00  0.00     0.074 A 
ATOM     45  C   UNL A   1      46.392  24.857  28.778  1.00  0.00     0.031 C 
ATOM     46  C   UNL A   1      39.733  26.526  28.115  1.00  0.00     0.029 A 
ATOM     47  C   UNL A   1      40.598  27.570  28.652  1.00  0.00     0.049 A 
ATOM     48  H   UNL A   1      42.662  27.488  28.934  1.00  0.00     0.167 HD
ATOM     49  C   UNL A   1      46.963  27.124  29.603  1.00  0.00     0.031 A 
ATOM     50  C   UNL A   1      40.185  28.784  29.061  1.00  0.00     0.031 A 
ATOM     51  C   UNL A   1      46.630  28.473  29.978  1.00  0.00     0.049 A 
ATOM     52  C   UNL A   1      41.195  29.756  29.600  1.00  0.00     0.074 A 
ATOM     53  C   UNL A   1      47.477  29.480  30.409  1.00  0.00     0.029 A 
ATOM     54  N   UNL A   1      45.348  29.001  29.978  1.00  0.00    -0.354 N 
ATOM     55  N   UNL A   1      42.491  29.609  29.735  1.00  0.00    -0.248 NA
ATOM     56  C   UNL A   1      40.688  31.064  30.039  1.00  0.00     0.031 C 
ATOM     57  C   UNL A   1      46.700  30.597  30.728  1.00  0.00     0.029 A 
ATOM     58  C   UNL A   1      45.378  30.310  30.431  1.00  0.00     0.049 A 
ATOM     59  H   UNL A   1      44.538  28.518  29.698  1.00  0.00     0.167 HD
ATOM     60  C   UNL A   1      42.958  30.814  30.241  1.00  0.00     0.074 A 
ATOM     61  C   UNL A   1      41.809  31.686  30.379  1.00  0.00     0.031 C 
ATOM     62  C   UNL A   1      44.228  31.168  30.558  1.00  0.00     0.031 A 
BRANCH  49  63
ATOM     63  C   UNL A   1      48.393  26.678  29.736  1.00  0.00    -0.014 A 
ATOM     64  C   UNL A   1      48.853  26.041  30.900  1.00  0.00     0.009 A 
ATOM     65  C   UNL A   1      49.285  26.862  28.667  1.00  0.00     0.009 A 
ATOM     66  C   UNL A   1      50.185  25.633  31.005  1.00  0.00     0.001 A 
ATOM     67  C   UNL A   1      50.607  26.423  28.762  1.00  0.00     0.001 A 
ATOM     68  C   UNL A   1      51.058  25.819  29.935  1.00  0.00     0.000 A 
ENDBRANCH  49  63
BRANCH  50  69
ATOM     69  C   UNL A   1      38.745  29.150  28.973  1.00  0.00    -0.014 A 
ATOM     70  C   UNL A   1      38.215  29.681  27.787  1.00  0.00     0.009 A 
ATOM     71  C   UNL A   1      37.895  28.977  30.077  1.00  0.00     0.009 A 
ATOM     72  C   UNL A   1      36.871  30.056  27.718  1.00  0.00     0.001 A 
ATOM     73  C   UNL A   1      36.545  29.323  29.994  1.00  0.00     0.001 A 
ATOM     74  C   UNL A   1      36.036  29.872  28.819  1.00  0.00     0.000 A 
ENDBRANCH  50  69
BRANCH  62  75
ATOM     75  C   UNL A   1      44.455  32.572  31.042  1.00  0.00    -0.014 A 
ATOM     76  C   UNL A   1      44.445  32.888  32.409  1.00  0.00     0.009 A 
ATOM     77  C   UNL A   1      44.751  33.582  30.111  1.00  0.00     0.009 A 
ATOM     78  C   UNL A   1      44.703  34.193  32.832  1.00  0.00     0.001 A 
ATOM     79  C   UNL A   1      45.040  34.877  30.540  1.00  0.00     0.001 A 
ATOM     80  C   UNL A   1      45.008  35.183  31.899  1.00  0.00     0.000 A 
ENDBRANCH  62  75
ENDBRANCH  36  37
ENDBRANCH  28  31
ENDBRANCH  26  27
ENDBRANCH   1  26
TORSDOF 12
ENDMDL
MODEL 2
REMARK VINA RESULT:     -12.1      3.350      9.063
REMARK SMILES O=C(CC1CCN(C(=O)c2ccc3[nH]ccc3c2)CC1)NCCCNC(=O)c1ccc(-c2c3nc(c(-c4ccccc4)c4ccc([nH]4)c(-c4ccccc4)c4nc(c(-c5ccccc5)c5ccc2[nH]5)C=C4)C=C3)cc1
REMARK SMILES IDX 23 1 22 2 21 3 1 4 2 5 3 7 4 8 5 9 20 10 6 11 19 12 7 13
REMARK SMILES IDX 8 14 9 15 10 16 11 17 18 18 12 19 17 20 13 21 16 22 14 23
REMARK SMILES IDX 15 24 24 26 25 27 26 28 27 30 28 31 29 32 75 33 30 34 74 35
REMARK SMILES IDX 31 36 32 37 33 38 68 39 34 40 73 41 67 42 69 43 35 44 72 45
REMARK SMILES IDX 66 46 65 47 36 49 58 50 43 51 57 52 44 53 47 54 56 55 70 56
REMARK SMILES IDX 45 57 46 58 55 60 71 61 48 62 37 63 38 64 42 65 39 66 41 67
REMARK SMILES IDX 40 68 59 69 60 70 64 71 61 72 63 73 62 74 49 75 50 76 54 77
REMARK SMILES IDX 51 78 53 79 52 80
REMARK H PARENT 21 6 14 25 25 29 69 48 47 59
REMARK Flexibility Score: inf
ROOT
ATOM      1  C   UNL A   1      31.965  30.690  27.014  1.00  0.00     0.042 C 
ENDROOT
BRANCH   1   2
ATOM      2  C   UNL A   1      31.389  30.654  25.605  1.00  0.00     0.117 C 
BRANCH   2   3
ATOM      3  N   UNL A   1      31.613  29.382  24.950  1.00  0.00    -0.356 N 
ATOM      4  O   UNL A   1      29.857  29.579  23.480  1.00  0.00    -0.275 OA
ATOM      5  C   UNL A   1      30.861  28.993  23.863  1.00  0.00     0.220 C 
ATOM      6  H   UNL A   1      32.317  28.783  25.288  1.00  0.00     0.163 HD
BRANCH   5   7
ATOM      7  C   UNL A   1      31.467  27.824  23.115  1.00  0.00     0.103 C 
BRANCH   7   8
ATOM      8  C   UNL A   1      30.591  26.550  23.131  1.00  0.00     0.002 C 
ATOM      9  C   UNL A   1      29.830  26.415  24.464  1.00  0.00     0.026 C 
ATOM     10  C   UNL A   1      31.294  25.213  22.838  1.00  0.00     0.026 C 
ATOM     11  C   UNL A   1      30.725  25.930  25.606  1.00  0.00     0.120 C 
ATOM     12  C   UNL A   1      32.153  24.694  23.986  1.00  0.00     0.120 C 
ATOM     13  N   UNL A   1      31.449  24.708  25.266  1.00  0.00    -0.339 N 
ATOM     14  C   UNL A   1      31.562  23.708  26.235  1.00  0.00     0.253 C 
ATOM     15  O   UNL A   1      30.989  23.735  27.321  1.00  0.00    -0.269 OA
BRANCH  14  16
ATOM     16  C   UNL A   1      32.441  22.554  25.955  1.00  0.00     0.040 A 
ATOM     17  C   UNL A   1      33.787  22.613  26.318  1.00  0.00     0.016 A 
ATOM     18  C   UNL A   1      31.897  21.422  25.332  1.00  0.00     0.024 A 
ATOM     19  C   UNL A   1      34.645  21.555  26.016  1.00  0.00     0.027 A 
ATOM     20  C   UNL A   1      32.758  20.353  25.010  1.00  0.00     0.000 A 
ATOM     21  C   UNL A   1      34.108  20.454  25.343  1.00  0.00     0.045 A 
ATOM     22  C   UNL A   1      32.582  19.091  24.381  1.00  0.00     0.028 A 
ATOM     23  N   UNL A   1      34.730  19.310  24.893  1.00  0.00    -0.361 N 
ATOM     24  C   UNL A   1      33.811  18.474  24.317  1.00  0.00     0.083 A 
ATOM     25  H   UNL A   1      35.693  19.122  24.974  1.00  0.00     0.166 HD
ENDBRANCH  14  16
ENDBRANCH   7   8
ENDBRANCH   5   7
ENDBRANCH   2   3
ENDBRANCH   1   2
BRANCH   1  26
ATOM     26  C   UNL A   1      33.124  31.669  27.199  1.00  0.00     0.118 C 
BRANCH  26  27
ATOM     27  N   UNL A   1      32.686  33.028  27.477  1.00  0.00    -0.352 N 
ATOM     28  C   UNL A   1      33.217  33.958  28.341  1.00  0.00     0.251 C 
ATOM     29  H   UNL A   1      31.893  33.327  26.974  1.00  0.00     0.163 HD
ATOM     30  O   UNL A   1      32.583  34.979  28.600  1.00  0.00    -0.269 OA
BRANCH  28  31
ATOM     31  C   UNL A   1      34.532  33.734  28.986  1.00  0.00     0.039 A 
ATOM     32  C   UNL A   1      34.561  33.044  30.201  1.00  0.00     0.014 A 
ATOM     33  C   UNL A   1      35.727  34.169  28.406  1.00  0.00     0.014 A 
ATOM     34  C   UNL A   1      35.784  32.674  30.761  1.00  0.00     0.010 A 
ATOM     35  C   UNL A   1      36.945  33.729  28.919  1.00  0.00     0.010 A 
ATOM     36  C   UNL A   1      36.982  32.945  30.081  1.00  0.00    -0.014 A 
BRANCH  36  37
ATOM     37  C   UNL A   1      38.262  32.331  30.519  1.00  0.00     0.031 A 
ATOM     38  C   UNL A   1      38.738  31.034  29.934  1.00  0.00     0.074 A 
ATOM     39  C   UNL A   1      38.956  32.919  31.515  1.00  0.00     0.049 A 
ATOM     40  N   UNL A   1      39.797  30.331  30.246  1.00  0.00    -0.248 NA
ATOM     41  C   UNL A   1      37.909  30.438  28.875  1.00  0.00     0.031 C 
ATOM     42  C   UNL A   1      38.576  34.161  32.194  1.00  0.00     0.029 A 
ATOM     43  N   UNL A   1      40.122  32.549  32.138  1.00  0.00    -0.354 N 
ATOM     44  C   UNL A   1      39.758  29.207  29.432  1.00  0.00     0.074 A 
ATOM     45  C   UNL A   1      38.547  29.299  28.644  1.00  0.00     0.031 C 
ATOM     46  C   UNL A   1      39.506  34.465  33.113  1.00  0.00     0.029 A 
ATOM     47  C   UNL A   1      40.517  33.416  33.130  1.00  0.00     0.049 A 
ATOM     48  H   UNL A   1      40.628  31.738  31.897  1.00  0.00     0.167 HD
ATOM     49  C   UNL A   1      40.657  28.198  29.339  1.00  0.00     0.031 A 
ATOM     50  C   UNL A   1      41.568  33.366  33.970  1.00  0.00     0.031 A 
ATOM     51  C   UNL A   1      41.854  28.107  30.131  1.00  0.00     0.049 A 
ATOM     52  C   UNL A   1      42.527  32.214  33.874  1.00  0.00     0.074 A 
ATOM     53  C   UNL A   1      42.850  27.146  30.079  1.00  0.00     0.029 A 
ATOM     54  N   UNL A   1      42.214  29.002  31.127  1.00  0.00    -0.354 N 
ATOM     55  N   UNL A   1      42.512  31.195  33.049  1.00  0.00    -0.248 NA
ATOM     56  C   UNL A   1      43.651  32.206  34.821  1.00  0.00     0.031 C 
ATOM     57  C   UNL A   1      43.779  27.425  31.085  1.00  0.00     0.029 A 
ATOM     58  C   UNL A   1      43.401  28.598  31.717  1.00  0.00     0.049 A 
ATOM     59  H   UNL A   1      41.703  29.804  31.378  1.00  0.00     0.167 HD
ATOM     60  C   UNL A   1      43.639  30.445  33.353  1.00  0.00     0.074 A 
ATOM     61  C   UNL A   1      44.322  31.131  34.431  1.00  0.00     0.031 C 
ATOM     62  C   UNL A   1      44.072  29.293  32.785  1.00  0.00     0.031 A 
BRANCH  49  63
ATOM     63  C   UNL A   1      40.368  27.100  28.353  1.00  0.00    -0.014 A 
ATOM     64  C   UNL A   1      40.886  27.136  27.048  1.00  0.00     0.009 A 
ATOM     65  C   UNL A   1      39.599  25.992  28.746  1.00  0.00     0.009 A 
ATOM     66  C   UNL A   1      40.608  26.106  26.146  1.00  0.00     0.001 A 
ATOM     67  C   UNL A   1      39.350  24.948  27.853  1.00  0.00     0.001 A 
ATOM     68  C   UNL A   1      39.845  25.011  26.551  1.00  0.00     0.000 A 
ENDBRANCH  49  63
BRANCH  50  69
ATOM     69  C   UNL A   1      41.769  34.444  34.976  1.00  0.00    -0.014 A 
ATOM     70  C   UNL A   1      42.481  35.606  34.644  1.00  0.00     0.009 A 
ATOM     71  C   UNL A   1      41.256  34.313  36.277  1.00  0.00     0.009 A 
ATOM     72  C   UNL A   1      42.699  36.602  35.600  1.00  0.00     0.001 A 
ATOM     73  C   UNL A   1      41.447  35.325  37.220  1.00  0.00     0.001 A 
ATOM     74  C   UNL A   1      42.177  36.463  36.885  1.00  0.00     0.000 A 
ENDBRANCH  50  69
BRANCH  62  75
ATOM     75  C   UNL A   1      45.369  28.721  33.283  1.00  0.00    -0.014 A 
ATOM     76  C   UNL A   1      45.413  27.845  34.378  1.00  0.00     0.009 A 
ATOM     77  C   UNL A   1      46.560  29.013  32.597  1.00  0.00     0.009 A 
ATOM     78  C   UNL A   1      46.627  27.293  34.792  1.00  0.00     0.001 A 
ATOM     79  C   UNL A   1      47.766  28.435  32.994  1.00  0.00     0.001 A 
ATOM     80  C   UNL A   1      47.799  27.581  34.094  1.00  0.00     0.000 A 
ENDBRANCH  62  75
ENDBRANCH  36  37
ENDBRANCH  28  31
ENDBRANCH  26  27
ENDBRANCH   1  26
TORSDOF 12
ENDMDL
MODEL 3
REMARK VINA RESULT:     -12.0      4.242      7.886
REMARK SMILES O=C(CC1CCN(C(=O)c2ccc3[nH]ccc3c2)CC1)NCCCNC(=O)c1ccc(-c2c3nc(c(-c4ccccc4)c4ccc([nH]4)c(-c4ccccc4)c4nc(c(-c5ccccc5)c5ccc2[nH]5)C=C4)C=C3)cc1
REMARK SMILES IDX 23 1 22 2 21 3 1 4 2 5 3 7 4 8 5 9 20 10 6 11 19 12 7 13
REMARK SMILES IDX 8 14 9 15 10 16 11 17 18 18 12 19 17 20 13 21 16 22 14 23
REMARK SMILES IDX 15 24 24 26 25 27 26 28 27 30 28 31 29 32 75 33 30 34 74 35
REMARK SMILES IDX 31 36 32 37 33 38 68 39 34 40 73 41 67 42 69 43 35 44 72 45
REMARK SMILES IDX 66 46 65 47 36 49 58 50 43 51 57 52 44 53 47 54 56 55 70 56
REMARK SMILES IDX 45 57 46 58 55 60 71 61 48 62 37 63 38 64 42 65 39 66 41 67
REMARK SMILES IDX 40 68 59 69 60 70 64 71 61 72 63 73 62 74 49 75 50 76 54 77
REMARK SMILES IDX 51 78 53 79 52 80
REMARK H PARENT 21 6 14 25 25 29 69 48 47 59
REMARK Flexibility Score: inf
ROOT
ATOM      1  C   UNL A   1      40.073  22.279  27.146  1.00  0.00     0.042 C 
ENDROOT
BRANCH   1   2
ATOM      2  C   UNL A   1      39.536  21.644  25.871  1.00  0.00     0.117 C 
BRANCH   2   3
ATOM      3  N   UNL A   1      38.239  22.168  25.497  1.00  0.00    -0.356 N 
ATOM      4  O   UNL A   1      37.357  20.142  24.863  1.00  0.00    -0.275 OA
ATOM      5  C   UNL A   1      37.216  21.334  25.101  1.00  0.00     0.220 C 
ATOM      6  H   UNL A   1      38.085  23.139  25.527  1.00  0.00     0.163 HD
BRANCH   5   7
ATOM      7  C   UNL A   1      35.866  22.020  25.097  1.00  0.00     0.103 C 
BRANCH   7   8
ATOM      8  C   UNL A   1      35.687  23.055  26.231  1.00  0.00     0.002 C 
ATOM      9  C   UNL A   1      34.558  22.636  27.192  1.00  0.00     0.026 C 
ATOM     10  C   UNL A   1      35.448  24.517  25.814  1.00  0.00     0.026 C 
ATOM     11  C   UNL A   1      33.166  22.890  26.611  1.00  0.00     0.120 C 
ATOM     12  C   UNL A   1      34.049  24.793  25.276  1.00  0.00     0.120 C 
ATOM     13  N   UNL A   1      32.999  24.262  26.140  1.00  0.00    -0.339 N 
ATOM     14  C   UNL A   1      31.792  24.915  26.402  1.00  0.00     0.253 C 
ATOM     15  O   UNL A   1      30.900  24.454  27.109  1.00  0.00    -0.269 OA
BRANCH  14  16
ATOM     16  C   UNL A   1      31.555  26.232  25.776  1.00  0.00     0.040 A 
ATOM     17  C   UNL A   1      32.041  27.384  26.397  1.00  0.00     0.016 A 
ATOM     18  C   UNL A   1      30.848  26.292  24.567  1.00  0.00     0.024 A 
ATOM     19  C   UNL A   1      31.784  28.641  25.848  1.00  0.00     0.027 A 
ATOM     20  C   UNL A   1      30.572  27.557  24.011  1.00  0.00     0.000 A 
ATOM     21  C   UNL A   1      31.029  28.696  24.673  1.00  0.00     0.045 A 
ATOM     22  C   UNL A   1      29.888  28.004  22.848  1.00  0.00     0.028 A 
ATOM     23  N   UNL A   1      30.600  29.790  23.955  1.00  0.00    -0.361 N 
ATOM     24  C   UNL A   1      29.916  29.380  22.842  1.00  0.00     0.083 A 
ATOM     25  H   UNL A   1      30.762  30.729  24.205  1.00  0.00     0.166 HD
ENDBRANCH  14  16
ENDBRANCH   7   8
ENDBRANCH   5   7
ENDBRANCH   2   3
ENDBRANCH   1   2
BRANCH   1  26
ATOM     26  C   UNL A   1      41.460  22.906  27.005  1.00  0.00     0.118 C 
BRANCH  26  27
ATOM     27  N   UNL A   1      41.520  23.935  25.977  1.00  0.00    -0.352 N 
ATOM     28  C   UNL A   1      41.319  25.291  26.086  1.00  0.00     0.251 C 
ATOM     29  H   UNL A   1      41.737  23.613  25.072  1.00  0.00     0.163 HD
ATOM     30  O   UNL A   1      41.201  25.971  25.069  1.00  0.00    -0.269 OA
BRANCH  28  31
ATOM     31  C   UNL A   1      41.215  25.942  27.414  1.00  0.00     0.039 A 
ATOM     32  C   UNL A   1      42.270  26.756  27.832  1.00  0.00     0.014 A 
ATOM     33  C   UNL A   1      40.094  25.782  28.232  1.00  0.00     0.014 A 
ATOM     34  C   UNL A   1      42.145  27.511  28.999  1.00  0.00     0.010 A 
ATOM     35  C   UNL A   1      39.933  26.596  29.352  1.00  0.00     0.010 A 
ATOM     36  C   UNL A   1      40.943  27.497  29.723  1.00  0.00    -0.014 A 
BRANCH  36  37
ATOM     37  C   UNL A   1      40.692  28.485  30.803  1.00  0.00     0.031 A 
ATOM     38  C   UNL A   1      39.637  29.540  30.656  1.00  0.00     0.074 A 
ATOM     39  C   UNL A   1      41.487  28.469  31.894  1.00  0.00     0.049 A 
ATOM     40  N   UNL A   1      39.330  30.516  31.474  1.00  0.00    -0.248 NA
ATOM     41  C   UNL A   1      38.833  29.511  29.424  1.00  0.00     0.031 C 
ATOM     42  C   UNL A   1      42.574  27.517  32.136  1.00  0.00     0.029 A 
ATOM     43  N   UNL A   1      41.509  29.281  33.000  1.00  0.00    -0.354 N 
ATOM     44  C   UNL A   1      38.308  31.222  30.852  1.00  0.00     0.074 A 
ATOM     45  C   UNL A   1      38.077  30.590  29.571  1.00  0.00     0.031 C 
ATOM     46  C   UNL A   1      43.135  27.780  33.326  1.00  0.00     0.029 A 
ATOM     47  C   UNL A   1      42.487  28.949  33.908  1.00  0.00     0.049 A 
ATOM     48  H   UNL A   1      40.884  30.032  33.131  1.00  0.00     0.167 HD
ATOM     49  C   UNL A   1      37.615  32.290  31.316  1.00  0.00     0.031 A 
ATOM     50  C   UNL A   1      42.835  29.528  35.073  1.00  0.00     0.031 A 
ATOM     51  C   UNL A   1      37.855  32.920  32.587  1.00  0.00     0.049 A 
ATOM     52  C   UNL A   1      42.077  30.737  35.543  1.00  0.00     0.074 A 
ATOM     53  C   UNL A   1      37.176  33.980  33.164  1.00  0.00     0.029 A 
ATOM     54  N   UNL A   1      38.857  32.556  33.473  1.00  0.00    -0.354 N 
ATOM     55  N   UNL A   1      41.066  31.349  34.975  1.00  0.00    -0.248 NA
ATOM     56  C   UNL A   1      42.504  31.333  36.817  1.00  0.00     0.031 C 
ATOM     57  C   UNL A   1      37.807  34.297  34.370  1.00  0.00     0.029 A 
ATOM     58  C   UNL A   1      38.834  33.391  34.579  1.00  0.00     0.049 A 
ATOM     59  H   UNL A   1      39.490  31.815  33.338  1.00  0.00     0.167 HD
ATOM     60  C   UNL A   1      40.715  32.378  35.837  1.00  0.00     0.074 A 
ATOM     61  C   UNL A   1      41.613  32.303  36.971  1.00  0.00     0.031 C 
ATOM     62  C   UNL A   1      39.730  33.301  35.703  1.00  0.00     0.031 A 
BRANCH  49  63
ATOM     63  C   UNL A   1      36.539  32.856  30.430  1.00  0.00    -0.014 A 
ATOM     64  C   UNL A   1      35.185  32.545  30.637  1.00  0.00     0.009 A 
ATOM     65  C   UNL A   1      36.880  33.745  29.398  1.00  0.00     0.009 A 
ATOM     66  C   UNL A   1      34.200  33.082  29.805  1.00  0.00     0.001 A 
ATOM     67  C   UNL A   1      35.890  34.306  28.588  1.00  0.00     0.001 A 
ATOM     68  C   UNL A   1      34.552  33.966  28.786  1.00  0.00     0.000 A 
ENDBRANCH  49  63
BRANCH  50  69
ATOM     69  C   UNL A   1      43.955  28.970  35.878  1.00  0.00    -0.014 A 
ATOM     70  C   UNL A   1      45.258  29.469  35.731  1.00  0.00     0.009 A 
ATOM     71  C   UNL A   1      43.728  27.929  36.793  1.00  0.00     0.009 A 
ATOM     72  C   UNL A   1      46.314  28.920  36.462  1.00  0.00     0.001 A 
ATOM     73  C   UNL A   1      44.780  27.405  37.547  1.00  0.00     0.001 A 
ATOM     74  C   UNL A   1      46.074  27.893  37.373  1.00  0.00     0.000 A 
ENDBRANCH  50  69
BRANCH  62  75
ATOM     75  C   UNL A   1      39.538  34.277  36.828  1.00  0.00    -0.014 A 
ATOM     76  C   UNL A   1      38.800  33.941  37.973  1.00  0.00     0.009 A 
ATOM     77  C   UNL A   1      40.167  35.532  36.767  1.00  0.00     0.009 A 
ATOM     78  C   UNL A   1      38.675  34.852  39.024  1.00  0.00     0.001 A 
ATOM     79  C   UNL A   1      40.066  36.428  37.832  1.00  0.00     0.001 A 
ATOM     80  C   UNL A   1      39.315  36.090  38.956  1.00  0.00     0.000 A 
ENDBRANCH  62  75
ENDBRANCH  36  37
ENDBRANCH  28  31
ENDBRANCH  26  27
ENDBRANCH   1  26
TORSDOF 12
ENDMDL
