MODEL 1
REMARK VINA RESULT:     -11.0      0.000      0.000
REMARK SMILES CC(C)[NH2+][C@@]1(C(=O)NCCCNC(=O)c2ccc(-c3c4nc(c(-c5ccccc5)c5ccc([nH]5)c(-c5ccccc5)c5nc(c(-c6ccccc6)c6ccc3[nH]6)C=C5)C=C4)cc2)CC[C@@H](Sc2ccncc2)C1
REMARK SMILES IDX 10 1 9 2 8 3 6 4 7 5 5 7 63 8 73 9 64 10 65 11 4 12 2 15
REMARK SMILES IDX 1 16 3 17 66 18 67 19 68 20 72 21 69 22 71 23 70 24 11 25
REMARK SMILES IDX 12 26 13 27 14 29 15 30 16 31 62 32 17 33 61 34 18 35 19 36
REMARK SMILES IDX 20 37 55 38 21 39 60 40 54 41 56 42 22 43 59 44 53 45 52 46
REMARK SMILES IDX 23 48 45 49 30 50 44 51 31 52 34 53 43 54 57 55 32 56 33 57
REMARK SMILES IDX 42 59 58 60 35 61 24 62 25 63 29 64 26 65 28 66 27 67 46 68
REMARK SMILES IDX 47 69 51 70 48 71 50 72 49 73 36 74 37 75 41 76 38 77 40 78
REMARK SMILES IDX 39 79
REMARK H PARENT 8 6 4 13 4 14 12 28 56 47 34 58
REMARK Flexibility Score: inf
ROOT
ATOM      1  C   UNL A   1      38.241  19.631  25.043  1.00  0.00     0.042 C 
ENDROOT
BRANCH   1   2
ATOM      2  C   UNL A   1      37.329  20.760  24.581  1.00  0.00     0.118 C 
BRANCH   2   3
ATOM      3  N   UNL A   1      37.634  22.001  25.255  1.00  0.00    -0.351 N 
ATOM      4  C   UNL A   1      36.863  23.029  25.690  1.00  0.00     0.281 C 
ATOM      5  O   UNL A   1      37.506  24.005  26.111  1.00  0.00    -0.268 OA
ATOM      6  H   UNL A   1      38.594  22.126  25.432  1.00  0.00     0.163 HD
BRANCH   4   7
ATOM      7  C   UNL A   1      35.273  23.067  25.643  1.00  0.00     0.176 C 
ATOM      8  C   UNL A   1      34.661  22.726  27.011  1.00  0.00     0.080 C 
ATOM      9  C   UNL A   1      34.746  22.029  24.639  1.00  0.00     0.094 C 
ATOM     10  C   UNL A   1      33.831  21.454  26.856  1.00  0.00     0.022 C 
ATOM     11  C   UNL A   1      34.035  20.934  25.436  1.00  0.00     0.058 C 
BRANCH   7  12
ATOM     12  N   UNL A   1      34.979  24.471  25.278  1.00  0.00    -0.332 N 
ATOM     13  H   UNL A   1      35.217  25.024  26.100  1.00  0.00     0.347 HD
ATOM     14  H   UNL A   1      35.510  24.556  24.411  1.00  0.00     0.347 HD
BRANCH  12  15
ATOM     15  C   UNL A   1      33.678  24.953  24.844  1.00  0.00     0.176 C 
ATOM     16  C   UNL A   1      33.346  26.149  25.751  1.00  0.00     0.075 C 
ATOM     17  C   UNL A   1      33.653  25.466  23.404  1.00  0.00     0.075 C 
ENDBRANCH  12  15
ENDBRANCH   7  12
BRANCH  11  18
ATOM     18  S   UNL A   1      32.581  20.199  24.564  1.00  0.00    -0.122 SA
BRANCH  18  19
ATOM     19  C   UNL A   1      32.947  18.456  24.562  1.00  0.00     0.011 A 
ATOM     20  C   UNL A   1      32.528  17.637  25.603  1.00  0.00     0.035 A 
ATOM     21  C   UNL A   1      33.653  17.891  23.501  1.00  0.00     0.035 A 
ATOM     22  C   UNL A   1      32.921  16.309  25.595  1.00  0.00     0.112 A 
ATOM     23  C   UNL A   1      33.996  16.554  23.580  1.00  0.00     0.112 A 
ATOM     24  N   UNL A   1      33.661  15.754  24.613  1.00  0.00    -0.265 NA
ENDBRANCH  18  19
ENDBRANCH  11  18
ENDBRANCH   4   7
ENDBRANCH   2   3
ENDBRANCH   1   2
BRANCH   1  25
ATOM     25  C   UNL A   1      39.278  20.092  26.054  1.00  0.00     0.118 C 
BRANCH  25  26
ATOM     26  N   UNL A   1      40.460  19.238  26.041  1.00  0.00    -0.352 N 
ATOM     27  C   UNL A   1      41.790  19.573  26.126  1.00  0.00     0.251 C 
ATOM     28  H   UNL A   1      40.278  18.274  25.959  1.00  0.00     0.163 HD
ATOM     29  O   UNL A   1      42.649  18.746  25.852  1.00  0.00    -0.269 OA
BRANCH  27  30
ATOM     30  C   UNL A   1      42.179  20.938  26.537  1.00  0.00     0.039 A 
ATOM     31  C   UNL A   1      42.523  21.876  25.560  1.00  0.00     0.014 A 
ATOM     32  C   UNL A   1      42.211  21.287  27.888  1.00  0.00     0.014 A 
ATOM     33  C   UNL A   1      42.828  23.185  25.937  1.00  0.00     0.010 A 
ATOM     34  C   UNL A   1      42.416  22.610  28.253  1.00  0.00     0.010 A 
ATOM     35  C   UNL A   1      42.738  23.571  27.283  1.00  0.00    -0.014 A 
BRANCH  35  36
ATOM     36  C   UNL A   1      42.992  24.964  27.725  1.00  0.00     0.031 A 
ATOM     37  C   UNL A   1      44.390  25.384  28.088  1.00  0.00     0.074 A 
ATOM     38  C   UNL A   1      41.960  25.813  27.898  1.00  0.00     0.049 A 
ATOM     39  N   UNL A   1      44.803  26.496  28.640  1.00  0.00    -0.248 NA
ATOM     40  C   UNL A   1      45.462  24.407  27.830  1.00  0.00     0.031 C 
ATOM     41  C   UNL A   1      40.554  25.515  27.614  1.00  0.00     0.029 A 
ATOM     42  N   UNL A   1      41.935  27.099  28.376  1.00  0.00    -0.354 N 
ATOM     43  C   UNL A   1      46.171  26.336  28.826  1.00  0.00     0.074 A 
ATOM     44  C   UNL A   1      46.509  25.005  28.376  1.00  0.00     0.031 C 
ATOM     45  C   UNL A   1      39.809  26.593  27.902  1.00  0.00     0.029 A 
ATOM     46  C   UNL A   1      40.673  27.638  28.439  1.00  0.00     0.049 A 
ATOM     47  H   UNL A   1      42.745  27.589  28.648  1.00  0.00     0.167 HD
ATOM     48  C   UNL A   1      47.068  27.226  29.311  1.00  0.00     0.031 A 
ATOM     49  C   UNL A   1      40.258  28.835  28.895  1.00  0.00     0.031 A 
ATOM     50  C   UNL A   1      46.730  28.556  29.737  1.00  0.00     0.049 A 
ATOM     51  C   UNL A   1      41.272  29.803  29.437  1.00  0.00     0.074 A 
ATOM     52  C   UNL A   1      47.572  29.557  30.189  1.00  0.00     0.029 A 
ATOM     53  N   UNL A   1      45.443  29.072  29.758  1.00  0.00    -0.354 N 
ATOM     54  N   UNL A   1      42.570  29.658  29.556  1.00  0.00    -0.248 NA
ATOM     55  C   UNL A   1      40.766  31.103  29.899  1.00  0.00     0.031 C 
ATOM     56  C   UNL A   1      46.788  30.662  30.531  1.00  0.00     0.029 A 
ATOM     57  C   UNL A   1      45.466  30.371  30.233  1.00  0.00     0.049 A 
ATOM     58  H   UNL A   1      44.635  28.587  29.477  1.00  0.00     0.167 HD
ATOM     59  C   UNL A   1      43.040  30.861  30.070  1.00  0.00     0.074 A 
ATOM     60  C   UNL A   1      41.888  31.725  30.233  1.00  0.00     0.031 C 
ATOM     61  C   UNL A   1      44.311  31.219  30.374  1.00  0.00     0.031 A 
BRANCH  48  62
ATOM     62  C   UNL A   1      48.502  26.781  29.411  1.00  0.00    -0.014 A 
ATOM     63  C   UNL A   1      48.977  26.094  30.540  1.00  0.00     0.009 A 
ATOM     64  C   UNL A   1      49.384  27.028  28.347  1.00  0.00     0.009 A 
ATOM     65  C   UNL A   1      50.315  25.702  30.619  1.00  0.00     0.001 A 
ATOM     66  C   UNL A   1      50.713  26.605  28.415  1.00  0.00     0.001 A 
ATOM     67  C   UNL A   1      51.180  25.952  29.555  1.00  0.00     0.000 A 
ENDBRANCH  48  62
BRANCH  49  68
ATOM     68  C   UNL A   1      38.815  29.193  28.845  1.00  0.00    -0.014 A 
ATOM     69  C   UNL A   1      38.002  29.022  29.976  1.00  0.00     0.009 A 
ATOM     70  C   UNL A   1      38.243  29.703  27.670  1.00  0.00     0.009 A 
ATOM     71  C   UNL A   1      36.641  29.328  29.922  1.00  0.00     0.001 A 
ATOM     72  C   UNL A   1      36.887  30.037  27.629  1.00  0.00     0.001 A 
ATOM     73  C   UNL A   1      36.085  29.839  28.750  1.00  0.00     0.000 A 
ENDBRANCH  49  68
BRANCH  61  74
ATOM     74  C   UNL A   1      44.537  32.624  30.857  1.00  0.00    -0.014 A 
ATOM     75  C   UNL A   1      44.761  33.680  29.962  1.00  0.00     0.009 A 
ATOM     76  C   UNL A   1      44.459  32.899  32.231  1.00  0.00     0.009 A 
ATOM     77  C   UNL A   1      44.930  34.982  30.438  1.00  0.00     0.001 A 
ATOM     78  C   UNL A   1      44.599  34.204  32.702  1.00  0.00     0.001 A 
ATOM     79  C   UNL A   1      44.842  35.244  31.806  1.00  0.00     0.000 A 
ENDBRANCH  61  74
ENDBRANCH  35  36
ENDBRANCH  27  30
ENDBRANCH  25  26
ENDBRANCH   1  25
TORSDOF 14
ENDMDL
MODEL 2
REMARK VINA RESULT:     -10.9      0.378      6.051
REMARK SMILES CC(C)[NH2+][C@@]1(C(=O)NCCCNC(=O)c2ccc(-c3c4nc(c(-c5ccccc5)c5ccc([nH]5)c(-c5ccccc5)c5nc(c(-c6ccccc6)c6ccc3[nH]6)C=C5)C=C4)cc2)CC[C@@H](Sc2ccncc2)C1
REMARK SMILES IDX 10 1 9 2 8 3 6 4 7 5 5 7 63 8 73 9 64 10 65 11 4 12 2 15
REMARK SMILES IDX 1 16 3 17 66 18 67 19 68 20 72 21 69 22 71 23 70 24 11 25
REMARK SMILES IDX 12 26 13 27 14 29 15 30 16 31 62 32 17 33 61 34 18 35 19 36
REMARK SMILES IDX 20 37 55 38 21 39 60 40 54 41 56 42 22 43 59 44 53 45 52 46
REMARK SMILES IDX 23 48 45 49 30 50 44 51 31 52 34 53 43 54 57 55 32 56 33 57
REMARK SMILES IDX 42 59 58 60 35 61 24 62 25 63 29 64 26 65 28 66 27 67 46 68
REMARK SMILES IDX 47 69 51 70 48 71 50 72 49 73 36 74 37 75 41 76 38 77 40 78
REMARK SMILES IDX 39 79
REMARK H PARENT 8 6 4 13 4 14 12 28 56 47 34 58
REMARK Flexibility Score: inf
ROOT
ATOM      1  C   UNL A   1      38.259  19.465  24.968  1.00  0.00     0.042 C 
ENDROOT
BRANCH   1   2
ATOM      2  C   UNL A   1      37.300  20.595  24.617  1.00  0.00     0.118 C 
BRANCH   2   3
ATOM      3  N   UNL A   1      37.671  21.831  25.266  1.00  0.00    -0.351 N 
ATOM      4  C   UNL A   1      36.956  22.904  25.688  1.00  0.00     0.281 C 
ATOM      5  O   UNL A   1      37.649  23.854  26.087  1.00  0.00    -0.268 OA
ATOM      6  H   UNL A   1      38.638  21.912  25.433  1.00  0.00     0.163 HD
BRANCH   4   7
ATOM      7  C   UNL A   1      35.369  23.019  25.652  1.00  0.00     0.176 C 
ATOM      8  C   UNL A   1      34.756  22.783  27.041  1.00  0.00     0.080 C 
ATOM      9  C   UNL A   1      34.780  21.957  24.710  1.00  0.00     0.094 C 
ATOM     10  C   UNL A   1      33.861  21.548  26.963  1.00  0.00     0.022 C 
ATOM     11  C   UNL A   1      34.024  20.943  25.571  1.00  0.00     0.058 C 
BRANCH   7  12
ATOM     12  N   UNL A   1      35.141  24.415  25.214  1.00  0.00    -0.332 N 
ATOM     13  H   UNL A   1      35.517  25.001  25.959  1.00  0.00     0.347 HD
ATOM     14  H   UNL A   1      35.571  24.395  24.289  1.00  0.00     0.347 HD
BRANCH  12  15
ATOM     15  C   UNL A   1      33.839  24.975  24.894  1.00  0.00     0.176 C 
ATOM     16  C   UNL A   1      33.729  26.279  25.701  1.00  0.00     0.075 C 
ATOM     17  C   UNL A   1      33.667  25.348  23.421  1.00  0.00     0.075 C 
ENDBRANCH  12  15
ENDBRANCH   7  12
BRANCH  11  18
ATOM     18  S   UNL A   1      32.525  20.237  24.752  1.00  0.00    -0.122 SA
BRANCH  18  19
ATOM     19  C   UNL A   1      32.902  18.501  24.641  1.00  0.00     0.011 A 
ATOM     20  C   UNL A   1      32.642  17.644  25.703  1.00  0.00     0.035 A 
ATOM     21  C   UNL A   1      33.457  17.979  23.473  1.00  0.00     0.035 A 
ATOM     22  C   UNL A   1      33.042  16.323  25.596  1.00  0.00     0.112 A 
ATOM     23  C   UNL A   1      33.820  16.645  23.459  1.00  0.00     0.112 A 
ATOM     24  N   UNL A   1      33.641  15.809  24.502  1.00  0.00    -0.265 NA
ENDBRANCH  18  19
ENDBRANCH  11  18
ENDBRANCH   4   7
ENDBRANCH   2   3
ENDBRANCH   1   2
BRANCH   1  25
ATOM     25  C   UNL A   1      39.274  19.866  26.026  1.00  0.00     0.118 C 
BRANCH  25  26
ATOM     26  N   UNL A   1      40.553  19.194  25.829  1.00  0.00    -0.352 N 
ATOM     27  C   UNL A   1      41.832  19.692  25.904  1.00  0.00     0.251 C 
ATOM     28  H   UNL A   1      40.492  18.237  25.608  1.00  0.00     0.163 HD
ATOM     29  O   UNL A   1      42.770  19.040  25.468  1.00  0.00    -0.269 OA
BRANCH  27  30
ATOM     30  C   UNL A   1      42.067  21.023  26.502  1.00  0.00     0.039 A 
ATOM     31  C   UNL A   1      42.090  21.154  27.894  1.00  0.00     0.014 A 
ATOM     32  C   UNL A   1      42.256  22.140  25.688  1.00  0.00     0.014 A 
ATOM     33  C   UNL A   1      42.377  22.396  28.465  1.00  0.00     0.010 A 
ATOM     34  C   UNL A   1      42.638  23.348  26.254  1.00  0.00     0.010 A 
ATOM     35  C   UNL A   1      42.692  23.492  27.648  1.00  0.00    -0.014 A 
BRANCH  35  36
ATOM     36  C   UNL A   1      43.063  24.815  28.208  1.00  0.00     0.031 A 
ATOM     37  C   UNL A   1      41.995  25.846  28.446  1.00  0.00     0.074 A 
ATOM     38  C   UNL A   1      44.360  25.121  28.404  1.00  0.00     0.049 A 
ATOM     39  N   UNL A   1      42.119  27.106  28.778  1.00  0.00    -0.248 NA
ATOM     40  C   UNL A   1      40.601  25.413  28.245  1.00  0.00     0.031 C 
ATOM     41  C   UNL A   1      45.493  24.220  28.179  1.00  0.00     0.029 A 
ATOM     42  N   UNL A   1      44.946  26.291  28.819  1.00  0.00    -0.354 N 
ATOM     43  C   UNL A   1      40.828  27.619  28.792  1.00  0.00     0.074 A 
ATOM     44  C   UNL A   1      39.941  26.552  28.385  1.00  0.00     0.031 C 
ATOM     45  C   UNL A   1      46.632  24.862  28.479  1.00  0.00     0.029 A 
ATOM     46  C   UNL A   1      46.318  26.232  28.867  1.00  0.00     0.049 A 
ATOM     47  H   UNL A   1      44.432  27.095  29.060  1.00  0.00     0.167 HD
ATOM     48  C   UNL A   1      40.415  28.863  29.130  1.00  0.00     0.031 A 
ATOM     49  C   UNL A   1      47.221  27.183  29.172  1.00  0.00     0.031 A 
ATOM     50  C   UNL A   1      41.299  29.913  29.554  1.00  0.00     0.049 A 
ATOM     51  C   UNL A   1      46.739  28.559  29.537  1.00  0.00     0.074 A 
ATOM     52  C   UNL A   1      40.979  31.192  29.976  1.00  0.00     0.029 A 
ATOM     53  N   UNL A   1      42.680  29.804  29.616  1.00  0.00    -0.354 N 
ATOM     54  N   UNL A   1      45.511  29.015  29.597  1.00  0.00    -0.248 NA
ATOM     55  C   UNL A   1      47.767  29.550  29.884  1.00  0.00     0.031 C 
ATOM     56  C   UNL A   1      42.170  31.872  30.244  1.00  0.00     0.029 A 
ATOM     57  C   UNL A   1      43.227  30.998  30.050  1.00  0.00     0.049 A 
ATOM     58  H   UNL A   1      43.194  28.997  29.385  1.00  0.00     0.167 HD
ATOM     59  C   UNL A   1      45.617  30.333  30.026  1.00  0.00     0.074 A 
ATOM     60  C   UNL A   1      47.028  30.600  30.216  1.00  0.00     0.031 C 
ATOM     61  C   UNL A   1      44.633  31.238  30.247  1.00  0.00     0.031 A 
BRANCH  48  62
ATOM     62  C   UNL A   1      38.941  29.152  29.046  1.00  0.00    -0.014 A 
ATOM     63  C   UNL A   1      38.105  29.011  30.165  1.00  0.00     0.009 A 
ATOM     64  C   UNL A   1      38.386  29.597  27.836  1.00  0.00     0.009 A 
ATOM     65  C   UNL A   1      36.736  29.270  30.063  1.00  0.00     0.001 A 
ATOM     66  C   UNL A   1      37.023  29.887  27.746  1.00  0.00     0.001 A 
ATOM     67  C   UNL A   1      36.198  29.713  28.856  1.00  0.00     0.000 A 
ENDBRANCH  48  62
BRANCH  49  68
ATOM     68  C   UNL A   1      48.674  26.863  29.162  1.00  0.00    -0.014 A 
ATOM     69  C   UNL A   1      49.438  27.070  28.004  1.00  0.00     0.009 A 
ATOM     70  C   UNL A   1      49.302  26.347  30.306  1.00  0.00     0.009 A 
ATOM     71  C   UNL A   1      50.795  26.741  27.982  1.00  0.00     0.001 A 
ATOM     72  C   UNL A   1      50.667  26.047  30.290  1.00  0.00     0.001 A 
ATOM     73  C   UNL A   1      51.410  26.234  29.127  1.00  0.00     0.000 A 
ENDBRANCH  49  68
BRANCH  61  74
ATOM     74  C   UNL A   1      45.039  32.584  30.778  1.00  0.00    -0.014 A 
ATOM     75  C   UNL A   1      45.165  32.822  32.154  1.00  0.00     0.009 A 
ATOM     76  C   UNL A   1      45.360  33.611  29.875  1.00  0.00     0.009 A 
ATOM     77  C   UNL A   1      45.581  34.072  32.616  1.00  0.00     0.001 A 
ATOM     78  C   UNL A   1      45.803  34.849  30.339  1.00  0.00     0.001 A 
ATOM     79  C   UNL A   1      45.906  35.082  31.710  1.00  0.00     0.000 A 
ENDBRANCH  61  74
ENDBRANCH  35  36
ENDBRANCH  27  30
ENDBRANCH  25  26
ENDBRANCH   1  25
TORSDOF 14
ENDMDL
MODEL 3
REMARK VINA RESULT:     -10.9      1.645      7.166
REMARK SMILES CC(C)[NH2+][C@@]1(C(=O)NCCCNC(=O)c2ccc(-c3c4nc(c(-c5ccccc5)c5ccc([nH]5)c(-c5ccccc5)c5nc(c(-c6ccccc6)c6ccc3[nH]6)C=C5)C=C4)cc2)CC[C@@H](Sc2ccncc2)C1
REMARK SMILES IDX 10 1 9 2 8 3 6 4 7 5 5 7 63 8 73 9 64 10 65 11 4 12 2 15
REMARK SMILES IDX 1 16 3 17 66 18 67 19 68 20 72 21 69 22 71 23 70 24 11 25
REMARK SMILES IDX 12 26 13 27 14 29 15 30 16 31 62 32 17 33 61 34 18 35 19 36
REMARK SMILES IDX 20 37 55 38 21 39 60 40 54 41 56 42 22 43 59 44 53 45 52 46
REMARK SMILES IDX 23 48 45 49 30 50 44 51 31 52 34 53 43 54 57 55 32 56 33 57
REMARK SMILES IDX 42 59 58 60 35 61 24 62 25 63 29 64 26 65 28 66 27 67 46 68
REMARK SMILES IDX 47 69 51 70 48 71 50 72 49 73 36 74 37 75 41 76 38 77 40 78
REMARK SMILES IDX 39 79
REMARK H PARENT 8 6 4 13 4 14 12 28 56 47 34 58
REMARK Flexibility Score: inf
ROOT
ATOM      1  C   UNL A   1      37.705  20.113  24.967  1.00  0.00     0.042 C 
ENDROOT
BRANCH   1   2
ATOM      2  C   UNL A   1      36.615  21.171  24.860  1.00  0.00     0.118 C 
BRANCH   2   3
ATOM      3  N   UNL A   1      35.788  21.208  26.044  1.00  0.00    -0.351 N 
ATOM      4  C   UNL A   1      34.630  21.848  26.343  1.00  0.00     0.281 C 
ATOM      5  O   UNL A   1      34.282  21.744  27.530  1.00  0.00    -0.268 OA
ATOM      6  H   UNL A   1      36.137  20.659  26.783  1.00  0.00     0.163 HD
BRANCH   4   7
ATOM      7  C   UNL A   1      33.774  22.719  25.322  1.00  0.00     0.176 C 
ATOM      8  C   UNL A   1      34.518  24.000  24.913  1.00  0.00     0.080 C 
ATOM      9  C   UNL A   1      32.450  23.152  25.973  1.00  0.00     0.094 C 
ATOM     10  C   UNL A   1      33.691  25.198  25.375  1.00  0.00     0.022 C 
ATOM     11  C   UNL A   1      32.510  24.666  26.183  1.00  0.00     0.058 C 
BRANCH   7  12
ATOM     12  N   UNL A   1      33.615  21.817  24.159  1.00  0.00    -0.332 N 
ATOM     13  H   UNL A   1      33.762  22.401  23.337  1.00  0.00     0.347 HD
ATOM     14  H   UNL A   1      34.269  21.074  24.406  1.00  0.00     0.347 HD
BRANCH  12  15
ATOM     15  C   UNL A   1      32.419  21.040  23.879  1.00  0.00     0.176 C 
ATOM     16  C   UNL A   1      32.056  21.336  22.414  1.00  0.00     0.075 C 
ATOM     17  C   UNL A   1      32.619  19.528  23.990  1.00  0.00     0.075 C 
ENDBRANCH  12  15
ENDBRANCH   7  12
BRANCH  11  18
ATOM     18  S   UNL A   1      30.878  25.512  25.995  1.00  0.00    -0.122 SA
BRANCH  18  19
ATOM     19  C   UNL A   1      31.308  27.239  26.050  1.00  0.00     0.011 A 
ATOM     20  C   UNL A   1      31.263  28.024  24.903  1.00  0.00     0.035 A 
ATOM     21  C   UNL A   1      31.687  27.828  27.256  1.00  0.00     0.035 A 
ATOM     22  C   UNL A   1      31.697  29.336  24.986  1.00  0.00     0.112 A 
ATOM     23  C   UNL A   1      32.101  29.147  27.240  1.00  0.00     0.112 A 
ATOM     24  N   UNL A   1      32.131  29.909  26.128  1.00  0.00    -0.265 NA
ENDBRANCH  18  19
ENDBRANCH  11  18
ENDBRANCH   4   7
ENDBRANCH   2   3
ENDBRANCH   1   2
BRANCH   1  25
ATOM     25  C   UNL A   1      38.896  20.581  25.787  1.00  0.00     0.118 C 
BRANCH  25  26
ATOM     26  N   UNL A   1      39.953  19.577  25.824  1.00  0.00    -0.352 N 
ATOM     27  C   UNL A   1      41.301  19.724  26.053  1.00  0.00     0.251 C 
ATOM     28  H   UNL A   1      39.658  18.653  25.658  1.00  0.00     0.163 HD
ATOM     29  O   UNL A   1      42.068  18.805  25.803  1.00  0.00    -0.269 OA
BRANCH  27  30
ATOM     30  C   UNL A   1      41.819  20.998  26.593  1.00  0.00     0.039 A 
ATOM     31  C   UNL A   1      42.223  22.003  25.708  1.00  0.00     0.014 A 
ATOM     32  C   UNL A   1      41.913  21.197  27.971  1.00  0.00     0.014 A 
ATOM     33  C   UNL A   1      42.653  23.232  26.211  1.00  0.00     0.010 A 
ATOM     34  C   UNL A   1      42.244  22.450  28.465  1.00  0.00     0.010 A 
ATOM     35  C   UNL A   1      42.628  23.478  27.592  1.00  0.00    -0.014 A 
BRANCH  35  36
ATOM     36  C   UNL A   1      43.016  24.789  28.169  1.00  0.00     0.031 A 
ATOM     37  C   UNL A   1      41.961  25.832  28.416  1.00  0.00     0.074 A 
ATOM     38  C   UNL A   1      44.316  25.074  28.372  1.00  0.00     0.049 A 
ATOM     39  N   UNL A   1      42.103  27.086  28.764  1.00  0.00    -0.248 NA
ATOM     40  C   UNL A   1      40.562  25.422  28.205  1.00  0.00     0.031 C 
ATOM     41  C   UNL A   1      45.437  24.159  28.140  1.00  0.00     0.029 A 
ATOM     42  N   UNL A   1      44.917  26.230  28.804  1.00  0.00    -0.354 N 
ATOM     43  C   UNL A   1      40.819  27.617  28.779  1.00  0.00     0.074 A 
ATOM     44  C   UNL A   1      39.919  26.568  28.357  1.00  0.00     0.031 C 
ATOM     45  C   UNL A   1      46.584  24.781  28.452  1.00  0.00     0.029 A 
ATOM     46  C   UNL A   1      46.288  26.151  28.855  1.00  0.00     0.049 A 
ATOM     47  H   UNL A   1      44.414  27.039  29.053  1.00  0.00     0.167 HD
ATOM     48  C   UNL A   1      40.423  28.863  29.131  1.00  0.00     0.031 A 
ATOM     49  C   UNL A   1      47.204  27.085  29.174  1.00  0.00     0.031 A 
ATOM     50  C   UNL A   1      41.321  29.895  29.570  1.00  0.00     0.049 A 
ATOM     51  C   UNL A   1      46.741  28.463  29.554  1.00  0.00     0.074 A 
ATOM     52  C   UNL A   1      41.018  31.174  30.006  1.00  0.00     0.029 A 
ATOM     53  N   UNL A   1      42.699  29.765  29.635  1.00  0.00    -0.354 N 
ATOM     54  N   UNL A   1      45.519  28.936  29.615  1.00  0.00    -0.248 NA
ATOM     55  C   UNL A   1      47.782  29.435  29.916  1.00  0.00     0.031 C 
ATOM     56  C   UNL A   1      42.217  31.833  30.286  1.00  0.00     0.029 A 
ATOM     57  C   UNL A   1      43.263  30.946  30.086  1.00  0.00     0.049 A 
ATOM     58  H   UNL A   1      43.202  28.954  29.396  1.00  0.00     0.167 HD
ATOM     59  C   UNL A   1      45.643  30.247  30.061  1.00  0.00     0.074 A 
ATOM     60  C   UNL A   1      47.057  30.491  30.258  1.00  0.00     0.031 C 
ATOM     61  C   UNL A   1      44.671  31.164  30.289  1.00  0.00     0.031 A 
BRANCH  48  62
ATOM     62  C   UNL A   1      38.954  29.174  29.046  1.00  0.00    -0.014 A 
ATOM     63  C   UNL A   1      38.368  29.617  27.849  1.00  0.00     0.009 A 
ATOM     64  C   UNL A   1      38.138  28.995  30.174  1.00  0.00     0.009 A 
ATOM     65  C   UNL A   1      37.005  29.914  27.795  1.00  0.00     0.001 A 
ATOM     66  C   UNL A   1      36.768  29.260  30.108  1.00  0.00     0.001 A 
ATOM     67  C   UNL A   1      36.206  29.730  28.922  1.00  0.00     0.000 A 
ENDBRANCH  48  62
BRANCH  49  68
ATOM     68  C   UNL A   1      48.652  26.744  29.165  1.00  0.00    -0.014 A 
ATOM     69  C   UNL A   1      49.431  26.989  28.024  1.00  0.00     0.009 A 
ATOM     70  C   UNL A   1      49.261  26.171  30.291  1.00  0.00     0.009 A 
ATOM     71  C   UNL A   1      50.783  26.641  28.002  1.00  0.00     0.001 A 
ATOM     72  C   UNL A   1      50.621  25.852  30.277  1.00  0.00     0.001 A 
ATOM     73  C   UNL A   1      51.379  26.076  29.129  1.00  0.00     0.000 A 
ENDBRANCH  49  68
BRANCH  61  74
ATOM     74  C   UNL A   1      45.094  32.497  30.837  1.00  0.00    -0.014 A 
ATOM     75  C   UNL A   1      45.223  32.715  32.217  1.00  0.00     0.009 A 
ATOM     76  C   UNL A   1      45.430  33.531  29.949  1.00  0.00     0.009 A 
ATOM     77  C   UNL A   1      45.655  33.954  32.695  1.00  0.00     0.001 A 
ATOM     78  C   UNL A   1      45.889  34.757  30.428  1.00  0.00     0.001 A 
ATOM     79  C   UNL A   1      45.994  34.971  31.802  1.00  0.00     0.000 A 
ENDBRANCH  61  74
ENDBRANCH  35  36
ENDBRANCH  27  30
ENDBRANCH  25  26
ENDBRANCH   1  25
TORSDOF 14
ENDMDL
