MODEL 1
REMARK VINA RESULT:     -11.2      0.000      0.000
REMARK SMILES Cc1nc(CNC(=O)[C@H]2CCO[C@H]2C)sc1C(=O)NCCCNC(=O)c1ccc(-c2c3nc(c(-c4ccccc4)c4ccc([nH]4)c(-c4ccccc4)c4nc(c(-c5ccccc5)c5ccc2[nH]5)C=C4)C=C3)cc1
REMARK SMILES IDX 20 1 19 2 17 3 18 4 16 6 1 7 2 8 3 9 4 10 15 11 5 12 6 13
REMARK SMILES IDX 7 14 8 16 9 17 10 18 13 19 11 20 12 21 14 22 21 23 22 24
REMARK SMILES IDX 23 25 24 26 25 28 26 29 27 30 73 31 28 32 72 33 29 34 30 35
REMARK SMILES IDX 31 36 66 37 32 38 71 39 65 40 67 41 33 42 70 43 64 44 63 45
REMARK SMILES IDX 34 47 56 48 41 49 55 50 42 51 45 52 54 53 68 54 43 55 44 56
REMARK SMILES IDX 53 58 69 59 46 60 35 61 36 62 40 63 37 64 39 65 38 66 57 67
REMARK SMILES IDX 58 68 62 69 59 70 61 71 60 72 47 73 48 74 52 75 49 76 51 77
REMARK SMILES IDX 50 78
REMARK H PARENT 19 5 6 15 23 27 67 46 45 57
REMARK Flexibility Score: inf
ROOT
ATOM      1  C   UNL A   1      36.396  20.335  24.992  1.00  0.00     0.118 C 
ENDROOT
BRANCH   1   2
ATOM      2  N   UNL A   1      35.202  19.522  25.001  1.00  0.00    -0.351 N 
ATOM      3  C   UNL A   1      33.860  19.802  24.972  1.00  0.00     0.263 C 
ATOM      4  O   UNL A   1      33.160  18.780  24.979  1.00  0.00    -0.268 OA
ATOM      5  H   UNL A   1      35.393  18.557  25.036  1.00  0.00     0.163 HD
BRANCH   3   6
ATOM      6  C   UNL A   1      33.283  21.139  24.901  1.00  0.00     0.115 A 
ATOM      7  C   UNL A   1      33.313  22.395  27.210  1.00  0.00     0.068 C 
ATOM      8  C   UNL A   1      33.054  22.211  25.760  1.00  0.00     0.061 A 
ATOM      9  N   UNL A   1      32.401  23.294  25.186  1.00  0.00    -0.244 NA
ATOM     10  C   UNL A   1      32.034  23.037  23.956  1.00  0.00     0.113 A 
ATOM     11  S   UNL A   1      32.586  21.548  23.348  1.00  0.00    -0.111 S 
BRANCH  10  12
ATOM     12  C   UNL A   1      31.180  23.951  23.129  1.00  0.00     0.183 C 
BRANCH  12  13
ATOM     13  N   UNL A   1      31.995  24.525  22.069  1.00  0.00    -0.349 N 
ATOM     14  C   UNL A   1      32.654  25.716  22.026  1.00  0.00     0.226 C 
ATOM     15  H   UNL A   1      32.083  23.969  21.261  1.00  0.00     0.163 HD
ATOM     16  O   UNL A   1      33.219  26.031  20.978  1.00  0.00    -0.275 OA
BRANCH  14  17
ATOM     17  C   UNL A   1      32.703  26.588  23.264  1.00  0.00     0.109 C 
ATOM     18  C   UNL A   1      33.716  27.715  23.183  1.00  0.00     0.044 C 
ATOM     19  C   UNL A   1      31.423  27.354  23.578  1.00  0.00     0.127 C 
ATOM     20  C   UNL A   1      33.251  28.629  24.295  1.00  0.00     0.161 C 
ATOM     21  O   UNL A   1      31.835  28.444  24.434  1.00  0.00    -0.378 OA
ATOM     22  C   UNL A   1      30.709  27.975  22.380  1.00  0.00     0.039 C 
ENDBRANCH  14  17
ENDBRANCH  12  13
ENDBRANCH  10  12
ENDBRANCH   3   6
ENDBRANCH   1   2
BRANCH   1  23
ATOM     23  C   UNL A   1      37.645  19.457  25.044  1.00  0.00     0.042 C 
BRANCH  23  24
ATOM     24  C   UNL A   1      38.886  20.182  25.550  1.00  0.00     0.118 C 
BRANCH  24  25
ATOM     25  N   UNL A   1      39.991  19.267  25.787  1.00  0.00    -0.352 N 
ATOM     26  C   UNL A   1      41.296  19.524  26.127  1.00  0.00     0.251 C 
ATOM     27  H   UNL A   1      39.766  18.314  25.689  1.00  0.00     0.163 HD
ATOM     28  O   UNL A   1      42.124  18.623  26.045  1.00  0.00    -0.269 OA
BRANCH  26  29
ATOM     29  C   UNL A   1      41.722  20.870  26.582  1.00  0.00     0.039 A 
ATOM     30  C   UNL A   1      41.788  21.124  27.957  1.00  0.00     0.014 A 
ATOM     31  C   UNL A   1      41.987  21.900  25.676  1.00  0.00     0.014 A 
ATOM     32  C   UNL A   1      42.164  22.388  28.419  1.00  0.00     0.010 A 
ATOM     33  C   UNL A   1      42.434  23.138  26.136  1.00  0.00     0.010 A 
ATOM     34  C   UNL A   1      42.515  23.399  27.511  1.00  0.00    -0.014 A 
BRANCH  34  35
ATOM     35  C   UNL A   1      42.948  24.742  27.976  1.00  0.00     0.031 A 
ATOM     36  C   UNL A   1      41.925  25.802  28.284  1.00  0.00     0.074 A 
ATOM     37  C   UNL A   1      44.261  25.030  28.060  1.00  0.00     0.049 A 
ATOM     38  N   UNL A   1      42.108  27.056  28.614  1.00  0.00    -0.248 NA
ATOM     39  C   UNL A   1      40.510  25.408  28.181  1.00  0.00     0.031 C 
ATOM     40  C   UNL A   1      45.354  24.103  27.760  1.00  0.00     0.029 A 
ATOM     41  N   UNL A   1      44.898  26.194  28.412  1.00  0.00    -0.354 N 
ATOM     42  C   UNL A   1      40.836  27.603  28.735  1.00  0.00     0.074 A 
ATOM     43  C   UNL A   1      39.892  26.558  28.402  1.00  0.00     0.031 C 
ATOM     44  C   UNL A   1      46.526  24.729  27.958  1.00  0.00     0.029 A 
ATOM     45  C   UNL A   1      46.269  26.107  28.361  1.00  0.00     0.049 A 
ATOM     46  H   UNL A   1      44.419  27.011  28.677  1.00  0.00     0.167 HD
ATOM     47  C   UNL A   1      40.483  28.858  29.105  1.00  0.00     0.031 A 
ATOM     48  C   UNL A   1      47.212  27.037  28.600  1.00  0.00     0.031 A 
ATOM     49  C   UNL A   1      41.418  29.892  29.454  1.00  0.00     0.049 A 
ATOM     50  C   UNL A   1      46.796  28.422  29.007  1.00  0.00     0.074 A 
ATOM     51  C   UNL A   1      41.157  31.180  29.893  1.00  0.00     0.029 A 
ATOM     52  N   UNL A   1      42.797  29.758  29.406  1.00  0.00    -0.354 N 
ATOM     53  N   UNL A   1      45.589  28.908  29.167  1.00  0.00    -0.248 NA
ATOM     54  C   UNL A   1      47.874  29.384  29.276  1.00  0.00     0.031 C 
ATOM     55  C   UNL A   1      42.380  31.836  30.072  1.00  0.00     0.029 A 
ATOM     56  C   UNL A   1      43.400  30.942  29.790  1.00  0.00     0.049 A 
ATOM     57  H   UNL A   1      43.276  28.940  29.139  1.00  0.00     0.167 HD
ATOM     58  C   UNL A   1      45.762  30.222  29.578  1.00  0.00     0.074 A 
ATOM     59  C   UNL A   1      47.191  30.454  29.657  1.00  0.00     0.031 C 
ATOM     60  C   UNL A   1      44.822  31.155  29.864  1.00  0.00     0.031 A 
BRANCH  47  61
ATOM     61  C   UNL A   1      39.015  29.180  29.142  1.00  0.00    -0.014 A 
ATOM     62  C   UNL A   1      38.270  29.041  30.325  1.00  0.00     0.009 A 
ATOM     63  C   UNL A   1      38.375  29.660  27.989  1.00  0.00     0.009 A 
ATOM     64  C   UNL A   1      36.907  29.340  30.341  1.00  0.00     0.001 A 
ATOM     65  C   UNL A   1      37.017  29.984  28.017  1.00  0.00     0.001 A 
ATOM     66  C   UNL A   1      36.282  29.815  29.189  1.00  0.00     0.000 A 
ENDBRANCH  47  61
BRANCH  48  67
ATOM     67  C   UNL A   1      48.649  26.683  28.472  1.00  0.00    -0.014 A 
ATOM     68  C   UNL A   1      49.311  26.832  27.244  1.00  0.00     0.009 A 
ATOM     69  C   UNL A   1      49.367  26.198  29.576  1.00  0.00     0.009 A 
ATOM     70  C   UNL A   1      50.657  26.482  27.118  1.00  0.00     0.001 A 
ATOM     71  C   UNL A   1      50.720  25.874  29.454  1.00  0.00     0.001 A 
ATOM     72  C   UNL A   1      51.362  26.009  28.224  1.00  0.00     0.000 A 
ENDBRANCH  48  67
BRANCH  60  73
ATOM     73  C   UNL A   1      45.307  32.500  30.321  1.00  0.00    -0.014 A 
ATOM     74  C   UNL A   1      45.529  33.542  29.408  1.00  0.00     0.009 A 
ATOM     75  C   UNL A   1      45.504  32.740  31.690  1.00  0.00     0.009 A 
ATOM     76  C   UNL A   1      45.966  34.790  29.856  1.00  0.00     0.001 A 
ATOM     77  C   UNL A   1      45.916  33.995  32.137  1.00  0.00     0.001 A 
ATOM     78  C   UNL A   1      46.155  35.016  31.219  1.00  0.00     0.000 A 
ENDBRANCH  60  73
ENDBRANCH  34  35
ENDBRANCH  26  29
ENDBRANCH  24  25
ENDBRANCH  23  24
ENDBRANCH   1  23
TORSDOF 13
ENDMDL
MODEL 2
REMARK VINA RESULT:     -11.0      3.894      9.291
REMARK SMILES Cc1nc(CNC(=O)[C@H]2CCO[C@H]2C)sc1C(=O)NCCCNC(=O)c1ccc(-c2c3nc(c(-c4ccccc4)c4ccc([nH]4)c(-c4ccccc4)c4nc(c(-c5ccccc5)c5ccc2[nH]5)C=C4)C=C3)cc1
REMARK SMILES IDX 20 1 19 2 17 3 18 4 16 6 1 7 2 8 3 9 4 10 15 11 5 12 6 13
REMARK SMILES IDX 7 14 8 16 9 17 10 18 13 19 11 20 12 21 14 22 21 23 22 24
REMARK SMILES IDX 23 25 24 26 25 28 26 29 27 30 73 31 28 32 72 33 29 34 30 35
REMARK SMILES IDX 31 36 66 37 32 38 71 39 65 40 67 41 33 42 70 43 64 44 63 45
REMARK SMILES IDX 34 47 56 48 41 49 55 50 42 51 45 52 54 53 68 54 43 55 44 56
REMARK SMILES IDX 53 58 69 59 46 60 35 61 36 62 40 63 37 64 39 65 38 66 57 67
REMARK SMILES IDX 58 68 62 69 59 70 61 71 60 72 47 73 48 74 52 75 49 76 51 77
REMARK SMILES IDX 50 78
REMARK H PARENT 19 5 6 15 23 27 67 46 45 57
REMARK Flexibility Score: inf
ROOT
ATOM      1  C   UNL A   1      31.478  30.542  25.923  1.00  0.00     0.118 C 
ENDROOT
BRANCH   1   2
ATOM      2  N   UNL A   1      30.757  30.417  24.678  1.00  0.00    -0.351 N 
ATOM      3  C   UNL A   1      30.579  29.397  23.779  1.00  0.00     0.263 C 
ATOM      4  O   UNL A   1      29.855  29.720  22.828  1.00  0.00    -0.268 OA
ATOM      5  H   UNL A   1      30.293  31.245  24.417  1.00  0.00     0.163 HD
BRANCH   3   6
ATOM      6  C   UNL A   1      31.132  28.054  23.913  1.00  0.00     0.115 A 
ATOM      7  C   UNL A   1      33.756  28.005  23.769  1.00  0.00     0.068 C 
ATOM      8  C   UNL A   1      32.388  27.453  23.927  1.00  0.00     0.061 A 
ATOM      9  N   UNL A   1      32.374  26.069  24.044  1.00  0.00    -0.244 NA
ATOM     10  C   UNL A   1      31.154  25.596  24.011  1.00  0.00     0.113 A 
ATOM     11  S   UNL A   1      29.934  26.781  24.002  1.00  0.00    -0.111 S 
BRANCH  10  12
ATOM     12  C   UNL A   1      30.824  24.134  23.963  1.00  0.00     0.183 C 
BRANCH  12  13
ATOM     13  N   UNL A   1      30.273  23.734  25.250  1.00  0.00    -0.349 N 
ATOM     14  C   UNL A   1      30.890  23.159  26.320  1.00  0.00     0.226 C 
ATOM     15  H   UNL A   1      29.310  23.903  25.363  1.00  0.00     0.163 HD
ATOM     16  O   UNL A   1      30.196  22.829  27.282  1.00  0.00    -0.275 OA
BRANCH  14  17
ATOM     17  C   UNL A   1      32.394  22.982  26.308  1.00  0.00     0.109 C 
ATOM     18  C   UNL A   1      32.957  22.425  27.602  1.00  0.00     0.044 C 
ATOM     19  C   UNL A   1      32.928  21.981  25.290  1.00  0.00     0.127 C 
ATOM     20  C   UNL A   1      34.329  21.957  27.167  1.00  0.00     0.161 C 
ATOM     21  O   UNL A   1      34.238  21.608  25.778  1.00  0.00    -0.378 OA
ATOM     22  C   UNL A   1      32.126  20.691  25.141  1.00  0.00     0.039 C 
ENDBRANCH  14  17
ENDBRANCH  12  13
ENDBRANCH  10  12
ENDBRANCH   3   6
ENDBRANCH   1   2
BRANCH   1  23
ATOM     23  C   UNL A   1      31.365  31.964  26.469  1.00  0.00     0.042 C 
BRANCH  23  24
ATOM     24  C   UNL A   1      32.671  32.510  27.035  1.00  0.00     0.118 C 
BRANCH  24  25
ATOM     25  N   UNL A   1      32.491  33.813  27.655  1.00  0.00    -0.352 N 
ATOM     26  C   UNL A   1      33.199  34.418  28.664  1.00  0.00     0.251 C 
ATOM     27  H   UNL A   1      31.745  34.343  27.294  1.00  0.00     0.163 HD
ATOM     28  O   UNL A   1      32.735  35.418  29.203  1.00  0.00    -0.269 OA
BRANCH  26  29
ATOM     29  C   UNL A   1      34.505  33.882  29.116  1.00  0.00     0.039 A 
ATOM     30  C   UNL A   1      34.518  32.901  30.115  1.00  0.00     0.014 A 
ATOM     31  C   UNL A   1      35.714  34.379  28.621  1.00  0.00     0.014 A 
ATOM     32  C   UNL A   1      35.733  32.390  30.580  1.00  0.00     0.010 A 
ATOM     33  C   UNL A   1      36.921  33.817  29.031  1.00  0.00     0.010 A 
ATOM     34  C   UNL A   1      36.945  32.827  30.024  1.00  0.00    -0.014 A 
BRANCH  34  35
ATOM     35  C   UNL A   1      38.248  32.277  30.478  1.00  0.00     0.031 A 
ATOM     36  C   UNL A   1      38.771  30.991  29.898  1.00  0.00     0.074 A 
ATOM     37  C   UNL A   1      38.931  32.899  31.460  1.00  0.00     0.049 A 
ATOM     38  N   UNL A   1      39.839  30.309  30.228  1.00  0.00    -0.248 NA
ATOM     39  C   UNL A   1      37.975  30.378  28.822  1.00  0.00     0.031 C 
ATOM     40  C   UNL A   1      38.519  34.134  32.129  1.00  0.00     0.029 A 
ATOM     41  N   UNL A   1      40.113  32.566  32.073  1.00  0.00    -0.354 N 
ATOM     42  C   UNL A   1      39.829  29.179  29.419  1.00  0.00     0.074 A 
ATOM     43  C   UNL A   1      38.630  29.246  28.613  1.00  0.00     0.031 C 
ATOM     44  C   UNL A   1      39.443  34.465  33.047  1.00  0.00     0.029 A 
ATOM     45  C   UNL A   1      40.489  33.447  33.058  1.00  0.00     0.049 A 
ATOM     46  H   UNL A   1      40.641  31.772  31.829  1.00  0.00     0.167 HD
ATOM     47  C   UNL A   1      40.744  28.182  29.342  1.00  0.00     0.031 A 
ATOM     48  C   UNL A   1      41.551  33.433  33.884  1.00  0.00     0.031 A 
ATOM     49  C   UNL A   1      41.945  28.123  30.129  1.00  0.00     0.049 A 
ATOM     50  C   UNL A   1      42.550  32.315  33.782  1.00  0.00     0.074 A 
ATOM     51  C   UNL A   1      42.960  27.182  30.085  1.00  0.00     0.029 A 
ATOM     52  N   UNL A   1      42.297  29.045  31.102  1.00  0.00    -0.354 N 
ATOM     53  N   UNL A   1      42.552  31.282  32.975  1.00  0.00    -0.248 NA
ATOM     54  C   UNL A   1      43.699  32.370  34.696  1.00  0.00     0.031 C 
ATOM     55  C   UNL A   1      43.906  27.514  31.061  1.00  0.00     0.029 A 
ATOM     56  C   UNL A   1      43.503  28.687  31.678  1.00  0.00     0.049 A 
ATOM     57  H   UNL A   1      41.766  29.838  31.347  1.00  0.00     0.167 HD
ATOM     58  C   UNL A   1      43.712  30.577  33.268  1.00  0.00     0.074 A 
ATOM     59  C   UNL A   1      44.395  31.308  34.316  1.00  0.00     0.031 C 
ATOM     60  C   UNL A   1      44.169  29.426  32.719  1.00  0.00     0.031 A 
BRANCH  47  61
ATOM     61  C   UNL A   1      40.470  27.067  28.373  1.00  0.00    -0.014 A 
ATOM     62  C   UNL A   1      39.694  25.956  28.743  1.00  0.00     0.009 A 
ATOM     63  C   UNL A   1      40.966  27.142  27.062  1.00  0.00     0.009 A 
ATOM     64  C   UNL A   1      39.453  24.926  27.832  1.00  0.00     0.001 A 
ATOM     65  C   UNL A   1      40.699  26.123  26.145  1.00  0.00     0.001 A 
ATOM     66  C   UNL A   1      39.952  25.012  26.532  1.00  0.00     0.000 A 
ENDBRANCH  47  61
BRANCH  48  67
ATOM     67  C   UNL A   1      41.730  34.522  34.878  1.00  0.00    -0.014 A 
ATOM     68  C   UNL A   1      41.231  34.384  36.182  1.00  0.00     0.009 A 
ATOM     69  C   UNL A   1      42.403  35.703  34.531  1.00  0.00     0.009 A 
ATOM     70  C   UNL A   1      41.383  35.414  37.112  1.00  0.00     0.001 A 
ATOM     71  C   UNL A   1      42.577  36.722  35.469  1.00  0.00     0.001 A 
ATOM     72  C   UNL A   1      42.060  36.580  36.757  1.00  0.00     0.000 A 
ENDBRANCH  48  67
BRANCH  60  73
ATOM     73  C   UNL A   1      45.486  28.904  33.217  1.00  0.00    -0.014 A 
ATOM     74  C   UNL A   1      45.551  27.995  34.283  1.00  0.00     0.009 A 
ATOM     75  C   UNL A   1      46.674  29.296  32.581  1.00  0.00     0.009 A 
ATOM     76  C   UNL A   1      46.786  27.511  34.721  1.00  0.00     0.001 A 
ATOM     77  C   UNL A   1      47.904  28.791  33.004  1.00  0.00     0.001 A 
ATOM     78  C   UNL A   1      47.959  27.906  34.079  1.00  0.00     0.000 A 
ENDBRANCH  60  73
ENDBRANCH  34  35
ENDBRANCH  26  29
ENDBRANCH  24  25
ENDBRANCH  23  24
ENDBRANCH   1  23
TORSDOF 13
ENDMDL
MODEL 3
REMARK VINA RESULT:     -10.9      2.001      7.654
REMARK SMILES Cc1nc(CNC(=O)[C@H]2CCO[C@H]2C)sc1C(=O)NCCCNC(=O)c1ccc(-c2c3nc(c(-c4ccccc4)c4ccc([nH]4)c(-c4ccccc4)c4nc(c(-c5ccccc5)c5ccc2[nH]5)C=C4)C=C3)cc1
REMARK SMILES IDX 20 1 19 2 17 3 18 4 16 6 1 7 2 8 3 9 4 10 15 11 5 12 6 13
REMARK SMILES IDX 7 14 8 16 9 17 10 18 13 19 11 20 12 21 14 22 21 23 22 24
REMARK SMILES IDX 23 25 24 26 25 28 26 29 27 30 73 31 28 32 72 33 29 34 30 35
REMARK SMILES IDX 31 36 66 37 32 38 71 39 65 40 67 41 33 42 70 43 64 44 63 45
REMARK SMILES IDX 34 47 56 48 41 49 55 50 42 51 45 52 54 53 68 54 43 55 44 56
REMARK SMILES IDX 53 58 69 59 46 60 35 61 36 62 40 63 37 64 39 65 38 66 57 67
REMARK SMILES IDX 58 68 62 69 59 70 61 71 60 72 47 73 48 74 52 75 49 76 51 77
REMARK SMILES IDX 50 78
REMARK H PARENT 19 5 6 15 23 27 67 46 45 57
REMARK Flexibility Score: inf
ROOT
ATOM      1  C   UNL A   1      32.732  28.871  24.811  1.00  0.00     0.118 C 
ENDROOT
BRANCH   1   2
ATOM      2  N   UNL A   1      31.694  27.870  24.898  1.00  0.00    -0.351 N 
ATOM      3  C   UNL A   1      31.616  26.547  24.550  1.00  0.00     0.263 C 
ATOM      4  O   UNL A   1      30.517  26.046  24.819  1.00  0.00    -0.268 OA
ATOM      5  H   UNL A   1      30.861  28.214  25.293  1.00  0.00     0.163 HD
BRANCH   3   6
ATOM      6  C   UNL A   1      32.701  25.769  23.962  1.00  0.00     0.115 A 
ATOM      7  C   UNL A   1      32.539  25.596  21.344  1.00  0.00     0.068 C 
ATOM      8  C   UNL A   1      33.116  25.373  22.692  1.00  0.00     0.061 A 
ATOM      9  N   UNL A   1      34.243  24.562  22.670  1.00  0.00    -0.244 NA
ATOM     10  C   UNL A   1      34.630  24.243  23.880  1.00  0.00     0.113 A 
ATOM     11  S   UNL A   1      33.773  25.022  25.126  1.00  0.00    -0.111 S 
BRANCH  10  12
ATOM     12  C   UNL A   1      35.721  23.260  24.178  1.00  0.00     0.183 C 
BRANCH  12  13
ATOM     13  N   UNL A   1      35.451  22.632  25.463  1.00  0.00    -0.349 N 
ATOM     14  C   UNL A   1      34.687  21.543  25.757  1.00  0.00     0.226 C 
ATOM     15  H   UNL A   1      35.886  23.059  26.237  1.00  0.00     0.163 HD
ATOM     16  O   UNL A   1      34.536  21.242  26.941  1.00  0.00    -0.275 OA
BRANCH  14  17
ATOM     17  C   UNL A   1      34.086  20.727  24.632  1.00  0.00     0.109 C 
ATOM     18  C   UNL A   1      33.690  19.320  25.037  1.00  0.00     0.044 C 
ATOM     19  C   UNL A   1      32.775  21.258  24.064  1.00  0.00     0.127 C 
ATOM     20  C   UNL A   1      32.763  18.922  23.909  1.00  0.00     0.161 C 
ATOM     21  O   UNL A   1      32.157  20.124  23.412  1.00  0.00    -0.378 OA
ATOM     22  C   UNL A   1      31.771  21.783  25.087  1.00  0.00     0.039 C 
ENDBRANCH  14  17
ENDBRANCH  12  13
ENDBRANCH  10  12
ENDBRANCH   3   6
ENDBRANCH   1   2
BRANCH   1  23
ATOM     23  C   UNL A   1      33.925  28.486  25.684  1.00  0.00     0.042 C 
BRANCH  23  24
ATOM     24  C   UNL A   1      33.661  28.619  27.179  1.00  0.00     0.118 C 
BRANCH  24  25
ATOM     25  N   UNL A   1      33.616  30.010  27.600  1.00  0.00    -0.352 N 
ATOM     26  C   UNL A   1      34.537  30.755  28.294  1.00  0.00     0.251 C 
ATOM     27  H   UNL A   1      32.797  30.493  27.346  1.00  0.00     0.163 HD
ATOM     28  O   UNL A   1      34.202  31.842  28.755  1.00  0.00    -0.269 OA
BRANCH  26  29
ATOM     29  C   UNL A   1      35.922  30.268  28.502  1.00  0.00     0.039 A 
ATOM     30  C   UNL A   1      36.272  29.755  29.756  1.00  0.00     0.014 A 
ATOM     31  C   UNL A   1      36.894  30.373  27.503  1.00  0.00     0.014 A 
ATOM     32  C   UNL A   1      37.575  29.308  29.992  1.00  0.00     0.010 A 
ATOM     33  C   UNL A   1      38.172  29.859  27.715  1.00  0.00     0.010 A 
ATOM     34  C   UNL A   1      38.530  29.333  28.964  1.00  0.00    -0.014 A 
BRANCH  34  35
ATOM     35  C   UNL A   1      39.913  28.835  29.180  1.00  0.00     0.031 A 
ATOM     36  C   UNL A   1      40.962  29.744  29.760  1.00  0.00     0.074 A 
ATOM     37  C   UNL A   1      40.243  27.587  28.794  1.00  0.00     0.049 A 
ATOM     38  N   UNL A   1      42.240  29.522  29.939  1.00  0.00    -0.248 NA
ATOM     39  C   UNL A   1      40.522  31.088  30.168  1.00  0.00     0.031 C 
ATOM     40  C   UNL A   1      39.328  26.616  28.190  1.00  0.00     0.029 A 
ATOM     41  N   UNL A   1      41.445  26.927  28.843  1.00  0.00    -0.354 N 
ATOM     42  C   UNL A   1      42.758  30.703  30.457  1.00  0.00     0.074 A 
ATOM     43  C   UNL A   1      41.668  31.651  30.524  1.00  0.00     0.031 C 
ATOM     44  C   UNL A   1      39.998  25.479  27.941  1.00  0.00     0.029 A 
ATOM     45  C   UNL A   1      41.394  25.652  28.331  1.00  0.00     0.049 A 
ATOM     46  H   UNL A   1      42.265  27.328  29.211  1.00  0.00     0.167 HD
ATOM     47  C   UNL A   1      44.026  30.972  30.856  1.00  0.00     0.031 A 
ATOM     48  C   UNL A   1      42.363  24.731  28.183  1.00  0.00     0.031 A 
ATOM     49  C   UNL A   1      45.107  30.026  30.808  1.00  0.00     0.049 A 
ATOM     50  C   UNL A   1      43.761  25.053  28.631  1.00  0.00     0.074 A 
ATOM     51  C   UNL A   1      46.413  30.186  31.239  1.00  0.00     0.029 A 
ATOM     52  N   UNL A   1      45.008  28.740  30.299  1.00  0.00    -0.354 N 
ATOM     53  N   UNL A   1      44.222  26.156  29.167  1.00  0.00    -0.248 NA
ATOM     54  C   UNL A   1      44.768  23.996  28.463  1.00  0.00     0.031 C 
ATOM     55  C   UNL A   1      47.114  29.009  30.953  1.00  0.00     0.029 A 
ATOM     56  C   UNL A   1      46.232  28.102  30.389  1.00  0.00     0.049 A 
ATOM     57  H   UNL A   1      44.188  28.341  29.929  1.00  0.00     0.167 HD
ATOM     58  C   UNL A   1      45.566  25.919  29.422  1.00  0.00     0.074 A 
ATOM     59  C   UNL A   1      45.843  24.562  28.995  1.00  0.00     0.031 C 
ATOM     60  C   UNL A   1      46.490  26.752  29.960  1.00  0.00     0.031 A 
BRANCH  47  61
ATOM     61  C   UNL A   1      44.308  32.353  31.375  1.00  0.00    -0.014 A 
ATOM     62  C   UNL A   1      44.186  32.657  32.741  1.00  0.00     0.009 A 
ATOM     63  C   UNL A   1      44.734  33.358  30.493  1.00  0.00     0.009 A 
ATOM     64  C   UNL A   1      44.447  33.947  33.206  1.00  0.00     0.001 A 
ATOM     65  C   UNL A   1      45.022  34.640  30.966  1.00  0.00     0.001 A 
ATOM     66  C   UNL A   1      44.869  34.937  32.319  1.00  0.00     0.000 A 
ENDBRANCH  47  61
BRANCH  48  67
ATOM     67  C   UNL A   1      42.042  23.407  27.591  1.00  0.00    -0.014 A 
ATOM     68  C   UNL A   1      41.483  22.392  28.383  1.00  0.00     0.009 A 
ATOM     69  C   UNL A   1      42.287  23.152  26.234  1.00  0.00     0.009 A 
ATOM     70  C   UNL A   1      41.197  21.141  27.832  1.00  0.00     0.001 A 
ATOM     71  C   UNL A   1      41.976  21.908  25.679  1.00  0.00     0.001 A 
ATOM     72  C   UNL A   1      41.439  20.902  26.480  1.00  0.00     0.000 A 
ENDBRANCH  48  67
BRANCH  60  73
ATOM     73  C   UNL A   1      47.876  26.207  30.151  1.00  0.00    -0.014 A 
ATOM     74  C   UNL A   1      48.807  26.206  29.101  1.00  0.00     0.009 A 
ATOM     75  C   UNL A   1      48.268  25.729  31.410  1.00  0.00     0.009 A 
ATOM     76  C   UNL A   1      50.096  25.709  29.303  1.00  0.00     0.001 A 
ATOM     77  C   UNL A   1      49.565  25.256  31.616  1.00  0.00     0.001 A 
ATOM     78  C   UNL A   1      50.474  25.238  30.560  1.00  0.00     0.000 A 
ENDBRANCH  60  73
ENDBRANCH  34  35
ENDBRANCH  26  29
ENDBRANCH  24  25
ENDBRANCH  23  24
ENDBRANCH   1  23
TORSDOF 13
ENDMDL
