MODEL 1
REMARK VINA RESULT:     -12.3      0.000      0.000
REMARK SMILES Nc1nc(N2CCCCC2)nc2c1[C@H](C(=O)NCCCNC(=O)c1ccc(-c3c4nc(c(-c5ccccc5)c5ccc([nH]5)c(-c5ccccc5)c5nc(c(-c6ccccc6)c6ccc3[nH]6)C=C5)C=C4)cc1)CC(=O)N2
REMARK SMILES IDX 19 1 18 2 17 3 15 4 16 5 14 7 2 8 3 9 13 10 4 11 12 12 11 13
REMARK SMILES IDX 75 14 72 15 73 16 74 18 1 19 5 22 6 23 10 24 7 25 9 26 8 27
REMARK SMILES IDX 20 28 21 29 22 30 23 32 24 33 25 34 71 35 26 36 70 37 27 38
REMARK SMILES IDX 28 39 29 40 64 41 30 42 69 43 63 44 65 45 31 46 68 47 62 48
REMARK SMILES IDX 61 49 32 51 54 52 39 53 53 54 40 55 43 56 52 57 66 58 41 59
REMARK SMILES IDX 42 60 51 62 67 63 44 64 33 65 34 66 38 67 35 68 37 69 36 70
REMARK SMILES IDX 55 71 56 72 60 73 57 74 59 75 58 76 45 77 46 78 50 79 47 80
REMARK SMILES IDX 49 81 48 82
REMARK H PARENT 17 6 75 17 1 20 1 21 21 31 65 50 43 61
REMARK Flexibility Score: inf
ROOT
ATOM      1  C   UNL A   1      33.844  28.052  25.963  1.00  0.00     0.042 C 
ENDROOT
BRANCH   1   2
ATOM      2  C   UNL A   1      32.716  27.390  25.180  1.00  0.00     0.117 C 
BRANCH   2   3
ATOM      3  N   UNL A   1      32.151  26.261  25.897  1.00  0.00    -0.355 N 
ATOM      4  C   UNL A   1      32.507  24.981  26.136  1.00  0.00     0.228 C 
ATOM      5  O   UNL A   1      31.699  24.369  26.853  1.00  0.00    -0.274 OA
ATOM      6  H   UNL A   1      31.289  26.486  26.316  1.00  0.00     0.163 HD
BRANCH   4   7
ATOM      7  C   UNL A   1      33.808  24.280  25.703  1.00  0.00     0.125 C 
ATOM      8  C   UNL A   1      33.410  21.882  26.513  1.00  0.00     0.135 A 
ATOM      9  N   UNL A   1      33.255  20.575  26.280  1.00  0.00    -0.196 NA
ATOM     10  C   UNL A   1      33.564  22.798  25.497  1.00  0.00     0.050 A 
ATOM     11  C   UNL A   1      33.225  20.157  25.007  1.00  0.00     0.229 A 
ATOM     12  C   UNL A   1      33.429  22.277  24.227  1.00  0.00     0.144 A 
ATOM     13  N   UNL A   1      33.260  20.982  23.954  1.00  0.00    -0.195 NA
ATOM     14  N   UNL A   1      33.480  23.139  23.134  1.00  0.00    -0.310 N 
ATOM     15  C   UNL A   1      34.611  24.772  24.511  1.00  0.00     0.119 C 
ATOM     16  C   UNL A   1      33.929  24.427  23.212  1.00  0.00     0.226 C 
ATOM     17  H   UNL A   1      33.176  22.802  22.260  1.00  0.00     0.171 HD
ATOM     18  O   UNL A   1      33.880  25.200  22.266  1.00  0.00    -0.275 OA
BRANCH   8  19
ATOM     19  N   UNL A   1      33.443  22.259  27.846  1.00  0.00    -0.383 N 
ATOM     20  H   UNL A   1      34.179  22.819  28.182  1.00  0.00     0.158 HD
ATOM     21  H   UNL A   1      32.729  21.965  28.459  1.00  0.00     0.158 HD
ENDBRANCH   8  19
BRANCH  11  22
ATOM     22  N   UNL A   1      33.277  18.798  24.804  1.00  0.00    -0.341 N 
ATOM     23  C   UNL A   1      32.631  17.976  25.810  1.00  0.00     0.119 C 
ATOM     24  C   UNL A   1      33.223  18.340  23.428  1.00  0.00     0.119 C 
ATOM     25  C   UNL A   1      33.235  16.571  25.768  1.00  0.00     0.022 C 
ATOM     26  C   UNL A   1      33.891  16.967  23.359  1.00  0.00     0.022 C 
ATOM     27  C   UNL A   1      33.253  15.993  24.350  1.00  0.00     0.004 C 
ENDBRANCH  11  22
ENDBRANCH   4   7
ENDBRANCH   2   3
ENDBRANCH   1   2
BRANCH   1  28
ATOM     28  C   UNL A   1      33.451  28.436  27.388  1.00  0.00     0.118 C 
BRANCH  28  29
ATOM     29  N   UNL A   1      33.481  29.877  27.602  1.00  0.00    -0.352 N 
ATOM     30  C   UNL A   1      34.449  30.678  28.149  1.00  0.00     0.251 C 
ATOM     31  H   UNL A   1      32.672  30.354  27.305  1.00  0.00     0.163 HD
ATOM     32  O   UNL A   1      34.173  31.839  28.444  1.00  0.00    -0.269 OA
BRANCH  30  33
ATOM     33  C   UNL A   1      35.818  30.172  28.387  1.00  0.00     0.039 A 
ATOM     34  C   UNL A   1      36.140  29.673  29.653  1.00  0.00     0.014 A 
ATOM     35  C   UNL A   1      36.804  30.256  27.401  1.00  0.00     0.014 A 
ATOM     36  C   UNL A   1      37.436  29.218  29.916  1.00  0.00     0.010 A 
ATOM     37  C   UNL A   1      38.076  29.740  27.640  1.00  0.00     0.010 A 
ATOM     38  C   UNL A   1      38.408  29.229  28.905  1.00  0.00    -0.014 A 
BRANCH  38  39
ATOM     39  C   UNL A   1      39.791  28.752  29.152  1.00  0.00     0.031 A 
ATOM     40  C   UNL A   1      40.787  29.659  29.819  1.00  0.00     0.074 A 
ATOM     41  C   UNL A   1      40.167  27.527  28.738  1.00  0.00     0.049 A 
ATOM     42  N   UNL A   1      42.068  29.476  30.018  1.00  0.00    -0.248 NA
ATOM     43  C   UNL A   1      40.281  30.950  30.311  1.00  0.00     0.031 C 
ATOM     44  C   UNL A   1      39.300  26.549  28.078  1.00  0.00     0.029 A 
ATOM     45  N   UNL A   1      41.385  26.898  28.810  1.00  0.00    -0.354 N 
ATOM     46  C   UNL A   1      42.523  30.635  30.634  1.00  0.00     0.074 A 
ATOM     47  C   UNL A   1      41.390  31.529  30.746  1.00  0.00     0.031 C 
ATOM     48  C   UNL A   1      40.006  25.433  27.834  1.00  0.00     0.029 A 
ATOM     49  C   UNL A   1      41.382  25.633  28.276  1.00  0.00     0.049 A 
ATOM     50  H   UNL A   1      42.184  27.316  29.205  1.00  0.00     0.167 HD
ATOM     51  C   UNL A   1      43.767  30.925  31.084  1.00  0.00     0.031 A 
ATOM     52  C   UNL A   1      42.379  24.737  28.152  1.00  0.00     0.031 A 
ATOM     53  C   UNL A   1      44.891  30.034  30.991  1.00  0.00     0.049 A 
ATOM     54  C   UNL A   1      43.756  25.091  28.637  1.00  0.00     0.074 A 
ATOM     55  C   UNL A   1      46.189  30.235  31.428  1.00  0.00     0.029 A 
ATOM     56  N   UNL A   1      44.846  28.766  30.437  1.00  0.00    -0.354 N 
ATOM     57  N   UNL A   1      44.170  26.195  29.209  1.00  0.00    -0.248 NA
ATOM     58  C   UNL A   1      44.801  24.073  28.460  1.00  0.00     0.031 C 
ATOM     59  C   UNL A   1      46.937  29.096  31.112  1.00  0.00     0.029 A 
ATOM     60  C   UNL A   1      46.093  28.172  30.518  1.00  0.00     0.049 A 
ATOM     61  H   UNL A   1      44.045  28.348  30.043  1.00  0.00     0.167 HD
ATOM     62  C   UNL A   1      45.518  25.997  29.479  1.00  0.00     0.074 A 
ATOM     63  C   UNL A   1      45.848  24.663  29.020  1.00  0.00     0.031 C 
ATOM     64  C   UNL A   1      46.404  26.845  30.057  1.00  0.00     0.031 A 
BRANCH  51  65
ATOM     65  C   UNL A   1      43.973  32.270  31.719  1.00  0.00    -0.014 A 
ATOM     66  C   UNL A   1      43.835  32.443  33.104  1.00  0.00     0.009 A 
ATOM     67  C   UNL A   1      44.345  33.369  30.928  1.00  0.00     0.009 A 
ATOM     68  C   UNL A   1      44.036  33.698  33.684  1.00  0.00     0.001 A 
ATOM     69  C   UNL A   1      44.569  34.617  31.514  1.00  0.00     0.001 A 
ATOM     70  C   UNL A   1      44.407  34.781  32.889  1.00  0.00     0.000 A 
ENDBRANCH  51  65
BRANCH  52  71
ATOM     71  C   UNL A   1      42.105  23.403  27.562  1.00  0.00    -0.014 A 
ATOM     72  C   UNL A   1      41.543  22.387  28.350  1.00  0.00     0.009 A 
ATOM     73  C   UNL A   1      42.396  23.138  26.215  1.00  0.00     0.009 A 
ATOM     74  C   UNL A   1      41.293  21.126  27.805  1.00  0.00     0.001 A 
ATOM     75  C   UNL A   1      42.123  21.883  25.667  1.00  0.00     0.001 A 
ATOM     76  C   UNL A   1      41.579  20.877  26.464  1.00  0.00     0.000 A 
ENDBRANCH  52  71
BRANCH  64  77
ATOM     77  C   UNL A   1      47.804  26.345  30.254  1.00  0.00    -0.014 A 
ATOM     78  C   UNL A   1      48.220  25.821  31.486  1.00  0.00     0.009 A 
ATOM     79  C   UNL A   1      48.702  26.354  29.176  1.00  0.00     0.009 A 
ATOM     80  C   UNL A   1      49.521  25.338  31.643  1.00  0.00     0.001 A 
ATOM     81  C   UNL A   1      49.995  25.850  29.328  1.00  0.00     0.001 A 
ATOM     82  C   UNL A   1      50.404  25.349  30.564  1.00  0.00     0.000 A 
ENDBRANCH  64  77
ENDBRANCH  38  39
ENDBRANCH  30  33
ENDBRANCH  28  29
ENDBRANCH   1  28
TORSDOF 12
ENDMDL
MODEL 2
REMARK VINA RESULT:     -12.2      0.879      1.127
REMARK SMILES Nc1nc(N2CCCCC2)nc2c1[C@H](C(=O)NCCCNC(=O)c1ccc(-c3c4nc(c(-c5ccccc5)c5ccc([nH]5)c(-c5ccccc5)c5nc(c(-c6ccccc6)c6ccc3[nH]6)C=C5)C=C4)cc1)CC(=O)N2
REMARK SMILES IDX 19 1 18 2 17 3 15 4 16 5 14 7 2 8 3 9 13 10 4 11 12 12 11 13
REMARK SMILES IDX 75 14 72 15 73 16 74 18 1 19 5 22 6 23 10 24 7 25 9 26 8 27
REMARK SMILES IDX 20 28 21 29 22 30 23 32 24 33 25 34 71 35 26 36 70 37 27 38
REMARK SMILES IDX 28 39 29 40 64 41 30 42 69 43 63 44 65 45 31 46 68 47 62 48
REMARK SMILES IDX 61 49 32 51 54 52 39 53 53 54 40 55 43 56 52 57 66 58 41 59
REMARK SMILES IDX 42 60 51 62 67 63 44 64 33 65 34 66 38 67 35 68 37 69 36 70
REMARK SMILES IDX 55 71 56 72 60 73 57 74 59 75 58 76 45 77 46 78 50 79 47 80
REMARK SMILES IDX 49 81 48 82
REMARK H PARENT 17 6 75 17 1 20 1 21 21 31 65 50 43 61
REMARK Flexibility Score: inf
ROOT
ATOM      1  C   UNL A   1      31.903  28.144  27.518  1.00  0.00     0.042 C 
ENDROOT
BRANCH   1   2
ATOM      2  C   UNL A   1      31.460  27.239  26.374  1.00  0.00     0.117 C 
BRANCH   2   3
ATOM      3  N   UNL A   1      31.123  25.906  26.839  1.00  0.00    -0.355 N 
ATOM      4  C   UNL A   1      31.575  24.653  26.620  1.00  0.00     0.228 C 
ATOM      5  O   UNL A   1      30.980  23.790  27.284  1.00  0.00    -0.274 OA
ATOM      6  H   UNL A   1      30.373  25.919  27.476  1.00  0.00     0.163 HD
BRANCH   4   7
ATOM      7  C   UNL A   1      32.768  24.234  25.741  1.00  0.00     0.125 C 
ATOM      8  C   UNL A   1      33.156  21.817  26.497  1.00  0.00     0.135 A 
ATOM      9  N   UNL A   1      33.199  20.504  26.253  1.00  0.00    -0.196 NA
ATOM     10  C   UNL A   1      32.772  22.731  25.542  1.00  0.00     0.050 A 
ATOM     11  C   UNL A   1      32.828  20.071  25.041  1.00  0.00     0.229 A 
ATOM     12  C   UNL A   1      32.326  22.177  24.361  1.00  0.00     0.144 A 
ATOM     13  N   UNL A   1      32.339  20.870  24.086  1.00  0.00    -0.195 NA
ATOM     14  N   UNL A   1      31.832  23.014  23.364  1.00  0.00    -0.310 N 
ATOM     15  C   UNL A   1      33.006  24.867  24.380  1.00  0.00     0.119 C 
ATOM     16  C   UNL A   1      32.012  24.369  23.363  1.00  0.00     0.226 C 
ATOM     17  H   UNL A   1      31.326  22.609  22.623  1.00  0.00     0.171 HD
ATOM     18  O   UNL A   1      31.492  25.101  22.533  1.00  0.00    -0.275 OA
BRANCH   8  19
ATOM     19  N   UNL A   1      33.560  22.211  27.763  1.00  0.00    -0.383 N 
ATOM     20  H   UNL A   1      33.920  23.115  27.907  1.00  0.00     0.158 HD
ATOM     21  H   UNL A   1      33.486  21.585  28.520  1.00  0.00     0.158 HD
ENDBRANCH   8  19
BRANCH  11  22
ATOM     22  N   UNL A   1      33.081  18.750  24.754  1.00  0.00    -0.341 N 
ATOM     23  C   UNL A   1      32.635  17.785  25.741  1.00  0.00     0.119 C 
ATOM     24  C   UNL A   1      33.017  18.361  23.358  1.00  0.00     0.119 C 
ATOM     25  C   UNL A   1      33.449  16.499  25.583  1.00  0.00     0.022 C 
ATOM     26  C   UNL A   1      33.888  17.118  23.171  1.00  0.00     0.022 C 
ATOM     27  C   UNL A   1      33.472  16.006  24.134  1.00  0.00     0.004 C 
ENDBRANCH  11  22
ENDBRANCH   4   7
ENDBRANCH   2   3
ENDBRANCH   1   2
BRANCH   1  28
ATOM     28  C   UNL A   1      33.344  28.633  27.385  1.00  0.00     0.118 C 
BRANCH  28  29
ATOM     29  N   UNL A   1      33.443  30.085  27.433  1.00  0.00    -0.352 N 
ATOM     30  C   UNL A   1      34.427  30.896  27.935  1.00  0.00     0.251 C 
ATOM     31  H   UNL A   1      32.677  30.563  27.039  1.00  0.00     0.163 HD
ATOM     32  O   UNL A   1      34.203  32.096  28.079  1.00  0.00    -0.269 OA
BRANCH  30  33
ATOM     33  C   UNL A   1      35.753  30.354  28.304  1.00  0.00     0.039 A 
ATOM     34  C   UNL A   1      35.950  29.886  29.607  1.00  0.00     0.014 A 
ATOM     35  C   UNL A   1      36.821  30.373  27.403  1.00  0.00     0.014 A 
ATOM     36  C   UNL A   1      37.201  29.398  29.993  1.00  0.00     0.010 A 
ATOM     37  C   UNL A   1      38.049  29.825  27.766  1.00  0.00     0.010 A 
ATOM     38  C   UNL A   1      38.255  29.345  29.068  1.00  0.00    -0.014 A 
BRANCH  38  39
ATOM     39  C   UNL A   1      39.594  28.831  29.447  1.00  0.00     0.031 A 
ATOM     40  C   UNL A   1      40.498  29.664  30.314  1.00  0.00     0.074 A 
ATOM     41  C   UNL A   1      40.021  27.644  28.977  1.00  0.00     0.049 A 
ATOM     42  N   UNL A   1      41.743  29.450  30.658  1.00  0.00    -0.248 NA
ATOM     43  C   UNL A   1      39.933  30.913  30.849  1.00  0.00     0.031 C 
ATOM     44  C   UNL A   1      39.244  26.738  28.128  1.00  0.00     0.029 A 
ATOM     45  N   UNL A   1      41.219  26.997  29.148  1.00  0.00    -0.354 N 
ATOM     46  C   UNL A   1      42.115  30.545  31.428  1.00  0.00     0.074 A 
ATOM     47  C   UNL A   1      40.978  31.438  31.472  1.00  0.00     0.031 C 
ATOM     48  C   UNL A   1      39.976  25.639  27.877  1.00  0.00     0.029 A 
ATOM     49  C   UNL A   1      41.284  25.783  28.508  1.00  0.00     0.049 A 
ATOM     50  H   UNL A   1      41.961  27.368  29.677  1.00  0.00     0.167 HD
ATOM     51  C   UNL A   1      43.291  30.779  32.056  1.00  0.00     0.031 A 
ATOM     52  C   UNL A   1      42.288  24.890  28.433  1.00  0.00     0.031 A 
ATOM     53  C   UNL A   1      44.417  29.886  32.029  1.00  0.00     0.049 A 
ATOM     54  C   UNL A   1      43.591  25.184  29.119  1.00  0.00     0.074 A 
ATOM     55  C   UNL A   1      45.649  30.032  32.645  1.00  0.00     0.029 A 
ATOM     56  N   UNL A   1      44.443  28.672  31.363  1.00  0.00    -0.354 N 
ATOM     57  N   UNL A   1      43.930  26.228  29.835  1.00  0.00    -0.248 NA
ATOM     58  C   UNL A   1      44.650  24.173  28.987  1.00  0.00     0.031 C 
ATOM     59  C   UNL A   1      46.430  28.917  32.327  1.00  0.00     0.029 A 
ATOM     60  C   UNL A   1      45.670  28.059  31.549  1.00  0.00     0.049 A 
ATOM     61  H   UNL A   1      43.700  28.301  30.835  1.00  0.00     0.167 HD
ATOM     62  C   UNL A   1      45.231  25.991  30.256  1.00  0.00     0.074 A 
ATOM     63  C   UNL A   1      45.617  24.699  29.726  1.00  0.00     0.031 C 
ATOM     64  C   UNL A   1      46.036  26.774  31.015  1.00  0.00     0.031 A 
BRANCH  51  65
ATOM     65  C   UNL A   1      43.415  32.060  32.829  1.00  0.00    -0.014 A 
ATOM     66  C   UNL A   1      43.111  32.110  34.198  1.00  0.00     0.009 A 
ATOM     67  C   UNL A   1      43.875  33.223  32.191  1.00  0.00     0.009 A 
ATOM     68  C   UNL A   1      43.236  33.306  34.908  1.00  0.00     0.001 A 
ATOM     69  C   UNL A   1      44.023  34.412  32.908  1.00  0.00     0.001 A 
ATOM     70  C   UNL A   1      43.696  34.454  34.263  1.00  0.00     0.000 A 
ENDBRANCH  51  65
BRANCH  52  71
ATOM     71  C   UNL A   1      42.092  23.616  27.696  1.00  0.00    -0.014 A 
ATOM     72  C   UNL A   1      42.429  23.532  26.336  1.00  0.00     0.009 A 
ATOM     73  C   UNL A   1      41.577  22.483  28.342  1.00  0.00     0.009 A 
ATOM     74  C   UNL A   1      42.238  22.340  25.634  1.00  0.00     0.001 A 
ATOM     75  C   UNL A   1      41.409  21.286  27.642  1.00  0.00     0.001 A 
ATOM     76  C   UNL A   1      41.732  21.218  26.288  1.00  0.00     0.000 A 
ENDBRANCH  52  71
BRANCH  64  77
ATOM     77  C   UNL A   1      47.399  26.242  31.345  1.00  0.00    -0.014 A 
ATOM     78  C   UNL A   1      47.645  25.575  32.553  1.00  0.00     0.009 A 
ATOM     79  C   UNL A   1      48.438  26.369  30.409  1.00  0.00     0.009 A 
ATOM     80  C   UNL A   1      48.915  25.065  32.830  1.00  0.00     0.001 A 
ATOM     81  C   UNL A   1      49.701  25.840  30.679  1.00  0.00     0.001 A 
ATOM     82  C   UNL A   1      49.939  25.194  31.892  1.00  0.00     0.000 A 
ENDBRANCH  64  77
ENDBRANCH  38  39
ENDBRANCH  30  33
ENDBRANCH  28  29
ENDBRANCH   1  28
TORSDOF 12
ENDMDL
MODEL 3
REMARK VINA RESULT:     -12.1      2.939      8.547
REMARK SMILES Nc1nc(N2CCCCC2)nc2c1[C@H](C(=O)NCCCNC(=O)c1ccc(-c3c4nc(c(-c5ccccc5)c5ccc([nH]5)c(-c5ccccc5)c5nc(c(-c6ccccc6)c6ccc3[nH]6)C=C5)C=C4)cc1)CC(=O)N2
REMARK SMILES IDX 19 1 18 2 17 3 15 4 16 5 14 7 2 8 3 9 13 10 4 11 12 12 11 13
REMARK SMILES IDX 75 14 72 15 73 16 74 18 1 19 5 22 6 23 10 24 7 25 9 26 8 27
REMARK SMILES IDX 20 28 21 29 22 30 23 32 24 33 25 34 71 35 26 36 70 37 27 38
REMARK SMILES IDX 28 39 29 40 64 41 30 42 69 43 63 44 65 45 31 46 68 47 62 48
REMARK SMILES IDX 61 49 32 51 54 52 39 53 53 54 40 55 43 56 52 57 66 58 41 59
REMARK SMILES IDX 42 60 51 62 67 63 44 64 33 65 34 66 38 67 35 68 37 69 36 70
REMARK SMILES IDX 55 71 56 72 60 73 57 74 59 75 58 76 45 77 46 78 50 79 47 80
REMARK SMILES IDX 49 81 48 82
REMARK H PARENT 17 6 75 17 1 20 1 21 21 31 65 50 43 61
REMARK Flexibility Score: inf
ROOT
ATOM      1  C   UNL A   1      35.765  23.630  25.980  1.00  0.00     0.042 C 
ENDROOT
BRANCH   1   2
ATOM      2  C   UNL A   1      34.478  23.235  25.265  1.00  0.00     0.117 C 
BRANCH   2   3
ATOM      3  N   UNL A   1      34.293  23.982  24.034  1.00  0.00    -0.355 N 
ATOM      4  C   UNL A   1      33.916  25.234  23.701  1.00  0.00     0.228 C 
ATOM      5  O   UNL A   1      33.931  25.445  22.477  1.00  0.00    -0.274 OA
ATOM      6  H   UNL A   1      34.493  23.435  23.240  1.00  0.00     0.163 HD
BRANCH   4   7
ATOM      7  C   UNL A   1      33.584  26.393  24.659  1.00  0.00     0.125 C 
ATOM      8  C   UNL A   1      32.708  28.178  23.044  1.00  0.00     0.135 A 
ATOM      9  N   UNL A   1      31.736  28.977  22.592  1.00  0.00    -0.196 NA
ATOM     10  C   UNL A   1      32.505  27.275  24.063  1.00  0.00     0.050 A 
ATOM     11  C   UNL A   1      30.519  28.869  23.142  1.00  0.00     0.229 A 
ATOM     12  C   UNL A   1      31.199  27.180  24.496  1.00  0.00     0.144 A 
ATOM     13  N   UNL A   1      30.199  27.950  24.060  1.00  0.00    -0.195 NA
ATOM     14  N   UNL A   1      30.875  26.232  25.463  1.00  0.00    -0.310 N 
ATOM     15  C   UNL A   1      33.203  26.135  26.107  1.00  0.00     0.119 C 
ATOM     16  C   UNL A   1      31.808  25.574  26.214  1.00  0.00     0.226 C 
ATOM     17  H   UNL A   1      29.924  26.025  25.612  1.00  0.00     0.171 HD
ATOM     18  O   UNL A   1      31.514  24.677  26.991  1.00  0.00    -0.275 OA
BRANCH   8  19
ATOM     19  N   UNL A   1      33.949  28.339  22.448  1.00  0.00    -0.383 N 
ATOM     20  H   UNL A   1      34.626  27.628  22.519  1.00  0.00     0.158 HD
ATOM     21  H   UNL A   1      34.154  29.166  21.952  1.00  0.00     0.158 HD
ENDBRANCH   8  19
BRANCH  11  22
ATOM     22  N   UNL A   1      29.603  29.839  22.808  1.00  0.00    -0.341 N 
ATOM     23  C   UNL A   1      29.390  30.882  23.793  1.00  0.00     0.119 C 
ATOM     24  C   UNL A   1      29.528  30.212  21.408  1.00  0.00     0.119 C 
ATOM     25  C   UNL A   1      28.016  31.515  23.558  1.00  0.00     0.022 C 
ATOM     26  C   UNL A   1      28.134  30.779  21.143  1.00  0.00     0.022 C 
ATOM     27  C   UNL A   1      27.815  31.929  22.098  1.00  0.00     0.004 C 
ENDBRANCH  11  22
ENDBRANCH   4   7
ENDBRANCH   2   3
ENDBRANCH   1   2
BRANCH   1  28
ATOM     28  C   UNL A   1      36.980  23.687  25.057  1.00  0.00     0.118 C 
BRANCH  28  29
ATOM     29  N   UNL A   1      38.017  22.741  25.445  1.00  0.00    -0.352 N 
ATOM     30  C   UNL A   1      39.214  22.941  26.085  1.00  0.00     0.251 C 
ATOM     31  H   UNL A   1      37.828  21.804  25.210  1.00  0.00     0.163 HD
ATOM     32  O   UNL A   1      40.041  22.034  26.109  1.00  0.00    -0.269 OA
BRANCH  30  33
ATOM     33  C   UNL A   1      39.522  24.227  26.748  1.00  0.00     0.039 A 
ATOM     34  C   UNL A   1      40.244  25.193  26.038  1.00  0.00     0.014 A 
ATOM     35  C   UNL A   1      39.175  24.458  28.081  1.00  0.00     0.014 A 
ATOM     36  C   UNL A   1      40.578  26.405  26.650  1.00  0.00     0.010 A 
ATOM     37  C   UNL A   1      39.448  25.691  28.669  1.00  0.00     0.010 A 
ATOM     38  C   UNL A   1      40.165  26.671  27.964  1.00  0.00    -0.014 A 
BRANCH  38  39
ATOM     39  C   UNL A   1      40.502  27.947  28.640  1.00  0.00     0.031 A 
ATOM     40  C   UNL A   1      41.875  28.145  29.223  1.00  0.00     0.074 A 
ATOM     41  C   UNL A   1      39.569  28.908  28.775  1.00  0.00     0.049 A 
ATOM     42  N   UNL A   1      42.329  29.134  29.951  1.00  0.00    -0.248 NA
ATOM     43  C   UNL A   1      42.861  27.083  28.968  1.00  0.00     0.031 C 
ATOM     44  C   UNL A   1      38.201  28.843  28.258  1.00  0.00     0.029 A 
ATOM     45  N   UNL A   1      39.633  30.131  29.396  1.00  0.00    -0.354 N 
ATOM     46  C   UNL A   1      43.642  28.801  30.260  1.00  0.00     0.074 A 
ATOM     47  C   UNL A   1      43.902  27.505  29.671  1.00  0.00     0.031 C 
ATOM     48  C   UNL A   1      37.565  29.988  28.556  1.00  0.00     0.029 A 
ATOM     49  C   UNL A   1      38.463  30.846  29.322  1.00  0.00     0.049 A 
ATOM     50  H   UNL A   1      40.441  30.462  29.850  1.00  0.00     0.167 HD
ATOM     51  C   UNL A   1      44.557  29.516  30.957  1.00  0.00     0.031 A 
ATOM     52  C   UNL A   1      38.148  32.055  29.823  1.00  0.00     0.031 A 
ATOM     53  C   UNL A   1      44.309  30.811  31.529  1.00  0.00     0.049 A 
ATOM     54  C   UNL A   1      39.172  32.819  30.612  1.00  0.00     0.074 A 
ATOM     55  C   UNL A   1      45.178  31.619  32.244  1.00  0.00     0.029 A 
ATOM     56  N   UNL A   1      43.109  31.495  31.438  1.00  0.00    -0.354 N 
ATOM     57  N   UNL A   1      40.405  32.486  30.903  1.00  0.00    -0.248 NA
ATOM     58  C   UNL A   1      38.759  34.126  31.141  1.00  0.00     0.031 C 
ATOM     59  C   UNL A   1      44.491  32.781  32.609  1.00  0.00     0.029 A 
ATOM     60  C   UNL A   1      43.211  32.714  32.085  1.00  0.00     0.049 A 
ATOM     61  H   UNL A   1      42.302  31.163  30.981  1.00  0.00     0.167 HD
ATOM     62  C   UNL A   1      40.923  33.550  31.629  1.00  0.00     0.074 A 
ATOM     63  C   UNL A   1      39.873  34.544  31.724  1.00  0.00     0.031 C 
ATOM     64  C   UNL A   1      42.158  33.691  32.170  1.00  0.00     0.031 A 
BRANCH  51  65
ATOM     65  C   UNL A   1      45.916  28.904  31.137  1.00  0.00    -0.014 A 
ATOM     66  C   UNL A   1      46.965  29.202  30.253  1.00  0.00     0.009 A 
ATOM     67  C   UNL A   1      46.162  28.049  32.223  1.00  0.00     0.009 A 
ATOM     68  C   UNL A   1      48.226  28.632  30.435  1.00  0.00     0.001 A 
ATOM     69  C   UNL A   1      47.432  27.500  32.417  1.00  0.00     0.001 A 
ATOM     70  C   UNL A   1      48.459  27.786  31.519  1.00  0.00     0.000 A 
ENDBRANCH  51  65
BRANCH  52  71
ATOM     71  C   UNL A   1      36.803  32.633  29.570  1.00  0.00    -0.014 A 
ATOM     72  C   UNL A   1      36.531  33.272  28.351  1.00  0.00     0.009 A 
ATOM     73  C   UNL A   1      35.790  32.545  30.536  1.00  0.00     0.009 A 
ATOM     74  C   UNL A   1      35.272  33.827  28.111  1.00  0.00     0.001 A 
ATOM     75  C   UNL A   1      34.525  33.081  30.282  1.00  0.00     0.001 A 
ATOM     76  C   UNL A   1      34.270  33.727  29.074  1.00  0.00     0.000 A 
ENDBRANCH  52  71
BRANCH  64  77
ATOM     77  C   UNL A   1      42.452  34.977  32.883  1.00  0.00    -0.014 A 
ATOM     78  C   UNL A   1      42.022  35.192  34.200  1.00  0.00     0.009 A 
ATOM     79  C   UNL A   1      43.212  35.968  32.242  1.00  0.00     0.009 A 
ATOM     80  C   UNL A   1      42.326  36.386  34.855  1.00  0.00     0.001 A 
ATOM     81  C   UNL A   1      43.535  37.152  32.906  1.00  0.00     0.001 A 
ATOM     82  C   UNL A   1      43.086  37.362  34.210  1.00  0.00     0.000 A 
ENDBRANCH  64  77
ENDBRANCH  38  39
ENDBRANCH  30  33
ENDBRANCH  28  29
ENDBRANCH   1  28
TORSDOF 12
ENDMDL
