MODEL 1
REMARK VINA RESULT:     -11.3      0.000      0.000
REMARK SMILES COc1ccc(NC(=O)[C@@H]2CC=CC[C@H]2C(=O)NCCCNC(=O)c2ccc(-c3c4nc(c(-c5ccccc5)c5ccc([nH]5)c(-c5ccccc5)c5nc(c(-c6ccccc6)c6ccc3[nH]6)C=C5)C=C4)cc2)cc1Cl
REMARK SMILES IDX 19 1 18 2 16 3 17 4 15 6 10 7 11 8 12 9 14 10 13 11 8 12
REMARK SMILES IDX 7 13 9 15 6 16 3 17 4 18 74 19 5 20 73 21 75 22 2 23 1 24
REMARK SMILES IDX 20 25 21 26 22 27 23 28 24 30 25 31 26 32 72 33 27 34 71 35
REMARK SMILES IDX 28 36 29 37 30 38 65 39 31 40 70 41 64 42 66 43 32 44 69 45
REMARK SMILES IDX 63 46 62 47 33 49 55 50 40 51 54 52 41 53 44 54 53 55 67 56
REMARK SMILES IDX 42 57 43 58 52 60 68 61 45 62 34 63 35 64 39 65 36 66 38 67
REMARK SMILES IDX 37 68 56 69 57 70 61 71 58 72 60 73 59 74 46 75 47 76 51 77
REMARK SMILES IDX 48 78 50 79 49 80
REMARK H PARENT 18 5 7 14 22 29 66 48 44 59
REMARK Flexibility Score: inf
ROOT
ATOM      1  C   UNL A   1      33.695  26.504  25.685  1.00  0.00     0.117 C 
ENDROOT
BRANCH   1   2
ATOM      2  N   UNL A   1      32.641  25.741  26.338  1.00  0.00    -0.356 N 
ATOM      3  C   UNL A   1      32.341  24.412  26.399  1.00  0.00     0.224 C 
ATOM      4  O   UNL A   1      31.500  24.081  27.244  1.00  0.00    -0.275 OA
ATOM      5  H   UNL A   1      32.010  26.304  26.843  1.00  0.00     0.163 HD
BRANCH   3   6
ATOM      6  C   UNL A   1      33.035  23.326  25.575  1.00  0.00     0.095 C 
ATOM      7  C   UNL A   1      33.597  23.750  24.192  1.00  0.00     0.095 C 
ATOM      8  C   UNL A   1      34.892  22.949  23.827  1.00  0.00     0.041 C 
ATOM      9  C   UNL A   1      35.809  22.549  24.928  1.00  0.00    -0.030 C 
ATOM     10  C   UNL A   1      34.000  22.686  26.612  1.00  0.00     0.041 C 
ATOM     11  C   UNL A   1      35.395  22.406  26.185  1.00  0.00    -0.030 C 
BRANCH   7  12
ATOM     12  C   UNL A   1      32.689  23.579  22.930  1.00  0.00     0.228 C 
ATOM     13  N   UNL A   1      31.610  24.304  22.548  1.00  0.00    -0.326 N 
ATOM     14  H   UNL A   1      31.143  23.881  21.792  1.00  0.00     0.169 HD
ATOM     15  O   UNL A   1      32.959  22.694  22.099  1.00  0.00    -0.274 OA
BRANCH  13  16
ATOM     16  C   UNL A   1      30.980  25.484  22.935  1.00  0.00     0.042 A 
ATOM     17  C   UNL A   1      29.592  27.876  23.323  1.00  0.00     0.137 A 
ATOM     18  C   UNL A   1      29.154  26.708  23.934  1.00  0.00     0.050 A 
ATOM     19  C   UNL A   1      30.832  27.893  22.684  1.00  0.00     0.085 A 
ATOM     20  C   UNL A   1      29.877  25.524  23.761  1.00  0.00     0.030 A 
ATOM     21  C   UNL A   1      31.524  26.694  22.492  1.00  0.00     0.050 A 
ATOM     22  Cl  UNL A   1      31.533  29.354  22.098  1.00  0.00    -0.080 Cl
BRANCH  17  23
ATOM     23  O   UNL A   1      28.759  28.961  23.378  1.00  0.00    -0.495 OA
ATOM     24  C   UNL A   1      27.455  28.597  22.902  1.00  0.00     0.278 C 
ENDBRANCH  17  23
ENDBRANCH  13  16
ENDBRANCH   7  12
ENDBRANCH   3   6
ENDBRANCH   1   2
BRANCH   1  25
ATOM     25  C   UNL A   1      33.745  28.003  26.012  1.00  0.00     0.042 C 
BRANCH  25  26
ATOM     26  C   UNL A   1      33.372  28.455  27.422  1.00  0.00     0.118 C 
BRANCH  26  27
ATOM     27  N   UNL A   1      33.418  29.883  27.638  1.00  0.00    -0.352 N 
ATOM     28  C   UNL A   1      34.454  30.688  28.037  1.00  0.00     0.251 C 
ATOM     29  H   UNL A   1      32.569  30.354  27.473  1.00  0.00     0.163 HD
ATOM     30  O   UNL A   1      34.245  31.894  28.189  1.00  0.00    -0.269 OA
BRANCH  28  31
ATOM     31  C   UNL A   1      35.797  30.145  28.343  1.00  0.00     0.039 A 
ATOM     32  C   UNL A   1      36.746  30.152  27.315  1.00  0.00     0.014 A 
ATOM     33  C   UNL A   1      36.131  29.593  29.583  1.00  0.00     0.014 A 
ATOM     34  C   UNL A   1      38.037  29.669  27.545  1.00  0.00     0.010 A 
ATOM     35  C   UNL A   1      37.442  29.169  29.832  1.00  0.00     0.010 A 
ATOM     36  C   UNL A   1      38.410  29.206  28.816  1.00  0.00    -0.014 A 
BRANCH  36  37
ATOM     37  C   UNL A   1      39.811  28.781  29.082  1.00  0.00     0.031 A 
ATOM     38  C   UNL A   1      40.789  29.708  29.752  1.00  0.00     0.074 A 
ATOM     39  C   UNL A   1      40.218  27.554  28.697  1.00  0.00     0.049 A 
ATOM     40  N   UNL A   1      42.048  29.503  30.053  1.00  0.00    -0.248 NA
ATOM     41  C   UNL A   1      40.293  31.042  30.122  1.00  0.00     0.031 C 
ATOM     42  C   UNL A   1      39.385  26.561  28.017  1.00  0.00     0.029 A 
ATOM     43  N   UNL A   1      41.438  26.934  28.823  1.00  0.00    -0.354 N 
ATOM     44  C   UNL A   1      42.497  30.682  30.635  1.00  0.00     0.074 A 
ATOM     45  C   UNL A   1      41.388  31.613  30.607  1.00  0.00     0.031 C 
ATOM     46  C   UNL A   1      40.108  25.448  27.811  1.00  0.00     0.029 A 
ATOM     47  C   UNL A   1      41.465  25.662  28.304  1.00  0.00     0.049 A 
ATOM     48  H   UNL A   1      42.219  27.361  29.244  1.00  0.00     0.167 HD
ATOM     49  C   UNL A   1      43.715  30.963  31.160  1.00  0.00     0.031 A 
ATOM     50  C   UNL A   1      42.467  24.766  28.225  1.00  0.00     0.031 A 
ATOM     51  C   UNL A   1      44.823  30.043  31.192  1.00  0.00     0.049 A 
ATOM     52  C   UNL A   1      43.818  25.116  28.784  1.00  0.00     0.074 A 
ATOM     53  C   UNL A   1      46.078  30.226  31.747  1.00  0.00     0.029 A 
ATOM     54  N   UNL A   1      44.811  28.771  30.642  1.00  0.00    -0.354 N 
ATOM     55  N   UNL A   1      44.206  26.212  29.387  1.00  0.00    -0.248 NA
ATOM     56  C   UNL A   1      44.870  24.095  28.657  1.00  0.00     0.031 C 
ATOM     57  C   UNL A   1      46.844  29.086  31.483  1.00  0.00     0.029 A 
ATOM     58  C   UNL A   1      46.047  28.169  30.818  1.00  0.00     0.049 A 
ATOM     59  H   UNL A   1      44.040  28.356  30.192  1.00  0.00     0.167 HD
ATOM     60  C   UNL A   1      45.533  26.003  29.737  1.00  0.00     0.074 A 
ATOM     61  C   UNL A   1      45.880  24.669  29.293  1.00  0.00     0.031 C 
ATOM     62  C   UNL A   1      46.387  26.843  30.372  1.00  0.00     0.031 A 
BRANCH  49  63
ATOM     63  C   UNL A   1      43.921  32.338  31.735  1.00  0.00    -0.014 A 
ATOM     64  C   UNL A   1      44.294  33.420  30.921  1.00  0.00     0.009 A 
ATOM     65  C   UNL A   1      43.694  32.565  33.102  1.00  0.00     0.009 A 
ATOM     66  C   UNL A   1      44.470  34.692  31.471  1.00  0.00     0.001 A 
ATOM     67  C   UNL A   1      43.842  33.843  33.643  1.00  0.00     0.001 A 
ATOM     68  C   UNL A   1      44.239  34.903  32.829  1.00  0.00     0.000 A 
ENDBRANCH  49  63
BRANCH  50  69
ATOM     69  C   UNL A   1      42.234  23.442  27.592  1.00  0.00    -0.014 A 
ATOM     70  C   UNL A   1      42.545  23.232  26.240  1.00  0.00     0.009 A 
ATOM     71  C   UNL A   1      41.688  22.383  28.334  1.00  0.00     0.009 A 
ATOM     72  C   UNL A   1      42.288  21.999  25.638  1.00  0.00     0.001 A 
ATOM     73  C   UNL A   1      41.461  21.142  27.737  1.00  0.00     0.001 A 
ATOM     74  C   UNL A   1      41.751  20.953  26.387  1.00  0.00     0.000 A 
ENDBRANCH  50  69
BRANCH  62  75
ATOM     75  C   UNL A   1      47.772  26.332  30.658  1.00  0.00    -0.014 A 
ATOM     76  C   UNL A   1      48.789  26.395  29.693  1.00  0.00     0.009 A 
ATOM     77  C   UNL A   1      48.070  25.809  31.926  1.00  0.00     0.009 A 
ATOM     78  C   UNL A   1      50.068  25.914  29.982  1.00  0.00     0.001 A 
ATOM     79  C   UNL A   1      49.357  25.357  32.222  1.00  0.00     0.001 A 
ATOM     80  C   UNL A   1      50.352  25.400  31.246  1.00  0.00     0.000 A 
ENDBRANCH  62  75
ENDBRANCH  36  37
ENDBRANCH  28  31
ENDBRANCH  26  27
ENDBRANCH  25  26
ENDBRANCH   1  25
TORSDOF 13
ENDMDL
MODEL 2
REMARK VINA RESULT:     -11.3      2.251      6.900
REMARK SMILES COc1ccc(NC(=O)[C@@H]2CC=CC[C@H]2C(=O)NCCCNC(=O)c2ccc(-c3c4nc(c(-c5ccccc5)c5ccc([nH]5)c(-c5ccccc5)c5nc(c(-c6ccccc6)c6ccc3[nH]6)C=C5)C=C4)cc2)cc1Cl
REMARK SMILES IDX 19 1 18 2 16 3 17 4 15 6 10 7 11 8 12 9 14 10 13 11 8 12
REMARK SMILES IDX 7 13 9 15 6 16 3 17 4 18 74 19 5 20 73 21 75 22 2 23 1 24
REMARK SMILES IDX 20 25 21 26 22 27 23 28 24 30 25 31 26 32 72 33 27 34 71 35
REMARK SMILES IDX 28 36 29 37 30 38 65 39 31 40 70 41 64 42 66 43 32 44 69 45
REMARK SMILES IDX 63 46 62 47 33 49 55 50 40 51 54 52 41 53 44 54 53 55 67 56
REMARK SMILES IDX 42 57 43 58 52 60 68 61 45 62 34 63 35 64 39 65 36 66 38 67
REMARK SMILES IDX 37 68 56 69 57 70 61 71 58 72 60 73 59 74 46 75 47 76 51 77
REMARK SMILES IDX 48 78 50 79 49 80
REMARK H PARENT 18 5 7 14 22 29 66 48 44 59
REMARK Flexibility Score: inf
ROOT
ATOM      1  C   UNL A   1      36.284  20.657  25.022  1.00  0.00     0.117 C 
ENDROOT
BRANCH   1   2
ATOM      2  N   UNL A   1      35.059  19.931  25.320  1.00  0.00    -0.356 N 
ATOM      3  C   UNL A   1      33.742  20.286  25.365  1.00  0.00     0.224 C 
ATOM      4  O   UNL A   1      32.928  19.356  25.425  1.00  0.00    -0.275 OA
ATOM      5  H   UNL A   1      35.211  18.982  25.534  1.00  0.00     0.163 HD
BRANCH   3   6
ATOM      6  C   UNL A   1      33.224  21.721  25.253  1.00  0.00     0.095 C 
ATOM      7  C   UNL A   1      31.922  21.932  24.435  1.00  0.00     0.095 C 
ATOM      8  C   UNL A   1      31.066  23.109  25.011  1.00  0.00     0.041 C 
ATOM      9  C   UNL A   1      31.085  23.345  26.479  1.00  0.00    -0.030 C 
ATOM     10  C   UNL A   1      33.269  22.208  26.728  1.00  0.00     0.041 C 
ATOM     11  C   UNL A   1      32.097  22.957  27.251  1.00  0.00    -0.030 C 
BRANCH   7  12
ATOM     12  C   UNL A   1      32.040  22.271  22.913  1.00  0.00     0.228 C 
ATOM     13  N   UNL A   1      32.182  23.478  22.314  1.00  0.00    -0.326 N 
ATOM     14  H   UNL A   1      32.080  23.408  21.338  1.00  0.00     0.169 HD
ATOM     15  O   UNL A   1      32.047  21.347  22.080  1.00  0.00    -0.274 OA
BRANCH  13  16
ATOM     16  C   UNL A   1      32.432  24.791  22.703  1.00  0.00     0.042 A 
ATOM     17  C   UNL A   1      32.626  27.374  23.746  1.00  0.00     0.137 A 
ATOM     18  C   UNL A   1      33.650  26.459  23.953  1.00  0.00     0.050 A 
ATOM     19  C   UNL A   1      31.601  27.066  22.853  1.00  0.00     0.085 A 
ATOM     20  C   UNL A   1      33.558  25.180  23.396  1.00  0.00     0.030 A 
ATOM     21  C   UNL A   1      31.506  25.773  22.331  1.00  0.00     0.050 A 
ATOM     22  Cl  UNL A   1      30.423  28.234  22.384  1.00  0.00    -0.080 Cl
BRANCH  17  23
ATOM     23  O   UNL A   1      32.681  28.544  24.455  1.00  0.00    -0.495 OA
ATOM     24  C   UNL A   1      32.172  28.336  25.780  1.00  0.00     0.278 C 
ENDBRANCH  17  23
ENDBRANCH  13  16
ENDBRANCH   7  12
ENDBRANCH   3   6
ENDBRANCH   1   2
BRANCH   1  25
ATOM     25  C   UNL A   1      37.568  19.817  24.959  1.00  0.00     0.042 C 
BRANCH  25  26
ATOM     26  C   UNL A   1      38.798  20.309  25.717  1.00  0.00     0.118 C 
BRANCH  26  27
ATOM     27  N   UNL A   1      39.932  19.413  25.689  1.00  0.00    -0.352 N 
ATOM     28  C   UNL A   1      41.228  19.606  26.092  1.00  0.00     0.251 C 
ATOM     29  H   UNL A   1      39.743  18.519  25.320  1.00  0.00     0.163 HD
ATOM     30  O   UNL A   1      42.042  18.692  25.937  1.00  0.00    -0.269 OA
BRANCH  28  31
ATOM     31  C   UNL A   1      41.690  20.894  26.657  1.00  0.00     0.039 A 
ATOM     32  C   UNL A   1      42.127  21.874  25.759  1.00  0.00     0.014 A 
ATOM     33  C   UNL A   1      41.746  21.147  28.031  1.00  0.00     0.014 A 
ATOM     34  C   UNL A   1      42.559  23.118  26.227  1.00  0.00     0.010 A 
ATOM     35  C   UNL A   1      42.117  22.414  28.496  1.00  0.00     0.010 A 
ATOM     36  C   UNL A   1      42.524  23.414  27.599  1.00  0.00    -0.014 A 
BRANCH  36  37
ATOM     37  C   UNL A   1      42.895  24.771  28.086  1.00  0.00     0.031 A 
ATOM     38  C   UNL A   1      41.846  25.826  28.313  1.00  0.00     0.074 A 
ATOM     39  C   UNL A   1      44.192  25.067  28.305  1.00  0.00     0.049 A 
ATOM     40  N   UNL A   1      41.994  27.061  28.727  1.00  0.00    -0.248 NA
ATOM     41  C   UNL A   1      40.454  25.452  28.028  1.00  0.00     0.031 C 
ATOM     42  C   UNL A   1      45.315  24.149  28.105  1.00  0.00     0.029 A 
ATOM     43  N   UNL A   1      44.785  26.225  28.746  1.00  0.00    -0.354 N 
ATOM     44  C   UNL A   1      40.720  27.613  28.742  1.00  0.00     0.074 A 
ATOM     45  C   UNL A   1      39.815  26.592  28.254  1.00  0.00     0.031 C 
ATOM     46  C   UNL A   1      46.456  24.769  28.448  1.00  0.00     0.029 A 
ATOM     47  C   UNL A   1      46.152  26.139  28.851  1.00  0.00     0.049 A 
ATOM     48  H   UNL A   1      44.279  27.040  28.966  1.00  0.00     0.167 HD
ATOM     49  C   UNL A   1      40.331  28.850  29.137  1.00  0.00     0.031 A 
ATOM     50  C   UNL A   1      47.065  27.057  29.222  1.00  0.00     0.031 A 
ATOM     51  C   UNL A   1      41.224  29.870  29.623  1.00  0.00     0.049 A 
ATOM     52  C   UNL A   1      46.611  28.432  29.623  1.00  0.00     0.074 A 
ATOM     53  C   UNL A   1      40.912  31.135  30.091  1.00  0.00     0.029 A 
ATOM     54  N   UNL A   1      42.602  29.746  29.697  1.00  0.00    -0.354 N 
ATOM     55  N   UNL A   1      45.395  28.915  29.690  1.00  0.00    -0.248 NA
ATOM     56  C   UNL A   1      47.660  29.389  30.010  1.00  0.00     0.031 C 
ATOM     57  C   UNL A   1      42.106  31.797  30.395  1.00  0.00     0.029 A 
ATOM     58  C   UNL A   1      43.157  30.922  30.176  1.00  0.00     0.049 A 
ATOM     59  H   UNL A   1      43.112  28.942  29.447  1.00  0.00     0.167 HD
ATOM     60  C   UNL A   1      45.530  30.218  30.152  1.00  0.00     0.074 A 
ATOM     61  C   UNL A   1      46.944  30.445  30.365  1.00  0.00     0.031 C 
ATOM     62  C   UNL A   1      44.566  31.142  30.382  1.00  0.00     0.031 A 
BRANCH  49  63
ATOM     63  C   UNL A   1      38.865  29.178  29.047  1.00  0.00    -0.014 A 
ATOM     64  C   UNL A   1      38.010  29.001  30.147  1.00  0.00     0.009 A 
ATOM     65  C   UNL A   1      38.341  29.715  27.861  1.00  0.00     0.009 A 
ATOM     66  C   UNL A   1      36.654  29.321  30.048  1.00  0.00     0.001 A 
ATOM     67  C   UNL A   1      36.992  30.061  27.774  1.00  0.00     0.001 A 
ATOM     68  C   UNL A   1      36.148  29.855  28.864  1.00  0.00     0.000 A 
ENDBRANCH  49  63
BRANCH  50  69
ATOM     69  C   UNL A   1      48.509  26.707  29.236  1.00  0.00    -0.014 A 
ATOM     70  C   UNL A   1      49.327  27.003  28.135  1.00  0.00     0.009 A 
ATOM     71  C   UNL A   1      49.076  26.064  30.348  1.00  0.00     0.009 A 
ATOM     72  C   UNL A   1      50.675  26.638  28.135  1.00  0.00     0.001 A 
ATOM     73  C   UNL A   1      50.432  25.728  30.357  1.00  0.00     0.001 A 
ATOM     74  C   UNL A   1      51.227  26.005  29.247  1.00  0.00     0.000 A 
ENDBRANCH  50  69
BRANCH  62  75
ATOM     75  C   UNL A   1      45.002  32.475  30.925  1.00  0.00    -0.014 A 
ATOM     76  C   UNL A   1      45.310  33.547  30.072  1.00  0.00     0.009 A 
ATOM     77  C   UNL A   1      45.074  32.669  32.314  1.00  0.00     0.009 A 
ATOM     78  C   UNL A   1      45.714  34.775  30.599  1.00  0.00     0.001 A 
ATOM     79  C   UNL A   1      45.449  33.907  32.838  1.00  0.00     0.001 A 
ATOM     80  C   UNL A   1      45.778  34.955  31.981  1.00  0.00     0.000 A 
ENDBRANCH  62  75
ENDBRANCH  36  37
ENDBRANCH  28  31
ENDBRANCH  26  27
ENDBRANCH  25  26
ENDBRANCH   1  25
TORSDOF 13
ENDMDL
MODEL 3
REMARK VINA RESULT:     -11.2      2.984      7.593
REMARK SMILES COc1ccc(NC(=O)[C@@H]2CC=CC[C@H]2C(=O)NCCCNC(=O)c2ccc(-c3c4nc(c(-c5ccccc5)c5ccc([nH]5)c(-c5ccccc5)c5nc(c(-c6ccccc6)c6ccc3[nH]6)C=C5)C=C4)cc2)cc1Cl
REMARK SMILES IDX 19 1 18 2 16 3 17 4 15 6 10 7 11 8 12 9 14 10 13 11 8 12
REMARK SMILES IDX 7 13 9 15 6 16 3 17 4 18 74 19 5 20 73 21 75 22 2 23 1 24
REMARK SMILES IDX 20 25 21 26 22 27 23 28 24 30 25 31 26 32 72 33 27 34 71 35
REMARK SMILES IDX 28 36 29 37 30 38 65 39 31 40 70 41 64 42 66 43 32 44 69 45
REMARK SMILES IDX 63 46 62 47 33 49 55 50 40 51 54 52 41 53 44 54 53 55 67 56
REMARK SMILES IDX 42 57 43 58 52 60 68 61 45 62 34 63 35 64 39 65 36 66 38 67
REMARK SMILES IDX 37 68 56 69 57 70 61 71 58 72 60 73 59 74 46 75 47 76 51 77
REMARK SMILES IDX 48 78 50 79 49 80
REMARK H PARENT 18 5 7 14 22 29 66 48 44 59
REMARK Flexibility Score: inf
ROOT
ATOM      1  C   UNL A   1      31.538  30.529  25.846  1.00  0.00     0.117 C 
ENDROOT
BRANCH   1   2
ATOM      2  N   UNL A   1      30.875  30.477  24.552  1.00  0.00    -0.356 N 
ATOM      3  C   UNL A   1      30.694  29.492  23.625  1.00  0.00     0.224 C 
ATOM      4  O   UNL A   1      29.872  29.729  22.731  1.00  0.00    -0.275 OA
ATOM      5  H   UNL A   1      30.470  31.336  24.288  1.00  0.00     0.163 HD
BRANCH   3   6
ATOM      6  C   UNL A   1      31.357  28.115  23.681  1.00  0.00     0.095 C 
ATOM      7  C   UNL A   1      30.587  26.942  23.018  1.00  0.00     0.095 C 
ATOM      8  C   UNL A   1      31.566  25.887  22.401  1.00  0.00     0.041 C 
ATOM      9  C   UNL A   1      32.853  26.366  21.831  1.00  0.00    -0.030 C 
ATOM     10  C   UNL A   1      32.805  28.423  23.206  1.00  0.00     0.041 C 
ATOM     11  C   UNL A   1      33.425  27.504  22.217  1.00  0.00    -0.030 C 
BRANCH   7  12
ATOM     12  C   UNL A   1      29.627  26.082  23.904  1.00  0.00     0.228 C 
ATOM     13  N   UNL A   1      29.919  25.039  24.719  1.00  0.00    -0.326 N 
ATOM     14  H   UNL A   1      29.101  24.593  25.036  1.00  0.00     0.169 HD
ATOM     15  O   UNL A   1      28.415  26.360  23.939  1.00  0.00    -0.274 OA
BRANCH  13  16
ATOM     16  C   UNL A   1      31.060  24.427  25.230  1.00  0.00     0.042 A 
ATOM     17  C   UNL A   1      33.462  23.152  25.865  1.00  0.00     0.137 A 
ATOM     18  C   UNL A   1      33.273  24.489  26.193  1.00  0.00     0.050 A 
ATOM     19  C   UNL A   1      32.382  22.400  25.404  1.00  0.00     0.085 A 
ATOM     20  C   UNL A   1      32.053  25.107  25.902  1.00  0.00     0.030 A 
ATOM     21  C   UNL A   1      31.181  23.041  25.087  1.00  0.00     0.050 A 
ATOM     22  Cl  UNL A   1      32.489  20.693  25.187  1.00  0.00    -0.080 Cl
BRANCH  17  23
ATOM     23  O   UNL A   1      34.725  22.645  26.010  1.00  0.00    -0.495 OA
ATOM     24  C   UNL A   1      35.693  23.690  25.826  1.00  0.00     0.278 C 
ENDBRANCH  17  23
ENDBRANCH  13  16
ENDBRANCH   7  12
ENDBRANCH   3   6
ENDBRANCH   1   2
BRANCH   1  25
ATOM     25  C   UNL A   1      31.393  31.843  26.627  1.00  0.00     0.042 C 
BRANCH  25  26
ATOM     26  C   UNL A   1      32.659  32.541  27.119  1.00  0.00     0.118 C 
BRANCH  26  27
ATOM     27  N   UNL A   1      32.452  33.857  27.679  1.00  0.00    -0.352 N 
ATOM     28  C   UNL A   1      33.231  34.591  28.536  1.00  0.00     0.251 C 
ATOM     29  H   UNL A   1      31.616  34.298  27.401  1.00  0.00     0.163 HD
ATOM     30  O   UNL A   1      32.826  35.695  28.911  1.00  0.00    -0.269 OA
BRANCH  28  31
ATOM     31  C   UNL A   1      34.514  34.075  29.066  1.00  0.00     0.039 A 
ATOM     32  C   UNL A   1      34.467  33.294  30.225  1.00  0.00     0.014 A 
ATOM     33  C   UNL A   1      35.751  34.373  28.487  1.00  0.00     0.014 A 
ATOM     34  C   UNL A   1      35.641  32.763  30.765  1.00  0.00     0.010 A 
ATOM     35  C   UNL A   1      36.919  33.788  28.990  1.00  0.00     0.010 A 
ATOM     36  C   UNL A   1      36.876  32.974  30.133  1.00  0.00    -0.014 A 
BRANCH  36  37
ATOM     37  C   UNL A   1      38.111  32.330  30.657  1.00  0.00     0.031 A 
ATOM     38  C   UNL A   1      38.629  31.048  30.062  1.00  0.00     0.074 A 
ATOM     39  C   UNL A   1      38.764  32.890  31.696  1.00  0.00     0.049 A 
ATOM     40  N   UNL A   1      39.684  30.348  30.402  1.00  0.00    -0.248 NA
ATOM     41  C   UNL A   1      37.857  30.471  28.952  1.00  0.00     0.031 C 
ATOM     42  C   UNL A   1      38.362  34.118  32.384  1.00  0.00     0.029 A 
ATOM     43  N   UNL A   1      39.905  32.499  32.354  1.00  0.00    -0.354 N 
ATOM     44  C   UNL A   1      39.697  29.246  29.556  1.00  0.00     0.074 A 
ATOM     45  C   UNL A   1      38.521  29.347  28.717  1.00  0.00     0.031 C 
ATOM     46  C   UNL A   1      39.256  34.394  33.348  1.00  0.00     0.029 A 
ATOM     47  C   UNL A   1      40.269  33.344  33.374  1.00  0.00     0.049 A 
ATOM     48  H   UNL A   1      40.413  31.690  32.117  1.00  0.00     0.167 HD
ATOM     49  C   UNL A   1      40.610  28.247  29.472  1.00  0.00     0.031 A 
ATOM     50  C   UNL A   1      41.298  33.282  34.242  1.00  0.00     0.031 A 
ATOM     51  C   UNL A   1      41.781  28.139  30.303  1.00  0.00     0.049 A 
ATOM     52  C   UNL A   1      42.276  32.144  34.150  1.00  0.00     0.074 A 
ATOM     53  C   UNL A   1      42.785  27.187  30.256  1.00  0.00     0.029 A 
ATOM     54  N   UNL A   1      42.103  29.007  31.334  1.00  0.00    -0.354 N 
ATOM     55  N   UNL A   1      42.306  31.145  33.303  1.00  0.00    -0.248 NA
ATOM     56  C   UNL A   1      43.371  32.133  35.133  1.00  0.00     0.031 C 
ATOM     57  C   UNL A   1      43.685  27.446  31.295  1.00  0.00     0.029 A 
ATOM     58  C   UNL A   1      43.275  28.596  31.949  1.00  0.00     0.049 A 
ATOM     59  H   UNL A   1      41.577  29.799  31.592  1.00  0.00     0.167 HD
ATOM     60  C   UNL A   1      43.434  30.405  33.631  1.00  0.00     0.074 A 
ATOM     61  C   UNL A   1      44.071  31.078  34.744  1.00  0.00     0.031 C 
ATOM     62  C   UNL A   1      43.901  29.269  33.058  1.00  0.00     0.031 A 
BRANCH  49  63
ATOM     63  C   UNL A   1      40.368  27.172  28.448  1.00  0.00    -0.014 A 
ATOM     64  C   UNL A   1      40.874  27.283  27.142  1.00  0.00     0.009 A 
ATOM     65  C   UNL A   1      39.665  26.011  28.806  1.00  0.00     0.009 A 
ATOM     66  C   UNL A   1      40.648  26.269  26.208  1.00  0.00     0.001 A 
ATOM     67  C   UNL A   1      39.467  24.986  27.878  1.00  0.00     0.001 A 
ATOM     68  C   UNL A   1      39.950  25.121  26.578  1.00  0.00     0.000 A 
ENDBRANCH  49  63
BRANCH  50  69
ATOM     69  C   UNL A   1      41.461  34.334  35.278  1.00  0.00    -0.014 A 
ATOM     70  C   UNL A   1      42.211  35.490  35.010  1.00  0.00     0.009 A 
ATOM     71  C   UNL A   1      40.878  34.184  36.546  1.00  0.00     0.009 A 
ATOM     72  C   UNL A   1      42.396  36.459  35.999  1.00  0.00     0.001 A 
ATOM     73  C   UNL A   1      41.039  35.169  37.522  1.00  0.00     0.001 A 
ATOM     74  C   UNL A   1      41.806  36.301  37.251  1.00  0.00     0.000 A 
ENDBRANCH  50  69
BRANCH  62  75
ATOM     75  C   UNL A   1      45.183  28.699  33.600  1.00  0.00    -0.014 A 
ATOM     76  C   UNL A   1      46.432  29.116  33.114  1.00  0.00     0.009 A 
ATOM     77  C   UNL A   1      45.138  27.753  34.637  1.00  0.00     0.009 A 
ATOM     78  C   UNL A   1      47.609  28.572  33.633  1.00  0.00     0.001 A 
ATOM     79  C   UNL A   1      46.317  27.233  35.174  1.00  0.00     0.001 A 
ATOM     80  C   UNL A   1      47.550  27.635  34.664  1.00  0.00     0.000 A 
ENDBRANCH  62  75
ENDBRANCH  36  37
ENDBRANCH  28  31
ENDBRANCH  26  27
ENDBRANCH  25  26
ENDBRANCH   1  25
TORSDOF 13
ENDMDL
