MODEL 1
REMARK VINA RESULT:     -10.8      0.000      0.000
REMARK SMILES COc1cnc(SCC(=O)NCCCNC(=O)c2ccc(-c3c4nc(c(-c5ccccc5)c5ccc([nH]5)c(-c5ccccc5)c5nc(c(-c6ccccc6)c6ccc3[nH]6)C=C5)C=C4)cc2)[nH]c1=O
REMARK SMILES IDX 12 1 11 2 9 3 10 4 8 6 7 7 6 8 3 9 4 10 67 11 5 12 66 13
REMARK SMILES IDX 68 14 2 16 1 17 13 18 14 19 15 20 16 21 17 23 18 24 19 25
REMARK SMILES IDX 65 26 20 27 64 28 21 29 22 30 23 31 58 32 24 33 63 34 57 35
REMARK SMILES IDX 59 36 25 37 62 38 56 39 55 40 26 42 48 43 33 44 47 45 34 46
REMARK SMILES IDX 37 47 46 48 60 49 35 50 36 51 45 53 61 54 38 55 27 56 28 57
REMARK SMILES IDX 32 58 29 59 31 60 30 61 49 62 50 63 54 64 51 65 53 66 52 67
REMARK SMILES IDX 39 68 40 69 44 70 41 71 43 72 42 73
REMARK H PARENT 11 5 66 15 15 22 59 41 37 52
REMARK Flexibility Score: inf
ROOT
ATOM      1  C   UNL A   1      36.848  20.940  24.760  1.00  0.00     0.117 C 
ENDROOT
BRANCH   1   2
ATOM      2  N   UNL A   1      35.922  21.059  25.869  1.00  0.00    -0.355 N 
ATOM      3  C   UNL A   1      34.605  21.416  25.885  1.00  0.00     0.230 C 
ATOM      4  O   UNL A   1      34.031  21.390  26.977  1.00  0.00    -0.274 OA
ATOM      5  H   UNL A   1      36.304  20.849  26.753  1.00  0.00     0.163 HD
BRANCH   3   6
ATOM      6  C   UNL A   1      33.855  21.705  24.597  1.00  0.00     0.178 C 
BRANCH   6   7
ATOM      7  S   UNL A   1      32.222  20.930  24.484  1.00  0.00    -0.078 SA
BRANCH   7   8
ATOM      8  C   UNL A   1      32.599  19.251  24.662  1.00  0.00     0.168 A 
ATOM      9  C   UNL A   1      33.302  16.612  24.668  1.00  0.00     0.202 A 
ATOM     10  C   UNL A   1      32.755  17.255  25.710  1.00  0.00     0.166 A 
ATOM     11  C   UNL A   1      33.495  17.420  23.426  1.00  0.00     0.293 A 
ATOM     12  N   UNL A   1      32.412  18.584  25.747  1.00  0.00    -0.229 NA
ATOM     13  N   UNL A   1      33.120  18.728  23.524  1.00  0.00    -0.298 N 
ATOM     14  O   UNL A   1      33.947  16.964  22.381  1.00  0.00    -0.265 OA
ATOM     15  H   UNL A   1      33.231  19.313  22.739  1.00  0.00     0.172 HD
BRANCH   9  16
ATOM     16  O   UNL A   1      33.594  15.263  24.738  1.00  0.00    -0.490 OA
ATOM     17  C   UNL A   1      32.705  14.545  25.592  1.00  0.00     0.278 C 
ENDBRANCH   9  16
ENDBRANCH   7   8
ENDBRANCH   6   7
ENDBRANCH   3   6
ENDBRANCH   1   2
BRANCH   1  18
ATOM     18  C   UNL A   1      37.868  19.830  24.994  1.00  0.00     0.042 C 
BRANCH  18  19
ATOM     19  C   UNL A   1      39.106  20.280  25.763  1.00  0.00     0.118 C 
BRANCH  19  20
ATOM     20  N   UNL A   1      40.137  19.252  25.827  1.00  0.00    -0.352 N 
ATOM     21  C   UNL A   1      41.484  19.375  26.068  1.00  0.00     0.251 C 
ATOM     22  H   UNL A   1      39.821  18.332  25.676  1.00  0.00     0.163 HD
ATOM     23  O   UNL A   1      42.224  18.406  25.914  1.00  0.00    -0.269 OA
BRANCH  21  24
ATOM     24  C   UNL A   1      42.048  20.674  26.489  1.00  0.00     0.039 A 
ATOM     25  C   UNL A   1      42.484  21.576  25.514  1.00  0.00     0.014 A 
ATOM     26  C   UNL A   1      42.155  20.999  27.842  1.00  0.00     0.014 A 
ATOM     27  C   UNL A   1      42.962  22.833  25.894  1.00  0.00     0.010 A 
ATOM     28  C   UNL A   1      42.554  22.279  28.215  1.00  0.00     0.010 A 
ATOM     29  C   UNL A   1      42.968  23.206  27.245  1.00  0.00    -0.014 A 
BRANCH  29  30
ATOM     30  C   UNL A   1      43.426  24.548  27.690  1.00  0.00     0.031 A 
ATOM     31  C   UNL A   1      42.411  25.604  28.031  1.00  0.00     0.074 A 
ATOM     32  C   UNL A   1      44.738  24.845  27.703  1.00  0.00     0.049 A 
ATOM     33  N   UNL A   1      42.594  26.870  28.307  1.00  0.00    -0.248 NA
ATOM     34  C   UNL A   1      41.000  25.184  28.035  1.00  0.00     0.031 C 
ATOM     35  C   UNL A   1      45.825  23.917  27.387  1.00  0.00     0.029 A 
ATOM     36  N   UNL A   1      45.381  26.026  27.984  1.00  0.00    -0.354 N 
ATOM     37  C   UNL A   1      41.324  27.401  28.492  1.00  0.00     0.074 A 
ATOM     38  C   UNL A   1      40.379  26.334  28.244  1.00  0.00     0.031 C 
ATOM     39  C   UNL A   1      47.000  24.556  27.514  1.00  0.00     0.029 A 
ATOM     40  C   UNL A   1      46.749  25.950  27.867  1.00  0.00     0.049 A 
ATOM     41  H   UNL A   1      44.907  26.848  28.244  1.00  0.00     0.167 HD
ATOM     42  C   UNL A   1      40.972  28.658  28.856  1.00  0.00     0.031 A 
ATOM     43  C   UNL A   1      47.692  26.900  28.011  1.00  0.00     0.031 A 
ATOM     44  C   UNL A   1      41.912  29.718  29.100  1.00  0.00     0.049 A 
ATOM     45  C   UNL A   1      47.276  28.305  28.355  1.00  0.00     0.074 A 
ATOM     46  C   UNL A   1      41.661  31.018  29.503  1.00  0.00     0.029 A 
ATOM     47  N   UNL A   1      43.286  29.600  28.960  1.00  0.00    -0.354 N 
ATOM     48  N   UNL A   1      46.074  28.783  28.568  1.00  0.00    -0.248 NA
ATOM     49  C   UNL A   1      48.351  29.300  28.485  1.00  0.00     0.031 C 
ATOM     50  C   UNL A   1      42.878  31.702  29.552  1.00  0.00     0.029 A 
ATOM     51  C   UNL A   1      43.895  30.809  29.249  1.00  0.00     0.049 A 
ATOM     52  H   UNL A   1      43.759  28.778  28.695  1.00  0.00     0.167 HD
ATOM     53  C   UNL A   1      46.251  30.119  28.902  1.00  0.00     0.074 A 
ATOM     54  C   UNL A   1      47.675  30.377  28.861  1.00  0.00     0.031 C 
ATOM     55  C   UNL A   1      45.316  31.047  29.223  1.00  0.00     0.031 A 
BRANCH  42  56
ATOM     56  C   UNL A   1      39.502  28.949  28.989  1.00  0.00    -0.014 A 
ATOM     57  C   UNL A   1      38.827  28.759  30.207  1.00  0.00     0.009 A 
ATOM     58  C   UNL A   1      38.780  29.424  27.883  1.00  0.00     0.009 A 
ATOM     59  C   UNL A   1      37.453  28.986  30.299  1.00  0.00     0.001 A 
ATOM     60  C   UNL A   1      37.412  29.686  27.988  1.00  0.00     0.001 A 
ATOM     61  C   UNL A   1      36.747  29.453  29.191  1.00  0.00     0.000 A 
ENDBRANCH  42  56
BRANCH  43  62
ATOM     62  C   UNL A   1      49.129  26.553  27.854  1.00  0.00    -0.014 A 
ATOM     63  C   UNL A   1      49.905  26.236  28.980  1.00  0.00     0.009 A 
ATOM     64  C   UNL A   1      49.734  26.539  26.587  1.00  0.00     0.009 A 
ATOM     65  C   UNL A   1      51.263  25.935  28.843  1.00  0.00     0.001 A 
ATOM     66  C   UNL A   1      51.085  26.208  26.451  1.00  0.00     0.001 A 
ATOM     67  C   UNL A   1      51.849  25.916  27.579  1.00  0.00     0.000 A 
ENDBRANCH  43  62
BRANCH  55  68
ATOM     68  C   UNL A   1      45.798  32.412  29.630  1.00  0.00    -0.014 A 
ATOM     69  C   UNL A   1      45.927  33.456  28.702  1.00  0.00     0.009 A 
ATOM     70  C   UNL A   1      46.053  32.671  30.986  1.00  0.00     0.009 A 
ATOM     71  C   UNL A   1      46.324  34.727  29.123  1.00  0.00     0.001 A 
ATOM     72  C   UNL A   1      46.421  33.949  31.409  1.00  0.00     0.001 A 
ATOM     73  C   UNL A   1      46.562  34.974  30.476  1.00  0.00     0.000 A 
ENDBRANCH  55  68
ENDBRANCH  29  30
ENDBRANCH  21  24
ENDBRANCH  19  20
ENDBRANCH  18  19
ENDBRANCH   1  18
TORSDOF 13
ENDMDL
MODEL 2
REMARK VINA RESULT:     -10.3      6.442     10.814
REMARK SMILES COc1cnc(SCC(=O)NCCCNC(=O)c2ccc(-c3c4nc(c(-c5ccccc5)c5ccc([nH]5)c(-c5ccccc5)c5nc(c(-c6ccccc6)c6ccc3[nH]6)C=C5)C=C4)cc2)[nH]c1=O
REMARK SMILES IDX 12 1 11 2 9 3 10 4 8 6 7 7 6 8 3 9 4 10 67 11 5 12 66 13
REMARK SMILES IDX 68 14 2 16 1 17 13 18 14 19 15 20 16 21 17 23 18 24 19 25
REMARK SMILES IDX 65 26 20 27 64 28 21 29 22 30 23 31 58 32 24 33 63 34 57 35
REMARK SMILES IDX 59 36 25 37 62 38 56 39 55 40 26 42 48 43 33 44 47 45 34 46
REMARK SMILES IDX 37 47 46 48 60 49 35 50 36 51 45 53 61 54 38 55 27 56 28 57
REMARK SMILES IDX 32 58 29 59 31 60 30 61 49 62 50 63 54 64 51 65 53 66 52 67
REMARK SMILES IDX 39 68 40 69 44 70 41 71 43 72 42 73
REMARK H PARENT 11 5 66 15 15 22 59 41 37 52
REMARK Flexibility Score: inf
ROOT
ATOM      1  C   UNL A   1      31.039  30.681  25.293  1.00  0.00     0.117 C 
ENDROOT
BRANCH   1   2
ATOM      2  N   UNL A   1      32.321  30.035  25.093  1.00  0.00    -0.355 N 
ATOM      3  C   UNL A   1      32.629  28.714  24.938  1.00  0.00     0.230 C 
ATOM      4  O   UNL A   1      33.814  28.437  24.733  1.00  0.00    -0.274 OA
ATOM      5  H   UNL A   1      33.093  30.645  25.064  1.00  0.00     0.163 HD
BRANCH   3   6
ATOM      6  C   UNL A   1      31.543  27.655  24.892  1.00  0.00     0.178 C 
BRANCH   6   7
ATOM      7  S   UNL A   1      31.104  27.095  23.227  1.00  0.00    -0.078 SA
BRANCH   7   8
ATOM      8  C   UNL A   1      30.081  28.372  22.667  1.00  0.00     0.168 A 
ATOM      9  C   UNL A   1      28.249  30.266  21.946  1.00  0.00     0.202 A 
ATOM     10  C   UNL A   1      29.533  30.264  21.559  1.00  0.00     0.166 A 
ATOM     11  C   UNL A   1      27.820  29.120  22.803  1.00  0.00     0.293 A 
ATOM     12  N   UNL A   1      30.483  29.341  21.922  1.00  0.00    -0.229 NA
ATOM     13  N   UNL A   1      28.807  28.230  23.115  1.00  0.00    -0.298 N 
ATOM     14  O   UNL A   1      26.672  28.962  23.205  1.00  0.00    -0.265 OA
ATOM     15  H   UNL A   1      28.587  27.458  23.685  1.00  0.00     0.172 HD
BRANCH   9  16
ATOM     16  O   UNL A   1      27.374  31.241  21.505  1.00  0.00    -0.490 OA
ATOM     17  C   UNL A   1      27.896  32.007  20.421  1.00  0.00     0.278 C 
ENDBRANCH   9  16
ENDBRANCH   7   8
ENDBRANCH   6   7
ENDBRANCH   3   6
ENDBRANCH   1   2
BRANCH   1  18
ATOM     18  C   UNL A   1      31.040  31.564  26.537  1.00  0.00     0.042 C 
BRANCH  18  19
ATOM     19  C   UNL A   1      32.386  32.221  26.827  1.00  0.00     0.118 C 
BRANCH  19  20
ATOM     20  N   UNL A   1      32.254  33.584  27.325  1.00  0.00    -0.352 N 
ATOM     21  C   UNL A   1      33.038  34.270  28.221  1.00  0.00     0.251 C 
ATOM     22  H   UNL A   1      31.489  34.090  26.966  1.00  0.00     0.163 HD
ATOM     23  O   UNL A   1      32.668  35.362  28.648  1.00  0.00    -0.269 OA
BRANCH  21  24
ATOM     24  C   UNL A   1      34.313  33.690  28.689  1.00  0.00     0.039 A 
ATOM     25  C   UNL A   1      35.511  34.119  28.109  1.00  0.00     0.014 A 
ATOM     26  C   UNL A   1      34.330  32.718  29.691  1.00  0.00     0.014 A 
ATOM     27  C   UNL A   1      36.729  33.625  28.583  1.00  0.00     0.010 A 
ATOM     28  C   UNL A   1      35.544  32.289  30.217  1.00  0.00     0.010 A 
ATOM     29  C   UNL A   1      36.756  32.733  29.664  1.00  0.00    -0.014 A 
BRANCH  29  30
ATOM     30  C   UNL A   1      38.029  32.218  30.229  1.00  0.00     0.031 A 
ATOM     31  C   UNL A   1      38.634  30.959  29.673  1.00  0.00     0.074 A 
ATOM     32  C   UNL A   1      38.594  32.825  31.290  1.00  0.00     0.049 A 
ATOM     33  N   UNL A   1      39.658  30.269  30.107  1.00  0.00    -0.248 NA
ATOM     34  C   UNL A   1      37.980  30.384  28.485  1.00  0.00     0.031 C 
ATOM     35  C   UNL A   1      38.106  34.046  31.932  1.00  0.00     0.029 A 
ATOM     36  N   UNL A   1      39.701  32.482  32.027  1.00  0.00    -0.354 N 
ATOM     37  C   UNL A   1      39.755  29.171  29.262  1.00  0.00     0.074 A 
ATOM     38  C   UNL A   1      38.655  29.256  28.327  1.00  0.00     0.031 C 
ATOM     39  C   UNL A   1      38.923  34.364  32.950  1.00  0.00     0.029 A 
ATOM     40  C   UNL A   1      39.957  33.342  33.068  1.00  0.00     0.049 A 
ATOM     41  H   UNL A   1      40.258  31.695  31.828  1.00  0.00     0.167 HD
ATOM     42  C   UNL A   1      40.687  28.187  29.251  1.00  0.00     0.031 A 
ATOM     43  C   UNL A   1      40.910  33.302  34.020  1.00  0.00     0.031 A 
ATOM     44  C   UNL A   1      41.779  28.101  30.182  1.00  0.00     0.049 A 
ATOM     45  C   UNL A   1      41.898  32.168  34.026  1.00  0.00     0.074 A 
ATOM     46  C   UNL A   1      42.794  27.162  30.237  1.00  0.00     0.029 A 
ATOM     47  N   UNL A   1      41.995  28.987  31.226  1.00  0.00    -0.354 N 
ATOM     48  N   UNL A   1      42.003  31.158  33.197  1.00  0.00    -0.248 NA
ATOM     49  C   UNL A   1      42.904  32.173  35.098  1.00  0.00     0.031 C 
ATOM     50  C   UNL A   1      43.593  27.448  31.348  1.00  0.00     0.029 A 
ATOM     51  C   UNL A   1      43.116  28.607  31.944  1.00  0.00     0.049 A 
ATOM     52  H   UNL A   1      41.435  29.772  31.427  1.00  0.00     0.167 HD
ATOM     53  C   UNL A   1      43.111  30.435  33.618  1.00  0.00     0.074 A 
ATOM     54  C   UNL A   1      43.644  31.120  34.778  1.00  0.00     0.031 C 
ATOM     55  C   UNL A   1      43.646  29.309  33.085  1.00  0.00     0.031 A 
BRANCH  42  56
ATOM     56  C   UNL A   1      40.543  27.116  28.204  1.00  0.00    -0.014 A 
ATOM     57  C   UNL A   1      41.143  27.246  26.940  1.00  0.00     0.009 A 
ATOM     58  C   UNL A   1      39.802  25.958  28.485  1.00  0.00     0.009 A 
ATOM     59  C   UNL A   1      40.957  26.266  25.963  1.00  0.00     0.001 A 
ATOM     60  C   UNL A   1      39.648  24.962  27.518  1.00  0.00     0.001 A 
ATOM     61  C   UNL A   1      40.214  25.123  26.254  1.00  0.00     0.000 A 
ENDBRANCH  42  56
BRANCH  43  62
ATOM     62  C   UNL A   1      40.992  34.385  35.036  1.00  0.00    -0.014 A 
ATOM     63  C   UNL A   1      40.312  34.259  36.257  1.00  0.00     0.009 A 
ATOM     64  C   UNL A   1      41.742  35.546  34.794  1.00  0.00     0.009 A 
ATOM     65  C   UNL A   1      40.362  35.284  37.205  1.00  0.00     0.001 A 
ATOM     66  C   UNL A   1      41.815  36.556  35.757  1.00  0.00     0.001 A 
ATOM     67  C   UNL A   1      41.117  36.428  36.956  1.00  0.00     0.000 A 
ENDBRANCH  43  62
BRANCH  55  68
ATOM     68  C   UNL A   1      44.913  28.779  33.698  1.00  0.00    -0.014 A 
ATOM     69  C   UNL A   1      46.176  29.233  33.290  1.00  0.00     0.009 A 
ATOM     70  C   UNL A   1      44.829  27.860  34.757  1.00  0.00     0.009 A 
ATOM     71  C   UNL A   1      47.330  28.760  33.918  1.00  0.00     0.001 A 
ATOM     72  C   UNL A   1      45.981  27.412  35.402  1.00  0.00     0.001 A 
ATOM     73  C   UNL A   1      47.231  27.858  34.979  1.00  0.00     0.000 A 
ENDBRANCH  55  68
ENDBRANCH  29  30
ENDBRANCH  21  24
ENDBRANCH  19  20
ENDBRANCH  18  19
ENDBRANCH   1  18
TORSDOF 13
ENDMDL
MODEL 3
REMARK VINA RESULT:     -10.2      5.716     10.283
REMARK SMILES COc1cnc(SCC(=O)NCCCNC(=O)c2ccc(-c3c4nc(c(-c5ccccc5)c5ccc([nH]5)c(-c5ccccc5)c5nc(c(-c6ccccc6)c6ccc3[nH]6)C=C5)C=C4)cc2)[nH]c1=O
REMARK SMILES IDX 12 1 11 2 9 3 10 4 8 6 7 7 6 8 3 9 4 10 67 11 5 12 66 13
REMARK SMILES IDX 68 14 2 16 1 17 13 18 14 19 15 20 16 21 17 23 18 24 19 25
REMARK SMILES IDX 65 26 20 27 64 28 21 29 22 30 23 31 58 32 24 33 63 34 57 35
REMARK SMILES IDX 59 36 25 37 62 38 56 39 55 40 26 42 48 43 33 44 47 45 34 46
REMARK SMILES IDX 37 47 46 48 60 49 35 50 36 51 45 53 61 54 38 55 27 56 28 57
REMARK SMILES IDX 32 58 29 59 31 60 30 61 49 62 50 63 54 64 51 65 53 66 52 67
REMARK SMILES IDX 39 68 40 69 44 70 41 71 43 72 42 73
REMARK H PARENT 11 5 66 15 15 22 59 41 37 52
REMARK Flexibility Score: inf
ROOT
ATOM      1  C   UNL A   1      31.772  30.482  25.915  1.00  0.00     0.117 C 
ENDROOT
BRANCH   1   2
ATOM      2  N   UNL A   1      30.978  30.292  24.717  1.00  0.00    -0.355 N 
ATOM      3  C   UNL A   1      30.747  29.167  23.981  1.00  0.00     0.230 C 
ATOM      4  O   UNL A   1      29.981  29.275  23.019  1.00  0.00    -0.274 OA
ATOM      5  H   UNL A   1      30.534  31.104  24.380  1.00  0.00     0.163 HD
BRANCH   3   6
ATOM      6  C   UNL A   1      31.305  27.821  24.408  1.00  0.00     0.178 C 
BRANCH   6   7
ATOM      7  S   UNL A   1      30.102  26.468  24.405  1.00  0.00    -0.078 SA
BRANCH   7   8
ATOM      8  C   UNL A   1      30.887  25.278  25.385  1.00  0.00     0.168 A 
ATOM      9  C   UNL A   1      31.854  23.314  27.020  1.00  0.00     0.202 A 
ATOM     10  C   UNL A   1      32.614  24.102  26.246  1.00  0.00     0.166 A 
ATOM     11  C   UNL A   1      30.384  23.580  26.982  1.00  0.00     0.293 A 
ATOM     12  N   UNL A   1      32.158  25.081  25.398  1.00  0.00    -0.229 NA
ATOM     13  N   UNL A   1      29.998  24.575  26.132  1.00  0.00    -0.298 N 
ATOM     14  O   UNL A   1      29.564  22.969  27.661  1.00  0.00    -0.265 OA
ATOM     15  H   UNL A   1      29.040  24.791  26.058  1.00  0.00     0.172 HD
BRANCH   9  16
ATOM     16  O   UNL A   1      32.424  22.367  27.849  1.00  0.00    -0.490 OA
ATOM     17  C   UNL A   1      33.848  22.351  27.778  1.00  0.00     0.278 C 
ENDBRANCH   9  16
ENDBRANCH   7   8
ENDBRANCH   6   7
ENDBRANCH   3   6
ENDBRANCH   1   2
BRANCH   1  18
ATOM     18  C   UNL A   1      31.459  31.812  26.594  1.00  0.00     0.042 C 
BRANCH  18  19
ATOM     19  C   UNL A   1      32.679  32.502  27.194  1.00  0.00     0.118 C 
BRANCH  19  20
ATOM     20  N   UNL A   1      32.410  33.875  27.603  1.00  0.00    -0.352 N 
ATOM     21  C   UNL A   1      33.040  34.648  28.547  1.00  0.00     0.251 C 
ATOM     22  H   UNL A   1      31.665  34.314  27.132  1.00  0.00     0.163 HD
ATOM     23  O   UNL A   1      32.559  35.732  28.871  1.00  0.00    -0.269 OA
BRANCH  21  24
ATOM     24  C   UNL A   1      34.282  34.172  29.189  1.00  0.00     0.039 A 
ATOM     25  C   UNL A   1      34.194  33.374  30.335  1.00  0.00     0.014 A 
ATOM     26  C   UNL A   1      35.531  34.517  28.670  1.00  0.00     0.014 A 
ATOM     27  C   UNL A   1      35.358  32.865  30.918  1.00  0.00     0.010 A 
ATOM     28  C   UNL A   1      36.682  33.944  29.202  1.00  0.00     0.010 A 
ATOM     29  C   UNL A   1      36.608  33.117  30.335  1.00  0.00    -0.014 A 
BRANCH  29  30
ATOM     30  C   UNL A   1      37.865  32.560  30.895  1.00  0.00     0.031 A 
ATOM     31  C   UNL A   1      38.472  31.329  30.279  1.00  0.00     0.074 A 
ATOM     32  C   UNL A   1      38.412  33.099  32.000  1.00  0.00     0.049 A 
ATOM     33  N   UNL A   1      39.482  30.607  30.693  1.00  0.00    -0.248 NA
ATOM     34  C   UNL A   1      37.839  30.830  29.047  1.00  0.00     0.031 C 
ATOM     35  C   UNL A   1      37.920  34.286  32.702  1.00  0.00     0.029 A 
ATOM     36  N   UNL A   1      39.501  32.704  32.739  1.00  0.00    -0.354 N 
ATOM     37  C   UNL A   1      39.588  29.558  29.789  1.00  0.00     0.074 A 
ATOM     38  C   UNL A   1      38.509  29.707  28.838  1.00  0.00     0.031 C 
ATOM     39  C   UNL A   1      38.717  34.537  33.753  1.00  0.00     0.029 A 
ATOM     40  C   UNL A   1      39.742  33.501  33.833  1.00  0.00     0.049 A 
ATOM     41  H   UNL A   1      40.056  31.925  32.506  1.00  0.00     0.167 HD
ATOM     42  C   UNL A   1      40.512  28.568  29.739  1.00  0.00     0.031 A 
ATOM     43  C   UNL A   1      40.674  33.398  34.800  1.00  0.00     0.031 A 
ATOM     44  C   UNL A   1      41.584  28.419  30.686  1.00  0.00     0.049 A 
ATOM     45  C   UNL A   1      41.653  32.256  34.761  1.00  0.00     0.074 A 
ATOM     46  C   UNL A   1      42.591  27.470  30.708  1.00  0.00     0.029 A 
ATOM     47  N   UNL A   1      41.785  29.242  31.784  1.00  0.00    -0.354 N 
ATOM     48  N   UNL A   1      41.768  31.295  33.877  1.00  0.00    -0.248 NA
ATOM     49  C   UNL A   1      42.636  32.190  35.852  1.00  0.00     0.031 C 
ATOM     50  C   UNL A   1      43.368  27.685  31.850  1.00  0.00     0.029 A 
ATOM     51  C   UNL A   1      42.887  28.811  32.502  1.00  0.00     0.049 A 
ATOM     52  H   UNL A   1      41.226  30.018  32.019  1.00  0.00     0.167 HD
ATOM     53  C   UNL A   1      42.862  30.539  34.278  1.00  0.00     0.074 A 
ATOM     54  C   UNL A   1      43.375  31.151  35.486  1.00  0.00     0.031 C 
ATOM     55  C   UNL A   1      43.399  29.441  33.692  1.00  0.00     0.031 A 
BRANCH  42  56
ATOM     56  C   UNL A   1      40.382  27.561  28.629  1.00  0.00    -0.014 A 
ATOM     57  C   UNL A   1      39.654  26.372  28.804  1.00  0.00     0.009 A 
ATOM     58  C   UNL A   1      40.991  27.805  27.389  1.00  0.00     0.009 A 
ATOM     59  C   UNL A   1      39.586  25.425  27.781  1.00  0.00     0.001 A 
ATOM     60  C   UNL A   1      40.890  26.872  26.354  1.00  0.00     0.001 A 
ATOM     61  C   UNL A   1      40.201  25.678  26.555  1.00  0.00     0.000 A 
ENDBRANCH  42  56
BRANCH  43  62
ATOM     62  C   UNL A   1      40.743  34.419  35.879  1.00  0.00    -0.014 A 
ATOM     63  C   UNL A   1      40.032  34.231  37.074  1.00  0.00     0.009 A 
ATOM     64  C   UNL A   1      41.511  35.584  35.722  1.00  0.00     0.009 A 
ATOM     65  C   UNL A   1      40.070  35.199  38.081  1.00  0.00     0.001 A 
ATOM     66  C   UNL A   1      41.570  36.535  36.743  1.00  0.00     0.001 A 
ATOM     67  C   UNL A   1      40.843  36.347  37.916  1.00  0.00     0.000 A 
ENDBRANCH  43  62
BRANCH  55  68
ATOM     68  C   UNL A   1      44.648  28.866  34.298  1.00  0.00    -0.014 A 
ATOM     69  C   UNL A   1      45.924  29.313  33.924  1.00  0.00     0.009 A 
ATOM     70  C   UNL A   1      44.536  27.908  35.320  1.00  0.00     0.009 A 
ATOM     71  C   UNL A   1      47.062  28.796  34.548  1.00  0.00     0.001 A 
ATOM     72  C   UNL A   1      45.672  27.415  35.961  1.00  0.00     0.001 A 
ATOM     73  C   UNL A   1      46.934  27.855  35.571  1.00  0.00     0.000 A 
ENDBRANCH  55  68
ENDBRANCH  29  30
ENDBRANCH  21  24
ENDBRANCH  19  20
ENDBRANCH  18  19
ENDBRANCH   1  18
TORSDOF 13
ENDMDL
