MODEL 1
REMARK VINA RESULT:     -11.5      0.000      0.000
REMARK SMILES CC1(C)O[C@](C)([C@H](O)C2CCCCC2)CC[C@H]1C(=O)NCCCNC(=O)c1ccc(-c2c3nc(c(-c4ccccc4)c4ccc([nH]4)c(-c4ccccc4)c4nc(c(-c5ccccc5)c5ccc2[nH]5)C=C4)C=C3)cc1
REMARK SMILES IDX 22 1 21 2 20 3 18 4 19 5 17 7 1 8 2 9 3 10 4 11 5 12 16 13
REMARK SMILES IDX 6 14 15 15 7 16 9 17 10 18 14 19 11 20 13 21 12 22 8 23
REMARK SMILES IDX 23 25 24 26 25 27 26 29 27 30 28 31 74 32 29 33 73 34 30 35
REMARK SMILES IDX 31 36 32 37 67 38 33 39 72 40 66 41 68 42 34 43 71 44 65 45
REMARK SMILES IDX 64 46 35 48 57 49 42 50 56 51 43 52 46 53 55 54 69 55 44 56
REMARK SMILES IDX 45 57 54 59 70 60 47 61 36 62 37 63 41 64 38 65 40 66 39 67
REMARK SMILES IDX 58 68 59 69 63 70 60 71 62 72 61 73 48 74 49 75 53 76 50 77
REMARK SMILES IDX 52 78 51 79
REMARK H PARENT 20 6 8 24 24 28 68 47 46 58
REMARK Flexibility Score: inf
ROOT
ATOM      1  C   UNL A   1      38.187  19.532  24.970  1.00  0.00     0.042 C 
ENDROOT
BRANCH   1   2
ATOM      2  C   UNL A   1      37.039  20.533  24.877  1.00  0.00     0.117 C 
BRANCH   2   3
ATOM      3  N   UNL A   1      35.731  19.901  24.895  1.00  0.00    -0.356 N 
ATOM      4  C   UNL A   1      34.476  20.351  25.151  1.00  0.00     0.226 C 
ATOM      5  O   UNL A   1      33.584  19.494  25.113  1.00  0.00    -0.275 OA
ATOM      6  H   UNL A   1      35.762  18.941  24.676  1.00  0.00     0.163 HD
BRANCH   4   7
ATOM      7  C   UNL A   1      34.112  21.801  25.492  1.00  0.00     0.110 C 
ATOM      8  C   UNL A   1      32.629  21.903  23.324  1.00  0.00     0.043 C 
ATOM      9  C   UNL A   1      33.540  22.636  24.306  1.00  0.00     0.075 C 
ATOM     10  C   UNL A   1      34.738  23.133  23.458  1.00  0.00     0.043 C 
ATOM     11  O   UNL A   1      32.854  23.840  24.691  1.00  0.00    -0.366 OA
ATOM     12  C   UNL A   1      32.065  23.878  25.884  1.00  0.00     0.092 C 
ATOM     13  C   UNL A   1      33.452  21.972  26.860  1.00  0.00     0.019 C 
ATOM     14  C   UNL A   1      30.793  23.014  25.802  1.00  0.00     0.045 C 
ATOM     15  C   UNL A   1      32.938  23.393  27.062  1.00  0.00     0.039 C 
BRANCH  12  16
ATOM     16  C   UNL A   1      31.699  25.393  26.124  1.00  0.00     0.149 C 
BRANCH  16  17
ATOM     17  C   UNL A   1      32.253  26.474  25.130  1.00  0.00     0.021 C 
ATOM     18  C   UNL A   1      31.502  27.804  24.959  1.00  0.00     0.006 C 
ATOM     19  C   UNL A   1      33.735  26.815  25.415  1.00  0.00     0.006 C 
ATOM     20  C   UNL A   1      31.615  28.738  26.156  1.00  0.00     0.000 C 
ATOM     21  C   UNL A   1      33.950  27.803  26.567  1.00  0.00     0.000 C 
ATOM     22  C   UNL A   1      33.074  29.050  26.469  1.00  0.00     0.000 C 
ENDBRANCH  16  17
BRANCH  16  23
ATOM     23  O   UNL A   1      30.301  25.537  26.384  1.00  0.00    -0.390 OA
ATOM     24  H   UNL A   1      29.990  26.380  26.016  1.00  0.00     0.211 HD
ENDBRANCH  16  23
ENDBRANCH  12  16
ENDBRANCH   4   7
ENDBRANCH   2   3
ENDBRANCH   1   2
BRANCH   1  25
ATOM     25  C   UNL A   1      39.186  19.835  26.073  1.00  0.00     0.118 C 
BRANCH  25  26
ATOM     26  N   UNL A   1      40.450  19.153  25.864  1.00  0.00    -0.352 N 
ATOM     27  C   UNL A   1      41.735  19.639  25.898  1.00  0.00     0.251 C 
ATOM     28  H   UNL A   1      40.375  18.191  25.667  1.00  0.00     0.163 HD
ATOM     29  O   UNL A   1      42.646  18.943  25.457  1.00  0.00    -0.269 OA
BRANCH  27  30
ATOM     30  C   UNL A   1      42.041  20.985  26.442  1.00  0.00     0.039 A 
ATOM     31  C   UNL A   1      41.981  21.177  27.826  1.00  0.00     0.014 A 
ATOM     32  C   UNL A   1      42.320  22.074  25.613  1.00  0.00     0.014 A 
ATOM     33  C   UNL A   1      42.232  22.440  28.371  1.00  0.00     0.010 A 
ATOM     34  C   UNL A   1      42.671  23.306  26.161  1.00  0.00     0.010 A 
ATOM     35  C   UNL A   1      42.598  23.513  27.544  1.00  0.00    -0.014 A 
BRANCH  35  36
ATOM     36  C   UNL A   1      42.857  24.862  28.112  1.00  0.00     0.031 A 
ATOM     37  C   UNL A   1      44.253  25.268  28.508  1.00  0.00     0.074 A 
ATOM     38  C   UNL A   1      41.833  25.715  28.307  1.00  0.00     0.049 A 
ATOM     39  N   UNL A   1      44.673  26.404  29.009  1.00  0.00    -0.248 NA
ATOM     40  C   UNL A   1      45.311  24.257  28.354  1.00  0.00     0.031 C 
ATOM     41  C   UNL A   1      40.424  25.427  28.034  1.00  0.00     0.029 A 
ATOM     42  N   UNL A   1      41.823  27.002  28.784  1.00  0.00    -0.354 N 
ATOM     43  C   UNL A   1      46.030  26.231  29.254  1.00  0.00     0.074 A 
ATOM     44  C   UNL A   1      46.354  24.868  28.896  1.00  0.00     0.031 C 
ATOM     45  C   UNL A   1      39.691  26.517  28.313  1.00  0.00     0.029 A 
ATOM     46  C   UNL A   1      40.573  27.570  28.805  1.00  0.00     0.049 A 
ATOM     47  H   UNL A   1      42.634  27.473  29.081  1.00  0.00     0.167 HD
ATOM     48  C   UNL A   1      46.934  27.128  29.713  1.00  0.00     0.031 A 
ATOM     49  C   UNL A   1      40.180  28.805  29.168  1.00  0.00     0.031 A 
ATOM     50  C   UNL A   1      46.626  28.495  30.037  1.00  0.00     0.049 A 
ATOM     51  C   UNL A   1      41.209  29.804  29.616  1.00  0.00     0.074 A 
ATOM     52  C   UNL A   1      47.488  29.505  30.428  1.00  0.00     0.029 A 
ATOM     53  N   UNL A   1      45.353  29.041  30.006  1.00  0.00    -0.354 N 
ATOM     54  N   UNL A   1      42.503  29.651  29.754  1.00  0.00    -0.248 NA
ATOM     55  C   UNL A   1      40.722  31.153  29.937  1.00  0.00     0.031 C 
ATOM     56  C   UNL A   1      46.729  30.656  30.670  1.00  0.00     0.029 A 
ATOM     57  C   UNL A   1      45.402  30.371  30.389  1.00  0.00     0.049 A 
ATOM     58  H   UNL A   1      44.536  28.557  29.751  1.00  0.00     0.167 HD
ATOM     59  C   UNL A   1      42.989  30.885  30.162  1.00  0.00     0.074 A 
ATOM     60  C   UNL A   1      41.852  31.783  30.227  1.00  0.00     0.031 C 
ATOM     61  C   UNL A   1      44.261  31.245  30.460  1.00  0.00     0.031 A 
BRANCH  48  62
ATOM     62  C   UNL A   1      48.349  26.650  29.893  1.00  0.00    -0.014 A 
ATOM     63  C   UNL A   1      48.760  26.016  31.078  1.00  0.00     0.009 A 
ATOM     64  C   UNL A   1      49.281  26.825  28.859  1.00  0.00     0.009 A 
ATOM     65  C   UNL A   1      50.085  25.608  31.238  1.00  0.00     0.001 A 
ATOM     66  C   UNL A   1      50.599  26.390  29.011  1.00  0.00     0.001 A 
ATOM     67  C   UNL A   1      51.002  25.792  30.205  1.00  0.00     0.000 A 
ENDBRANCH  48  62
BRANCH  49  68
ATOM     68  C   UNL A   1      38.745  29.178  29.083  1.00  0.00    -0.014 A 
ATOM     69  C   UNL A   1      38.202  29.647  27.878  1.00  0.00     0.009 A 
ATOM     70  C   UNL A   1      37.909  29.051  30.203  1.00  0.00     0.009 A 
ATOM     71  C   UNL A   1      36.854  30.004  27.801  1.00  0.00     0.001 A 
ATOM     72  C   UNL A   1      36.556  29.385  30.116  1.00  0.00     0.001 A 
ATOM     73  C   UNL A   1      36.032  29.867  28.918  1.00  0.00     0.000 A 
ENDBRANCH  49  68
BRANCH  61  74
ATOM     74  C   UNL A   1      44.486  32.671  30.871  1.00  0.00    -0.014 A 
ATOM     75  C   UNL A   1      44.743  33.668  29.915  1.00  0.00     0.009 A 
ATOM     76  C   UNL A   1      44.422  33.026  32.226  1.00  0.00     0.009 A 
ATOM     77  C   UNL A   1      44.967  34.986  30.316  1.00  0.00     0.001 A 
ATOM     78  C   UNL A   1      44.622  34.350  32.621  1.00  0.00     0.001 A 
ATOM     79  C   UNL A   1      44.904  35.326  31.667  1.00  0.00     0.000 A 
ENDBRANCH  61  74
ENDBRANCH  35  36
ENDBRANCH  27  30
ENDBRANCH  25  26
ENDBRANCH   1  25
TORSDOF 13
ENDMDL
MODEL 2
REMARK VINA RESULT:     -11.4      3.510      8.925
REMARK SMILES CC1(C)O[C@](C)([C@H](O)C2CCCCC2)CC[C@H]1C(=O)NCCCNC(=O)c1ccc(-c2c3nc(c(-c4ccccc4)c4ccc([nH]4)c(-c4ccccc4)c4nc(c(-c5ccccc5)c5ccc2[nH]5)C=C4)C=C3)cc1
REMARK SMILES IDX 22 1 21 2 20 3 18 4 19 5 17 7 1 8 2 9 3 10 4 11 5 12 16 13
REMARK SMILES IDX 6 14 15 15 7 16 9 17 10 18 14 19 11 20 13 21 12 22 8 23
REMARK SMILES IDX 23 25 24 26 25 27 26 29 27 30 28 31 74 32 29 33 73 34 30 35
REMARK SMILES IDX 31 36 32 37 67 38 33 39 72 40 66 41 68 42 34 43 71 44 65 45
REMARK SMILES IDX 64 46 35 48 57 49 42 50 56 51 43 52 46 53 55 54 69 55 44 56
REMARK SMILES IDX 45 57 54 59 70 60 47 61 36 62 37 63 41 64 38 65 40 66 39 67
REMARK SMILES IDX 58 68 59 69 63 70 60 71 62 72 61 73 48 74 49 75 53 76 50 77
REMARK SMILES IDX 52 78 51 79
REMARK H PARENT 20 6 8 24 24 28 68 47 46 58
REMARK Flexibility Score: inf
ROOT
ATOM      1  C   UNL A   1      31.413  31.966  26.877  1.00  0.00     0.042 C 
ENDROOT
BRANCH   1   2
ATOM      2  C   UNL A   1      31.664  30.568  26.319  1.00  0.00     0.117 C 
BRANCH   2   3
ATOM      3  N   UNL A   1      31.009  30.342  25.041  1.00  0.00    -0.356 N 
ATOM      4  C   UNL A   1      31.137  29.394  24.078  1.00  0.00     0.226 C 
ATOM      5  O   UNL A   1      30.423  29.548  23.079  1.00  0.00    -0.275 OA
ATOM      6  H   UNL A   1      30.330  31.022  24.829  1.00  0.00     0.163 HD
BRANCH   4   7
ATOM      7  C   UNL A   1      32.092  28.195  24.142  1.00  0.00     0.110 C 
ATOM      8  C   UNL A   1      30.019  26.582  24.053  1.00  0.00     0.043 C 
ATOM      9  C   UNL A   1      31.434  26.846  24.563  1.00  0.00     0.075 C 
ATOM     10  C   UNL A   1      31.318  26.839  26.108  1.00  0.00     0.043 C 
ATOM     11  O   UNL A   1      32.211  25.675  24.260  1.00  0.00    -0.366 OA
ATOM     12  C   UNL A   1      32.994  25.610  23.064  1.00  0.00     0.092 C 
ATOM     13  C   UNL A   1      33.120  28.158  23.012  1.00  0.00     0.019 C 
ATOM     14  C   UNL A   1      32.145  25.548  21.782  1.00  0.00     0.045 C 
ATOM     15  C   UNL A   1      33.909  26.853  23.013  1.00  0.00     0.039 C 
BRANCH  12  16
ATOM     16  C   UNL A   1      33.902  24.328  23.198  1.00  0.00     0.149 C 
BRANCH  16  17
ATOM     17  C   UNL A   1      33.911  23.543  24.558  1.00  0.00     0.021 C 
ATOM     18  C   UNL A   1      34.325  22.063  24.578  1.00  0.00     0.006 C 
ATOM     19  C   UNL A   1      34.745  24.271  25.639  1.00  0.00     0.006 C 
ATOM     20  C   UNL A   1      35.813  21.834  24.350  1.00  0.00     0.000 C 
ATOM     21  C   UNL A   1      36.258  24.048  25.531  1.00  0.00     0.000 C 
ATOM     22  C   UNL A   1      36.646  22.577  25.388  1.00  0.00     0.000 C 
ENDBRANCH  16  17
BRANCH  16  23
ATOM     23  O   UNL A   1      33.739  23.475  22.063  1.00  0.00    -0.390 OA
ATOM     24  H   UNL A   1      32.880  23.029  22.116  1.00  0.00     0.211 HD
ENDBRANCH  16  23
ENDBRANCH  12  16
ENDBRANCH   4   7
ENDBRANCH   2   3
ENDBRANCH   1   2
BRANCH   1  25
ATOM     25  C   UNL A   1      32.639  32.862  26.879  1.00  0.00     0.118 C 
BRANCH  25  26
ATOM     26  N   UNL A   1      32.448  34.044  27.699  1.00  0.00    -0.352 N 
ATOM     27  C   UNL A   1      33.139  34.476  28.806  1.00  0.00     0.251 C 
ATOM     28  H   UNL A   1      31.706  34.628  27.419  1.00  0.00     0.163 HD
ATOM     29  O   UNL A   1      32.663  35.377  29.491  1.00  0.00    -0.269 OA
BRANCH  27  30
ATOM     30  C   UNL A   1      34.437  33.870  29.195  1.00  0.00     0.039 A 
ATOM     31  C   UNL A   1      35.574  34.184  28.443  1.00  0.00     0.014 A 
ATOM     32  C   UNL A   1      34.542  32.951  30.241  1.00  0.00     0.014 A 
ATOM     33  C   UNL A   1      36.807  33.607  28.760  1.00  0.00     0.010 A 
ATOM     34  C   UNL A   1      35.788  32.456  30.622  1.00  0.00     0.010 A 
ATOM     35  C   UNL A   1      36.930  32.751  29.866  1.00  0.00    -0.014 A 
BRANCH  35  36
ATOM     36  C   UNL A   1      38.233  32.124  30.207  1.00  0.00     0.031 A 
ATOM     37  C   UNL A   1      39.186  32.810  31.152  1.00  0.00     0.074 A 
ATOM     38  C   UNL A   1      38.582  30.953  29.641  1.00  0.00     0.049 A 
ATOM     39  N   UNL A   1      40.360  32.412  31.575  1.00  0.00    -0.248 NA
ATOM     40  C   UNL A   1      38.783  34.130  31.664  1.00  0.00     0.031 C 
ATOM     41  C   UNL A   1      37.788  30.216  28.656  1.00  0.00     0.029 A 
ATOM     42  N   UNL A   1      39.701  30.178  29.814  1.00  0.00    -0.354 N 
ATOM     43  C   UNL A   1      40.844  33.441  32.374  1.00  0.00     0.074 A 
ATOM     44  C   UNL A   1      39.861  34.502  32.338  1.00  0.00     0.031 C 
ATOM     45  C   UNL A   1      38.427  29.078  28.340  1.00  0.00     0.029 A 
ATOM     46  C   UNL A   1      39.683  29.017  29.079  1.00  0.00     0.049 A 
ATOM     47  H   UNL A   1      40.445  30.429  30.407  1.00  0.00     0.167 HD
ATOM     48  C   UNL A   1      41.989  33.496  33.093  1.00  0.00     0.031 A 
ATOM     49  C   UNL A   1      40.573  28.009  29.017  1.00  0.00     0.031 A 
ATOM     50  C   UNL A   1      42.953  32.431  33.163  1.00  0.00     0.049 A 
ATOM     51  C   UNL A   1      41.808  28.061  29.871  1.00  0.00     0.074 A 
ATOM     52  C   UNL A   1      44.102  32.354  33.930  1.00  0.00     0.029 A 
ATOM     53  N   UNL A   1      42.877  31.254  32.435  1.00  0.00    -0.354 N 
ATOM     54  N   UNL A   1      42.205  29.002  30.693  1.00  0.00    -0.248 NA
ATOM     55  C   UNL A   1      42.706  26.900  29.804  1.00  0.00     0.031 C 
ATOM     56  C   UNL A   1      44.743  31.145  33.637  1.00  0.00     0.029 A 
ATOM     57  C   UNL A   1      43.969  30.452  32.720  1.00  0.00     0.049 A 
ATOM     58  H   UNL A   1      42.155  31.023  31.808  1.00  0.00     0.167 HD
ATOM     59  C   UNL A   1      43.388  28.542  31.251  1.00  0.00     0.074 A 
ATOM     60  C   UNL A   1      43.633  27.227  30.693  1.00  0.00     0.031 C 
ATOM     61  C   UNL A   1      44.203  29.153  32.146  1.00  0.00     0.031 A 
BRANCH  48  62
ATOM     62  C   UNL A   1      42.259  34.758  33.865  1.00  0.00    -0.014 A 
ATOM     63  C   UNL A   1      41.847  34.899  35.201  1.00  0.00     0.009 A 
ATOM     64  C   UNL A   1      42.946  35.817  33.252  1.00  0.00     0.009 A 
ATOM     65  C   UNL A   1      42.079  36.090  35.891  1.00  0.00     0.001 A 
ATOM     66  C   UNL A   1      43.202  36.997  33.955  1.00  0.00     0.001 A 
ATOM     67  C   UNL A   1      42.758  37.136  35.269  1.00  0.00     0.000 A 
ENDBRANCH  48  62
BRANCH  49  68
ATOM     68  C   UNL A   1      40.305  26.842  28.139  1.00  0.00    -0.014 A 
ATOM     69  C   UNL A   1      40.848  26.786  26.846  1.00  0.00     0.009 A 
ATOM     70  C   UNL A   1      39.519  25.773  28.594  1.00  0.00     0.009 A 
ATOM     71  C   UNL A   1      40.590  25.691  26.018  1.00  0.00     0.001 A 
ATOM     72  C   UNL A   1      39.283  24.669  27.773  1.00  0.00     0.001 A 
ATOM     73  C   UNL A   1      39.813  24.632  26.484  1.00  0.00     0.000 A 
ENDBRANCH  49  68
BRANCH  61  74
ATOM     74  C   UNL A   1      45.426  28.398  32.580  1.00  0.00    -0.014 A 
ATOM     75  C   UNL A   1      45.386  27.525  33.680  1.00  0.00     0.009 A 
ATOM     76  C   UNL A   1      46.626  28.545  31.869  1.00  0.00     0.009 A 
ATOM     77  C   UNL A   1      46.536  26.844  34.080  1.00  0.00     0.001 A 
ATOM     78  C   UNL A   1      47.768  27.842  32.257  1.00  0.00     0.001 A 
ATOM     79  C   UNL A   1      47.724  27.001  33.367  1.00  0.00     0.000 A 
ENDBRANCH  61  74
ENDBRANCH  35  36
ENDBRANCH  27  30
ENDBRANCH  25  26
ENDBRANCH   1  25
TORSDOF 13
ENDMDL
MODEL 3
REMARK VINA RESULT:     -11.4      0.536      5.923
REMARK SMILES CC1(C)O[C@](C)([C@H](O)C2CCCCC2)CC[C@H]1C(=O)NCCCNC(=O)c1ccc(-c2c3nc(c(-c4ccccc4)c4ccc([nH]4)c(-c4ccccc4)c4nc(c(-c5ccccc5)c5ccc2[nH]5)C=C4)C=C3)cc1
REMARK SMILES IDX 22 1 21 2 20 3 18 4 19 5 17 7 1 8 2 9 3 10 4 11 5 12 16 13
REMARK SMILES IDX 6 14 15 15 7 16 9 17 10 18 14 19 11 20 13 21 12 22 8 23
REMARK SMILES IDX 23 25 24 26 25 27 26 29 27 30 28 31 74 32 29 33 73 34 30 35
REMARK SMILES IDX 31 36 32 37 67 38 33 39 72 40 66 41 68 42 34 43 71 44 65 45
REMARK SMILES IDX 64 46 35 48 57 49 42 50 56 51 43 52 46 53 55 54 69 55 44 56
REMARK SMILES IDX 45 57 54 59 70 60 47 61 36 62 37 63 41 64 38 65 40 66 39 67
REMARK SMILES IDX 58 68 59 69 63 70 60 71 62 72 61 73 48 74 49 75 53 76 50 77
REMARK SMILES IDX 52 78 51 79
REMARK H PARENT 20 6 8 24 24 28 68 47 46 58
REMARK Flexibility Score: inf
ROOT
ATOM      1  C   UNL A   1      37.772  19.536  25.001  1.00  0.00     0.042 C 
ENDROOT
BRANCH   1   2
ATOM      2  C   UNL A   1      36.602  20.471  24.708  1.00  0.00     0.117 C 
BRANCH   2   3
ATOM      3  N   UNL A   1      35.311  19.873  25.001  1.00  0.00    -0.356 N 
ATOM      4  C   UNL A   1      34.119  20.373  25.417  1.00  0.00     0.226 C 
ATOM      5  O   UNL A   1      33.226  19.537  25.606  1.00  0.00    -0.275 OA
ATOM      6  H   UNL A   1      35.298  18.897  24.870  1.00  0.00     0.163 HD
BRANCH   4   7
ATOM      7  C   UNL A   1      33.827  21.856  25.675  1.00  0.00     0.110 C 
ATOM      8  C   UNL A   1      32.153  21.845  23.649  1.00  0.00     0.043 C 
ATOM      9  C   UNL A   1      33.171  22.619  24.485  1.00  0.00     0.075 C 
ATOM     10  C   UNL A   1      34.298  23.010  23.496  1.00  0.00     0.043 C 
ATOM     11  O   UNL A   1      32.556  23.871  24.836  1.00  0.00    -0.366 OA
ATOM     12  C   UNL A   1      31.882  24.025  26.089  1.00  0.00     0.092 C 
ATOM     13  C   UNL A   1      33.302  22.151  27.080  1.00  0.00     0.019 C 
ATOM     14  C   UNL A   1      30.586  23.201  26.190  1.00  0.00     0.045 C 
ATOM     15  C   UNL A   1      32.847  23.600  27.217  1.00  0.00     0.039 C 
BRANCH  12  16
ATOM     16  C   UNL A   1      31.581  25.565  26.243  1.00  0.00     0.149 C 
BRANCH  16  17
ATOM     17  C   UNL A   1      32.172  26.563  25.185  1.00  0.00     0.021 C 
ATOM     18  C   UNL A   1      31.518  27.941  24.993  1.00  0.00     0.006 C 
ATOM     19  C   UNL A   1      33.687  26.797  25.396  1.00  0.00     0.006 C 
ATOM     20  C   UNL A   1      31.755  28.905  26.147  1.00  0.00     0.000 C 
ATOM     21  C   UNL A   1      34.027  27.806  26.499  1.00  0.00     0.000 C 
ATOM     22  C   UNL A   1      33.246  29.114  26.387  1.00  0.00     0.000 C 
ENDBRANCH  16  17
BRANCH  16  23
ATOM     23  O   UNL A   1      30.193  25.782  26.501  1.00  0.00    -0.390 OA
ATOM     24  H   UNL A   1      30.001  26.732  26.454  1.00  0.00     0.211 HD
ENDBRANCH  16  23
ENDBRANCH  12  16
ENDBRANCH   4   7
ENDBRANCH   2   3
ENDBRANCH   1   2
BRANCH   1  25
ATOM     25  C   UNL A   1      38.918  20.193  25.750  1.00  0.00     0.118 C 
BRANCH  25  26
ATOM     26  N   UNL A   1      40.059  19.306  25.885  1.00  0.00    -0.352 N 
ATOM     27  C   UNL A   1      41.381  19.593  26.126  1.00  0.00     0.251 C 
ATOM     28  H   UNL A   1      39.853  18.348  25.788  1.00  0.00     0.163 HD
ATOM     29  O   UNL A   1      42.221  18.712  25.965  1.00  0.00    -0.269 OA
BRANCH  27  30
ATOM     30  C   UNL A   1      41.814  20.944  26.563  1.00  0.00     0.039 A 
ATOM     31  C   UNL A   1      41.791  21.244  27.929  1.00  0.00     0.014 A 
ATOM     32  C   UNL A   1      42.176  21.938  25.651  1.00  0.00     0.014 A 
ATOM     33  C   UNL A   1      42.161  22.516  28.375  1.00  0.00     0.010 A 
ATOM     34  C   UNL A   1      42.643  23.171  26.101  1.00  0.00     0.010 A 
ATOM     35  C   UNL A   1      42.610  23.488  27.466  1.00  0.00    -0.014 A 
BRANCH  35  36
ATOM     36  C   UNL A   1      42.996  24.846  27.926  1.00  0.00     0.031 A 
ATOM     37  C   UNL A   1      41.942  25.888  28.198  1.00  0.00     0.074 A 
ATOM     38  C   UNL A   1      44.298  25.161  28.067  1.00  0.00     0.049 A 
ATOM     39  N   UNL A   1      42.087  27.122  28.615  1.00  0.00    -0.248 NA
ATOM     40  C   UNL A   1      40.544  25.508  27.937  1.00  0.00     0.031 C 
ATOM     41  C   UNL A   1      45.424  24.273  27.771  1.00  0.00     0.029 A 
ATOM     42  N   UNL A   1      44.893  26.322  28.496  1.00  0.00    -0.354 N 
ATOM     43  C   UNL A   1      40.809  27.667  28.636  1.00  0.00     0.074 A 
ATOM     44  C   UNL A   1      39.907  26.650  28.144  1.00  0.00     0.031 C 
ATOM     45  C   UNL A   1      46.571  24.907  28.062  1.00  0.00     0.029 A 
ATOM     46  C   UNL A   1      46.264  26.251  28.541  1.00  0.00     0.049 A 
ATOM     47  H   UNL A   1      44.386  27.126  28.748  1.00  0.00     0.167 HD
ATOM     48  C   UNL A   1      40.413  28.894  29.049  1.00  0.00     0.031 A 
ATOM     49  C   UNL A   1      47.173  27.161  28.936  1.00  0.00     0.031 A 
ATOM     50  C   UNL A   1      41.299  29.897  29.574  1.00  0.00     0.049 A 
ATOM     51  C   UNL A   1      46.708  28.494  29.449  1.00  0.00     0.074 A 
ATOM     52  C   UNL A   1      40.985  31.139  30.099  1.00  0.00     0.029 A 
ATOM     53  N   UNL A   1      42.677  29.770  29.641  1.00  0.00    -0.354 N 
ATOM     54  N   UNL A   1      45.487  28.960  29.550  1.00  0.00    -0.248 NA
ATOM     55  C   UNL A   1      47.747  29.418  29.924  1.00  0.00     0.031 C 
ATOM     56  C   UNL A   1      42.179  31.780  30.449  1.00  0.00     0.029 A 
ATOM     57  C   UNL A   1      43.231  30.919  30.180  1.00  0.00     0.049 A 
ATOM     58  H   UNL A   1      43.187  28.981  29.347  1.00  0.00     0.167 HD
ATOM     59  C   UNL A   1      45.608  30.222  30.111  1.00  0.00     0.074 A 
ATOM     60  C   UNL A   1      47.021  30.441  30.352  1.00  0.00     0.031 C 
ATOM     61  C   UNL A   1      44.638  31.124  30.401  1.00  0.00     0.031 A 
BRANCH  48  62
ATOM     62  C   UNL A   1      38.947  29.216  28.946  1.00  0.00    -0.014 A 
ATOM     63  C   UNL A   1      38.085  29.053  30.044  1.00  0.00     0.009 A 
ATOM     64  C   UNL A   1      38.422  29.700  27.738  1.00  0.00     0.009 A 
ATOM     65  C   UNL A   1      36.722  29.328  29.920  1.00  0.00     0.001 A 
ATOM     66  C   UNL A   1      37.063  30.000  27.626  1.00  0.00     0.001 A 
ATOM     67  C   UNL A   1      36.213  29.803  28.714  1.00  0.00     0.000 A 
ENDBRANCH  48  62
BRANCH  49  68
ATOM     68  C   UNL A   1      48.619  26.824  28.898  1.00  0.00    -0.014 A 
ATOM     69  C   UNL A   1      49.393  27.140  27.772  1.00  0.00     0.009 A 
ATOM     70  C   UNL A   1      49.234  26.199  29.994  1.00  0.00     0.009 A 
ATOM     71  C   UNL A   1      50.751  26.817  27.734  1.00  0.00     0.001 A 
ATOM     72  C   UNL A   1      50.597  25.899  29.963  1.00  0.00     0.001 A 
ATOM     73  C   UNL A   1      51.353  26.202  28.831  1.00  0.00     0.000 A 
ENDBRANCH  49  68
BRANCH  61  74
ATOM     74  C   UNL A   1      45.076  32.420  31.020  1.00  0.00    -0.014 A 
ATOM     75  C   UNL A   1      45.394  33.532  30.223  1.00  0.00     0.009 A 
ATOM     76  C   UNL A   1      45.153  32.535  32.416  1.00  0.00     0.009 A 
ATOM     77  C   UNL A   1      45.817  34.723  30.815  1.00  0.00     0.001 A 
ATOM     78  C   UNL A   1      45.552  33.737  33.005  1.00  0.00     0.001 A 
ATOM     79  C   UNL A   1      45.892  34.825  32.204  1.00  0.00     0.000 A 
ENDBRANCH  61  74
ENDBRANCH  35  36
ENDBRANCH  27  30
ENDBRANCH  25  26
ENDBRANCH   1  25
TORSDOF 13
ENDMDL
