MODEL 1
REMARK VINA RESULT:     -11.0      0.000      0.000
REMARK SMILES C[C@@H](C(=O)NCCCNC(=O)c1ccc(-c2c3nc(c(-c4ccccc4)c4ccc([nH]4)c(-c4ccccc4)c4nc(c(-c5ccccc5)c5ccc2[nH]5)C=C4)C=C3)cc1)c1ccc(-c2ccccc2)c(F)c1
REMARK SMILES IDX 7 1 6 2 5 3 3 4 4 5 2 7 1 8 60 9 61 10 72 11 62 12 70 13
REMARK SMILES IDX 63 14 71 15 64 16 65 17 69 18 66 19 68 20 67 21 8 22 9 23
REMARK SMILES IDX 10 24 11 26 12 27 13 28 59 29 14 30 58 31 15 32 16 33 17 34
REMARK SMILES IDX 52 35 18 36 57 37 51 38 53 39 19 40 56 41 50 42 49 43 20 45
REMARK SMILES IDX 42 46 27 47 41 48 28 49 31 50 40 51 54 52 29 53 30 54 39 56
REMARK SMILES IDX 55 57 32 58 21 59 22 60 26 61 23 62 25 63 24 64 43 65 44 66
REMARK SMILES IDX 48 67 45 68 47 69 46 70 33 71 34 72 38 73 35 74 37 75 36 76
REMARK H PARENT 5 6 9 25 53 44 31 55
REMARK Flexibility Score: inf
ROOT
ATOM      1  C   UNL A   1      33.779  28.700  25.484  1.00  0.00     0.042 C 
ENDROOT
BRANCH   1   2
ATOM      2  C   UNL A   1      32.318  28.779  25.052  1.00  0.00     0.117 C 
BRANCH   2   3
ATOM      3  N   UNL A   1      31.480  27.923  25.867  1.00  0.00    -0.356 N 
ATOM      4  C   UNL A   1      30.976  26.680  25.624  1.00  0.00     0.227 C 
ATOM      5  O   UNL A   1      30.180  26.247  26.458  1.00  0.00    -0.274 OA
ATOM      6  H   UNL A   1      31.235  28.301  26.743  1.00  0.00     0.163 HD
BRANCH   4   7
ATOM      7  C   UNL A   1      31.420  25.894  24.378  1.00  0.00     0.105 C 
ATOM      8  C   UNL A   1      30.337  24.938  23.875  1.00  0.00     0.023 C 
BRANCH   7   9
ATOM      9  C   UNL A   1      32.709  25.110  24.604  1.00  0.00    -0.033 A 
ATOM     10  C   UNL A   1      33.656  24.963  23.579  1.00  0.00     0.005 A 
ATOM     11  C   UNL A   1      32.989  24.544  25.853  1.00  0.00     0.044 A 
ATOM     12  C   UNL A   1      34.843  24.260  23.794  1.00  0.00     0.012 A 
ATOM     13  C   UNL A   1      34.182  23.847  26.061  1.00  0.00     0.131 A 
ATOM     14  C   UNL A   1      35.134  23.691  25.043  1.00  0.00     0.017 A 
ATOM     15  F   UNL A   1      34.406  23.336  27.282  1.00  0.00    -0.206 F 
BRANCH  14  16
ATOM     16  C   UNL A   1      36.393  22.958  25.242  1.00  0.00    -0.015 A 
ATOM     17  C   UNL A   1      36.532  21.635  24.788  1.00  0.00     0.009 A 
ATOM     18  C   UNL A   1      37.474  23.538  25.924  1.00  0.00     0.009 A 
ATOM     19  C   UNL A   1      37.705  20.913  25.019  1.00  0.00     0.001 A 
ATOM     20  C   UNL A   1      38.647  22.816  26.158  1.00  0.00     0.001 A 
ATOM     21  C   UNL A   1      38.761  21.502  25.708  1.00  0.00     0.000 A 
ENDBRANCH  14  16
ENDBRANCH   7   9
ENDBRANCH   4   7
ENDBRANCH   2   3
ENDBRANCH   1   2
BRANCH   1  22
ATOM     22  C   UNL A   1      33.981  28.704  26.996  1.00  0.00     0.118 C 
BRANCH  22  23
ATOM     23  N   UNL A   1      33.918  30.042  27.569  1.00  0.00    -0.352 N 
ATOM     24  C   UNL A   1      34.838  30.695  28.353  1.00  0.00     0.251 C 
ATOM     25  H   UNL A   1      33.099  30.549  27.367  1.00  0.00     0.163 HD
ATOM     26  O   UNL A   1      34.548  31.757  28.893  1.00  0.00    -0.269 OA
BRANCH  24  27
ATOM     27  C   UNL A   1      36.175  30.101  28.559  1.00  0.00     0.039 A 
ATOM     28  C   UNL A   1      37.130  30.200  27.543  1.00  0.00     0.014 A 
ATOM     29  C   UNL A   1      36.485  29.457  29.759  1.00  0.00     0.014 A 
ATOM     30  C   UNL A   1      38.422  29.717  27.760  1.00  0.00     0.010 A 
ATOM     31  C   UNL A   1      37.790  29.045  30.000  1.00  0.00     0.010 A 
ATOM     32  C   UNL A   1      38.771  29.170  29.003  1.00  0.00    -0.014 A 
BRANCH  32  33
ATOM     33  C   UNL A   1      40.146  28.701  29.304  1.00  0.00     0.031 A 
ATOM     34  C   UNL A   1      41.138  29.654  29.907  1.00  0.00     0.074 A 
ATOM     35  C   UNL A   1      40.537  27.470  28.925  1.00  0.00     0.049 A 
ATOM     36  N   UNL A   1      42.428  29.516  30.069  1.00  0.00    -0.248 NA
ATOM     37  C   UNL A   1      40.609  30.953  30.352  1.00  0.00     0.031 C 
ATOM     38  C   UNL A   1      39.680  26.458  28.307  1.00  0.00     0.029 A 
ATOM     39  N   UNL A   1      41.773  26.874  28.977  1.00  0.00    -0.354 N 
ATOM     40  C   UNL A   1      42.870  30.721  30.598  1.00  0.00     0.074 A 
ATOM     41  C   UNL A   1      41.718  31.591  30.692  1.00  0.00     0.031 C 
ATOM     42  C   UNL A   1      40.415  25.368  28.037  1.00  0.00     0.029 A 
ATOM     43  C   UNL A   1      41.801  25.621  28.414  1.00  0.00     0.049 A 
ATOM     44  H   UNL A   1      42.563  27.303  29.379  1.00  0.00     0.167 HD
ATOM     45  C   UNL A   1      44.121  31.070  30.982  1.00  0.00     0.031 A 
ATOM     46  C   UNL A   1      42.832  24.781  28.201  1.00  0.00     0.031 A 
ATOM     47  C   UNL A   1      45.263  30.199  30.896  1.00  0.00     0.049 A 
ATOM     48  C   UNL A   1      44.216  25.189  28.621  1.00  0.00     0.074 A 
ATOM     49  C   UNL A   1      46.561  30.436  31.310  1.00  0.00     0.029 A 
ATOM     50  N   UNL A   1      45.239  28.922  30.355  1.00  0.00    -0.354 N 
ATOM     51  N   UNL A   1      44.613  26.312  29.167  1.00  0.00    -0.248 NA
ATOM     52  C   UNL A   1      45.291  24.211  28.404  1.00  0.00     0.031 C 
ATOM     53  C   UNL A   1      47.335  29.320  30.973  1.00  0.00     0.029 A 
ATOM     54  C   UNL A   1      46.506  28.366  30.405  1.00  0.00     0.049 A 
ATOM     55  H   UNL A   1      44.440  28.478  29.990  1.00  0.00     0.167 HD
ATOM     56  C   UNL A   1      45.976  26.166  29.389  1.00  0.00     0.074 A 
ATOM     57  C   UNL A   1      46.337  24.843  28.918  1.00  0.00     0.031 C 
ATOM     58  C   UNL A   1      46.847  27.046  29.940  1.00  0.00     0.031 A 
BRANCH  45  59
ATOM     59  C   UNL A   1      44.314  32.468  31.501  1.00  0.00    -0.014 A 
ATOM     60  C   UNL A   1      44.148  32.774  32.861  1.00  0.00     0.009 A 
ATOM     61  C   UNL A   1      44.663  33.498  30.614  1.00  0.00     0.009 A 
ATOM     62  C   UNL A   1      44.270  34.090  33.312  1.00  0.00     0.001 A 
ATOM     63  C   UNL A   1      44.819  34.807  31.072  1.00  0.00     0.001 A 
ATOM     64  C   UNL A   1      44.608  35.104  32.418  1.00  0.00     0.000 A 
ENDBRANCH  45  59
BRANCH  46  65
ATOM     65  C   UNL A   1      42.582  23.466  27.555  1.00  0.00    -0.014 A 
ATOM     66  C   UNL A   1      42.141  22.374  28.316  1.00  0.00     0.009 A 
ATOM     67  C   UNL A   1      42.745  23.308  26.169  1.00  0.00     0.009 A 
ATOM     68  C   UNL A   1      41.881  21.145  27.705  1.00  0.00     0.001 A 
ATOM     69  C   UNL A   1      42.460  22.086  25.558  1.00  0.00     0.001 A 
ATOM     70  C   UNL A   1      42.033  21.005  26.326  1.00  0.00     0.000 A 
ENDBRANCH  46  65
BRANCH  58  71
ATOM     71  C   UNL A   1      48.271  26.599  30.116  1.00  0.00    -0.014 A 
ATOM     72  C   UNL A   1      48.678  25.878  31.248  1.00  0.00     0.009 A 
ATOM     73  C   UNL A   1      49.199  26.835  29.088  1.00  0.00     0.009 A 
ATOM     74  C   UNL A   1      49.993  25.418  31.354  1.00  0.00     0.001 A 
ATOM     75  C   UNL A   1      50.504  26.352  29.186  1.00  0.00     0.001 A 
ATOM     76  C   UNL A   1      50.901  25.647  30.320  1.00  0.00     0.000 A 
ENDBRANCH  58  71
ENDBRANCH  32  33
ENDBRANCH  24  27
ENDBRANCH  22  23
ENDBRANCH   1  22
TORSDOF 12
ENDMDL
MODEL 2
REMARK VINA RESULT:     -10.8      2.873      7.999
REMARK SMILES C[C@@H](C(=O)NCCCNC(=O)c1ccc(-c2c3nc(c(-c4ccccc4)c4ccc([nH]4)c(-c4ccccc4)c4nc(c(-c5ccccc5)c5ccc2[nH]5)C=C4)C=C3)cc1)c1ccc(-c2ccccc2)c(F)c1
REMARK SMILES IDX 7 1 6 2 5 3 3 4 4 5 2 7 1 8 60 9 61 10 72 11 62 12 70 13
REMARK SMILES IDX 63 14 71 15 64 16 65 17 69 18 66 19 68 20 67 21 8 22 9 23
REMARK SMILES IDX 10 24 11 26 12 27 13 28 59 29 14 30 58 31 15 32 16 33 17 34
REMARK SMILES IDX 52 35 18 36 57 37 51 38 53 39 19 40 56 41 50 42 49 43 20 45
REMARK SMILES IDX 42 46 27 47 41 48 28 49 31 50 40 51 54 52 29 53 30 54 39 56
REMARK SMILES IDX 55 57 32 58 21 59 22 60 26 61 23 62 25 63 24 64 43 65 44 66
REMARK SMILES IDX 48 67 45 68 47 69 46 70 33 71 34 72 38 73 35 74 37 75 36 76
REMARK H PARENT 5 6 9 25 53 44 31 55
REMARK Flexibility Score: inf
ROOT
ATOM      1  C   UNL A   1      35.872  22.957  25.825  1.00  0.00     0.042 C 
ENDROOT
BRANCH   1   2
ATOM      2  C   UNL A   1      35.429  21.874  24.845  1.00  0.00     0.117 C 
BRANCH   2   3
ATOM      3  N   UNL A   1      35.113  22.434  23.547  1.00  0.00    -0.356 N 
ATOM      4  C   UNL A   1      33.970  23.015  23.084  1.00  0.00     0.227 C 
ATOM      5  O   UNL A   1      33.951  23.286  21.883  1.00  0.00    -0.274 OA
ATOM      6  H   UNL A   1      35.846  22.389  22.891  1.00  0.00     0.163 HD
BRANCH   4   7
ATOM      7  C   UNL A   1      32.808  23.315  24.047  1.00  0.00     0.105 C 
ATOM      8  C   UNL A   1      31.441  23.062  23.407  1.00  0.00     0.023 C 
BRANCH   7   9
ATOM      9  C   UNL A   1      32.846  24.739  24.592  1.00  0.00    -0.033 A 
ATOM     10  C   UNL A   1      32.179  25.078  25.779  1.00  0.00     0.005 A 
ATOM     11  C   UNL A   1      33.575  25.735  23.932  1.00  0.00     0.044 A 
ATOM     12  C   UNL A   1      32.230  26.378  26.285  1.00  0.00     0.012 A 
ATOM     13  C   UNL A   1      33.625  27.032  24.448  1.00  0.00     0.131 A 
ATOM     14  C   UNL A   1      32.960  27.383  25.632  1.00  0.00     0.017 A 
ATOM     15  F   UNL A   1      34.349  27.946  23.782  1.00  0.00    -0.206 F 
BRANCH  14  16
ATOM     16  C   UNL A   1      32.999  28.744  26.189  1.00  0.00    -0.015 A 
ATOM     17  C   UNL A   1      34.154  29.223  26.830  1.00  0.00     0.009 A 
ATOM     18  C   UNL A   1      31.878  29.586  26.133  1.00  0.00     0.009 A 
ATOM     19  C   UNL A   1      34.184  30.495  27.408  1.00  0.00     0.001 A 
ATOM     20  C   UNL A   1      31.905  30.858  26.712  1.00  0.00     0.001 A 
ATOM     21  C   UNL A   1      33.057  31.310  27.353  1.00  0.00     0.000 A 
ENDBRANCH  14  16
ENDBRANCH   7   9
ENDBRANCH   4   7
ENDBRANCH   2   3
ENDBRANCH   1   2
BRANCH   1  22
ATOM     22  C   UNL A   1      37.195  23.621  25.459  1.00  0.00     0.118 C 
BRANCH  22  23
ATOM     23  N   UNL A   1      38.346  22.767  25.718  1.00  0.00    -0.352 N 
ATOM     24  C   UNL A   1      39.553  23.086  26.290  1.00  0.00     0.251 C 
ATOM     25  H   UNL A   1      38.243  21.827  25.444  1.00  0.00     0.163 HD
ATOM     26  O   UNL A   1      40.477  22.280  26.275  1.00  0.00    -0.269 OA
BRANCH  24  27
ATOM     27  C   UNL A   1      39.742  24.416  26.906  1.00  0.00     0.039 A 
ATOM     28  C   UNL A   1      39.270  24.641  28.202  1.00  0.00     0.014 A 
ATOM     29  C   UNL A   1      40.392  25.434  26.205  1.00  0.00     0.014 A 
ATOM     30  C   UNL A   1      39.517  25.866  28.825  1.00  0.00     0.010 A 
ATOM     31  C   UNL A   1      40.702  26.624  26.852  1.00  0.00     0.010 A 
ATOM     32  C   UNL A   1      40.267  26.853  28.167  1.00  0.00    -0.014 A 
BRANCH  32  33
ATOM     33  C   UNL A   1      40.610  28.146  28.809  1.00  0.00     0.031 A 
ATOM     34  C   UNL A   1      41.938  28.304  29.492  1.00  0.00     0.074 A 
ATOM     35  C   UNL A   1      39.689  29.125  28.888  1.00  0.00     0.049 A 
ATOM     36  N   UNL A   1      42.360  29.265  30.272  1.00  0.00    -0.248 NA
ATOM     37  C   UNL A   1      42.906  27.212  29.298  1.00  0.00     0.031 C 
ATOM     38  C   UNL A   1      38.354  29.087  28.291  1.00  0.00     0.029 A 
ATOM     39  N   UNL A   1      39.731  30.335  29.535  1.00  0.00    -0.354 N 
ATOM     40  C   UNL A   1      43.626  28.876  30.692  1.00  0.00     0.074 A 
ATOM     41  C   UNL A   1      43.885  27.576  30.113  1.00  0.00     0.031 C 
ATOM     42  C   UNL A   1      37.704  30.220  28.600  1.00  0.00     0.029 A 
ATOM     43  C   UNL A   1      38.555  31.040  29.456  1.00  0.00     0.049 A 
ATOM     44  H   UNL A   1      40.528  30.666  30.010  1.00  0.00     0.167 HD
ATOM     45  C   UNL A   1      44.499  29.546  31.481  1.00  0.00     0.031 A 
ATOM     46  C   UNL A   1      38.191  32.202  30.030  1.00  0.00     0.031 A 
ATOM     47  C   UNL A   1      44.242  30.843  32.047  1.00  0.00     0.049 A 
ATOM     48  C   UNL A   1      39.167  32.927  30.913  1.00  0.00     0.074 A 
ATOM     49  C   UNL A   1      45.082  31.632  32.812  1.00  0.00     0.029 A 
ATOM     50  N   UNL A   1      43.050  31.540  31.910  1.00  0.00    -0.354 N 
ATOM     51  N   UNL A   1      40.381  32.574  31.263  1.00  0.00    -0.248 NA
ATOM     52  C   UNL A   1      38.729  34.212  31.474  1.00  0.00     0.031 C 
ATOM     53  C   UNL A   1      44.380  32.784  33.181  1.00  0.00     0.029 A 
ATOM     54  C   UNL A   1      43.125  32.740  32.595  1.00  0.00     0.049 A 
ATOM     55  H   UNL A   1      42.268  31.227  31.400  1.00  0.00     0.167 HD
ATOM     56  C   UNL A   1      40.863  33.606  32.056  1.00  0.00     0.074 A 
ATOM     57  C   UNL A   1      39.811  34.600  32.136  1.00  0.00     0.031 C 
ATOM     58  C   UNL A   1      42.073  33.722  32.658  1.00  0.00     0.031 A 
BRANCH  45  59
ATOM     59  C   UNL A   1      45.801  28.863  31.795  1.00  0.00    -0.014 A 
ATOM     60  C   UNL A   1      45.940  28.032  32.918  1.00  0.00     0.009 A 
ATOM     61  C   UNL A   1      46.910  29.057  30.956  1.00  0.00     0.009 A 
ATOM     62  C   UNL A   1      47.175  27.457  33.226  1.00  0.00     0.001 A 
ATOM     63  C   UNL A   1      48.134  28.453  31.246  1.00  0.00     0.001 A 
ATOM     64  C   UNL A   1      48.269  27.666  32.389  1.00  0.00     0.000 A 
ENDBRANCH  45  59
BRANCH  46  65
ATOM     65  C   UNL A   1      36.832  32.748  29.780  1.00  0.00    -0.014 A 
ATOM     66  C   UNL A   1      36.571  33.503  28.627  1.00  0.00     0.009 A 
ATOM     67  C   UNL A   1      35.780  32.483  30.672  1.00  0.00     0.009 A 
ATOM     68  C   UNL A   1      35.288  33.994  28.379  1.00  0.00     0.001 A 
ATOM     69  C   UNL A   1      34.492  32.954  30.407  1.00  0.00     0.001 A 
ATOM     70  C   UNL A   1      34.248  33.712  29.265  1.00  0.00     0.000 A 
ENDBRANCH  46  65
BRANCH  58  71
ATOM     71  C   UNL A   1      42.353  34.988  33.417  1.00  0.00    -0.014 A 
ATOM     72  C   UNL A   1      41.992  35.129  34.765  1.00  0.00     0.009 A 
ATOM     73  C   UNL A   1      43.064  36.023  32.790  1.00  0.00     0.009 A 
ATOM     74  C   UNL A   1      42.325  36.292  35.464  1.00  0.00     0.001 A 
ATOM     75  C   UNL A   1      43.417  37.172  33.498  1.00  0.00     0.001 A 
ATOM     76  C   UNL A   1      43.043  37.308  34.834  1.00  0.00     0.000 A 
ENDBRANCH  58  71
ENDBRANCH  32  33
ENDBRANCH  24  27
ENDBRANCH  22  23
ENDBRANCH   1  22
TORSDOF 12
ENDMDL
MODEL 3
REMARK VINA RESULT:     -10.8      1.779      2.311
REMARK SMILES C[C@@H](C(=O)NCCCNC(=O)c1ccc(-c2c3nc(c(-c4ccccc4)c4ccc([nH]4)c(-c4ccccc4)c4nc(c(-c5ccccc5)c5ccc2[nH]5)C=C4)C=C3)cc1)c1ccc(-c2ccccc2)c(F)c1
REMARK SMILES IDX 7 1 6 2 5 3 3 4 4 5 2 7 1 8 60 9 61 10 72 11 62 12 70 13
REMARK SMILES IDX 63 14 71 15 64 16 65 17 69 18 66 19 68 20 67 21 8 22 9 23
REMARK SMILES IDX 10 24 11 26 12 27 13 28 59 29 14 30 58 31 15 32 16 33 17 34
REMARK SMILES IDX 52 35 18 36 57 37 51 38 53 39 19 40 56 41 50 42 49 43 20 45
REMARK SMILES IDX 42 46 27 47 41 48 28 49 31 50 40 51 54 52 29 53 30 54 39 56
REMARK SMILES IDX 55 57 32 58 21 59 22 60 26 61 23 62 25 63 24 64 43 65 44 66
REMARK SMILES IDX 48 67 45 68 47 69 46 70 33 71 34 72 38 73 35 74 37 75 36 76
REMARK H PARENT 5 6 9 25 53 44 31 55
REMARK Flexibility Score: inf
ROOT
ATOM      1  C   UNL A   1      33.247  27.832  26.849  1.00  0.00     0.042 C 
ENDROOT
BRANCH   1   2
ATOM      2  C   UNL A   1      31.798  28.183  26.521  1.00  0.00     0.117 C 
BRANCH   2   3
ATOM      3  N   UNL A   1      30.910  27.075  26.802  1.00  0.00    -0.356 N 
ATOM      4  C   UNL A   1      30.574  25.991  26.047  1.00  0.00     0.227 C 
ATOM      5  O   UNL A   1      29.684  25.270  26.501  1.00  0.00    -0.274 OA
ATOM      6  H   UNL A   1      30.477  27.109  27.686  1.00  0.00     0.163 HD
BRANCH   4   7
ATOM      7  C   UNL A   1      31.306  25.712  24.722  1.00  0.00     0.105 C 
ATOM      8  C   UNL A   1      30.445  24.919  23.736  1.00  0.00     0.023 C 
BRANCH   7   9
ATOM      9  C   UNL A   1      32.632  24.985  24.922  1.00  0.00    -0.033 A 
ATOM     10  C   UNL A   1      33.637  25.032  23.945  1.00  0.00     0.005 A 
ATOM     11  C   UNL A   1      32.885  24.277  26.103  1.00  0.00     0.044 A 
ATOM     12  C   UNL A   1      34.857  24.380  24.139  1.00  0.00     0.012 A 
ATOM     13  C   UNL A   1      34.110  23.632  26.290  1.00  0.00     0.131 A 
ATOM     14  C   UNL A   1      35.121  23.669  25.319  1.00  0.00     0.017 A 
ATOM     15  F   UNL A   1      34.304  22.977  27.446  1.00  0.00    -0.206 F 
BRANCH  14  16
ATOM     16  C   UNL A   1      36.415  22.994  25.498  1.00  0.00    -0.015 A 
ATOM     17  C   UNL A   1      37.495  23.661  26.101  1.00  0.00     0.009 A 
ATOM     18  C   UNL A   1      36.622  21.684  25.038  1.00  0.00     0.009 A 
ATOM     19  C   UNL A   1      38.743  23.046  26.228  1.00  0.00     0.001 A 
ATOM     20  C   UNL A   1      37.871  21.068  25.163  1.00  0.00     0.001 A 
ATOM     21  C   UNL A   1      38.931  21.751  25.754  1.00  0.00     0.000 A 
ENDBRANCH  14  16
ENDBRANCH   7   9
ENDBRANCH   4   7
ENDBRANCH   2   3
ENDBRANCH   1   2
BRANCH   1  22
ATOM     22  C   UNL A   1      34.268  28.798  26.258  1.00  0.00     0.118 C 
BRANCH  22  23
ATOM     23  N   UNL A   1      34.013  30.184  26.627  1.00  0.00    -0.352 N 
ATOM     24  C   UNL A   1      34.645  30.963  27.566  1.00  0.00     0.251 C 
ATOM     25  H   UNL A   1      33.285  30.624  26.134  1.00  0.00     0.163 HD
ATOM     26  O   UNL A   1      34.187  32.060  27.868  1.00  0.00    -0.269 OA
BRANCH  24  27
ATOM     27  C   UNL A   1      35.868  30.464  28.227  1.00  0.00     0.039 A 
ATOM     28  C   UNL A   1      35.760  29.809  29.457  1.00  0.00     0.014 A 
ATOM     29  C   UNL A   1      37.117  30.636  27.625  1.00  0.00     0.014 A 
ATOM     30  C   UNL A   1      36.899  29.259  30.050  1.00  0.00     0.010 A 
ATOM     31  C   UNL A   1      38.235  30.025  28.179  1.00  0.00     0.010 A 
ATOM     32  C   UNL A   1      38.138  29.332  29.396  1.00  0.00    -0.014 A 
BRANCH  32  33
ATOM     33  C   UNL A   1      39.364  28.709  29.954  1.00  0.00     0.031 A 
ATOM     34  C   UNL A   1      40.048  29.346  31.129  1.00  0.00     0.074 A 
ATOM     35  C   UNL A   1      39.927  27.655  29.334  1.00  0.00     0.049 A 
ATOM     36  N   UNL A   1      41.221  29.086  31.647  1.00  0.00    -0.248 NA
ATOM     37  C   UNL A   1      39.330  30.450  31.785  1.00  0.00     0.031 C 
ATOM     38  C   UNL A   1      39.378  26.960  28.170  1.00  0.00     0.029 A 
ATOM     39  N   UNL A   1      41.110  27.004  29.584  1.00  0.00    -0.354 N 
ATOM     40  C   UNL A   1      41.396  30.016  32.662  1.00  0.00     0.074 A 
ATOM     41  C   UNL A   1      40.229  30.872  32.660  1.00  0.00     0.031 C 
ATOM     42  C   UNL A   1      40.222  25.982  27.806  1.00  0.00     0.029 A 
ATOM     43  C   UNL A   1      41.392  26.013  28.677  1.00  0.00     0.049 A 
ATOM     44  H   UNL A   1      41.700  27.228  30.341  1.00  0.00     0.167 HD
ATOM     45  C   UNL A   1      42.431  30.143  33.527  1.00  0.00     0.031 A 
ATOM     46  C   UNL A   1      42.482  25.233  28.543  1.00  0.00     0.031 A 
ATOM     47  C   UNL A   1      43.586  29.285  33.532  1.00  0.00     0.049 A 
ATOM     48  C   UNL A   1      43.627  25.395  29.502  1.00  0.00     0.074 A 
ATOM     49  C   UNL A   1      44.662  29.293  34.401  1.00  0.00     0.029 A 
ATOM     50  N   UNL A   1      43.813  28.267  32.618  1.00  0.00    -0.354 N 
ATOM     51  N   UNL A   1      43.760  26.245  30.491  1.00  0.00    -0.248 NA
ATOM     52  C   UNL A   1      44.768  24.485  29.334  1.00  0.00     0.031 C 
ATOM     53  C   UNL A   1      45.566  28.311  33.982  1.00  0.00     0.029 A 
ATOM     54  C   UNL A   1      45.024  27.653  32.890  1.00  0.00     0.049 A 
ATOM     55  H   UNL A   1      43.204  28.017  31.886  1.00  0.00     0.167 HD
ATOM     56  C   UNL A   1      44.981  25.953  31.082  1.00  0.00     0.074 A 
ATOM     57  C   UNL A   1      45.551  24.845  30.342  1.00  0.00     0.031 C 
ATOM     58  C   UNL A   1      45.573  26.546  32.148  1.00  0.00     0.031 A 
BRANCH  45  59
ATOM     59  C   UNL A   1      42.363  31.273  34.516  1.00  0.00    -0.014 A 
ATOM     60  C   UNL A   1      41.765  31.109  35.776  1.00  0.00     0.009 A 
ATOM     61  C   UNL A   1      42.904  32.525  34.182  1.00  0.00     0.009 A 
ATOM     62  C   UNL A   1      41.657  32.189  36.655  1.00  0.00     0.001 A 
ATOM     63  C   UNL A   1      42.827  33.593  35.076  1.00  0.00     0.001 A 
ATOM     64  C   UNL A   1      42.190  33.428  36.306  1.00  0.00     0.000 A 
ENDBRANCH  45  59
BRANCH  46  65
ATOM     65  C   UNL A   1      42.532  24.227  27.450  1.00  0.00    -0.014 A 
ATOM     66  C   UNL A   1      42.982  24.588  26.172  1.00  0.00     0.009 A 
ATOM     67  C   UNL A   1      42.167  22.892  27.691  1.00  0.00     0.009 A 
ATOM     68  C   UNL A   1      43.053  23.637  25.153  1.00  0.00     0.001 A 
ATOM     69  C   UNL A   1      42.265  21.938  26.677  1.00  0.00     0.001 A 
ATOM     70  C   UNL A   1      42.702  22.311  25.408  1.00  0.00     0.000 A 
ENDBRANCH  46  65
BRANCH  58  71
ATOM     71  C   UNL A   1      46.885  25.983  32.618  1.00  0.00    -0.014 A 
ATOM     72  C   UNL A   1      46.945  25.009  33.626  1.00  0.00     0.009 A 
ATOM     73  C   UNL A   1      48.072  26.378  31.981  1.00  0.00     0.009 A 
ATOM     74  C   UNL A   1      48.172  24.455  33.997  1.00  0.00     0.001 A 
ATOM     75  C   UNL A   1      49.293  25.804  32.336  1.00  0.00     0.001 A 
ATOM     76  C   UNL A   1      49.343  24.846  33.347  1.00  0.00     0.000 A 
ENDBRANCH  58  71
ENDBRANCH  32  33
ENDBRANCH  24  27
ENDBRANCH  22  23
ENDBRANCH   1  22
TORSDOF 12
ENDMDL
