MODEL 1
REMARK VINA RESULT:      -9.6      0.000      0.000
REMARK SMILES CC[C@@](O)(C(=O)NCCCNC(=O)c1ccc(-c2c3nc(c(-c4ccccc4)c4ccc([nH]4)c(-c4ccccc4)c4nc(c(-c5ccccc5)c5ccc2[nH]5)C=C4)C=C3)cc1)[C@@H]1CCOc2ccccc21
REMARK SMILES IDX 9 1 8 2 7 3 5 4 6 5 3 7 2 8 1 9 4 10 62 12 63 13 71 14 64 15
REMARK SMILES IDX 66 16 70 17 65 18 67 19 69 20 68 21 10 22 11 23 12 24 13 26
REMARK SMILES IDX 14 27 15 28 61 29 16 30 60 31 17 32 18 33 19 34 54 35 20 36
REMARK SMILES IDX 59 37 53 38 55 39 21 40 58 41 52 42 51 43 22 45 44 46 29 47
REMARK SMILES IDX 43 48 30 49 33 50 42 51 56 52 31 53 32 54 41 56 57 57 34 58
REMARK SMILES IDX 23 59 24 60 28 61 25 62 27 63 26 64 45 65 46 66 50 67 47 68
REMARK SMILES IDX 49 69 48 70 35 71 36 72 40 73 37 74 39 75 38 76
REMARK H PARENT 7 6 4 11 11 25 55 44 33 55
REMARK Flexibility Score: inf
ROOT
ATOM      1  C   UNL A   1      33.900  34.090  28.369  1.00  0.00     0.042 C 
ENDROOT
BRANCH   1   2
ATOM      2  C   UNL A   1      34.378  34.753  29.651  1.00  0.00     0.117 C 
BRANCH   2   3
ATOM      3  N   UNL A   1      33.938  33.994  30.806  1.00  0.00    -0.354 N 
ATOM      4  C   UNL A   1      34.649  33.344  31.763  1.00  0.00     0.252 C 
ATOM      5  O   UNL A   1      34.019  32.538  32.458  1.00  0.00    -0.272 OA
ATOM      6  H   UNL A   1      32.961  33.943  30.916  1.00  0.00     0.163 HD
BRANCH   4   7
ATOM      7  C   UNL A   1      36.186  33.580  31.978  1.00  0.00     0.149 C 
BRANCH   7   8
ATOM      8  C   UNL A   1      36.874  32.831  30.808  1.00  0.00     0.043 C 
ATOM      9  C   UNL A   1      37.869  33.615  29.950  1.00  0.00     0.007 C 
ENDBRANCH   7   8
BRANCH   7  10
ATOM     10  O   UNL A   1      36.589  34.949  31.915  1.00  0.00    -0.379 OA
ATOM     11  H   UNL A   1      35.841  35.517  32.157  1.00  0.00     0.212 HD
ENDBRANCH   7  10
BRANCH   7  12
ATOM     12  C   UNL A   1      36.424  33.056  33.452  1.00  0.00     0.068 C 
ATOM     13  C   UNL A   1      36.770  34.280  34.359  1.00  0.00     0.053 C 
ATOM     14  C   UNL A   1      37.482  31.980  33.570  1.00  0.00     0.001 A 
ATOM     15  C   UNL A   1      37.897  33.997  35.329  1.00  0.00     0.230 C 
ATOM     16  C   UNL A   1      38.754  32.284  34.061  1.00  0.00     0.122 A 
ATOM     17  C   UNL A   1      37.215  30.663  33.179  1.00  0.00     0.008 A 
ATOM     18  O   UNL A   1      39.037  33.501  34.619  1.00  0.00    -0.493 OA
ATOM     19  C   UNL A   1      39.788  31.354  33.999  1.00  0.00     0.047 A 
ATOM     20  C   UNL A   1      38.240  29.717  33.138  1.00  0.00     0.001 A 
ATOM     21  C   UNL A   1      39.533  30.072  33.519  1.00  0.00     0.004 A 
ENDBRANCH   7  12
ENDBRANCH   4   7
ENDBRANCH   2   3
ENDBRANCH   1   2
BRANCH   1  22
ATOM     22  C   UNL A   1      34.774  32.912  27.961  1.00  0.00     0.118 C 
BRANCH  22  23
ATOM     23  N   UNL A   1      33.997  31.691  27.791  1.00  0.00    -0.352 N 
ATOM     24  C   UNL A   1      34.423  30.390  27.695  1.00  0.00     0.251 C 
ATOM     25  H   UNL A   1      33.022  31.818  27.737  1.00  0.00     0.163 HD
ATOM     26  O   UNL A   1      33.665  29.520  27.285  1.00  0.00    -0.269 OA
BRANCH  24  27
ATOM     27  C   UNL A   1      35.804  30.049  28.085  1.00  0.00     0.039 A 
ATOM     28  C   UNL A   1      36.049  29.564  29.371  1.00  0.00     0.014 A 
ATOM     29  C   UNL A   1      36.855  30.215  27.180  1.00  0.00     0.014 A 
ATOM     30  C   UNL A   1      37.343  29.185  29.726  1.00  0.00     0.010 A 
ATOM     31  C   UNL A   1      38.122  29.747  27.500  1.00  0.00     0.010 A 
ATOM     32  C   UNL A   1      38.382  29.238  28.780  1.00  0.00    -0.014 A 
BRANCH  32  33
ATOM     33  C   UNL A   1      39.750  28.775  29.112  1.00  0.00     0.031 A 
ATOM     34  C   UNL A   1      40.706  29.695  29.822  1.00  0.00     0.074 A 
ATOM     35  C   UNL A   1      40.150  27.550  28.721  1.00  0.00     0.049 A 
ATOM     36  N   UNL A   1      41.956  29.491  30.151  1.00  0.00    -0.248 NA
ATOM     37  C   UNL A   1      40.200  31.030  30.187  1.00  0.00     0.031 C 
ATOM     38  C   UNL A   1      39.331  26.583  27.985  1.00  0.00     0.029 A 
ATOM     39  N   UNL A   1      41.352  26.909  28.883  1.00  0.00    -0.354 N 
ATOM     40  C   UNL A   1      42.387  30.673  30.743  1.00  0.00     0.074 A 
ATOM     41  C   UNL A   1      41.286  31.607  30.677  1.00  0.00     0.031 C 
ATOM     42  C   UNL A   1      40.042  25.462  27.792  1.00  0.00     0.029 A 
ATOM     43  C   UNL A   1      41.378  25.645  28.346  1.00  0.00     0.049 A 
ATOM     44  H   UNL A   1      42.123  27.316  29.341  1.00  0.00     0.167 HD
ATOM     45  C   UNL A   1      43.584  30.946  31.313  1.00  0.00     0.031 A 
ATOM     46  C   UNL A   1      42.372  24.738  28.300  1.00  0.00     0.031 A 
ATOM     47  C   UNL A   1      44.673  30.011  31.386  1.00  0.00     0.049 A 
ATOM     48  C   UNL A   1      43.697  25.075  28.924  1.00  0.00     0.074 A 
ATOM     49  C   UNL A   1      45.909  30.173  31.988  1.00  0.00     0.029 A 
ATOM     50  N   UNL A   1      44.659  28.739  30.833  1.00  0.00    -0.354 N 
ATOM     51  N   UNL A   1      44.065  26.170  29.544  1.00  0.00    -0.248 NA
ATOM     52  C   UNL A   1      44.743  24.045  28.850  1.00  0.00     0.031 C 
ATOM     53  C   UNL A   1      46.661  29.018  31.753  1.00  0.00     0.029 A 
ATOM     54  C   UNL A   1      45.872  28.115  31.060  1.00  0.00     0.049 A 
ATOM     55  H   UNL A   1      43.897  28.340  30.353  1.00  0.00     0.167 HD
ATOM     56  C   UNL A   1      45.371  25.949  29.961  1.00  0.00     0.074 A 
ATOM     57  C   UNL A   1      45.724  24.608  29.540  1.00  0.00     0.031 C 
ATOM     58  C   UNL A   1      46.205  26.779  30.633  1.00  0.00     0.031 A 
BRANCH  45  59
ATOM     59  C   UNL A   1      43.776  32.317  31.901  1.00  0.00    -0.014 A 
ATOM     60  C   UNL A   1      43.443  32.589  33.237  1.00  0.00     0.009 A 
ATOM     61  C   UNL A   1      44.337  33.340  31.121  1.00  0.00     0.009 A 
ATOM     62  C   UNL A   1      43.635  33.866  33.770  1.00  0.00     0.001 A 
ATOM     63  C   UNL A   1      44.557  34.607  31.664  1.00  0.00     0.001 A 
ATOM     64  C   UNL A   1      44.198  34.870  32.985  1.00  0.00     0.000 A 
ENDBRANCH  45  59
BRANCH  46  65
ATOM     65  C   UNL A   1      42.153  23.420  27.649  1.00  0.00    -0.014 A 
ATOM     66  C   UNL A   1      42.554  23.203  26.321  1.00  0.00     0.009 A 
ATOM     67  C   UNL A   1      41.527  22.374  28.345  1.00  0.00     0.009 A 
ATOM     68  C   UNL A   1      42.300  21.981  25.693  1.00  0.00     0.001 A 
ATOM     69  C   UNL A   1      41.304  21.142  27.727  1.00  0.00     0.001 A 
ATOM     70  C   UNL A   1      41.679  20.951  26.398  1.00  0.00     0.000 A 
ENDBRANCH  46  65
BRANCH  58  71
ATOM     71  C   UNL A   1      47.566  26.248  30.986  1.00  0.00    -0.014 A 
ATOM     72  C   UNL A   1      48.625  26.281  30.067  1.00  0.00     0.009 A 
ATOM     73  C   UNL A   1      47.797  25.740  32.275  1.00  0.00     0.009 A 
ATOM     74  C   UNL A   1      49.880  25.782  30.420  1.00  0.00     0.001 A 
ATOM     75  C   UNL A   1      49.060  25.273  32.635  1.00  0.00     0.001 A 
ATOM     76  C   UNL A   1      50.098  25.284  31.704  1.00  0.00     0.000 A 
ENDBRANCH  58  71
ENDBRANCH  32  33
ENDBRANCH  24  27
ENDBRANCH  22  23
ENDBRANCH   1  22
TORSDOF 13
ENDMDL
MODEL 2
REMARK VINA RESULT:      -9.5      4.130      9.868
REMARK SMILES CC[C@@](O)(C(=O)NCCCNC(=O)c1ccc(-c2c3nc(c(-c4ccccc4)c4ccc([nH]4)c(-c4ccccc4)c4nc(c(-c5ccccc5)c5ccc2[nH]5)C=C4)C=C3)cc1)[C@@H]1CCOc2ccccc21
REMARK SMILES IDX 9 1 8 2 7 3 5 4 6 5 3 7 2 8 1 9 4 10 62 12 63 13 71 14 64 15
REMARK SMILES IDX 66 16 70 17 65 18 67 19 69 20 68 21 10 22 11 23 12 24 13 26
REMARK SMILES IDX 14 27 15 28 61 29 16 30 60 31 17 32 18 33 19 34 54 35 20 36
REMARK SMILES IDX 59 37 53 38 55 39 21 40 58 41 52 42 51 43 22 45 44 46 29 47
REMARK SMILES IDX 43 48 30 49 33 50 42 51 56 52 31 53 32 54 41 56 57 57 34 58
REMARK SMILES IDX 23 59 24 60 28 61 25 62 27 63 26 64 45 65 46 66 50 67 47 68
REMARK SMILES IDX 49 69 48 70 35 71 36 72 40 73 37 74 39 75 38 76
REMARK H PARENT 7 6 4 11 11 25 55 44 33 55
REMARK Flexibility Score: inf
ROOT
ATOM      1  C   UNL A   1      37.992  19.662  24.874  1.00  0.00     0.042 C 
ENDROOT
BRANCH   1   2
ATOM      2  C   UNL A   1      36.694  20.438  25.037  1.00  0.00     0.117 C 
BRANCH   2   3
ATOM      3  N   UNL A   1      36.742  21.670  24.274  1.00  0.00    -0.354 N 
ATOM      4  C   UNL A   1      35.743  22.460  23.804  1.00  0.00     0.252 C 
ATOM      5  O   UNL A   1      36.061  23.285  22.939  1.00  0.00    -0.272 OA
ATOM      6  H   UNL A   1      37.650  21.986  24.063  1.00  0.00     0.163 HD
BRANCH   4   7
ATOM      7  C   UNL A   1      34.262  22.339  24.309  1.00  0.00     0.149 C 
BRANCH   7   8
ATOM      8  C   UNL A   1      33.413  23.075  23.240  1.00  0.00     0.043 C 
ATOM      9  C   UNL A   1      31.928  22.722  23.147  1.00  0.00     0.007 C 
ENDBRANCH   7   8
BRANCH   7  10
ATOM     10  O   UNL A   1      33.777  20.999  24.403  1.00  0.00    -0.379 OA
ATOM     11  H   UNL A   1      33.348  20.871  25.264  1.00  0.00     0.212 HD
ENDBRANCH   7  10
BRANCH   7  12
ATOM     12  C   UNL A   1      34.331  22.949  25.768  1.00  0.00     0.068 C 
ATOM     13  C   UNL A   1      33.753  21.899  26.768  1.00  0.00     0.053 C 
ATOM     14  C   UNL A   1      33.631  24.283  25.921  1.00  0.00     0.001 A 
ATOM     15  C   UNL A   1      32.855  22.514  27.819  1.00  0.00     0.230 C 
ATOM     16  C   UNL A   1      32.382  24.364  26.541  1.00  0.00     0.122 A 
ATOM     17  C   UNL A   1      34.212  25.460  25.435  1.00  0.00     0.008 A 
ATOM     18  O   UNL A   1      31.831  23.292  27.189  1.00  0.00    -0.493 OA
ATOM     19  C   UNL A   1      31.646  25.545  26.521  1.00  0.00     0.047 A 
ATOM     20  C   UNL A   1      33.491  26.655  25.435  1.00  0.00     0.001 A 
ATOM     21  C   UNL A   1      32.197  26.689  25.950  1.00  0.00     0.004 A 
ENDBRANCH   7  12
ENDBRANCH   4   7
ENDBRANCH   2   3
ENDBRANCH   1   2
BRANCH   1  22
ATOM     22  C   UNL A   1      39.114  20.216  25.743  1.00  0.00     0.118 C 
BRANCH  22  23
ATOM     23  N   UNL A   1      40.236  19.291  25.837  1.00  0.00    -0.352 N 
ATOM     24  C   UNL A   1      41.564  19.549  26.064  1.00  0.00     0.251 C 
ATOM     25  H   UNL A   1      40.008  18.340  25.719  1.00  0.00     0.163 HD
ATOM     26  O   UNL A   1      42.408  18.689  25.843  1.00  0.00    -0.269 OA
BRANCH  24  27
ATOM     27  C   UNL A   1      41.968  20.874  26.573  1.00  0.00     0.039 A 
ATOM     28  C   UNL A   1      42.400  21.847  25.670  1.00  0.00     0.014 A 
ATOM     29  C   UNL A   1      41.923  21.149  27.942  1.00  0.00     0.014 A 
ATOM     30  C   UNL A   1      42.728  23.119  26.137  1.00  0.00     0.010 A 
ATOM     31  C   UNL A   1      42.154  22.441  28.393  1.00  0.00     0.010 A 
ATOM     32  C   UNL A   1      42.570  23.437  27.498  1.00  0.00    -0.014 A 
BRANCH  32  33
ATOM     33  C   UNL A   1      42.844  24.801  28.006  1.00  0.00     0.031 A 
ATOM     34  C   UNL A   1      44.244  25.195  28.392  1.00  0.00     0.074 A 
ATOM     35  C   UNL A   1      41.824  25.663  28.179  1.00  0.00     0.049 A 
ATOM     36  N   UNL A   1      44.673  26.320  28.905  1.00  0.00    -0.248 NA
ATOM     37  C   UNL A   1      45.298  24.182  28.204  1.00  0.00     0.031 C 
ATOM     38  C   UNL A   1      40.416  25.383  27.885  1.00  0.00     0.029 A 
ATOM     39  N   UNL A   1      41.813  26.952  28.649  1.00  0.00    -0.354 N 
ATOM     40  C   UNL A   1      46.035  26.144  29.112  1.00  0.00     0.074 A 
ATOM     41  C   UNL A   1      46.352  24.788  28.726  1.00  0.00     0.031 C 
ATOM     42  C   UNL A   1      39.686  26.478  28.148  1.00  0.00     0.029 A 
ATOM     43  C   UNL A   1      40.562  27.520  28.671  1.00  0.00     0.049 A 
ATOM     44  H   UNL A   1      42.625  27.426  28.941  1.00  0.00     0.167 HD
ATOM     45  C   UNL A   1      46.946  27.040  29.561  1.00  0.00     0.031 A 
ATOM     46  C   UNL A   1      40.167  28.741  29.075  1.00  0.00     0.031 A 
ATOM     47  C   UNL A   1      46.629  28.391  29.934  1.00  0.00     0.049 A 
ATOM     48  C   UNL A   1      41.196  29.709  29.587  1.00  0.00     0.074 A 
ATOM     49  C   UNL A   1      47.487  29.394  30.352  1.00  0.00     0.029 A 
ATOM     50  N   UNL A   1      45.351  28.929  29.940  1.00  0.00    -0.354 N 
ATOM     51  N   UNL A   1      42.492  29.552  29.708  1.00  0.00    -0.248 NA
ATOM     52  C   UNL A   1      40.708  31.031  30.007  1.00  0.00     0.031 C 
ATOM     53  C   UNL A   1      46.721  30.522  30.661  1.00  0.00     0.029 A 
ATOM     54  C   UNL A   1      45.394  30.241  30.376  1.00  0.00     0.049 A 
ATOM     55  H   UNL A   1      44.534  28.448  29.671  1.00  0.00     0.167 HD
ATOM     56  C   UNL A   1      42.977  30.761  30.189  1.00  0.00     0.074 A 
ATOM     57  C   UNL A   1      41.839  31.648  30.318  1.00  0.00     0.031 C 
ATOM     58  C   UNL A   1      44.251  31.109  30.497  1.00  0.00     0.031 A 
BRANCH  45  59
ATOM     59  C   UNL A   1      48.374  26.581  29.674  1.00  0.00    -0.014 A 
ATOM     60  C   UNL A   1      49.294  26.804  28.638  1.00  0.00     0.009 A 
ATOM     61  C   UNL A   1      48.816  25.956  30.851  1.00  0.00     0.009 A 
ATOM     62  C   UNL A   1      50.619  26.379  28.762  1.00  0.00     0.001 A 
ATOM     63  C   UNL A   1      50.147  25.559  30.985  1.00  0.00     0.001 A 
ATOM     64  C   UNL A   1      51.045  25.763  29.938  1.00  0.00     0.000 A 
ENDBRANCH  45  59
BRANCH  46  65
ATOM     65  C   UNL A   1      38.732  29.125  29.004  1.00  0.00    -0.014 A 
ATOM     66  C   UNL A   1      38.194  29.661  27.824  1.00  0.00     0.009 A 
ATOM     67  C   UNL A   1      37.896  28.973  30.121  1.00  0.00     0.009 A 
ATOM     68  C   UNL A   1      36.859  30.071  27.775  1.00  0.00     0.001 A 
ATOM     69  C   UNL A   1      36.553  29.352  30.060  1.00  0.00     0.001 A 
ATOM     70  C   UNL A   1      36.040  29.913  28.891  1.00  0.00     0.000 A 
ENDBRANCH  46  65
BRANCH  58  71
ATOM     71  C   UNL A   1      44.484  32.517  30.966  1.00  0.00    -0.014 A 
ATOM     72  C   UNL A   1      44.465  32.847  32.329  1.00  0.00     0.009 A 
ATOM     73  C   UNL A   1      44.764  33.522  30.026  1.00  0.00     0.009 A 
ATOM     74  C   UNL A   1      44.686  34.162  32.740  1.00  0.00     0.001 A 
ATOM     75  C   UNL A   1      45.017  34.829  30.441  1.00  0.00     0.001 A 
ATOM     76  C   UNL A   1      44.967  35.151  31.797  1.00  0.00     0.000 A 
ENDBRANCH  58  71
ENDBRANCH  32  33
ENDBRANCH  24  27
ENDBRANCH  22  23
ENDBRANCH   1  22
TORSDOF 13
ENDMDL
MODEL 3
REMARK VINA RESULT:      -9.4      4.309      9.744
REMARK SMILES CC[C@@](O)(C(=O)NCCCNC(=O)c1ccc(-c2c3nc(c(-c4ccccc4)c4ccc([nH]4)c(-c4ccccc4)c4nc(c(-c5ccccc5)c5ccc2[nH]5)C=C4)C=C3)cc1)[C@@H]1CCOc2ccccc21
REMARK SMILES IDX 9 1 8 2 7 3 5 4 6 5 3 7 2 8 1 9 4 10 62 12 63 13 71 14 64 15
REMARK SMILES IDX 66 16 70 17 65 18 67 19 69 20 68 21 10 22 11 23 12 24 13 26
REMARK SMILES IDX 14 27 15 28 61 29 16 30 60 31 17 32 18 33 19 34 54 35 20 36
REMARK SMILES IDX 59 37 53 38 55 39 21 40 58 41 52 42 51 43 22 45 44 46 29 47
REMARK SMILES IDX 43 48 30 49 33 50 42 51 56 52 31 53 32 54 41 56 57 57 34 58
REMARK SMILES IDX 23 59 24 60 28 61 25 62 27 63 26 64 45 65 46 66 50 67 47 68
REMARK SMILES IDX 49 69 48 70 35 71 36 72 40 73 37 74 39 75 38 76
REMARK H PARENT 7 6 4 11 11 25 55 44 33 55
REMARK Flexibility Score: inf
ROOT
ATOM      1  C   UNL A   1      38.053  19.879  24.848  1.00  0.00     0.042 C 
ENDROOT
BRANCH   1   2
ATOM      2  C   UNL A   1      36.750  20.628  25.079  1.00  0.00     0.117 C 
BRANCH   2   3
ATOM      3  N   UNL A   1      36.700  21.821  24.255  1.00  0.00    -0.354 N 
ATOM      4  C   UNL A   1      35.641  22.521  23.774  1.00  0.00     0.252 C 
ATOM      5  O   UNL A   1      35.885  23.319  22.861  1.00  0.00    -0.272 OA
ATOM      6  H   UNL A   1      37.580  22.183  24.004  1.00  0.00     0.163 HD
BRANCH   4   7
ATOM      7  C   UNL A   1      34.184  22.333  24.325  1.00  0.00     0.149 C 
BRANCH   7   8
ATOM      8  C   UNL A   1      33.271  23.039  23.289  1.00  0.00     0.043 C 
ATOM      9  C   UNL A   1      31.795  22.640  23.255  1.00  0.00     0.007 C 
ENDBRANCH   7   8
BRANCH   7  10
ATOM     10  O   UNL A   1      33.760  20.972  24.421  1.00  0.00    -0.379 OA
ATOM     11  H   UNL A   1      32.830  20.943  24.698  1.00  0.00     0.212 HD
ENDBRANCH   7  10
BRANCH   7  12
ATOM     12  C   UNL A   1      34.274  22.933  25.786  1.00  0.00     0.068 C 
ATOM     13  C   UNL A   1      33.678  21.890  26.783  1.00  0.00     0.053 C 
ATOM     14  C   UNL A   1      33.603  24.281  25.950  1.00  0.00     0.001 A 
ATOM     15  C   UNL A   1      32.798  22.519  27.842  1.00  0.00     0.230 C 
ATOM     16  C   UNL A   1      32.359  24.385  26.576  1.00  0.00     0.122 A 
ATOM     17  C   UNL A   1      34.207  25.448  25.467  1.00  0.00     0.008 A 
ATOM     18  O   UNL A   1      31.788  23.322  27.222  1.00  0.00    -0.493 OA
ATOM     19  C   UNL A   1      31.649  25.582  26.567  1.00  0.00     0.047 A 
ATOM     20  C   UNL A   1      33.512  26.658  25.477  1.00  0.00     0.001 A 
ATOM     21  C   UNL A   1      32.221  26.717  25.999  1.00  0.00     0.004 A 
ENDBRANCH   7  12
ENDBRANCH   4   7
ENDBRANCH   2   3
ENDBRANCH   1   2
BRANCH   1  22
ATOM     22  C   UNL A   1      39.135  20.270  25.847  1.00  0.00     0.118 C 
BRANCH  22  23
ATOM     23  N   UNL A   1      40.188  19.266  25.929  1.00  0.00    -0.352 N 
ATOM     24  C   UNL A   1      41.541  19.431  26.087  1.00  0.00     0.251 C 
ATOM     25  H   UNL A   1      39.884  18.332  25.860  1.00  0.00     0.163 HD
ATOM     26  O   UNL A   1      42.307  18.501  25.863  1.00  0.00    -0.269 OA
BRANCH  24  27
ATOM     27  C   UNL A   1      42.066  20.739  26.523  1.00  0.00     0.039 A 
ATOM     28  C   UNL A   1      42.503  21.652  25.561  1.00  0.00     0.014 A 
ATOM     29  C   UNL A   1      42.127  21.058  27.881  1.00  0.00     0.014 A 
ATOM     30  C   UNL A   1      42.946  22.911  25.963  1.00  0.00     0.010 A 
ATOM     31  C   UNL A   1      42.474  22.344  28.272  1.00  0.00     0.010 A 
ATOM     32  C   UNL A   1      42.898  23.281  27.319  1.00  0.00    -0.014 A 
BRANCH  32  33
ATOM     33  C   UNL A   1      43.297  24.637  27.762  1.00  0.00     0.031 A 
ATOM     34  C   UNL A   1      42.246  25.673  28.059  1.00  0.00     0.074 A 
ATOM     35  C   UNL A   1      44.604  24.954  27.836  1.00  0.00     0.049 A 
ATOM     36  N   UNL A   1      42.398  26.925  28.407  1.00  0.00    -0.248 NA
ATOM     37  C   UNL A   1      40.840  25.254  27.922  1.00  0.00     0.031 C 
ATOM     38  C   UNL A   1      45.717  24.051  27.529  1.00  0.00     0.029 A 
ATOM     39  N   UNL A   1      45.220  26.128  28.191  1.00  0.00    -0.354 N 
ATOM     40  C   UNL A   1      41.114  27.444  28.513  1.00  0.00     0.074 A 
ATOM     41  C   UNL A   1      40.197  26.391  28.139  1.00  0.00     0.031 C 
ATOM     42  C   UNL A   1      46.875  24.693  27.741  1.00  0.00     0.029 A 
ATOM     43  C   UNL A   1      46.591  26.063  28.154  1.00  0.00     0.049 A 
ATOM     44  H   UNL A   1      44.725  26.939  28.447  1.00  0.00     0.167 HD
ATOM     45  C   UNL A   1      40.730  28.680  28.912  1.00  0.00     0.031 A 
ATOM     46  C   UNL A   1      47.516  27.005  28.418  1.00  0.00     0.031 A 
ATOM     47  C   UNL A   1      41.644  29.722  29.294  1.00  0.00     0.049 A 
ATOM     48  C   UNL A   1      47.062  28.374  28.840  1.00  0.00     0.074 A 
ATOM     49  C   UNL A   1      41.356  30.991  29.763  1.00  0.00     0.029 A 
ATOM     50  N   UNL A   1      43.026  29.615  29.247  1.00  0.00    -0.354 N 
ATOM     51  N   UNL A   1      45.843  28.827  29.006  1.00  0.00    -0.248 NA
ATOM     52  C   UNL A   1      48.115  29.360  29.123  1.00  0.00     0.031 C 
ATOM     53  C   UNL A   1      42.563  31.671  29.948  1.00  0.00     0.029 A 
ATOM     54  C   UNL A   1      43.603  30.804  29.655  1.00  0.00     0.049 A 
ATOM     55  H   UNL A   1      43.522  28.812  28.967  1.00  0.00     0.167 HD
ATOM     56  C   UNL A   1      45.983  30.139  29.441  1.00  0.00     0.074 A 
ATOM     57  C   UNL A   1      47.405  30.402  29.532  1.00  0.00     0.031 C 
ATOM     58  C   UNL A   1      45.021  31.047  29.740  1.00  0.00     0.031 A 
BRANCH  45  59
ATOM     59  C   UNL A   1      39.256  28.971  28.951  1.00  0.00    -0.014 A 
ATOM     60  C   UNL A   1      38.503  28.761  30.118  1.00  0.00     0.009 A 
ATOM     61  C   UNL A   1      38.617  29.502  27.819  1.00  0.00     0.009 A 
ATOM     62  C   UNL A   1      37.135  29.043  30.139  1.00  0.00     0.001 A 
ATOM     63  C   UNL A   1      37.257  29.813  27.853  1.00  0.00     0.001 A 
ATOM     64  C   UNL A   1      36.516  29.575  29.010  1.00  0.00     0.000 A 
ENDBRANCH  45  59
BRANCH  46  65
ATOM     65  C   UNL A   1      48.963  26.687  28.302  1.00  0.00    -0.014 A 
ATOM     66  C   UNL A   1      49.633  26.845  27.079  1.00  0.00     0.009 A 
ATOM     67  C   UNL A   1      49.681  26.208  29.409  1.00  0.00     0.009 A 
ATOM     68  C   UNL A   1      50.980  26.495  26.958  1.00  0.00     0.001 A 
ATOM     69  C   UNL A   1      51.036  25.891  29.294  1.00  0.00     0.001 A 
ATOM     70  C   UNL A   1      51.681  26.023  28.066  1.00  0.00     0.000 A 
ENDBRANCH  46  65
BRANCH  58  71
ATOM     71  C   UNL A   1      45.476  32.393  30.227  1.00  0.00    -0.014 A 
ATOM     72  C   UNL A   1      45.684  33.460  29.341  1.00  0.00     0.009 A 
ATOM     73  C   UNL A   1      45.662  32.604  31.603  1.00  0.00     0.009 A 
ATOM     74  C   UNL A   1      46.104  34.702  29.819  1.00  0.00     0.001 A 
ATOM     75  C   UNL A   1      46.050  33.855  32.081  1.00  0.00     0.001 A 
ATOM     76  C   UNL A   1      46.282  34.900  31.188  1.00  0.00     0.000 A 
ENDBRANCH  58  71
ENDBRANCH  32  33
ENDBRANCH  24  27
ENDBRANCH  22  23
ENDBRANCH   1  22
TORSDOF 13
ENDMDL
