MODEL 1
REMARK VINA RESULT:     -11.9      0.000      0.000
REMARK SMILES CCCCc1cc(S(F)(F)(F)(F)F)cc2c1O[C@@H](C(F)(F)F)C(C(=O)NCCCNC(=O)c1ccc(-c3c4nc(c(-c5ccccc5)c5ccc([nH]5)c(-c5ccccc5)c5nc(c(-c6ccccc6)c6ccc3[nH]6)C=C5)C=C4)cc1)=C2
REMARK SMILES IDX 27 1 26 2 24 3 25 4 23 6 5 7 6 8 16 9 7 10 15 11 17 12 14 13
REMARK SMILES IDX 81 14 18 15 4 16 3 17 2 18 1 19 8 20 9 21 10 22 11 23 12 24
REMARK SMILES IDX 13 25 19 26 20 27 21 28 22 29 28 30 29 31 30 32 31 33 32 35
REMARK SMILES IDX 33 36 34 37 80 38 35 39 79 40 36 41 37 42 38 43 73 44 39 45
REMARK SMILES IDX 78 46 72 47 74 48 40 49 77 50 71 51 70 52 41 54 63 55 48 56
REMARK SMILES IDX 62 57 49 58 52 59 61 60 75 61 50 62 51 63 60 65 76 66 53 67
REMARK SMILES IDX 42 68 43 69 47 70 44 71 46 72 45 73 64 74 65 75 69 76 66 77
REMARK SMILES IDX 68 78 67 79 54 80 55 81 59 82 56 83 58 84 57 85
REMARK H PARENT 26 5 30 34 74 53 52 64
REMARK Flexibility Score: inf
ROOT
ATOM      1  C   UNL A   1      34.526  23.949  25.723  1.00  0.00     0.118 C 
ENDROOT
BRANCH   1   2
ATOM      2  N   UNL A   1      33.603  23.145  26.537  1.00  0.00    -0.352 N 
ATOM      3  C   UNL A   1      32.221  23.602  26.745  1.00  0.00     0.251 C 
ATOM      4  O   UNL A   1      31.423  22.907  27.449  1.00  0.00    -0.270 OA
ATOM      5  H   UNL A   1      33.910  22.303  26.943  1.00  0.00     0.163 HD
BRANCH   3   6
ATOM      6  C   UNL A   1      31.748  24.903  26.120  1.00  0.00     0.067 C 
ATOM      7  C   UNL A   1      30.790  28.392  24.032  1.00  0.00    -0.004 A 
ATOM      8  C   UNL A   1      31.079  29.627  24.582  1.00  0.00     0.032 A 
ATOM      9  C   UNL A   1      31.164  27.261  24.715  1.00  0.00     0.131 A 
ATOM     10  C   UNL A   1      31.731  29.728  25.783  1.00  0.00     0.108 A 
ATOM     11  C   UNL A   1      31.806  27.324  25.939  1.00  0.00     0.019 A 
ATOM     12  O   UNL A   1      30.971  26.045  24.105  1.00  0.00    -0.475 OA
ATOM     13  C   UNL A   1      32.086  28.580  26.462  1.00  0.00     0.036 A 
ATOM     14  C   UNL A   1      32.195  26.071  26.564  1.00  0.00     0.025 C 
ATOM     15  C   UNL A   1      30.750  24.896  24.969  1.00  0.00     0.314 C 
BRANCH   7  16
ATOM     16  C   UNL A   1      30.071  28.288  22.696  1.00  0.00     0.039 C 
BRANCH  16  17
ATOM     17  C   UNL A   1      29.427  29.624  22.362  1.00  0.00     0.005 C 
BRANCH  17  18
ATOM     18  C   UNL A   1      27.960  29.591  22.762  1.00  0.00    -0.003 C 
ATOM     19  C   UNL A   1      27.587  30.905  23.428  1.00  0.00     0.004 C 
ENDBRANCH  17  18
ENDBRANCH  16  17
ENDBRANCH   7  16
BRANCH  10  20
ATOM     20  S   UNL A   1      32.121  31.355  26.474  1.00  0.00     0.310 S 
ATOM     21  F   UNL A   1      32.140  30.793  27.957  1.00  0.00    -0.094 F 
ATOM     22  F   UNL A   1      30.581  31.622  26.668  1.00  0.00    -0.094 F 
ATOM     23  F   UNL A   1      32.466  32.751  27.063  1.00  0.00    -0.094 F 
ATOM     24  F   UNL A   1      33.661  31.014  26.402  1.00  0.00    -0.094 F 
ATOM     25  F   UNL A   1      31.788  29.890  25.979  1.00  0.00    -0.094 F 
ENDBRANCH  10  20
BRANCH  15  26
ATOM     26  C   UNL A   1      30.934  23.623  24.160  1.00  0.00     0.429 C 
ATOM     27  F   UNL A   1      32.195  23.540  23.747  1.00  0.00    -0.167 F 
ATOM     28  F   UNL A   1      30.646  22.570  24.920  1.00  0.00    -0.167 F 
ATOM     29  F   UNL A   1      30.123  23.646  23.107  1.00  0.00    -0.167 F 
ENDBRANCH  15  26
ENDBRANCH   3   6
ENDBRANCH   1   2
BRANCH   1  30
ATOM     30  C   UNL A   1      35.930  23.845  26.298  1.00  0.00     0.042 C 
BRANCH  30  31
ATOM     31  C   UNL A   1      36.941  23.806  25.163  1.00  0.00     0.118 C 
BRANCH  31  32
ATOM     32  N   UNL A   1      37.823  22.642  25.332  1.00  0.00    -0.352 N 
ATOM     33  C   UNL A   1      39.066  22.770  26.105  1.00  0.00     0.251 C 
ATOM     34  H   UNL A   1      37.581  21.778  24.927  1.00  0.00     0.163 HD
ATOM     35  O   UNL A   1      39.829  21.763  26.251  1.00  0.00    -0.269 OA
BRANCH  33  36
ATOM     36  C   UNL A   1      39.441  24.104  26.730  1.00  0.00     0.039 A 
ATOM     37  C   UNL A   1      40.096  25.053  25.963  1.00  0.00     0.014 A 
ATOM     38  C   UNL A   1      39.131  24.338  28.000  1.00  0.00     0.014 A 
ATOM     39  C   UNL A   1      40.643  26.120  26.715  1.00  0.00     0.010 A 
ATOM     40  C   UNL A   1      39.588  25.469  28.634  1.00  0.00     0.010 A 
ATOM     41  C   UNL A   1      40.292  26.421  27.952  1.00  0.00    -0.014 A 
BRANCH  41  42
ATOM     42  C   UNL A   1      40.651  27.756  28.583  1.00  0.00     0.031 A 
ATOM     43  C   UNL A   1      39.653  28.728  28.673  1.00  0.00     0.074 A 
ATOM     44  C   UNL A   1      41.949  27.935  29.033  1.00  0.00     0.049 A 
ATOM     45  N   UNL A   1      39.748  29.944  29.214  1.00  0.00    -0.248 NA
ATOM     46  C   UNL A   1      38.284  28.554  28.166  1.00  0.00     0.031 C 
ATOM     47  C   UNL A   1      42.958  26.956  28.954  1.00  0.00     0.029 A 
ATOM     48  N   UNL A   1      42.492  29.054  29.621  1.00  0.00    -0.354 N 
ATOM     49  C   UNL A   1      38.577  30.580  29.128  1.00  0.00     0.074 A 
ATOM     50  C   UNL A   1      37.621  29.696  28.448  1.00  0.00     0.031 C 
ATOM     51  C   UNL A   1      44.097  27.482  29.476  1.00  0.00     0.029 A 
ATOM     52  C   UNL A   1      43.819  28.798  29.891  1.00  0.00     0.049 A 
ATOM     53  H   UNL A   1      42.016  29.894  29.815  1.00  0.00     0.167 HD
ATOM     54  C   UNL A   1      38.270  31.859  29.594  1.00  0.00     0.031 A 
ATOM     55  C   UNL A   1      44.748  29.651  30.463  1.00  0.00     0.031 A 
ATOM     56  C   UNL A   1      39.189  32.696  30.207  1.00  0.00     0.049 A 
ATOM     57  C   UNL A   1      44.456  30.953  30.876  1.00  0.00     0.074 A 
ATOM     58  C   UNL A   1      38.894  33.985  30.688  1.00  0.00     0.029 A 
ATOM     59  N   UNL A   1      40.521  32.448  30.454  1.00  0.00    -0.354 N 
ATOM     60  N   UNL A   1      43.275  31.572  30.826  1.00  0.00    -0.248 NA
ATOM     61  C   UNL A   1      45.441  31.876  31.454  1.00  0.00     0.031 C 
ATOM     62  C   UNL A   1      40.033  34.512  31.211  1.00  0.00     0.029 A 
ATOM     63  C   UNL A   1      41.060  33.560  31.063  1.00  0.00     0.049 A 
ATOM     64  H   UNL A   1      41.004  31.619  30.234  1.00  0.00     0.167 HD
ATOM     65  C   UNL A   1      43.382  32.804  31.330  1.00  0.00     0.074 A 
ATOM     66  C   UNL A   1      44.778  33.019  31.735  1.00  0.00     0.031 C 
ATOM     67  C   UNL A   1      42.370  33.754  31.473  1.00  0.00     0.031 A 
BRANCH  54  68
ATOM     68  C   UNL A   1      36.846  32.363  29.419  1.00  0.00    -0.014 A 
ATOM     69  C   UNL A   1      36.500  33.116  28.310  1.00  0.00     0.009 A 
ATOM     70  C   UNL A   1      35.966  32.106  30.379  1.00  0.00     0.009 A 
ATOM     71  C   UNL A   1      35.271  33.803  28.444  1.00  0.00     0.001 A 
ATOM     72  C   UNL A   1      34.731  32.708  30.374  1.00  0.00     0.001 A 
ATOM     73  C   UNL A   1      34.344  33.513  29.339  1.00  0.00     0.000 A 
ENDBRANCH  54  68
BRANCH  55  74
ATOM     74  C   UNL A   1      46.168  29.140  30.653  1.00  0.00    -0.014 A 
ATOM     75  C   UNL A   1      47.142  29.325  29.686  1.00  0.00     0.009 A 
ATOM     76  C   UNL A   1      46.442  28.525  31.797  1.00  0.00     0.009 A 
ATOM     77  C   UNL A   1      48.315  28.563  29.899  1.00  0.00     0.001 A 
ATOM     78  C   UNL A   1      47.658  27.917  31.990  1.00  0.00     0.001 A 
ATOM     79  C   UNL A   1      48.648  28.009  31.051  1.00  0.00     0.000 A 
ENDBRANCH  55  74
BRANCH  67  80
ATOM     80  C   UNL A   1      42.725  35.085  32.117  1.00  0.00    -0.014 A 
ATOM     81  C   UNL A   1      43.334  36.067  31.354  1.00  0.00     0.009 A 
ATOM     82  C   UNL A   1      42.444  35.283  33.399  1.00  0.00     0.009 A 
ATOM     83  C   UNL A   1      43.874  37.131  32.115  1.00  0.00     0.001 A 
ATOM     84  C   UNL A   1      42.889  36.412  34.046  1.00  0.00     0.001 A 
ATOM     85  C   UNL A   1      43.549  37.397  33.367  1.00  0.00     0.000 A 
ENDBRANCH  67  80
ENDBRANCH  41  42
ENDBRANCH  33  36
ENDBRANCH  31  32
ENDBRANCH  30  31
ENDBRANCH   1  30
TORSDOF 15
ENDMDL
MODEL 2
REMARK VINA RESULT:     -11.8      0.628      5.647
REMARK SMILES CCCCc1cc(S(F)(F)(F)(F)F)cc2c1O[C@@H](C(F)(F)F)C(C(=O)NCCCNC(=O)c1ccc(-c3c4nc(c(-c5ccccc5)c5ccc([nH]5)c(-c5ccccc5)c5nc(c(-c6ccccc6)c6ccc3[nH]6)C=C5)C=C4)cc1)=C2
REMARK SMILES IDX 27 1 26 2 24 3 25 4 23 6 5 7 6 8 16 9 7 10 15 11 17 12 14 13
REMARK SMILES IDX 81 14 18 15 4 16 3 17 2 18 1 19 8 20 9 21 10 22 11 23 12 24
REMARK SMILES IDX 13 25 19 26 20 27 21 28 22 29 28 30 29 31 30 32 31 33 32 35
REMARK SMILES IDX 33 36 34 37 80 38 35 39 79 40 36 41 37 42 38 43 73 44 39 45
REMARK SMILES IDX 78 46 72 47 74 48 40 49 77 50 71 51 70 52 41 54 63 55 48 56
REMARK SMILES IDX 62 57 49 58 52 59 61 60 75 61 50 62 51 63 60 65 76 66 53 67
REMARK SMILES IDX 42 68 43 69 47 70 44 71 46 72 45 73 64 74 65 75 69 76 66 77
REMARK SMILES IDX 68 78 67 79 54 80 55 81 59 82 56 83 58 84 57 85
REMARK H PARENT 26 5 30 34 74 53 52 64
REMARK Flexibility Score: inf
ROOT
ATOM      1  C   UNL A   1      34.189  23.877  26.067  1.00  0.00     0.118 C 
ENDROOT
BRANCH   1   2
ATOM      2  N   UNL A   1      33.149  23.185  26.841  1.00  0.00    -0.352 N 
ATOM      3  C   UNL A   1      31.789  23.740  26.903  1.00  0.00     0.251 C 
ATOM      4  O   UNL A   1      30.889  23.142  27.573  1.00  0.00    -0.270 OA
ATOM      5  H   UNL A   1      33.362  22.352  27.320  1.00  0.00     0.163 HD
BRANCH   3   6
ATOM      6  C   UNL A   1      31.458  25.027  26.166  1.00  0.00     0.067 C 
ATOM      7  C   UNL A   1      30.951  28.459  23.837  1.00  0.00    -0.004 A 
ATOM      8  C   UNL A   1      31.169  29.707  24.391  1.00  0.00     0.032 A 
ATOM      9  C   UNL A   1      31.177  27.345  24.610  1.00  0.00     0.131 A 
ATOM     10  C   UNL A   1      31.607  29.838  25.683  1.00  0.00     0.108 A 
ATOM     11  C   UNL A   1      31.601  27.439  25.923  1.00  0.00     0.019 A 
ATOM     12  O   UNL A   1      31.064  26.113  24.013  1.00  0.00    -0.475 OA
ATOM     13  C   UNL A   1      31.815  28.708  26.448  1.00  0.00     0.036 A 
ATOM     14  C   UNL A   1      31.849  26.202  26.645  1.00  0.00     0.025 C 
ATOM     15  C   UNL A   1      30.673  24.998  24.861  1.00  0.00     0.314 C 
BRANCH   7  16
ATOM     16  C   UNL A   1      30.470  28.321  22.402  1.00  0.00     0.039 C 
BRANCH  16  17
ATOM     17  C   UNL A   1      29.651  29.544  22.022  1.00  0.00     0.005 C 
BRANCH  17  18
ATOM     18  C   UNL A   1      28.206  29.336  22.447  1.00  0.00    -0.003 C 
ATOM     19  C   UNL A   1      27.676  30.609  23.086  1.00  0.00     0.004 C 
ENDBRANCH  17  18
ENDBRANCH  16  17
ENDBRANCH   7  16
BRANCH  10  20
ATOM     20  S   UNL A   1      31.910  31.480  26.381  1.00  0.00     0.310 S 
ATOM     21  F   UNL A   1      31.052  31.160  27.675  1.00  0.00    -0.094 F 
ATOM     22  F   UNL A   1      30.579  31.990  25.709  1.00  0.00    -0.094 F 
ATOM     23  F   UNL A   1      32.179  32.888  26.982  1.00  0.00    -0.094 F 
ATOM     24  F   UNL A   1      33.162  30.917  27.159  1.00  0.00    -0.094 F 
ATOM     25  F   UNL A   1      31.588  30.018  25.870  1.00  0.00    -0.094 F 
ENDBRANCH  10  20
BRANCH  15  26
ATOM     26  C   UNL A   1      30.965  23.695  24.135  1.00  0.00     0.429 C 
ATOM     27  F   UNL A   1      32.256  23.643  23.821  1.00  0.00    -0.167 F 
ATOM     28  F   UNL A   1      30.659  22.669  24.925  1.00  0.00    -0.167 F 
ATOM     29  F   UNL A   1      30.236  23.633  23.025  1.00  0.00    -0.167 F 
ENDBRANCH  15  26
ENDBRANCH   3   6
ENDBRANCH   1   2
BRANCH   1  30
ATOM     30  C   UNL A   1      35.560  23.435  26.553  1.00  0.00     0.042 C 
BRANCH  30  31
ATOM     31  C   UNL A   1      36.622  23.906  25.571  1.00  0.00     0.118 C 
BRANCH  31  32
ATOM     32  N   UNL A   1      37.623  22.846  25.387  1.00  0.00    -0.352 N 
ATOM     33  C   UNL A   1      38.977  23.011  25.934  1.00  0.00     0.251 C 
ATOM     34  H   UNL A   1      37.387  22.026  24.896  1.00  0.00     0.163 HD
ATOM     35  O   UNL A   1      39.843  22.094  25.775  1.00  0.00    -0.269 OA
BRANCH  33  36
ATOM     36  C   UNL A   1      39.342  24.278  26.691  1.00  0.00     0.039 A 
ATOM     37  C   UNL A   1      40.071  25.267  26.051  1.00  0.00     0.014 A 
ATOM     38  C   UNL A   1      38.954  24.417  27.954  1.00  0.00     0.014 A 
ATOM     39  C   UNL A   1      40.593  26.250  26.923  1.00  0.00     0.010 A 
ATOM     40  C   UNL A   1      39.395  25.477  28.708  1.00  0.00     0.010 A 
ATOM     41  C   UNL A   1      40.167  26.461  28.156  1.00  0.00    -0.014 A 
BRANCH  41  42
ATOM     42  C   UNL A   1      40.517  27.727  28.918  1.00  0.00     0.031 A 
ATOM     43  C   UNL A   1      41.768  27.797  29.535  1.00  0.00     0.074 A 
ATOM     44  C   UNL A   1      39.576  28.742  28.961  1.00  0.00     0.049 A 
ATOM     45  N   UNL A   1      42.281  28.819  30.222  1.00  0.00    -0.248 NA
ATOM     46  C   UNL A   1      42.755  26.708  29.520  1.00  0.00     0.031 C 
ATOM     47  C   UNL A   1      38.316  28.683  28.334  1.00  0.00     0.029 A 
ATOM     48  N   UNL A   1      39.673  29.959  29.597  1.00  0.00    -0.354 N 
ATOM     49  C   UNL A   1      43.511  28.519  30.645  1.00  0.00     0.074 A 
ATOM     50  C   UNL A   1      43.831  27.155  30.204  1.00  0.00     0.031 C 
ATOM     51  C   UNL A   1      37.659  29.843  28.598  1.00  0.00     0.029 A 
ATOM     52  C   UNL A   1      38.497  30.647  29.393  1.00  0.00     0.049 A 
ATOM     53  H   UNL A   1      40.450  30.282  30.109  1.00  0.00     0.167 HD
ATOM     54  C   UNL A   1      44.377  29.331  31.378  1.00  0.00     0.031 A 
ATOM     55  C   UNL A   1      38.156  31.903  29.868  1.00  0.00     0.031 A 
ATOM     56  C   UNL A   1      44.052  30.605  31.815  1.00  0.00     0.049 A 
ATOM     57  C   UNL A   1      39.001  32.692  30.651  1.00  0.00     0.074 A 
ATOM     58  C   UNL A   1      44.917  31.440  32.549  1.00  0.00     0.029 A 
ATOM     59  N   UNL A   1      42.867  31.283  31.633  1.00  0.00    -0.354 N 
ATOM     60  N   UNL A   1      40.245  32.408  31.040  1.00  0.00    -0.248 NA
ATOM     61  C   UNL A   1      38.637  34.011  31.187  1.00  0.00     0.031 C 
ATOM     62  C   UNL A   1      44.260  32.600  32.813  1.00  0.00     0.029 A 
ATOM     63  C   UNL A   1      42.973  32.510  32.250  1.00  0.00     0.049 A 
ATOM     64  H   UNL A   1      42.080  30.947  31.145  1.00  0.00     0.167 HD
ATOM     65  C   UNL A   1      40.742  33.414  31.762  1.00  0.00     0.074 A 
ATOM     66  C   UNL A   1      39.712  34.458  31.872  1.00  0.00     0.031 C 
ATOM     67  C   UNL A   1      42.014  33.508  32.329  1.00  0.00     0.031 A 
BRANCH  54  68
ATOM     68  C   UNL A   1      45.756  28.787  31.716  1.00  0.00    -0.014 A 
ATOM     69  C   UNL A   1      46.814  28.966  30.839  1.00  0.00     0.009 A 
ATOM     70  C   UNL A   1      45.902  28.097  32.840  1.00  0.00     0.009 A 
ATOM     71  C   UNL A   1      47.922  28.126  31.100  1.00  0.00     0.001 A 
ATOM     72  C   UNL A   1      47.065  27.411  33.093  1.00  0.00     0.001 A 
ATOM     73  C   UNL A   1      48.131  27.493  32.240  1.00  0.00     0.000 A 
ENDBRANCH  54  68
BRANCH  55  74
ATOM     74  C   UNL A   1      36.783  32.453  29.516  1.00  0.00    -0.014 A 
ATOM     75  C   UNL A   1      36.560  33.151  28.340  1.00  0.00     0.009 A 
ATOM     76  C   UNL A   1      35.798  32.220  30.376  1.00  0.00     0.009 A 
ATOM     77  C   UNL A   1      35.313  33.818  28.297  1.00  0.00     0.001 A 
ATOM     78  C   UNL A   1      34.564  32.796  30.198  1.00  0.00     0.001 A 
ATOM     79  C   UNL A   1      34.292  33.547  29.088  1.00  0.00     0.000 A 
ENDBRANCH  55  74
BRANCH  67  80
ATOM     80  C   UNL A   1      42.370  34.780  33.081  1.00  0.00    -0.014 A 
ATOM     81  C   UNL A   1      41.936  34.941  34.387  1.00  0.00     0.009 A 
ATOM     82  C   UNL A   1      43.091  35.715  32.474  1.00  0.00     0.009 A 
ATOM     83  C   UNL A   1      42.072  36.262  34.877  1.00  0.00     0.001 A 
ATOM     84  C   UNL A   1      43.298  36.935  33.071  1.00  0.00     0.001 A 
ATOM     85  C   UNL A   1      42.847  37.185  34.337  1.00  0.00     0.000 A 
ENDBRANCH  67  80
ENDBRANCH  41  42
ENDBRANCH  33  36
ENDBRANCH  31  32
ENDBRANCH  30  31
ENDBRANCH   1  30
TORSDOF 15
ENDMDL
MODEL 3
REMARK VINA RESULT:     -11.5      3.097      7.853
REMARK SMILES CCCCc1cc(S(F)(F)(F)(F)F)cc2c1O[C@@H](C(F)(F)F)C(C(=O)NCCCNC(=O)c1ccc(-c3c4nc(c(-c5ccccc5)c5ccc([nH]5)c(-c5ccccc5)c5nc(c(-c6ccccc6)c6ccc3[nH]6)C=C5)C=C4)cc1)=C2
REMARK SMILES IDX 27 1 26 2 24 3 25 4 23 6 5 7 6 8 16 9 7 10 15 11 17 12 14 13
REMARK SMILES IDX 81 14 18 15 4 16 3 17 2 18 1 19 8 20 9 21 10 22 11 23 12 24
REMARK SMILES IDX 13 25 19 26 20 27 21 28 22 29 28 30 29 31 30 32 31 33 32 35
REMARK SMILES IDX 33 36 34 37 80 38 35 39 79 40 36 41 37 42 38 43 73 44 39 45
REMARK SMILES IDX 78 46 72 47 74 48 40 49 77 50 71 51 70 52 41 54 63 55 48 56
REMARK SMILES IDX 62 57 49 58 52 59 61 60 75 61 50 62 51 63 60 65 76 66 53 67
REMARK SMILES IDX 42 68 43 69 47 70 44 71 46 72 45 73 64 74 65 75 69 76 66 77
REMARK SMILES IDX 68 78 67 79 54 80 55 81 59 82 56 83 58 84 57 85
REMARK H PARENT 26 5 30 34 74 53 52 64
REMARK Flexibility Score: inf
ROOT
ATOM      1  C   UNL A   1      32.791  29.281  25.236  1.00  0.00     0.118 C 
ENDROOT
BRANCH   1   2
ATOM      2  N   UNL A   1      31.859  28.855  26.290  1.00  0.00    -0.352 N 
ATOM      3  C   UNL A   1      31.588  27.425  26.496  1.00  0.00     0.251 C 
ATOM      4  O   UNL A   1      30.781  27.057  27.407  1.00  0.00    -0.270 OA
ATOM      5  H   UNL A   1      31.416  29.527  26.857  1.00  0.00     0.163 HD
BRANCH   3   6
ATOM      6  C   UNL A   1      32.270  26.388  25.620  1.00  0.00     0.067 C 
ATOM      7  C   UNL A   1      33.799  23.202  23.390  1.00  0.00    -0.004 A 
ATOM      8  C   UNL A   1      35.053  22.697  23.680  1.00  0.00     0.032 A 
ATOM      9  C   UNL A   1      33.298  24.214  24.173  1.00  0.00     0.131 A 
ATOM     10  C   UNL A   1      35.785  23.187  24.728  1.00  0.00     0.108 A 
ATOM     11  C   UNL A   1      34.017  24.747  25.228  1.00  0.00     0.019 A 
ATOM     12  O   UNL A   1      32.009  24.629  23.945  1.00  0.00    -0.475 OA
ATOM     13  C   UNL A   1      35.272  24.213  25.495  1.00  0.00     0.036 A 
ATOM     14  C   UNL A   1      33.384  25.788  26.021  1.00  0.00     0.025 C 
ATOM     15  C   UNL A   1      31.690  26.012  24.262  1.00  0.00     0.314 C 
BRANCH   7  16
ATOM     16  C   UNL A   1      32.989  22.649  22.228  1.00  0.00     0.039 C 
BRANCH  16  17
ATOM     17  C   UNL A   1      31.867  21.774  22.763  1.00  0.00     0.005 C 
BRANCH  17  18
ATOM     18  C   UNL A   1      32.239  20.311  22.586  1.00  0.00    -0.003 C 
ATOM     19  C   UNL A   1      32.614  19.716  23.934  1.00  0.00     0.004 C 
ENDBRANCH  17  18
ENDBRANCH  16  17
ENDBRANCH   7  16
BRANCH  10  20
ATOM     20  S   UNL A   1      37.415  22.494  25.105  1.00  0.00     0.310 S 
ATOM     21  F   UNL A   1      36.797  21.397  26.068  1.00  0.00    -0.094 F 
ATOM     22  F   UNL A   1      37.508  23.443  26.359  1.00  0.00    -0.094 F 
ATOM     23  F   UNL A   1      38.814  21.896  25.419  1.00  0.00    -0.094 F 
ATOM     24  F   UNL A   1      37.243  21.455  23.929  1.00  0.00    -0.094 F 
ATOM     25  F   UNL A   1      35.944  23.015  24.841  1.00  0.00    -0.094 F 
ENDBRANCH  10  20
BRANCH  15  26
ATOM     26  C   UNL A   1      30.179  26.176  24.306  1.00  0.00     0.429 C 
ATOM     27  F   UNL A   1      29.706  25.632  25.424  1.00  0.00    -0.167 F 
ATOM     28  F   UNL A   1      29.873  27.470  24.279  1.00  0.00    -0.167 F 
ATOM     29  F   UNL A   1      29.637  25.570  23.254  1.00  0.00    -0.167 F 
ENDBRANCH  15  26
ENDBRANCH   3   6
ENDBRANCH   1   2
BRANCH   1  30
ATOM     30  C   UNL A   1      34.201  29.348  25.803  1.00  0.00     0.042 C 
BRANCH  30  31
ATOM     31  C   UNL A   1      34.148  29.173  27.312  1.00  0.00     0.118 C 
BRANCH  31  32
ATOM     32  N   UNL A   1      33.759  30.444  27.940  1.00  0.00    -0.352 N 
ATOM     33  C   UNL A   1      34.741  31.207  28.722  1.00  0.00     0.251 C 
ATOM     34  H   UNL A   1      32.840  30.782  27.837  1.00  0.00     0.163 HD
ATOM     35  O   UNL A   1      34.405  32.306  29.265  1.00  0.00    -0.269 OA
BRANCH  33  36
ATOM     36  C   UNL A   1      36.160  30.684  28.882  1.00  0.00     0.039 A 
ATOM     37  C   UNL A   1      37.067  30.851  27.848  1.00  0.00     0.014 A 
ATOM     38  C   UNL A   1      36.506  30.077  30.012  1.00  0.00     0.014 A 
ATOM     39  C   UNL A   1      38.246  30.082  27.990  1.00  0.00     0.010 A 
ATOM     40  C   UNL A   1      37.729  29.462  30.128  1.00  0.00     0.010 A 
ATOM     41  C   UNL A   1      38.652  29.537  29.122  1.00  0.00    -0.014 A 
BRANCH  41  42
ATOM     42  C   UNL A   1      40.070  29.020  29.298  1.00  0.00     0.031 A 
ATOM     43  C   UNL A   1      40.351  27.719  28.872  1.00  0.00     0.074 A 
ATOM     44  C   UNL A   1      41.005  29.865  29.871  1.00  0.00     0.049 A 
ATOM     45  N   UNL A   1      41.527  27.088  28.906  1.00  0.00    -0.248 NA
ATOM     46  C   UNL A   1      39.353  26.808  28.295  1.00  0.00     0.031 C 
ATOM     47  C   UNL A   1      40.731  31.180  30.294  1.00  0.00     0.029 A 
ATOM     48  N   UNL A   1      42.332  29.605  30.134  1.00  0.00    -0.354 N 
ATOM     49  C   UNL A   1      41.405  25.861  28.395  1.00  0.00     0.074 A 
ATOM     50  C   UNL A   1      40.005  25.662  27.999  1.00  0.00     0.031 C 
ATOM     51  C   UNL A   1      41.874  31.701  30.815  1.00  0.00     0.029 A 
ATOM     52  C   UNL A   1      42.880  30.721  30.726  1.00  0.00     0.049 A 
ATOM     53  H   UNL A   1      42.806  28.766  29.934  1.00  0.00     0.167 HD
ATOM     54  C   UNL A   1      42.409  24.904  28.240  1.00  0.00     0.031 A 
ATOM     55  C   UNL A   1      44.180  30.893  31.172  1.00  0.00     0.031 A 
ATOM     56  C   UNL A   1      43.720  25.092  28.645  1.00  0.00     0.049 A 
ATOM     57  C   UNL A   1      45.171  29.913  31.070  1.00  0.00     0.074 A 
ATOM     58  C   UNL A   1      44.746  24.139  28.490  1.00  0.00     0.029 A 
ATOM     59  N   UNL A   1      44.263  26.199  29.260  1.00  0.00    -0.354 N 
ATOM     60  N   UNL A   1      45.059  28.702  30.522  1.00  0.00    -0.248 NA
ATOM     61  C   UNL A   1      46.543  30.072  31.568  1.00  0.00     0.031 C 
ATOM     62  C   UNL A   1      45.888  24.660  29.011  1.00  0.00     0.029 A 
ATOM     63  C   UNL A   1      45.595  25.947  29.502  1.00  0.00     0.049 A 
ATOM     64  H   UNL A   1      43.781  27.027  29.486  1.00  0.00     0.167 HD
ATOM     65  C   UNL A   1      46.224  28.055  30.594  1.00  0.00     0.074 A 
ATOM     66  C   UNL A   1      47.195  28.926  31.274  1.00  0.00     0.031 C 
ATOM     67  C   UNL A   1      46.520  26.778  30.116  1.00  0.00     0.031 A 
BRANCH  54  68
ATOM     68  C   UNL A   1      42.042  23.580  27.590  1.00  0.00    -0.014 A 
ATOM     69  C   UNL A   1      41.511  22.549  28.348  1.00  0.00     0.009 A 
ATOM     70  C   UNL A   1      42.293  23.424  26.295  1.00  0.00     0.009 A 
ATOM     71  C   UNL A   1      41.547  21.289  27.708  1.00  0.00     0.001 A 
ATOM     72  C   UNL A   1      42.176  22.189  25.705  1.00  0.00     0.001 A 
ATOM     73  C   UNL A   1      41.714  21.112  26.409  1.00  0.00     0.000 A 
ENDBRANCH  54  68
BRANCH  55  74
ATOM     74  C   UNL A   1      44.551  32.224  31.806  1.00  0.00    -0.014 A 
ATOM     75  C   UNL A   1      44.420  32.440  33.168  1.00  0.00     0.009 A 
ATOM     76  C   UNL A   1      45.025  33.167  31.001  1.00  0.00     0.009 A 
ATOM     77  C   UNL A   1      44.548  33.797  33.548  1.00  0.00     0.001 A 
ATOM     78  C   UNL A   1      45.255  34.437  31.472  1.00  0.00     0.001 A 
ATOM     79  C   UNL A   1      45.090  34.737  32.795  1.00  0.00     0.000 A 
ENDBRANCH  55  74
BRANCH  67  80
ATOM     80  C   UNL A   1      47.941  26.265  30.279  1.00  0.00    -0.014 A 
ATOM     81  C   UNL A   1      48.812  26.324  29.204  1.00  0.00     0.009 A 
ATOM     82  C   UNL A   1      48.324  25.769  31.450  1.00  0.00     0.009 A 
ATOM     83  C   UNL A   1      49.993  25.564  29.381  1.00  0.00     0.001 A 
ATOM     84  C   UNL A   1      49.549  25.159  31.584  1.00  0.00     0.001 A 
ATOM     85  C   UNL A   1      50.437  25.129  30.546  1.00  0.00     0.000 A 
ENDBRANCH  67  80
ENDBRANCH  41  42
ENDBRANCH  33  36
ENDBRANCH  31  32
ENDBRANCH  30  31
ENDBRANCH   1  30
TORSDOF 15
ENDMDL
