MODEL 1
REMARK VINA RESULT:     -12.5      0.000      0.000
REMARK SMILES O=C(NCCCNC(=O)[C@]12C[NH2+]C[C@H]1CN(C(=O)c1ccccc1-n1cncn1)C2)c1ccc(-c2c3nc(c(-c4ccccc4)c4ccc([nH]4)c(-c4ccccc4)c4nc(c(-c5ccccc5)c5ccc2[nH]5)C=C4)C=C3)cc1
REMARK SMILES IDX 5 1 4 2 3 3 1 4 2 5 31 7 32 8 78 9 33 10 77 11 34 12 35 13
REMARK SMILES IDX 36 14 71 15 37 16 76 17 70 18 72 19 38 20 75 21 69 22 68 23
REMARK SMILES IDX 39 25 61 26 46 27 60 28 47 29 50 30 59 31 73 32 48 33 49 34
REMARK SMILES IDX 58 36 74 37 51 38 40 39 41 40 45 41 42 42 44 43 43 44 62 45
REMARK SMILES IDX 63 46 67 47 64 48 66 49 65 50 52 51 53 52 57 53 54 54 56 55
REMARK SMILES IDX 55 56 6 57 7 58 8 59 9 61 10 62 11 63 14 64 30 65 12 66
REMARK SMILES IDX 13 67 15 68 16 69 17 72 18 73 19 74 20 75 24 76 21 77 23 78
REMARK SMILES IDX 22 79 25 80 26 81 29 82 27 83 28 84
REMARK H PARENT 3 6 72 24 50 35 7 60 12 70 12 71
REMARK Flexibility Score: inf
ROOT
ATOM      1  C   UNL A   1      32.411  29.215  27.241  1.00  0.00     0.042 C 
ENDROOT
BRANCH   1   2
ATOM      2  C   UNL A   1      33.732  29.959  27.037  1.00  0.00     0.118 C 
BRANCH   2   3
ATOM      3  N   UNL A   1      34.051  30.991  28.008  1.00  0.00    -0.352 N 
ATOM      4  O   UNL A   1      35.162  32.512  29.182  1.00  0.00    -0.269 OA
ATOM      5  C   UNL A   1      35.213  31.436  28.577  1.00  0.00     0.251 C 
ATOM      6  H   UNL A   1      33.256  31.477  28.327  1.00  0.00     0.163 HD
BRANCH   5   7
ATOM      7  C   UNL A   1      36.479  30.660  28.613  1.00  0.00     0.039 A 
ATOM      8  C   UNL A   1      36.583  29.281  28.442  1.00  0.00     0.014 A 
ATOM      9  C   UNL A   1      37.638  31.388  28.932  1.00  0.00     0.014 A 
ATOM     10  C   UNL A   1      37.760  28.616  28.758  1.00  0.00     0.010 A 
ATOM     11  C   UNL A   1      38.832  30.737  29.206  1.00  0.00     0.010 A 
ATOM     12  C   UNL A   1      38.874  29.343  29.171  1.00  0.00    -0.014 A 
BRANCH  12  13
ATOM     13  C   UNL A   1      40.123  28.622  29.400  1.00  0.00     0.031 A 
ATOM     14  C   UNL A   1      40.554  28.505  30.829  1.00  0.00     0.074 A 
ATOM     15  C   UNL A   1      40.721  27.908  28.427  1.00  0.00     0.049 A 
ATOM     16  N   UNL A   1      41.732  28.664  31.347  1.00  0.00    -0.248 NA
ATOM     17  C   UNL A   1      39.503  28.205  31.820  1.00  0.00     0.031 C 
ATOM     18  C   UNL A   1      40.228  27.670  27.067  1.00  0.00     0.029 A 
ATOM     19  N   UNL A   1      41.814  27.100  28.513  1.00  0.00    -0.354 N 
ATOM     20  C   UNL A   1      41.604  28.346  32.700  1.00  0.00     0.074 A 
ATOM     21  C   UNL A   1      40.199  28.157  32.952  1.00  0.00     0.031 C 
ATOM     22  C   UNL A   1      40.857  26.588  26.559  1.00  0.00     0.029 A 
ATOM     23  C   UNL A   1      41.865  26.146  27.507  1.00  0.00     0.049 A 
ATOM     24  H   UNL A   1      42.498  27.184  29.216  1.00  0.00     0.167 HD
ATOM     25  C   UNL A   1      42.660  28.083  33.515  1.00  0.00     0.031 A 
ATOM     26  C   UNL A   1      42.599  25.008  27.506  1.00  0.00     0.031 A 
ATOM     27  C   UNL A   1      43.900  28.595  33.013  1.00  0.00     0.049 A 
ATOM     28  C   UNL A   1      43.655  25.133  28.535  1.00  0.00     0.074 A 
ATOM     29  C   UNL A   1      44.395  29.852  32.730  1.00  0.00     0.029 A 
ATOM     30  N   UNL A   1      44.779  27.714  32.436  1.00  0.00    -0.354 N 
ATOM     31  N   UNL A   1      44.651  25.967  28.454  1.00  0.00    -0.248 NA
ATOM     32  C   UNL A   1      43.397  24.597  29.862  1.00  0.00     0.031 C 
ATOM     33  C   UNL A   1      45.244  29.667  31.600  1.00  0.00     0.029 A 
ATOM     34  C   UNL A   1      45.218  28.308  31.283  1.00  0.00     0.049 A 
ATOM     35  H   UNL A   1      45.041  26.830  32.783  1.00  0.00     0.167 HD
ATOM     36  C   UNL A   1      44.882  26.374  29.759  1.00  0.00     0.074 A 
ATOM     37  C   UNL A   1      44.163  25.413  30.589  1.00  0.00     0.031 C 
ATOM     38  C   UNL A   1      45.401  27.609  30.032  1.00  0.00     0.031 A 
BRANCH  25  39
ATOM     39  C   UNL A   1      42.604  27.064  34.624  1.00  0.00    -0.014 A 
ATOM     40  C   UNL A   1      42.765  25.701  34.322  1.00  0.00     0.009 A 
ATOM     41  C   UNL A   1      42.125  27.379  35.911  1.00  0.00     0.009 A 
ATOM     42  C   UNL A   1      42.422  24.706  35.247  1.00  0.00     0.001 A 
ATOM     43  C   UNL A   1      41.821  26.391  36.850  1.00  0.00     0.001 A 
ATOM     44  C   UNL A   1      41.947  25.053  36.509  1.00  0.00     0.000 A 
ENDBRANCH  25  39
BRANCH  26  45
ATOM     45  C   UNL A   1      42.229  23.715  26.893  1.00  0.00    -0.014 A 
ATOM     46  C   UNL A   1      43.164  22.957  26.176  1.00  0.00     0.009 A 
ATOM     47  C   UNL A   1      40.995  23.110  27.207  1.00  0.00     0.009 A 
ATOM     48  C   UNL A   1      42.876  21.637  25.797  1.00  0.00     0.001 A 
ATOM     49  C   UNL A   1      40.705  21.799  26.824  1.00  0.00     0.001 A 
ATOM     50  C   UNL A   1      41.651  21.059  26.126  1.00  0.00     0.000 A 
ENDBRANCH  26  45
BRANCH  38  51
ATOM     51  C   UNL A   1      45.893  28.437  28.871  1.00  0.00    -0.014 A 
ATOM     52  C   UNL A   1      47.243  28.439  28.478  1.00  0.00     0.009 A 
ATOM     53  C   UNL A   1      44.961  29.088  28.052  1.00  0.00     0.009 A 
ATOM     54  C   UNL A   1      47.654  29.101  27.318  1.00  0.00     0.001 A 
ATOM     55  C   UNL A   1      45.369  29.733  26.881  1.00  0.00     0.001 A 
ATOM     56  C   UNL A   1      46.714  29.743  26.517  1.00  0.00     0.000 A 
ENDBRANCH  38  51
ENDBRANCH  12  13
ENDBRANCH   5   7
ENDBRANCH   2   3
ENDBRANCH   1   2
BRANCH   1  57
ATOM     57  C   UNL A   1      32.372  27.816  26.668  1.00  0.00     0.117 C 
BRANCH  57  58
ATOM     58  N   UNL A   1      31.083  27.437  26.135  1.00  0.00    -0.355 N 
ATOM     59  C   UNL A   1      30.883  26.795  24.937  1.00  0.00     0.234 C 
ATOM     60  H   UNL A   1      30.287  27.658  26.670  1.00  0.00     0.163 HD
ATOM     61  O   UNL A   1      29.879  26.089  24.831  1.00  0.00    -0.274 OA
BRANCH  59  62
ATOM     62  C   UNL A   1      31.978  26.977  23.862  1.00  0.00     0.125 C 
ATOM     63  C   UNL A   1      31.494  28.498  23.716  1.00  0.00     0.280 C 
ATOM     64  C   UNL A   1      32.731  27.190  22.514  1.00  0.00     0.087 C 
ATOM     65  C   UNL A   1      31.471  25.565  23.260  1.00  0.00     0.143 C 
ATOM     66  N   UNL A   1      32.661  29.331  23.344  1.00  0.00    -0.345 N 
ATOM     67  C   UNL A   1      33.538  28.457  22.592  1.00  0.00     0.267 C 
ATOM     68  C   UNL A   1      33.573  25.959  22.275  1.00  0.00     0.130 C 
ATOM     69  N   UNL A   1      32.711  24.926  22.781  1.00  0.00    -0.337 N 
ATOM     70  H   UNL A   1      33.132  29.675  24.181  1.00  0.00     0.346 HD
ATOM     71  H   UNL A   1      32.384  30.148  22.800  1.00  0.00     0.346 HD
BRANCH  69  72
ATOM     72  C   UNL A   1      33.228  23.652  22.955  1.00  0.00     0.256 C 
ATOM     73  O   UNL A   1      32.899  22.708  22.239  1.00  0.00    -0.269 OA
BRANCH  72  74
ATOM     74  C   UNL A   1      34.262  23.387  23.982  1.00  0.00     0.065 A 
ATOM     75  C   UNL A   1      35.575  23.243  23.498  1.00  0.00     0.016 A 
ATOM     76  C   UNL A   1      34.030  23.331  25.362  1.00  0.00     0.079 A 
ATOM     77  C   UNL A   1      36.642  23.113  24.384  1.00  0.00     0.001 A 
ATOM     78  C   UNL A   1      35.122  23.285  26.248  1.00  0.00     0.029 A 
ATOM     79  C   UNL A   1      36.422  23.170  25.757  1.00  0.00     0.002 A 
BRANCH  76  80
ATOM     80  N   UNL A   1      32.727  23.295  25.901  1.00  0.00    -0.220 N 
ATOM     81  C   UNL A   1      32.163  24.084  26.874  1.00  0.00     0.225 A 
ATOM     82  N   UNL A   1      31.820  22.375  25.493  1.00  0.00    -0.155 NA
ATOM     83  N   UNL A   1      30.976  23.627  27.201  1.00  0.00    -0.223 NA
ATOM     84  C   UNL A   1      30.817  22.578  26.346  1.00  0.00     0.246 A 
ENDBRANCH  76  80
ENDBRANCH  72  74
ENDBRANCH  69  72
ENDBRANCH  59  62
ENDBRANCH  57  58
ENDBRANCH   1  57
TORSDOF 13
ENDMDL
MODEL 2
REMARK VINA RESULT:     -12.5      1.310      1.759
REMARK SMILES O=C(NCCCNC(=O)[C@]12C[NH2+]C[C@H]1CN(C(=O)c1ccccc1-n1cncn1)C2)c1ccc(-c2c3nc(c(-c4ccccc4)c4ccc([nH]4)c(-c4ccccc4)c4nc(c(-c5ccccc5)c5ccc2[nH]5)C=C4)C=C3)cc1
REMARK SMILES IDX 5 1 4 2 3 3 1 4 2 5 31 7 32 8 78 9 33 10 77 11 34 12 35 13
REMARK SMILES IDX 36 14 71 15 37 16 76 17 70 18 72 19 38 20 75 21 69 22 68 23
REMARK SMILES IDX 39 25 61 26 46 27 60 28 47 29 50 30 59 31 73 32 48 33 49 34
REMARK SMILES IDX 58 36 74 37 51 38 40 39 41 40 45 41 42 42 44 43 43 44 62 45
REMARK SMILES IDX 63 46 67 47 64 48 66 49 65 50 52 51 53 52 57 53 54 54 56 55
REMARK SMILES IDX 55 56 6 57 7 58 8 59 9 61 10 62 11 63 14 64 30 65 12 66
REMARK SMILES IDX 13 67 15 68 16 69 17 72 18 73 19 74 20 75 24 76 21 77 23 78
REMARK SMILES IDX 22 79 25 80 26 81 29 82 27 83 28 84
REMARK H PARENT 3 6 72 24 50 35 7 60 12 70 12 71
REMARK Flexibility Score: inf
ROOT
ATOM      1  C   UNL A   1      33.254  28.712  27.251  1.00  0.00     0.042 C 
ENDROOT
BRANCH   1   2
ATOM      2  C   UNL A   1      34.400  29.722  27.179  1.00  0.00     0.118 C 
BRANCH   2   3
ATOM      3  N   UNL A   1      34.407  30.767  28.188  1.00  0.00    -0.352 N 
ATOM      4  O   UNL A   1      35.094  32.375  29.555  1.00  0.00    -0.269 OA
ATOM      5  C   UNL A   1      35.377  31.320  28.979  1.00  0.00     0.251 C 
ATOM      6  H   UNL A   1      33.519  31.164  28.335  1.00  0.00     0.163 HD
BRANCH   5   7
ATOM      7  C   UNL A   1      36.682  30.677  29.277  1.00  0.00     0.039 A 
ATOM      8  C   UNL A   1      37.932  31.261  29.077  1.00  0.00     0.014 A 
ATOM      9  C   UNL A   1      36.625  29.342  29.714  1.00  0.00     0.014 A 
ATOM     10  C   UNL A   1      39.088  30.492  29.129  1.00  0.00     0.010 A 
ATOM     11  C   UNL A   1      37.778  28.578  29.813  1.00  0.00     0.010 A 
ATOM     12  C   UNL A   1      39.006  29.144  29.465  1.00  0.00    -0.014 A 
BRANCH  12  13
ATOM     13  C   UNL A   1      40.248  28.390  29.606  1.00  0.00     0.031 A 
ATOM     14  C   UNL A   1      40.807  28.309  30.993  1.00  0.00     0.074 A 
ATOM     15  C   UNL A   1      40.730  27.622  28.610  1.00  0.00     0.049 A 
ATOM     16  N   UNL A   1      42.032  28.446  31.394  1.00  0.00    -0.248 NA
ATOM     17  C   UNL A   1      39.844  28.080  32.087  1.00  0.00     0.031 C 
ATOM     18  C   UNL A   1      40.106  27.353  27.311  1.00  0.00     0.029 A 
ATOM     19  N   UNL A   1      41.802  26.781  28.626  1.00  0.00    -0.354 N 
ATOM     20  C   UNL A   1      42.021  28.180  32.764  1.00  0.00     0.074 A 
ATOM     21  C   UNL A   1      40.640  28.048  33.152  1.00  0.00     0.031 C 
ATOM     22  C   UNL A   1      40.651  26.233  26.790  1.00  0.00     0.029 A 
ATOM     23  C   UNL A   1      41.730  25.790  27.657  1.00  0.00     0.049 A 
ATOM     24  H   UNL A   1      42.550  26.866  29.260  1.00  0.00     0.167 HD
ATOM     25  C   UNL A   1      43.140  27.910  33.488  1.00  0.00     0.031 A 
ATOM     26  C   UNL A   1      42.425  24.629  27.632  1.00  0.00     0.031 A 
ATOM     27  C   UNL A   1      44.343  28.362  32.855  1.00  0.00     0.049 A 
ATOM     28  C   UNL A   1      43.575  24.754  28.554  1.00  0.00     0.074 A 
ATOM     29  C   UNL A   1      44.848  29.590  32.479  1.00  0.00     0.029 A 
ATOM     30  N   UNL A   1      45.136  27.431  32.233  1.00  0.00    -0.354 N 
ATOM     31  N   UNL A   1      44.585  25.550  28.350  1.00  0.00    -0.248 NA
ATOM     32  C   UNL A   1      43.426  24.275  29.919  1.00  0.00     0.031 C 
ATOM     33  C   UNL A   1      45.581  29.337  31.284  1.00  0.00     0.029 A 
ATOM     34  C   UNL A   1      45.484  27.969  31.023  1.00  0.00     0.049 A 
ATOM     35  H   UNL A   1      45.403  26.552  32.589  1.00  0.00     0.167 HD
ATOM     36  C   UNL A   1      44.949  25.995  29.612  1.00  0.00     0.074 A 
ATOM     37  C   UNL A   1      44.281  25.089  30.541  1.00  0.00     0.031 C 
ATOM     38  C   UNL A   1      45.528  27.220  29.788  1.00  0.00     0.031 A 
BRANCH  25  39
ATOM     39  C   UNL A   1      43.156  26.934  34.636  1.00  0.00    -0.014 A 
ATOM     40  C   UNL A   1      43.055  25.556  34.375  1.00  0.00     0.009 A 
ATOM     41  C   UNL A   1      42.990  27.343  35.974  1.00  0.00     0.009 A 
ATOM     42  C   UNL A   1      42.761  24.644  35.396  1.00  0.00     0.001 A 
ATOM     43  C   UNL A   1      42.738  26.431  37.001  1.00  0.00     0.001 A 
ATOM     44  C   UNL A   1      42.598  25.083  36.708  1.00  0.00     0.000 A 
ENDBRANCH  25  39
BRANCH  26  45
ATOM     45  C   UNL A   1      41.960  23.328  27.106  1.00  0.00    -0.014 A 
ATOM     46  C   UNL A   1      42.787  22.531  26.304  1.00  0.00     0.009 A 
ATOM     47  C   UNL A   1      40.763  22.759  27.584  1.00  0.00     0.009 A 
ATOM     48  C   UNL A   1      42.431  21.209  26.001  1.00  0.00     0.001 A 
ATOM     49  C   UNL A   1      40.405  21.445  27.277  1.00  0.00     0.001 A 
ATOM     50  C   UNL A   1      41.245  20.666  26.492  1.00  0.00     0.000 A 
ENDBRANCH  26  45
BRANCH  38  51
ATOM     51  C   UNL A   1      45.935  27.990  28.556  1.00  0.00    -0.014 A 
ATOM     52  C   UNL A   1      45.028  28.799  27.850  1.00  0.00     0.009 A 
ATOM     53  C   UNL A   1      47.289  28.041  28.200  1.00  0.00     0.009 A 
ATOM     54  C   UNL A   1      45.457  29.612  26.797  1.00  0.00     0.001 A 
ATOM     55  C   UNL A   1      47.721  28.869  27.159  1.00  0.00     0.001 A 
ATOM     56  C   UNL A   1      46.806  29.650  26.456  1.00  0.00     0.000 A 
ENDBRANCH  38  51
ENDBRANCH  12  13
ENDBRANCH   5   7
ENDBRANCH   2   3
ENDBRANCH   1   2
BRANCH   1  57
ATOM     57  C   UNL A   1      32.975  27.970  25.962  1.00  0.00     0.117 C 
BRANCH  57  58
ATOM     58  N   UNL A   1      31.568  27.803  25.675  1.00  0.00    -0.355 N 
ATOM     59  C   UNL A   1      31.029  26.763  24.957  1.00  0.00     0.234 C 
ATOM     60  H   UNL A   1      30.950  28.487  26.019  1.00  0.00     0.163 HD
ATOM     61  O   UNL A   1      29.866  26.443  25.208  1.00  0.00    -0.274 OA
BRANCH  59  62
ATOM     62  C   UNL A   1      31.963  26.060  23.949  1.00  0.00     0.125 C 
ATOM     63  C   UNL A   1      31.140  26.782  22.777  1.00  0.00     0.280 C 
ATOM     64  C   UNL A   1      32.536  25.129  22.837  1.00  0.00     0.087 C 
ATOM     65  C   UNL A   1      31.738  24.726  24.833  1.00  0.00     0.143 C 
ATOM     66  N   UNL A   1      32.057  27.030  21.641  1.00  0.00    -0.345 N 
ATOM     67  C   UNL A   1      33.043  25.970  21.698  1.00  0.00     0.267 C 
ATOM     68  C   UNL A   1      33.610  24.280  23.477  1.00  0.00     0.130 C 
ATOM     69  N   UNL A   1      33.046  24.046  24.777  1.00  0.00    -0.337 N 
ATOM     70  H   UNL A   1      32.507  27.941  21.740  1.00  0.00     0.346 HD
ATOM     71  H   UNL A   1      31.561  27.038  20.750  1.00  0.00     0.346 HD
BRANCH  69  72
ATOM     72  C   UNL A   1      33.847  23.490  25.762  1.00  0.00     0.256 C 
ATOM     73  O   UNL A   1      33.557  23.554  26.956  1.00  0.00    -0.269 OA
BRANCH  72  74
ATOM     74  C   UNL A   1      35.066  22.728  25.407  1.00  0.00     0.065 A 
ATOM     75  C   UNL A   1      36.268  23.457  25.436  1.00  0.00     0.016 A 
ATOM     76  C   UNL A   1      35.102  21.359  25.113  1.00  0.00     0.079 A 
ATOM     77  C   UNL A   1      37.488  22.813  25.241  1.00  0.00     0.001 A 
ATOM     78  C   UNL A   1      36.342  20.705  25.001  1.00  0.00     0.029 A 
ATOM     79  C   UNL A   1      37.530  21.435  25.060  1.00  0.00     0.002 A 
BRANCH  76  80
ATOM     80  N   UNL A   1      33.927  20.608  24.898  1.00  0.00    -0.220 N 
ATOM     81  C   UNL A   1      33.278  19.742  25.744  1.00  0.00     0.225 A 
ATOM     82  N   UNL A   1      33.269  20.652  23.715  1.00  0.00    -0.155 NA
ATOM     83  N   UNL A   1      32.307  19.127  25.110  1.00  0.00    -0.223 NA
ATOM     84  C   UNL A   1      32.349  19.700  23.875  1.00  0.00     0.246 A 
ENDBRANCH  76  80
ENDBRANCH  72  74
ENDBRANCH  69  72
ENDBRANCH  59  62
ENDBRANCH  57  58
ENDBRANCH   1  57
TORSDOF 13
ENDMDL
MODEL 3
REMARK VINA RESULT:     -12.3      2.953      7.839
REMARK SMILES O=C(NCCCNC(=O)[C@]12C[NH2+]C[C@H]1CN(C(=O)c1ccccc1-n1cncn1)C2)c1ccc(-c2c3nc(c(-c4ccccc4)c4ccc([nH]4)c(-c4ccccc4)c4nc(c(-c5ccccc5)c5ccc2[nH]5)C=C4)C=C3)cc1
REMARK SMILES IDX 5 1 4 2 3 3 1 4 2 5 31 7 32 8 78 9 33 10 77 11 34 12 35 13
REMARK SMILES IDX 36 14 71 15 37 16 76 17 70 18 72 19 38 20 75 21 69 22 68 23
REMARK SMILES IDX 39 25 61 26 46 27 60 28 47 29 50 30 59 31 73 32 48 33 49 34
REMARK SMILES IDX 58 36 74 37 51 38 40 39 41 40 45 41 42 42 44 43 43 44 62 45
REMARK SMILES IDX 63 46 67 47 64 48 66 49 65 50 52 51 53 52 57 53 54 54 56 55
REMARK SMILES IDX 55 56 6 57 7 58 8 59 9 61 10 62 11 63 14 64 30 65 12 66
REMARK SMILES IDX 13 67 15 68 16 69 17 72 18 73 19 74 20 75 24 76 21 77 23 78
REMARK SMILES IDX 22 79 25 80 26 81 29 82 27 83 28 84
REMARK H PARENT 3 6 72 24 50 35 7 60 12 70 12 71
REMARK Flexibility Score: inf
ROOT
ATOM      1  C   UNL A   1      38.859  23.816  26.659  1.00  0.00     0.042 C 
ENDROOT
BRANCH   1   2
ATOM      2  C   UNL A   1      39.698  22.543  26.542  1.00  0.00     0.118 C 
BRANCH   2   3
ATOM      3  N   UNL A   1      40.935  22.649  25.788  1.00  0.00    -0.352 N 
ATOM      4  O   UNL A   1      43.033  23.112  25.233  1.00  0.00    -0.269 OA
ATOM      5  C   UNL A   1      42.037  23.455  25.877  1.00  0.00     0.251 C 
ATOM      6  H   UNL A   1      40.993  21.998  25.052  1.00  0.00     0.163 HD
BRANCH   5   7
ATOM      7  C   UNL A   1      42.067  24.756  26.592  1.00  0.00     0.039 A 
ATOM      8  C   UNL A   1      42.542  24.953  27.888  1.00  0.00     0.014 A 
ATOM      9  C   UNL A   1      41.486  25.843  25.917  1.00  0.00     0.014 A 
ATOM     10  C   UNL A   1      42.284  26.138  28.564  1.00  0.00     0.010 A 
ATOM     11  C   UNL A   1      41.263  27.047  26.568  1.00  0.00     0.010 A 
ATOM     12  C   UNL A   1      41.615  27.172  27.913  1.00  0.00    -0.014 A 
BRANCH  12  13
ATOM     13  C   UNL A   1      41.447  28.439  28.620  1.00  0.00     0.031 A 
ATOM     14  C   UNL A   1      42.494  29.476  28.356  1.00  0.00     0.074 A 
ATOM     15  C   UNL A   1      40.309  28.741  29.274  1.00  0.00     0.049 A 
ATOM     16  N   UNL A   1      43.105  30.256  29.191  1.00  0.00    -0.248 NA
ATOM     17  C   UNL A   1      42.942  29.629  26.959  1.00  0.00     0.031 C 
ATOM     18  C   UNL A   1      39.078  27.947  29.334  1.00  0.00     0.029 A 
ATOM     19  N   UNL A   1      39.959  29.911  29.878  1.00  0.00    -0.354 N 
ATOM     20  C   UNL A   1      43.908  31.095  28.417  1.00  0.00     0.074 A 
ATOM     21  C   UNL A   1      43.836  30.608  27.063  1.00  0.00     0.031 C 
ATOM     22  C   UNL A   1      38.056  28.753  29.694  1.00  0.00     0.029 A 
ATOM     23  C   UNL A   1      38.586  30.071  30.001  1.00  0.00     0.049 A 
ATOM     24  H   UNL A   1      40.613  30.576  30.195  1.00  0.00     0.167 HD
ATOM     25  C   UNL A   1      44.459  32.249  28.881  1.00  0.00     0.031 A 
ATOM     26  C   UNL A   1      37.922  31.229  30.222  1.00  0.00     0.031 A 
ATOM     27  C   UNL A   1      44.535  32.302  30.310  1.00  0.00     0.049 A 
ATOM     28  C   UNL A   1      38.885  32.229  30.733  1.00  0.00     0.074 A 
ATOM     29  C   UNL A   1      45.185  31.568  31.282  1.00  0.00     0.029 A 
ATOM     30  N   UNL A   1      43.616  33.069  30.979  1.00  0.00    -0.354 N 
ATOM     31  N   UNL A   1      39.464  32.151  31.897  1.00  0.00    -0.248 NA
ATOM     32  C   UNL A   1      39.515  33.134  29.785  1.00  0.00     0.031 C 
ATOM     33  C   UNL A   1      44.296  31.565  32.396  1.00  0.00     0.029 A 
ATOM     34  C   UNL A   1      43.173  32.310  32.030  1.00  0.00     0.049 A 
ATOM     35  H   UNL A   1      43.332  33.984  30.750  1.00  0.00     0.167 HD
ATOM     36  C   UNL A   1      40.737  32.664  31.698  1.00  0.00     0.074 A 
ATOM     37  C   UNL A   1      40.670  33.358  30.416  1.00  0.00     0.031 C 
ATOM     38  C   UNL A   1      41.794  32.241  32.454  1.00  0.00     0.031 A 
BRANCH  25  39
ATOM     39  C   UNL A   1      44.632  33.476  28.023  1.00  0.00    -0.014 A 
ATOM     40  C   UNL A   1      45.919  34.004  27.822  1.00  0.00     0.009 A 
ATOM     41  C   UNL A   1      43.544  34.283  27.636  1.00  0.00     0.009 A 
ATOM     42  C   UNL A   1      46.102  35.291  27.300  1.00  0.00     0.001 A 
ATOM     43  C   UNL A   1      43.724  35.550  27.076  1.00  0.00     0.001 A 
ATOM     44  C   UNL A   1      45.004  36.064  26.931  1.00  0.00     0.000 A 
ENDBRANCH  25  39
BRANCH  26  45
ATOM     45  C   UNL A   1      36.584  31.597  29.711  1.00  0.00    -0.014 A 
ATOM     46  C   UNL A   1      35.685  32.332  30.493  1.00  0.00     0.009 A 
ATOM     47  C   UNL A   1      36.273  31.412  28.349  1.00  0.00     0.009 A 
ATOM     48  C   UNL A   1      34.519  32.870  29.927  1.00  0.00     0.001 A 
ATOM     49  C   UNL A   1      35.110  31.942  27.787  1.00  0.00     0.001 A 
ATOM     50  C   UNL A   1      34.237  32.681  28.576  1.00  0.00     0.000 A 
ENDBRANCH  26  45
BRANCH  38  51
ATOM     51  C   UNL A   1      41.503  31.348  33.634  1.00  0.00    -0.014 A 
ATOM     52  C   UNL A   1      41.373  29.955  33.499  1.00  0.00     0.009 A 
ATOM     53  C   UNL A   1      41.531  31.892  34.925  1.00  0.00     0.009 A 
ATOM     54  C   UNL A   1      41.243  29.132  34.620  1.00  0.00     0.001 A 
ATOM     55  C   UNL A   1      41.421  31.066  36.048  1.00  0.00     0.001 A 
ATOM     56  C   UNL A   1      41.273  29.689  35.896  1.00  0.00     0.000 A 
ENDBRANCH  38  51
ENDBRANCH  12  13
ENDBRANCH   5   7
ENDBRANCH   2   3
ENDBRANCH   1   2
BRANCH   1  57
ATOM     57  C   UNL A   1      37.479  23.730  26.043  1.00  0.00     0.117 C 
BRANCH  57  58
ATOM     58  N   UNL A   1      37.464  23.153  24.718  1.00  0.00    -0.355 N 
ATOM     59  C   UNL A   1      36.360  23.080  23.903  1.00  0.00     0.234 C 
ATOM     60  H   UNL A   1      38.308  22.783  24.374  1.00  0.00     0.163 HD
ATOM     61  O   UNL A   1      36.552  23.065  22.686  1.00  0.00    -0.274 OA
BRANCH  59  62
ATOM     62  C   UNL A   1      34.982  23.087  24.601  1.00  0.00     0.125 C 
ATOM     63  C   UNL A   1      35.178  21.517  24.865  1.00  0.00     0.280 C 
ATOM     64  C   UNL A   1      33.480  22.858  24.949  1.00  0.00     0.087 C 
ATOM     65  C   UNL A   1      34.471  23.967  23.346  1.00  0.00     0.143 C 
ATOM     66  N   UNL A   1      34.488  21.162  26.127  1.00  0.00    -0.345 N 
ATOM     67  C   UNL A   1      33.382  22.091  26.240  1.00  0.00     0.267 C 
ATOM     68  C   UNL A   1      32.825  24.217  25.011  1.00  0.00     0.130 C 
ATOM     69  N   UNL A   1      33.506  24.906  23.950  1.00  0.00    -0.337 N 
ATOM     70  H   UNL A   1      35.122  21.265  26.919  1.00  0.00     0.346 HD
ATOM     71  H   UNL A   1      34.169  20.193  26.124  1.00  0.00     0.346 HD
BRANCH  69  72
ATOM     72  C   UNL A   1      33.349  26.278  23.836  1.00  0.00     0.256 C 
ATOM     73  O   UNL A   1      33.346  26.849  22.747  1.00  0.00    -0.269 OA
BRANCH  72  74
ATOM     74  C   UNL A   1      33.107  27.116  25.033  1.00  0.00     0.065 A 
ATOM     75  C   UNL A   1      34.227  27.342  25.853  1.00  0.00     0.016 A 
ATOM     76  C   UNL A   1      31.888  27.725  25.356  1.00  0.00     0.079 A 
ATOM     77  C   UNL A   1      34.143  28.215  26.936  1.00  0.00     0.001 A 
ATOM     78  C   UNL A   1      31.837  28.667  26.399  1.00  0.00     0.029 A 
ATOM     79  C   UNL A   1      32.962  28.904  27.188  1.00  0.00     0.002 A 
BRANCH  76  80
ATOM     80  N   UNL A   1      30.690  27.407  24.681  1.00  0.00    -0.220 N 
ATOM     81  C   UNL A   1      29.877  26.307  24.817  1.00  0.00     0.225 A 
ATOM     82  N   UNL A   1      30.184  28.219  23.722  1.00  0.00    -0.155 NA
ATOM     83  N   UNL A   1      28.942  26.315  23.895  1.00  0.00    -0.223 NA
ATOM     84  C   UNL A   1      29.178  27.488  23.243  1.00  0.00     0.246 A 
ENDBRANCH  76  80
ENDBRANCH  72  74
ENDBRANCH  69  72
ENDBRANCH  59  62
ENDBRANCH  57  58
ENDBRANCH   1  57
TORSDOF 13
ENDMDL
