MODEL 1
REMARK VINA RESULT:     -13.1      0.000      0.000
REMARK SMILES O=C(NCCCNC(=O)[C@H](NC(=O)[C@H]1CC[C@@H](CNC(=O)[C@@H]2Cc3ccccc3C[NH2+]2)CC1)c1ccccc1)c1ccc(-c2c3nc(c(-c4ccccc4)c4ccc([nH]4)c(-c4ccccc4)c4nc(c(-c5ccccc5)c5ccc2[nH]5)C=C4)C=C3)cc1
REMARK SMILES IDX 7 1 8 2 9 3 6 5 5 6 4 7 3 8 1 9 2 10 40 12 41 13 87 14 42 15
REMARK SMILES IDX 86 16 43 17 44 18 45 19 80 20 46 21 85 22 79 23 81 24 47 25
REMARK SMILES IDX 84 26 78 27 77 28 48 30 70 31 55 32 69 33 56 34 59 35 68 36
REMARK SMILES IDX 82 37 57 38 58 39 67 41 83 42 60 43 49 44 50 45 54 46 51 47
REMARK SMILES IDX 53 48 52 49 71 50 72 51 76 52 73 53 75 54 74 55 61 56 62 57
REMARK SMILES IDX 66 58 63 59 65 60 64 61 10 62 34 63 35 64 39 65 36 66 38 67
REMARK SMILES IDX 37 68 11 69 12 70 13 72 14 73 33 74 15 75 32 76 16 77 17 78
REMARK SMILES IDX 18 79 19 80 20 81 21 83 22 84 23 85 31 86 24 87 30 88 25 91
REMARK SMILES IDX 29 92 26 93 28 94 27 95
REMARK H PARENT 7 4 3 11 81 29 59 40 11 71 19 82 31 89 31 90
REMARK Flexibility Score: inf
ROOT
ATOM      1  N   UNL A   1      35.216  22.247  25.560  1.00  0.00    -0.354 N 
ATOM      2  C   UNL A   1      34.079  22.188  26.307  1.00  0.00     0.247 C 
ATOM      3  O   UNL A   1      34.218  22.369  27.523  1.00  0.00    -0.272 OA
ATOM      4  H   UNL A   1      36.048  22.139  26.075  1.00  0.00     0.163 HD
ENDROOT
BRANCH   1   5
ATOM      5  C   UNL A   1      35.414  22.443  24.136  1.00  0.00     0.117 C 
BRANCH   5   6
ATOM      6  C   UNL A   1      36.667  23.264  23.892  1.00  0.00     0.042 C 
BRANCH   6   7
ATOM      7  C   UNL A   1      37.309  23.699  25.196  1.00  0.00     0.118 C 
BRANCH   7   8
ATOM      8  N   UNL A   1      38.370  22.786  25.593  1.00  0.00    -0.352 N 
ATOM      9  O   UNL A   1      40.467  22.227  26.201  1.00  0.00    -0.269 OA
ATOM     10  C   UNL A   1      39.571  23.062  26.199  1.00  0.00     0.251 C 
ATOM     11  H   UNL A   1      38.204  21.835  25.401  1.00  0.00     0.163 HD
BRANCH  10  12
ATOM     12  C   UNL A   1      39.772  24.372  26.853  1.00  0.00     0.039 A 
ATOM     13  C   UNL A   1      39.351  24.563  28.170  1.00  0.00     0.014 A 
ATOM     14  C   UNL A   1      40.427  25.398  26.169  1.00  0.00     0.014 A 
ATOM     15  C   UNL A   1      39.445  25.814  28.754  1.00  0.00     0.010 A 
ATOM     16  C   UNL A   1      40.649  26.621  26.810  1.00  0.00     0.010 A 
ATOM     17  C   UNL A   1      40.158  26.833  28.107  1.00  0.00    -0.014 A 
BRANCH  17  18
ATOM     18  C   UNL A   1      40.523  28.034  28.894  1.00  0.00     0.031 A 
ATOM     19  C   UNL A   1      41.856  28.162  29.565  1.00  0.00     0.074 A 
ATOM     20  C   UNL A   1      39.610  29.024  28.971  1.00  0.00     0.049 A 
ATOM     21  N   UNL A   1      42.310  29.153  30.288  1.00  0.00    -0.248 NA
ATOM     22  C   UNL A   1      42.799  27.043  29.419  1.00  0.00     0.031 C 
ATOM     23  C   UNL A   1      38.274  28.991  28.359  1.00  0.00     0.029 A 
ATOM     24  N   UNL A   1      39.662  30.254  29.570  1.00  0.00    -0.354 N 
ATOM     25  C   UNL A   1      43.577  28.770  30.706  1.00  0.00     0.074 A 
ATOM     26  C   UNL A   1      43.820  27.450  30.164  1.00  0.00     0.031 C 
ATOM     27  C   UNL A   1      37.661  30.163  28.568  1.00  0.00     0.029 A 
ATOM     28  C   UNL A   1      38.514  30.991  29.405  1.00  0.00     0.049 A 
ATOM     29  H   UNL A   1      40.446  30.578  30.072  1.00  0.00     0.167 HD
ATOM     30  C   UNL A   1      44.448  29.462  31.477  1.00  0.00     0.031 A 
ATOM     31  C   UNL A   1      38.164  32.188  29.907  1.00  0.00     0.031 A 
ATOM     32  C   UNL A   1      44.189  30.777  32.005  1.00  0.00     0.049 A 
ATOM     33  C   UNL A   1      39.138  32.901  30.794  1.00  0.00     0.074 A 
ATOM     34  C   UNL A   1      45.030  31.581  32.757  1.00  0.00     0.029 A 
ATOM     35  N   UNL A   1      43.000  31.473  31.852  1.00  0.00    -0.354 N 
ATOM     36  N   UNL A   1      40.355  32.549  31.131  1.00  0.00    -0.248 NA
ATOM     37  C   UNL A   1      38.689  34.170  31.377  1.00  0.00     0.031 C 
ATOM     38  C   UNL A   1      44.324  32.734  33.115  1.00  0.00     0.029 A 
ATOM     39  C   UNL A   1      43.069  32.678  32.532  1.00  0.00     0.049 A 
ATOM     40  H   UNL A   1      42.223  31.159  31.336  1.00  0.00     0.167 HD
ATOM     41  C   UNL A   1      40.821  33.557  31.959  1.00  0.00     0.074 A 
ATOM     42  C   UNL A   1      39.771  34.552  32.040  1.00  0.00     0.031 C 
ATOM     43  C   UNL A   1      42.008  33.649  32.605  1.00  0.00     0.031 A 
BRANCH  30  44
ATOM     44  C   UNL A   1      45.754  28.810  31.836  1.00  0.00    -0.014 A 
ATOM     45  C   UNL A   1      46.907  28.999  31.060  1.00  0.00     0.009 A 
ATOM     46  C   UNL A   1      45.851  28.074  33.029  1.00  0.00     0.009 A 
ATOM     47  C   UNL A   1      48.128  28.456  31.466  1.00  0.00     0.001 A 
ATOM     48  C   UNL A   1      47.077  27.553  33.445  1.00  0.00     0.001 A 
ATOM     49  C   UNL A   1      48.215  27.741  32.661  1.00  0.00     0.000 A 
ENDBRANCH  30  44
BRANCH  31  50
ATOM     50  C   UNL A   1      36.813  32.746  29.640  1.00  0.00    -0.014 A 
ATOM     51  C   UNL A   1      36.541  33.443  28.454  1.00  0.00     0.009 A 
ATOM     52  C   UNL A   1      35.787  32.600  30.590  1.00  0.00     0.009 A 
ATOM     53  C   UNL A   1      35.283  34.012  28.242  1.00  0.00     0.001 A 
ATOM     54  C   UNL A   1      34.520  33.135  30.359  1.00  0.00     0.001 A 
ATOM     55  C   UNL A   1      34.274  33.855  29.192  1.00  0.00     0.000 A 
ENDBRANCH  31  50
BRANCH  43  56
ATOM     56  C   UNL A   1      42.229  34.877  33.438  1.00  0.00    -0.014 A 
ATOM     57  C   UNL A   1      41.735  34.962  34.750  1.00  0.00     0.009 A 
ATOM     58  C   UNL A   1      42.957  35.954  32.911  1.00  0.00     0.009 A 
ATOM     59  C   UNL A   1      41.935  36.119  35.504  1.00  0.00     0.001 A 
ATOM     60  C   UNL A   1      43.185  37.096  33.680  1.00  0.00     0.001 A 
ATOM     61  C   UNL A   1      42.665  37.181  34.971  1.00  0.00     0.000 A 
ENDBRANCH  43  56
ENDBRANCH  17  18
ENDBRANCH  10  12
ENDBRANCH   7   8
ENDBRANCH   6   7
ENDBRANCH   5   6
ENDBRANCH   1   5
BRANCH   2  62
ATOM     62  C   UNL A   1      32.667  21.944  25.699  1.00  0.00     0.202 C 
BRANCH  62  63
ATOM     63  C   UNL A   1      32.662  20.675  24.861  1.00  0.00    -0.016 A 
ATOM     64  C   UNL A   1      32.889  19.441  25.497  1.00  0.00     0.006 A 
ATOM     65  C   UNL A   1      32.357  20.669  23.492  1.00  0.00     0.006 A 
ATOM     66  C   UNL A   1      32.805  18.240  24.789  1.00  0.00     0.000 A 
ATOM     67  C   UNL A   1      32.257  19.466  22.788  1.00  0.00     0.000 A 
ATOM     68  C   UNL A   1      32.480  18.254  23.437  1.00  0.00     0.000 A 
ENDBRANCH  62  63
BRANCH  62  69
ATOM     69  N   UNL A   1      31.546  22.032  26.624  1.00  0.00    -0.340 N 
ATOM     70  C   UNL A   1      30.559  22.961  26.733  1.00  0.00     0.224 C 
ATOM     71  H   UNL A   1      31.494  21.298  27.278  1.00  0.00     0.164 HD
ATOM     72  O   UNL A   1      29.895  22.944  27.774  1.00  0.00    -0.275 OA
BRANCH  70  73
ATOM     73  C   UNL A   1      30.208  23.952  25.621  1.00  0.00     0.078 C 
ATOM     74  C   UNL A   1      30.561  25.416  25.905  1.00  0.00     0.014 C 
ATOM     75  C   UNL A   1      30.707  23.410  24.274  1.00  0.00     0.014 C 
ATOM     76  C   UNL A   1      30.388  26.332  24.692  1.00  0.00     0.006 C 
ATOM     77  C   UNL A   1      30.512  24.395  23.130  1.00  0.00     0.006 C 
ATOM     78  C   UNL A   1      31.084  25.786  23.434  1.00  0.00     0.008 C 
BRANCH  78  79
ATOM     79  C   UNL A   1      32.617  25.815  23.588  1.00  0.00     0.119 C 
BRANCH  79  80
ATOM     80  N   UNL A   1      33.286  26.420  22.451  1.00  0.00    -0.351 N 
ATOM     81  C   UNL A   1      33.741  27.702  22.316  1.00  0.00     0.278 C 
ATOM     82  H   UNL A   1      33.430  25.831  21.676  1.00  0.00     0.163 HD
ATOM     83  O   UNL A   1      34.413  27.981  21.320  1.00  0.00    -0.268 OA
BRANCH  81  84
ATOM     84  C   UNL A   1      33.461  28.719  23.434  1.00  0.00     0.277 C 
ATOM     85  C   UNL A   1      33.784  28.113  24.809  1.00  0.00     0.111 C 
ATOM     86  N   UNL A   1      32.074  29.240  23.275  1.00  0.00    -0.332 N 
ATOM     87  C   UNL A   1      33.496  29.170  25.842  1.00  0.00    -0.033 A 
ATOM     88  C   UNL A   1      31.388  29.510  24.547  1.00  0.00     0.298 C 
ATOM     89  H   UNL A   1      31.530  28.551  22.757  1.00  0.00     0.347 HD
ATOM     90  H   UNL A   1      32.149  30.132  22.785  1.00  0.00     0.347 HD
ATOM     91  C   UNL A   1      34.363  29.456  26.897  1.00  0.00     0.004 A 
ATOM     92  C   UNL A   1      32.308  29.904  25.675  1.00  0.00     0.010 A 
ATOM     93  C   UNL A   1      34.047  30.484  27.786  1.00  0.00     0.000 A 
ATOM     94  C   UNL A   1      31.991  30.918  26.582  1.00  0.00     0.010 A 
ATOM     95  C   UNL A   1      32.865  31.212  27.629  1.00  0.00     0.001 A 
ENDBRANCH  81  84
ENDBRANCH  79  80
ENDBRANCH  78  79
ENDBRANCH  70  73
ENDBRANCH  62  69
ENDBRANCH   2  62
TORSDOF 16
ENDMDL
MODEL 2
REMARK VINA RESULT:     -13.1      0.256      5.521
REMARK SMILES O=C(NCCCNC(=O)[C@H](NC(=O)[C@H]1CC[C@@H](CNC(=O)[C@@H]2Cc3ccccc3C[NH2+]2)CC1)c1ccccc1)c1ccc(-c2c3nc(c(-c4ccccc4)c4ccc([nH]4)c(-c4ccccc4)c4nc(c(-c5ccccc5)c5ccc2[nH]5)C=C4)C=C3)cc1
REMARK SMILES IDX 7 1 8 2 9 3 6 5 5 6 4 7 3 8 1 9 2 10 40 12 41 13 87 14 42 15
REMARK SMILES IDX 86 16 43 17 44 18 45 19 80 20 46 21 85 22 79 23 81 24 47 25
REMARK SMILES IDX 84 26 78 27 77 28 48 30 70 31 55 32 69 33 56 34 59 35 68 36
REMARK SMILES IDX 82 37 57 38 58 39 67 41 83 42 60 43 49 44 50 45 54 46 51 47
REMARK SMILES IDX 53 48 52 49 71 50 72 51 76 52 73 53 75 54 74 55 61 56 62 57
REMARK SMILES IDX 66 58 63 59 65 60 64 61 10 62 34 63 35 64 39 65 36 66 38 67
REMARK SMILES IDX 37 68 11 69 12 70 13 72 14 73 33 74 15 75 32 76 16 77 17 78
REMARK SMILES IDX 18 79 19 80 20 81 21 83 22 84 23 85 31 86 24 87 30 88 25 91
REMARK SMILES IDX 29 92 26 93 28 94 27 95
REMARK H PARENT 7 4 3 11 81 29 59 40 11 71 19 82 31 89 31 90
REMARK Flexibility Score: inf
ROOT
ATOM      1  N   UNL A   1      35.071  22.544  25.602  1.00  0.00    -0.354 N 
ATOM      2  C   UNL A   1      33.943  22.410  26.352  1.00  0.00     0.247 C 
ATOM      3  O   UNL A   1      34.064  22.640  27.562  1.00  0.00    -0.272 OA
ATOM      4  H   UNL A   1      35.909  22.526  26.119  1.00  0.00     0.163 HD
ENDROOT
BRANCH   1   5
ATOM      5  C   UNL A   1      35.252  22.712  24.173  1.00  0.00     0.117 C 
BRANCH   5   6
ATOM      6  C   UNL A   1      36.666  23.177  23.877  1.00  0.00     0.042 C 
BRANCH   6   7
ATOM      7  C   UNL A   1      37.353  23.696  25.127  1.00  0.00     0.118 C 
BRANCH   7   8
ATOM      8  N   UNL A   1      38.416  22.800  25.556  1.00  0.00    -0.352 N 
ATOM      9  O   UNL A   1      40.499  22.278  26.241  1.00  0.00    -0.269 OA
ATOM     10  C   UNL A   1      39.586  23.094  26.213  1.00  0.00     0.251 C 
ATOM     11  H   UNL A   1      38.278  21.849  25.347  1.00  0.00     0.163 HD
BRANCH  10  12
ATOM     12  C   UNL A   1      39.733  24.400  26.889  1.00  0.00     0.039 A 
ATOM     13  C   UNL A   1      39.285  24.558  28.201  1.00  0.00     0.014 A 
ATOM     14  C   UNL A   1      40.365  25.457  26.230  1.00  0.00     0.014 A 
ATOM     15  C   UNL A   1      39.328  25.802  28.804  1.00  0.00     0.010 A 
ATOM     16  C   UNL A   1      40.536  26.677  26.893  1.00  0.00     0.010 A 
ATOM     17  C   UNL A   1      40.018  26.854  28.184  1.00  0.00    -0.014 A 
BRANCH  17  18
ATOM     18  C   UNL A   1      40.330  28.054  28.993  1.00  0.00     0.031 A 
ATOM     19  C   UNL A   1      39.349  29.174  29.157  1.00  0.00     0.074 A 
ATOM     20  C   UNL A   1      41.536  28.096  29.596  1.00  0.00     0.049 A 
ATOM     21  N   UNL A   1      39.488  30.285  29.832  1.00  0.00    -0.248 NA
ATOM     22  C   UNL A   1      38.051  29.041  28.477  1.00  0.00     0.031 C 
ATOM     23  C   UNL A   1      42.571  27.058  29.491  1.00  0.00     0.029 A 
ATOM     24  N   UNL A   1      42.095  29.027  30.431  1.00  0.00    -0.354 N 
ATOM     25  C   UNL A   1      38.313  30.997  29.639  1.00  0.00     0.074 A 
ATOM     26  C   UNL A   1      37.470  30.198  28.775  1.00  0.00     0.031 C 
ATOM     27  C   UNL A   1      43.608  27.383  30.272  1.00  0.00     0.029 A 
ATOM     28  C   UNL A   1      43.358  28.691  30.857  1.00  0.00     0.049 A 
ATOM     29  H   UNL A   1      41.636  29.856  30.700  1.00  0.00     0.167 HD
ATOM     30  C   UNL A   1      37.979  32.211  30.137  1.00  0.00     0.031 A 
ATOM     31  C   UNL A   1      44.240  29.377  31.604  1.00  0.00     0.031 A 
ATOM     32  C   UNL A   1      38.831  32.991  30.998  1.00  0.00     0.049 A 
ATOM     33  C   UNL A   1      43.850  30.736  32.097  1.00  0.00     0.074 A 
ATOM     34  C   UNL A   1      38.561  34.212  31.594  1.00  0.00     0.029 A 
ATOM     35  N   UNL A   1      40.118  32.638  31.373  1.00  0.00    -0.354 N 
ATOM     36  N   UNL A   1      42.711  31.369  31.952  1.00  0.00    -0.248 NA
ATOM     37  C   UNL A   1      44.868  31.480  32.847  1.00  0.00     0.031 C 
ATOM     38  C   UNL A   1      39.711  34.628  32.274  1.00  0.00     0.029 A 
ATOM     39  C   UNL A   1      40.672  33.637  32.156  1.00  0.00     0.049 A 
ATOM     40  H   UNL A   1      40.571  31.801  31.120  1.00  0.00     0.167 HD
ATOM     41  C   UNL A   1      42.872  32.583  32.601  1.00  0.00     0.074 A 
ATOM     42  C   UNL A   1      44.204  32.579  33.173  1.00  0.00     0.031 C 
ATOM     43  C   UNL A   1      42.001  33.615  32.707  1.00  0.00     0.031 A 
BRANCH  30  44
ATOM     44  C   UNL A   1      36.654  32.801  29.744  1.00  0.00    -0.014 A 
ATOM     45  C   UNL A   1      35.582  32.864  30.645  1.00  0.00     0.009 A 
ATOM     46  C   UNL A   1      36.513  33.396  28.478  1.00  0.00     0.009 A 
ATOM     47  C   UNL A   1      34.391  33.500  30.284  1.00  0.00     0.001 A 
ATOM     48  C   UNL A   1      35.332  34.051  28.128  1.00  0.00     0.001 A 
ATOM     49  C   UNL A   1      34.270  34.100  29.030  1.00  0.00     0.000 A 
ENDBRANCH  30  44
BRANCH  31  50
ATOM     50  C   UNL A   1      45.594  28.821  31.865  1.00  0.00    -0.014 A 
ATOM     51  C   UNL A   1      46.652  29.051  30.974  1.00  0.00     0.009 A 
ATOM     52  C   UNL A   1      45.828  28.034  33.005  1.00  0.00     0.009 A 
ATOM     53  C   UNL A   1      47.904  28.474  31.201  1.00  0.00     0.001 A 
ATOM     54  C   UNL A   1      47.089  27.491  33.250  1.00  0.00     0.001 A 
ATOM     55  C   UNL A   1      48.122  27.699  32.339  1.00  0.00     0.000 A 
ENDBRANCH  31  50
BRANCH  43  56
ATOM     56  C   UNL A   1      42.465  34.811  33.485  1.00  0.00    -0.014 A 
ATOM     57  C   UNL A   1      43.099  35.890  32.847  1.00  0.00     0.009 A 
ATOM     58  C   UNL A   1      42.247  34.869  34.870  1.00  0.00     0.009 A 
ATOM     59  C   UNL A   1      43.539  36.987  33.588  1.00  0.00     0.001 A 
ATOM     60  C   UNL A   1      42.658  35.983  35.603  1.00  0.00     0.001 A 
ATOM     61  C   UNL A   1      43.312  37.034  34.964  1.00  0.00     0.000 A 
ENDBRANCH  43  56
ENDBRANCH  17  18
ENDBRANCH  10  12
ENDBRANCH   7   8
ENDBRANCH   6   7
ENDBRANCH   5   6
ENDBRANCH   1   5
BRANCH   2  62
ATOM     62  C   UNL A   1      32.558  22.023  25.756  1.00  0.00     0.202 C 
BRANCH  62  63
ATOM     63  C   UNL A   1      32.650  20.696  25.018  1.00  0.00    -0.016 A 
ATOM     64  C   UNL A   1      32.935  19.530  25.752  1.00  0.00     0.006 A 
ATOM     65  C   UNL A   1      32.377  20.568  23.648  1.00  0.00     0.006 A 
ATOM     66  C   UNL A   1      32.941  18.277  25.138  1.00  0.00     0.000 A 
ATOM     67  C   UNL A   1      32.367  19.311  23.038  1.00  0.00     0.000 A 
ATOM     68  C   UNL A   1      32.647  18.167  23.782  1.00  0.00     0.000 A 
ENDBRANCH  62  63
BRANCH  62  69
ATOM     69  N   UNL A   1      31.422  22.105  26.663  1.00  0.00    -0.340 N 
ATOM     70  C   UNL A   1      30.439  23.038  26.769  1.00  0.00     0.224 C 
ATOM     71  H   UNL A   1      31.355  21.362  27.305  1.00  0.00     0.164 HD
ATOM     72  O   UNL A   1      29.758  23.010  27.798  1.00  0.00    -0.275 OA
BRANCH  70  73
ATOM     73  C   UNL A   1      30.112  24.047  25.665  1.00  0.00     0.078 C 
ATOM     74  C   UNL A   1      30.489  25.501  25.967  1.00  0.00     0.014 C 
ATOM     75  C   UNL A   1      30.612  23.512  24.316  1.00  0.00     0.014 C 
ATOM     76  C   UNL A   1      30.340  26.434  24.764  1.00  0.00     0.006 C 
ATOM     77  C   UNL A   1      30.442  24.512  23.181  1.00  0.00     0.006 C 
ATOM     78  C   UNL A   1      31.034  25.890  23.505  1.00  0.00     0.008 C 
BRANCH  78  79
ATOM     79  C   UNL A   1      32.567  25.891  23.670  1.00  0.00     0.119 C 
BRANCH  79  80
ATOM     80  N   UNL A   1      33.255  26.480  22.534  1.00  0.00    -0.351 N 
ATOM     81  C   UNL A   1      33.711  27.761  22.388  1.00  0.00     0.278 C 
ATOM     82  H   UNL A   1      33.413  25.879  21.771  1.00  0.00     0.163 HD
ATOM     83  O   UNL A   1      34.400  28.025  21.400  1.00  0.00    -0.268 OA
BRANCH  81  84
ATOM     84  C   UNL A   1      33.409  28.793  23.485  1.00  0.00     0.277 C 
ATOM     85  C   UNL A   1      33.754  28.226  24.872  1.00  0.00     0.111 C 
ATOM     86  N   UNL A   1      32.009  29.276  23.321  1.00  0.00    -0.332 N 
ATOM     87  C   UNL A   1      33.443  29.298  25.883  1.00  0.00    -0.033 A 
ATOM     88  C   UNL A   1      31.322  29.556  24.591  1.00  0.00     0.298 C 
ATOM     89  H   UNL A   1      31.481  28.563  22.821  1.00  0.00     0.347 HD
ATOM     90  H   UNL A   1      32.059  30.159  22.813  1.00  0.00     0.347 HD
ATOM     91  C   UNL A   1      34.307  29.628  26.928  1.00  0.00     0.004 A 
ATOM     92  C   UNL A   1      32.236  29.998  25.706  1.00  0.00     0.010 A 
ATOM     93  C   UNL A   1      33.969  30.667  27.795  1.00  0.00     0.000 A 
ATOM     94  C   UNL A   1      31.897  31.023  26.592  1.00  0.00     0.010 A 
ATOM     95  C   UNL A   1      32.768  31.361  27.628  1.00  0.00     0.001 A 
ENDBRANCH  81  84
ENDBRANCH  79  80
ENDBRANCH  78  79
ENDBRANCH  70  73
ENDBRANCH  62  69
ENDBRANCH   2  62
TORSDOF 16
ENDMDL
MODEL 3
REMARK VINA RESULT:     -12.4      2.430      6.364
REMARK SMILES O=C(NCCCNC(=O)[C@H](NC(=O)[C@H]1CC[C@@H](CNC(=O)[C@@H]2Cc3ccccc3C[NH2+]2)CC1)c1ccccc1)c1ccc(-c2c3nc(c(-c4ccccc4)c4ccc([nH]4)c(-c4ccccc4)c4nc(c(-c5ccccc5)c5ccc2[nH]5)C=C4)C=C3)cc1
REMARK SMILES IDX 7 1 8 2 9 3 6 5 5 6 4 7 3 8 1 9 2 10 40 12 41 13 87 14 42 15
REMARK SMILES IDX 86 16 43 17 44 18 45 19 80 20 46 21 85 22 79 23 81 24 47 25
REMARK SMILES IDX 84 26 78 27 77 28 48 30 70 31 55 32 69 33 56 34 59 35 68 36
REMARK SMILES IDX 82 37 57 38 58 39 67 41 83 42 60 43 49 44 50 45 54 46 51 47
REMARK SMILES IDX 53 48 52 49 71 50 72 51 76 52 73 53 75 54 74 55 61 56 62 57
REMARK SMILES IDX 66 58 63 59 65 60 64 61 10 62 34 63 35 64 39 65 36 66 38 67
REMARK SMILES IDX 37 68 11 69 12 70 13 72 14 73 33 74 15 75 32 76 16 77 17 78
REMARK SMILES IDX 18 79 19 80 20 81 21 83 22 84 23 85 31 86 24 87 30 88 25 91
REMARK SMILES IDX 29 92 26 93 28 94 27 95
REMARK H PARENT 7 4 3 11 81 29 59 40 11 71 19 82 31 89 31 90
REMARK Flexibility Score: inf
ROOT
ATOM      1  N   UNL A   1      37.730  21.935  24.714  1.00  0.00    -0.354 N 
ATOM      2  C   UNL A   1      36.888  20.949  25.129  1.00  0.00     0.247 C 
ATOM      3  O   UNL A   1      37.412  19.858  25.383  1.00  0.00    -0.272 OA
ATOM      4  H   UNL A   1      38.601  21.615  24.386  1.00  0.00     0.163 HD
ENDROOT
BRANCH   1   5
ATOM      5  C   UNL A   1      37.566  23.376  24.674  1.00  0.00     0.117 C 
BRANCH   5   6
ATOM      6  C   UNL A   1      37.545  23.938  26.084  1.00  0.00     0.042 C 
BRANCH   6   7
ATOM      7  C   UNL A   1      38.821  23.606  26.833  1.00  0.00     0.118 C 
BRANCH   7   8
ATOM      8  N   UNL A   1      39.998  23.992  26.069  1.00  0.00    -0.352 N 
ATOM      9  O   UNL A   1      41.412  25.444  25.083  1.00  0.00    -0.269 OA
ATOM     10  C   UNL A   1      40.618  25.215  25.987  1.00  0.00     0.251 C 
ATOM     11  H   UNL A   1      40.409  23.274  25.535  1.00  0.00     0.163 HD
BRANCH  10  12
ATOM     12  C   UNL A   1      40.322  26.249  26.999  1.00  0.00     0.039 A 
ATOM     13  C   UNL A   1      39.769  25.883  28.227  1.00  0.00     0.014 A 
ATOM     14  C   UNL A   1      40.643  27.585  26.744  1.00  0.00     0.014 A 
ATOM     15  C   UNL A   1      39.397  26.855  29.139  1.00  0.00     0.010 A 
ATOM     16  C   UNL A   1      40.397  28.551  27.724  1.00  0.00     0.010 A 
ATOM     17  C   UNL A   1      39.773  28.189  28.927  1.00  0.00    -0.014 A 
BRANCH  17  18
ATOM     18  C   UNL A   1      39.659  29.132  30.063  1.00  0.00     0.031 A 
ATOM     19  C   UNL A   1      38.613  30.205  30.096  1.00  0.00     0.074 A 
ATOM     20  C   UNL A   1      40.528  28.980  31.083  1.00  0.00     0.049 A 
ATOM     21  N   UNL A   1      38.399  31.102  31.023  1.00  0.00    -0.248 NA
ATOM     22  C   UNL A   1      37.696  30.292  28.949  1.00  0.00     0.031 C 
ATOM     23  C   UNL A   1      41.594  27.970  31.142  1.00  0.00     0.029 A 
ATOM     24  N   UNL A   1      40.649  29.649  32.272  1.00  0.00    -0.354 N 
ATOM     25  C   UNL A   1      37.344  31.878  30.563  1.00  0.00     0.074 A 
ATOM     26  C   UNL A   1      36.964  31.353  29.269  1.00  0.00     0.031 C 
ATOM     27  C   UNL A   1      42.218  28.051  32.323  1.00  0.00     0.029 A 
ATOM     28  C   UNL A   1      41.667  29.175  33.065  1.00  0.00     0.049 A 
ATOM     29  H   UNL A   1      40.064  30.397  32.533  1.00  0.00     0.167 HD
ATOM     30  C   UNL A   1      36.757  32.935  31.172  1.00  0.00     0.031 A 
ATOM     31  C   UNL A   1      42.137  29.619  34.243  1.00  0.00     0.031 A 
ATOM     32  C   UNL A   1      37.147  33.443  32.462  1.00  0.00     0.049 A 
ATOM     33  C   UNL A   1      41.490  30.820  34.861  1.00  0.00     0.074 A 
ATOM     34  C   UNL A   1      36.580  34.479  33.185  1.00  0.00     0.029 A 
ATOM     35  N   UNL A   1      38.208  32.964  33.215  1.00  0.00    -0.354 N 
ATOM     36  N   UNL A   1      40.455  31.505  34.439  1.00  0.00    -0.248 NA
ATOM     37  C   UNL A   1      42.078  31.314  36.110  1.00  0.00     0.031 C 
ATOM     38  C   UNL A   1      37.340  34.671  34.342  1.00  0.00     0.029 A 
ATOM     39  C   UNL A   1      38.340  33.711  34.373  1.00  0.00     0.049 A 
ATOM     40  H   UNL A   1      38.782  32.204  32.964  1.00  0.00     0.167 HD
ATOM     41  C   UNL A   1      40.263  32.508  35.376  1.00  0.00     0.074 A 
ATOM     42  C   UNL A   1      41.263  32.316  36.407  1.00  0.00     0.031 C 
ATOM     43  C   UNL A   1      39.348  33.507  35.380  1.00  0.00     0.031 A 
BRANCH  30  44
ATOM     44  C   UNL A   1      35.650  33.649  30.446  1.00  0.00    -0.014 A 
ATOM     45  C   UNL A   1      34.429  33.938  31.071  1.00  0.00     0.009 A 
ATOM     46  C   UNL A   1      35.878  34.129  29.145  1.00  0.00     0.009 A 
ATOM     47  C   UNL A   1      33.453  34.682  30.404  1.00  0.00     0.001 A 
ATOM     48  C   UNL A   1      34.911  34.893  28.489  1.00  0.00     0.001 A 
ATOM     49  C   UNL A   1      33.697  35.166  29.118  1.00  0.00     0.000 A 
ENDBRANCH  30  44
BRANCH  31  50
ATOM     50  C   UNL A   1      43.318  28.971  34.871  1.00  0.00    -0.014 A 
ATOM     51  C   UNL A   1      44.617  29.425  34.602  1.00  0.00     0.009 A 
ATOM     52  C   UNL A   1      43.148  27.874  35.733  1.00  0.00     0.009 A 
ATOM     53  C   UNL A   1      45.722  28.770  35.153  1.00  0.00     0.001 A 
ATOM     54  C   UNL A   1      44.251  27.246  36.313  1.00  0.00     0.001 A 
ATOM     55  C   UNL A   1      45.538  27.685  36.010  1.00  0.00     0.000 A 
ENDBRANCH  31  50
BRANCH  43  56
ATOM     56  C   UNL A   1      39.385  34.450  36.547  1.00  0.00    -0.014 A 
ATOM     57  C   UNL A   1      38.773  34.120  37.767  1.00  0.00     0.009 A 
ATOM     58  C   UNL A   1      40.059  35.675  36.430  1.00  0.00     0.009 A 
ATOM     59  C   UNL A   1      38.803  35.016  38.835  1.00  0.00     0.001 A 
ATOM     60  C   UNL A   1      40.117  36.555  37.512  1.00  0.00     0.001 A 
ATOM     61  C   UNL A   1      39.480  36.229  38.708  1.00  0.00     0.000 A 
ENDBRANCH  43  56
ENDBRANCH  17  18
ENDBRANCH  10  12
ENDBRANCH   7   8
ENDBRANCH   6   7
ENDBRANCH   5   6
ENDBRANCH   1   5
BRANCH   2  62
ATOM     62  C   UNL A   1      35.356  21.153  25.316  1.00  0.00     0.202 C 
BRANCH  62  63
ATOM     63  C   UNL A   1      34.587  19.988  24.711  1.00  0.00    -0.016 A 
ATOM     64  C   UNL A   1      35.219  18.734  24.618  1.00  0.00     0.006 A 
ATOM     65  C   UNL A   1      33.244  20.085  24.320  1.00  0.00     0.006 A 
ATOM     66  C   UNL A   1      34.528  17.613  24.156  1.00  0.00     0.000 A 
ATOM     67  C   UNL A   1      32.548  18.959  23.872  1.00  0.00     0.000 A 
ATOM     68  C   UNL A   1      33.190  17.725  23.791  1.00  0.00     0.000 A 
ENDBRANCH  62  63
BRANCH  62  69
ATOM     69  N   UNL A   1      34.913  21.505  26.658  1.00  0.00    -0.340 N 
ATOM     70  C   UNL A   1      34.101  22.507  27.088  1.00  0.00     0.224 C 
ATOM     71  H   UNL A   1      35.260  20.922  27.371  1.00  0.00     0.164 HD
ATOM     72  O   UNL A   1      34.110  22.746  28.299  1.00  0.00    -0.275 OA
BRANCH  70  73
ATOM     73  C   UNL A   1      33.155  23.279  26.165  1.00  0.00     0.078 C 
ATOM     74  C   UNL A   1      31.756  23.548  26.730  1.00  0.00     0.014 C 
ATOM     75  C   UNL A   1      33.877  24.511  25.602  1.00  0.00     0.014 C 
ATOM     76  C   UNL A   1      30.920  24.497  25.868  1.00  0.00     0.006 C 
ATOM     77  C   UNL A   1      32.966  25.406  24.774  1.00  0.00     0.006 C 
ATOM     78  C   UNL A   1      31.675  25.788  25.509  1.00  0.00     0.008 C 
BRANCH  78  79
ATOM     79  C   UNL A   1      31.897  26.667  26.755  1.00  0.00     0.119 C 
BRANCH  79  80
ATOM     80  N   UNL A   1      32.948  27.652  26.569  1.00  0.00    -0.351 N 
ATOM     81  C   UNL A   1      32.844  28.921  26.070  1.00  0.00     0.278 C 
ATOM     82  H   UNL A   1      33.852  27.370  26.837  1.00  0.00     0.163 HD
ATOM     83  O   UNL A   1      33.834  29.653  26.126  1.00  0.00    -0.268 OA
BRANCH  81  84
ATOM     84  C   UNL A   1      31.490  29.404  25.527  1.00  0.00     0.277 C 
ATOM     85  C   UNL A   1      31.402  29.172  24.010  1.00  0.00     0.111 C 
ATOM     86  N   UNL A   1      31.264  30.808  25.974  1.00  0.00    -0.332 N 
ATOM     87  C   UNL A   1      30.048  29.657  23.562  1.00  0.00    -0.033 A 
ATOM     88  C   UNL A   1      30.562  31.642  24.988  1.00  0.00     0.298 C 
ATOM     89  H   UNL A   1      32.170  31.232  26.166  1.00  0.00     0.347 HD
ATOM     90  H   UNL A   1      30.667  30.762  26.800  1.00  0.00     0.347 HD
ATOM     91  C   UNL A   1      29.231  28.933  22.693  1.00  0.00     0.004 A 
ATOM     92  C   UNL A   1      29.610  30.882  24.098  1.00  0.00     0.010 A 
ATOM     93  C   UNL A   1      27.969  29.428  22.364  1.00  0.00     0.000 A 
ATOM     94  C   UNL A   1      28.354  31.379  23.747  1.00  0.00     0.010 A 
ATOM     95  C   UNL A   1      27.533  30.647  22.888  1.00  0.00     0.001 A 
ENDBRANCH  81  84
ENDBRANCH  79  80
ENDBRANCH  78  79
ENDBRANCH  70  73
ENDBRANCH  62  69
ENDBRANCH   2  62
TORSDOF 16
ENDMDL
