MODEL 1
REMARK VINA RESULT:     -10.5      0.000      0.000
REMARK SMILES O=C(NCCCNC(=O)[C@@H]1CC[C@]2(CC[NH2+]C2)C1)c1ccc(-c2c3nc(c(-c4ccccc4)c4ccc([nH]4)c(-c4ccccc4)c4nc(c(-c5ccccc5)c5ccc2[nH]5)C=C4)C=C3)cc1
REMARK SMILES IDX 4 1 3 2 1 3 2 4 19 6 20 7 66 8 21 9 65 10 22 11 23 12 24 13
REMARK SMILES IDX 59 14 25 15 64 16 58 17 60 18 26 19 63 20 57 21 56 22 27 24
REMARK SMILES IDX 49 25 34 26 48 27 35 28 38 29 47 30 61 31 36 32 37 33 46 35
REMARK SMILES IDX 62 36 39 37 28 38 29 39 33 40 30 41 32 42 31 43 50 44 51 45
REMARK SMILES IDX 55 46 52 47 54 48 53 49 40 50 41 51 45 52 42 53 44 54 43 55
REMARK SMILES IDX 5 56 6 57 7 58 8 59 9 61 10 62 11 63 18 64 12 65 13 66 14 67
REMARK SMILES IDX 17 68 15 69 16 70
REMARK H PARENT 3 5 60 23 38 34 7 60 16 71 16 72
REMARK Flexibility Score: inf
ROOT
ATOM      1  C   UNL A   1      33.587  28.619  27.236  1.00  0.00     0.118 C 
ENDROOT
BRANCH   1   2
ATOM      2  N   UNL A   1      33.579  30.020  27.638  1.00  0.00    -0.352 N 
ATOM      3  O   UNL A   1      34.276  31.889  28.683  1.00  0.00    -0.269 OA
ATOM      4  C   UNL A   1      34.543  30.759  28.273  1.00  0.00     0.251 C 
ATOM      5  H   UNL A   1      32.754  30.511  27.419  1.00  0.00     0.163 HD
BRANCH   4   6
ATOM      6  C   UNL A   1      35.896  30.205  28.479  1.00  0.00     0.039 A 
ATOM      7  C   UNL A   1      36.854  30.264  27.464  1.00  0.00     0.014 A 
ATOM      8  C   UNL A   1      36.229  29.664  29.725  1.00  0.00     0.014 A 
ATOM      9  C   UNL A   1      38.102  29.680  27.652  1.00  0.00     0.010 A 
ATOM     10  C   UNL A   1      37.513  29.158  29.943  1.00  0.00     0.010 A 
ATOM     11  C   UNL A   1      38.456  29.155  28.904  1.00  0.00    -0.014 A 
BRANCH  11  12
ATOM     12  C   UNL A   1      39.858  28.737  29.146  1.00  0.00     0.031 A 
ATOM     13  C   UNL A   1      40.868  29.677  29.737  1.00  0.00     0.074 A 
ATOM     14  C   UNL A   1      40.213  27.483  28.803  1.00  0.00     0.049 A 
ATOM     15  N   UNL A   1      42.138  29.468  29.979  1.00  0.00    -0.248 NA
ATOM     16  C   UNL A   1      40.404  31.026  30.097  1.00  0.00     0.031 C 
ATOM     17  C   UNL A   1      39.316  26.485  28.210  1.00  0.00     0.029 A 
ATOM     18  N   UNL A   1      41.413  26.829  28.901  1.00  0.00    -0.354 N 
ATOM     19  C   UNL A   1      42.629  30.658  30.496  1.00  0.00     0.074 A 
ATOM     20  C   UNL A   1      41.526  31.593  30.525  1.00  0.00     0.031 C 
ATOM     21  C   UNL A   1      39.990  25.342  28.020  1.00  0.00     0.029 A 
ATOM     22  C   UNL A   1      41.379  25.547  28.407  1.00  0.00     0.049 A 
ATOM     23  H   UNL A   1      42.222  27.237  29.287  1.00  0.00     0.167 HD
ATOM     24  C   UNL A   1      43.890  30.940  30.905  1.00  0.00     0.031 A 
ATOM     25  C   UNL A   1      42.363  24.645  28.241  1.00  0.00     0.031 A 
ATOM     26  C   UNL A   1      44.981  30.000  30.875  1.00  0.00     0.049 A 
ATOM     27  C   UNL A   1      43.759  25.011  28.655  1.00  0.00     0.074 A 
ATOM     28  C   UNL A   1      46.276  30.172  31.333  1.00  0.00     0.029 A 
ATOM     29  N   UNL A   1      44.913  28.722  30.342  1.00  0.00    -0.354 N 
ATOM     30  N   UNL A   1      44.187  26.112  29.222  1.00  0.00    -0.248 NA
ATOM     31  C   UNL A   1      44.807  24.014  28.402  1.00  0.00     0.031 C 
ATOM     32  C   UNL A   1      47.010  29.029  31.009  1.00  0.00     0.029 A 
ATOM     33  C   UNL A   1      46.157  28.117  30.409  1.00  0.00     0.049 A 
ATOM     34  H   UNL A   1      44.100  28.307  29.970  1.00  0.00     0.167 HD
ATOM     35  C   UNL A   1      45.551  25.936  29.403  1.00  0.00     0.074 A 
ATOM     36  C   UNL A   1      45.873  24.610  28.916  1.00  0.00     0.031 C 
ATOM     37  C   UNL A   1      46.460  26.800  29.915  1.00  0.00     0.031 A 
BRANCH  24  38
ATOM     38  C   UNL A   1      44.189  32.330  31.391  1.00  0.00    -0.014 A 
ATOM     39  C   UNL A   1      44.567  33.352  30.507  1.00  0.00     0.009 A 
ATOM     40  C   UNL A   1      43.983  32.645  32.745  1.00  0.00     0.009 A 
ATOM     41  C   UNL A   1      44.745  34.658  30.973  1.00  0.00     0.001 A 
ATOM     42  C   UNL A   1      44.138  33.955  33.203  1.00  0.00     0.001 A 
ATOM     43  C   UNL A   1      44.522  34.960  32.316  1.00  0.00     0.000 A 
ENDBRANCH  24  38
BRANCH  25  44
ATOM     44  C   UNL A   1      42.078  23.336  27.596  1.00  0.00    -0.014 A 
ATOM     45  C   UNL A   1      42.339  23.131  26.234  1.00  0.00     0.009 A 
ATOM     46  C   UNL A   1      41.516  22.287  28.344  1.00  0.00     0.009 A 
ATOM     47  C   UNL A   1      42.009  21.916  25.627  1.00  0.00     0.001 A 
ATOM     48  C   UNL A   1      41.223  21.063  27.744  1.00  0.00     0.001 A 
ATOM     49  C   UNL A   1      41.456  20.883  26.383  1.00  0.00     0.000 A 
ENDBRANCH  25  44
BRANCH  37  50
ATOM     50  C   UNL A   1      47.885  26.331  29.987  1.00  0.00    -0.014 A 
ATOM     51  C   UNL A   1      48.756  26.495  28.898  1.00  0.00     0.009 A 
ATOM     52  C   UNL A   1      48.374  25.760  31.173  1.00  0.00     0.009 A 
ATOM     53  C   UNL A   1      50.082  26.072  28.988  1.00  0.00     0.001 A 
ATOM     54  C   UNL A   1      49.709  25.368  31.269  1.00  0.00     0.001 A 
ATOM     55  C   UNL A   1      50.560  25.517  30.174  1.00  0.00     0.000 A 
ENDBRANCH  37  50
ENDBRANCH  11  12
ENDBRANCH   4   6
ENDBRANCH   1   2
BRANCH   1  56
ATOM     56  C   UNL A   1      32.187  28.032  27.109  1.00  0.00     0.042 C 
BRANCH  56  57
ATOM     57  C   UNL A   1      32.027  27.067  25.944  1.00  0.00     0.117 C 
BRANCH  57  58
ATOM     58  N   UNL A   1      32.056  25.682  26.376  1.00  0.00    -0.356 N 
ATOM     59  C   UNL A   1      32.956  24.701  26.088  1.00  0.00     0.223 C 
ATOM     60  H   UNL A   1      31.317  25.412  26.967  1.00  0.00     0.163 HD
ATOM     61  O   UNL A   1      32.713  23.563  26.486  1.00  0.00    -0.275 OA
BRANCH  59  62
ATOM     62  C   UNL A   1      34.208  25.058  25.288  1.00  0.00     0.079 C 
ATOM     63  C   UNL A   1      34.059  24.749  23.800  1.00  0.00     0.014 C 
ATOM     64  C   UNL A   1      35.413  24.207  25.722  1.00  0.00     0.026 C 
ATOM     65  C   UNL A   1      34.384  23.265  23.708  1.00  0.00     0.014 C 
ATOM     66  C   UNL A   1      35.557  23.066  24.681  1.00  0.00     0.026 C 
ATOM     67  C   UNL A   1      35.559  21.676  25.345  1.00  0.00     0.074 C 
ATOM     68  C   UNL A   1      36.914  23.124  23.957  1.00  0.00     0.267 C 
ATOM     69  C   UNL A   1      36.880  21.041  24.940  1.00  0.00     0.261 C 
ATOM     70  N   UNL A   1      37.766  22.181  24.688  1.00  0.00    -0.346 N 
ATOM     71  H   UNL A   1      38.568  21.900  24.124  1.00  0.00     0.346 HD
ATOM     72  H   UNL A   1      38.156  22.578  25.544  1.00  0.00     0.346 HD
ENDBRANCH  59  62
ENDBRANCH  57  58
ENDBRANCH  56  57
ENDBRANCH   1  56
TORSDOF 10
ENDMDL
MODEL 2
REMARK VINA RESULT:     -10.4      2.944      7.542
REMARK SMILES O=C(NCCCNC(=O)[C@@H]1CC[C@]2(CC[NH2+]C2)C1)c1ccc(-c2c3nc(c(-c4ccccc4)c4ccc([nH]4)c(-c4ccccc4)c4nc(c(-c5ccccc5)c5ccc2[nH]5)C=C4)C=C3)cc1
REMARK SMILES IDX 4 1 3 2 1 3 2 4 19 6 20 7 66 8 21 9 65 10 22 11 23 12 24 13
REMARK SMILES IDX 59 14 25 15 64 16 58 17 60 18 26 19 63 20 57 21 56 22 27 24
REMARK SMILES IDX 49 25 34 26 48 27 35 28 38 29 47 30 61 31 36 32 37 33 46 35
REMARK SMILES IDX 62 36 39 37 28 38 29 39 33 40 30 41 32 42 31 43 50 44 51 45
REMARK SMILES IDX 55 46 52 47 54 48 53 49 40 50 41 51 45 52 42 53 44 54 43 55
REMARK SMILES IDX 5 56 6 57 7 58 8 59 9 61 10 62 11 63 18 64 12 65 13 66 14 67
REMARK SMILES IDX 17 68 15 69 16 70
REMARK H PARENT 3 5 60 23 38 34 7 60 16 71 16 72
REMARK Flexibility Score: inf
ROOT
ATOM      1  C   UNL A   1      39.051  20.141  26.266  1.00  0.00     0.118 C 
ENDROOT
BRANCH   1   2
ATOM      2  N   UNL A   1      40.147  19.202  26.071  1.00  0.00    -0.352 N 
ATOM      3  O   UNL A   1      42.257  18.518  25.680  1.00  0.00    -0.269 OA
ATOM      4  C   UNL A   1      41.499  19.423  26.030  1.00  0.00     0.251 C 
ATOM      5  H   UNL A   1      39.875  18.263  25.950  1.00  0.00     0.163 HD
BRANCH   4   6
ATOM      6  C   UNL A   1      42.052  20.744  26.393  1.00  0.00     0.039 A 
ATOM      7  C   UNL A   1      42.347  21.690  25.407  1.00  0.00     0.014 A 
ATOM      8  C   UNL A   1      42.231  21.060  27.743  1.00  0.00     0.014 A 
ATOM      9  C   UNL A   1      42.928  22.902  25.761  1.00  0.00     0.010 A 
ATOM     10  C   UNL A   1      42.731  22.314  28.103  1.00  0.00     0.010 A 
ATOM     11  C   UNL A   1      43.091  23.241  27.113  1.00  0.00    -0.014 A 
BRANCH  11  12
ATOM     12  C   UNL A   1      43.507  24.619  27.472  1.00  0.00     0.031 A 
ATOM     13  C   UNL A   1      42.508  25.657  27.891  1.00  0.00     0.074 A 
ATOM     14  C   UNL A   1      44.818  24.924  27.393  1.00  0.00     0.049 A 
ATOM     15  N   UNL A   1      42.716  26.912  28.205  1.00  0.00    -0.248 NA
ATOM     16  C   UNL A   1      41.098  25.246  27.965  1.00  0.00     0.031 C 
ATOM     17  C   UNL A   1      45.878  23.996  26.985  1.00  0.00     0.029 A 
ATOM     18  N   UNL A   1      45.486  26.093  27.651  1.00  0.00    -0.354 N 
ATOM     19  C   UNL A   1      41.466  27.445  28.490  1.00  0.00     0.074 A 
ATOM     20  C   UNL A   1      40.501  26.383  28.303  1.00  0.00     0.031 C 
ATOM     21  C   UNL A   1      47.061  24.623  27.044  1.00  0.00     0.029 A 
ATOM     22  C   UNL A   1      46.838  26.012  27.420  1.00  0.00     0.049 A 
ATOM     23  H   UNL A   1      45.041  26.911  27.971  1.00  0.00     0.167 HD
ATOM     24  C   UNL A   1      41.158  28.709  28.869  1.00  0.00     0.031 A 
ATOM     25  C   UNL A   1      47.793  26.958  27.464  1.00  0.00     0.031 A 
ATOM     26  C   UNL A   1      42.128  29.758  29.055  1.00  0.00     0.049 A 
ATOM     27  C   UNL A   1      47.406  28.361  27.835  1.00  0.00     0.074 A 
ATOM     28  C   UNL A   1      41.918  31.050  29.506  1.00  0.00     0.029 A 
ATOM     29  N   UNL A   1      43.482  29.644  28.784  1.00  0.00    -0.354 N 
ATOM     30  N   UNL A   1      46.232  28.826  28.184  1.00  0.00    -0.248 NA
ATOM     31  C   UNL A   1      48.474  29.368  27.813  1.00  0.00     0.031 C 
ATOM     32  C   UNL A   1      43.132  31.740  29.435  1.00  0.00     0.029 A 
ATOM     33  C   UNL A   1      44.110  30.859  29.004  1.00  0.00     0.049 A 
ATOM     34  H   UNL A   1      43.931  28.821  28.480  1.00  0.00     0.167 HD
ATOM     35  C   UNL A   1      46.423  30.177  28.433  1.00  0.00     0.074 A 
ATOM     36  C   UNL A   1      47.830  30.449  28.227  1.00  0.00     0.031 C 
ATOM     37  C   UNL A   1      45.510  31.113  28.789  1.00  0.00     0.031 A 
BRANCH  24  38
ATOM     38  C   UNL A   1      39.712  29.059  29.079  1.00  0.00    -0.014 A 
ATOM     39  C   UNL A   1      38.903  29.501  28.021  1.00  0.00     0.009 A 
ATOM     40  C   UNL A   1      39.125  28.840  30.337  1.00  0.00     0.009 A 
ATOM     41  C   UNL A   1      37.538  29.727  28.224  1.00  0.00     0.001 A 
ATOM     42  C   UNL A   1      37.758  29.044  30.529  1.00  0.00     0.001 A 
ATOM     43  C   UNL A   1      36.966  29.490  29.473  1.00  0.00     0.000 A 
ENDBRANCH  24  38
BRANCH  25  44
ATOM     44  C   UNL A   1      49.191  26.628  27.083  1.00  0.00    -0.014 A 
ATOM     45  C   UNL A   1      49.608  26.687  25.745  1.00  0.00     0.009 A 
ATOM     46  C   UNL A   1      50.115  26.227  28.063  1.00  0.00     0.009 A 
ATOM     47  C   UNL A   1      50.908  26.315  25.394  1.00  0.00     0.001 A 
ATOM     48  C   UNL A   1      51.423  25.893  27.714  1.00  0.00     0.001 A 
ATOM     49  C   UNL A   1      51.815  25.922  26.378  1.00  0.00     0.000 A 
ENDBRANCH  25  44
BRANCH  37  50
ATOM     50  C   UNL A   1      46.011  32.515  28.992  1.00  0.00    -0.014 A 
ATOM     51  C   UNL A   1      45.996  33.446  27.941  1.00  0.00     0.009 A 
ATOM     52  C   UNL A   1      46.460  32.920  30.258  1.00  0.00     0.009 A 
ATOM     53  C   UNL A   1      46.446  34.750  28.151  1.00  0.00     0.001 A 
ATOM     54  C   UNL A   1      46.879  34.234  30.471  1.00  0.00     0.001 A 
ATOM     55  C   UNL A   1      46.880  35.145  29.416  1.00  0.00     0.000 A 
ENDBRANCH  37  50
ENDBRANCH  11  12
ENDBRANCH   4   6
ENDBRANCH   1   2
BRANCH   1  56
ATOM     56  C   UNL A   1      38.233  20.366  25.001  1.00  0.00     0.042 C 
BRANCH  56  57
ATOM     57  C   UNL A   1      37.448  21.670  24.997  1.00  0.00     0.117 C 
BRANCH  57  58
ATOM     58  N   UNL A   1      36.418  21.689  26.018  1.00  0.00    -0.356 N 
ATOM     59  C   UNL A   1      35.081  21.450  25.908  1.00  0.00     0.223 C 
ATOM     60  H   UNL A   1      36.731  21.904  26.926  1.00  0.00     0.163 HD
ATOM     61  O   UNL A   1      34.381  21.631  26.902  1.00  0.00    -0.275 OA
BRANCH  59  62
ATOM     62  C   UNL A   1      34.523  20.978  24.567  1.00  0.00     0.079 C 
ATOM     63  C   UNL A   1      33.074  21.409  24.352  1.00  0.00     0.014 C 
ATOM     64  C   UNL A   1      34.466  19.444  24.491  1.00  0.00     0.026 C 
ATOM     65  C   UNL A   1      32.272  20.350  25.095  1.00  0.00     0.014 C 
ATOM     66  C   UNL A   1      33.001  19.032  24.794  1.00  0.00     0.026 C 
ATOM     67  C   UNL A   1      32.915  18.017  25.951  1.00  0.00     0.074 C 
ATOM     68  C   UNL A   1      32.363  18.284  23.609  1.00  0.00     0.267 C 
ATOM     69  C   UNL A   1      32.224  16.797  25.362  1.00  0.00     0.261 C 
ATOM     70  N   UNL A   1      32.531  16.864  23.931  1.00  0.00    -0.346 N 
ATOM     71  H   UNL A   1      31.882  16.289  23.393  1.00  0.00     0.346 HD
ATOM     72  H   UNL A   1      33.462  16.512  23.708  1.00  0.00     0.346 HD
ENDBRANCH  59  62
ENDBRANCH  57  58
ENDBRANCH  56  57
ENDBRANCH   1  56
TORSDOF 10
ENDMDL
MODEL 3
REMARK VINA RESULT:     -10.4      1.876      7.520
REMARK SMILES O=C(NCCCNC(=O)[C@@H]1CC[C@]2(CC[NH2+]C2)C1)c1ccc(-c2c3nc(c(-c4ccccc4)c4ccc([nH]4)c(-c4ccccc4)c4nc(c(-c5ccccc5)c5ccc2[nH]5)C=C4)C=C3)cc1
REMARK SMILES IDX 4 1 3 2 1 3 2 4 19 6 20 7 66 8 21 9 65 10 22 11 23 12 24 13
REMARK SMILES IDX 59 14 25 15 64 16 58 17 60 18 26 19 63 20 57 21 56 22 27 24
REMARK SMILES IDX 49 25 34 26 48 27 35 28 38 29 47 30 61 31 36 32 37 33 46 35
REMARK SMILES IDX 62 36 39 37 28 38 29 39 33 40 30 41 32 42 31 43 50 44 51 45
REMARK SMILES IDX 55 46 52 47 54 48 53 49 40 50 41 51 45 52 42 53 44 54 43 55
REMARK SMILES IDX 5 56 6 57 7 58 8 59 9 61 10 62 11 63 18 64 12 65 13 66 14 67
REMARK SMILES IDX 17 68 15 69 16 70
REMARK H PARENT 3 5 60 23 38 34 7 60 16 71 16 72
REMARK Flexibility Score: inf
ROOT
ATOM      1  C   UNL A   1      38.928  20.194  25.738  1.00  0.00     0.118 C 
ENDROOT
BRANCH   1   2
ATOM      2  N   UNL A   1      40.025  19.239  25.821  1.00  0.00    -0.352 N 
ATOM      3  O   UNL A   1      42.158  18.527  25.949  1.00  0.00    -0.269 OA
ATOM      4  C   UNL A   1      41.352  19.446  26.096  1.00  0.00     0.251 C 
ATOM      5  H   UNL A   1      39.776  18.302  25.654  1.00  0.00     0.163 HD
BRANCH   4   6
ATOM      6  C   UNL A   1      41.824  20.767  26.560  1.00  0.00     0.039 A 
ATOM      7  C   UNL A   1      42.191  21.756  25.643  1.00  0.00     0.014 A 
ATOM      8  C   UNL A   1      41.849  21.039  27.931  1.00  0.00     0.014 A 
ATOM      9  C   UNL A   1      42.694  22.969  26.097  1.00  0.00     0.010 A 
ATOM     10  C   UNL A   1      42.271  22.292  28.384  1.00  0.00     0.010 A 
ATOM     11  C   UNL A   1      42.703  23.264  27.469  1.00  0.00    -0.014 A 
BRANCH  11  12
ATOM     12  C   UNL A   1      43.037  24.638  27.915  1.00  0.00     0.031 A 
ATOM     13  C   UNL A   1      41.969  25.646  28.220  1.00  0.00     0.074 A 
ATOM     14  C   UNL A   1      44.340  24.969  28.024  1.00  0.00     0.049 A 
ATOM     15  N   UNL A   1      42.104  26.895  28.590  1.00  0.00    -0.248 NA
ATOM     16  C   UNL A   1      40.570  25.208  28.090  1.00  0.00     0.031 C 
ATOM     17  C   UNL A   1      45.465  24.071  27.742  1.00  0.00     0.029 A 
ATOM     18  N   UNL A   1      44.941  26.142  28.400  1.00  0.00    -0.354 N 
ATOM     19  C   UNL A   1      40.817  27.398  28.714  1.00  0.00     0.074 A 
ATOM     20  C   UNL A   1      39.909  26.325  28.371  1.00  0.00     0.031 C 
ATOM     21  C   UNL A   1      46.615  24.717  27.978  1.00  0.00     0.029 A 
ATOM     22  C   UNL A   1      46.314  26.091  28.355  1.00  0.00     0.049 A 
ATOM     23  H   UNL A   1      44.439  26.942  28.677  1.00  0.00     0.167 HD
ATOM     24  C   UNL A   1      40.433  28.645  29.080  1.00  0.00     0.031 A 
ATOM     25  C   UNL A   1      47.233  27.053  28.552  1.00  0.00     0.031 A 
ATOM     26  C   UNL A   1      41.346  29.706  29.423  1.00  0.00     0.049 A 
ATOM     27  C   UNL A   1      46.770  28.437  28.901  1.00  0.00     0.074 A 
ATOM     28  C   UNL A   1      41.049  30.981  29.873  1.00  0.00     0.029 A 
ATOM     29  N   UNL A   1      42.726  29.624  29.337  1.00  0.00    -0.354 N 
ATOM     30  N   UNL A   1      45.549  28.872  29.098  1.00  0.00    -0.248 NA
ATOM     31  C   UNL A   1      47.809  29.464  29.051  1.00  0.00     0.031 C 
ATOM     32  C   UNL A   1      42.246  31.694  29.985  1.00  0.00     0.029 A 
ATOM     33  C   UNL A   1      43.292  30.843  29.671  1.00  0.00     0.049 A 
ATOM     34  H   UNL A   1      43.230  28.818  29.077  1.00  0.00     0.167 HD
ATOM     35  C   UNL A   1      45.675  30.219  29.405  1.00  0.00     0.074 A 
ATOM     36  C   UNL A   1      47.091  30.522  29.400  1.00  0.00     0.031 C 
ATOM     37  C   UNL A   1      44.703  31.128  29.656  1.00  0.00     0.031 A 
BRANCH  24  38
ATOM     38  C   UNL A   1      38.964  28.964  29.098  1.00  0.00    -0.014 A 
ATOM     39  C   UNL A   1      38.217  28.913  30.284  1.00  0.00     0.009 A 
ATOM     40  C   UNL A   1      38.345  29.427  27.925  1.00  0.00     0.009 A 
ATOM     41  C   UNL A   1      36.876  29.306  30.291  1.00  0.00     0.001 A 
ATOM     42  C   UNL A   1      37.013  29.843  27.940  1.00  0.00     0.001 A 
ATOM     43  C   UNL A   1      36.278  29.779  29.123  1.00  0.00     0.000 A 
ENDBRANCH  24  38
BRANCH  25  44
ATOM     44  C   UNL A   1      48.677  26.759  28.357  1.00  0.00    -0.014 A 
ATOM     45  C   UNL A   1      49.279  26.893  27.098  1.00  0.00     0.009 A 
ATOM     46  C   UNL A   1      49.459  26.315  29.438  1.00  0.00     0.009 A 
ATOM     47  C   UNL A   1      50.622  26.554  26.917  1.00  0.00     0.001 A 
ATOM     48  C   UNL A   1      50.810  26.014  29.262  1.00  0.00     0.001 A 
ATOM     49  C   UNL A   1      51.387  26.119  27.999  1.00  0.00     0.000 A 
ENDBRANCH  25  44
BRANCH  37  50
ATOM     50  C   UNL A   1      45.141  32.532  29.959  1.00  0.00    -0.014 A 
ATOM     51  C   UNL A   1      45.251  33.492  28.940  1.00  0.00     0.009 A 
ATOM     52  C   UNL A   1      45.402  32.911  31.285  1.00  0.00     0.009 A 
ATOM     53  C   UNL A   1      45.641  34.797  29.241  1.00  0.00     0.001 A 
ATOM     54  C   UNL A   1      45.761  34.226  31.586  1.00  0.00     0.001 A 
ATOM     55  C   UNL A   1      45.887  35.165  30.563  1.00  0.00     0.000 A 
ENDBRANCH  37  50
ENDBRANCH  11  12
ENDBRANCH   4   6
ENDBRANCH   1   2
BRANCH   1  56
ATOM     56  C   UNL A   1      37.773  19.693  24.880  1.00  0.00     0.042 C 
BRANCH  56  57
ATOM     57  C   UNL A   1      36.507  20.529  25.001  1.00  0.00     0.117 C 
BRANCH  57  58
ATOM     58  N   UNL A   1      36.797  21.908  25.349  1.00  0.00    -0.356 N 
ATOM     59  C   UNL A   1      35.942  22.943  25.583  1.00  0.00     0.223 C 
ATOM     60  H   UNL A   1      37.753  22.128  25.429  1.00  0.00     0.163 HD
ATOM     61  O   UNL A   1      36.425  24.060  25.758  1.00  0.00    -0.275 OA
BRANCH  59  62
ATOM     62  C   UNL A   1      34.439  22.668  25.613  1.00  0.00     0.079 C 
ATOM     63  C   UNL A   1      33.794  22.801  24.236  1.00  0.00     0.014 C 
ATOM     64  C   UNL A   1      33.696  23.706  26.469  1.00  0.00     0.026 C 
ATOM     65  C   UNL A   1      33.550  24.297  24.097  1.00  0.00     0.014 C 
ATOM     66  C   UNL A   1      33.084  24.742  25.491  1.00  0.00     0.026 C 
ATOM     67  C   UNL A   1      33.510  26.183  25.836  1.00  0.00     0.074 C 
ATOM     68  C   UNL A   1      31.548  24.785  25.593  1.00  0.00     0.267 C 
ATOM     69  C   UNL A   1      32.211  26.936  26.081  1.00  0.00     0.261 C 
ATOM     70  N   UNL A   1      31.266  25.899  26.503  1.00  0.00    -0.346 N 
ATOM     71  H   UNL A   1      30.304  26.220  26.399  1.00  0.00     0.346 HD
ATOM     72  H   UNL A   1      31.368  25.645  27.486  1.00  0.00     0.346 HD
ENDBRANCH  59  62
ENDBRANCH  57  58
ENDBRANCH  56  57
ENDBRANCH   1  56
TORSDOF 10
ENDMDL
