MODEL 1
REMARK VINA RESULT:     -11.4      0.000      0.000
REMARK SMILES O=C(NCCCNC(=O)c1cc(-c2cccc(Cl)c2)ccc1Cl)c1ccc(-c2c3nc(c(-c4ccccc4)c4ccc([nH]4)c(-c4ccccc4)c4nc(c(-c5ccccc5)c5ccc2[nH]5)C=C4)C=C3)cc1
REMARK SMILES IDX 4 1 3 2 1 3 2 4 24 6 25 7 71 8 26 9 70 10 27 11 28 12 29 13
REMARK SMILES IDX 64 14 30 15 69 16 63 17 65 18 31 19 68 20 62 21 61 22 32 24
REMARK SMILES IDX 54 25 39 26 53 27 40 28 43 29 52 30 66 31 41 32 42 33 51 35
REMARK SMILES IDX 67 36 44 37 33 38 34 39 38 40 35 41 37 42 36 43 55 44 56 45
REMARK SMILES IDX 60 46 57 47 59 48 58 49 45 50 46 51 50 52 47 53 49 54 48 55
REMARK SMILES IDX 5 56 6 57 7 58 8 59 9 61 10 62 11 63 22 64 12 65 21 66 23 67
REMARK SMILES IDX 20 68 13 69 14 70 19 71 15 72 17 73 16 74 18 75
REMARK H PARENT 3 5 65 23 43 34 7 60
REMARK Flexibility Score: inf
ROOT
ATOM      1  C   UNL A   1      34.018  28.787  26.019  1.00  0.00     0.118 C 
ENDROOT
BRANCH   1   2
ATOM      2  N   UNL A   1      33.764  30.072  26.657  1.00  0.00    -0.352 N 
ATOM      3  O   UNL A   1      33.971  31.722  28.176  1.00  0.00    -0.269 OA
ATOM      4  C   UNL A   1      34.461  30.730  27.640  1.00  0.00     0.251 C 
ATOM      5  H   UNL A   1      32.966  30.546  26.329  1.00  0.00     0.163 HD
BRANCH   4   6
ATOM      6  C   UNL A   1      35.788  30.244  28.072  1.00  0.00     0.039 A 
ATOM      7  C   UNL A   1      36.899  30.372  27.238  1.00  0.00     0.014 A 
ATOM      8  C   UNL A   1      35.935  29.689  29.348  1.00  0.00     0.014 A 
ATOM      9  C   UNL A   1      38.111  29.804  27.606  1.00  0.00     0.010 A 
ATOM     10  C   UNL A   1      37.184  29.217  29.763  1.00  0.00     0.010 A 
ATOM     11  C   UNL A   1      38.277  29.250  28.886  1.00  0.00    -0.014 A 
BRANCH  11  12
ATOM     12  C   UNL A   1      39.631  28.814  29.304  1.00  0.00     0.031 A 
ATOM     13  C   UNL A   1      40.480  29.648  30.220  1.00  0.00     0.074 A 
ATOM     14  C   UNL A   1      40.077  27.619  28.865  1.00  0.00     0.049 A 
ATOM     15  N   UNL A   1      41.669  29.384  30.700  1.00  0.00    -0.248 NA
ATOM     16  C   UNL A   1      39.934  30.946  30.650  1.00  0.00     0.031 C 
ATOM     17  C   UNL A   1      39.344  26.725  27.961  1.00  0.00     0.029 A 
ATOM     18  N   UNL A   1      41.234  26.936  29.134  1.00  0.00    -0.354 N 
ATOM     19  C   UNL A   1      42.023  30.485  31.469  1.00  0.00     0.074 A 
ATOM     20  C   UNL A   1      40.931  31.430  31.380  1.00  0.00     0.031 C 
ATOM     21  C   UNL A   1      40.041  25.593  27.797  1.00  0.00     0.029 A 
ATOM     22  C   UNL A   1      41.299  25.708  28.523  1.00  0.00     0.049 A 
ATOM     23  H   UNL A   1      41.949  27.291  29.711  1.00  0.00     0.167 HD
ATOM     24  C   UNL A   1      43.157  30.685  32.182  1.00  0.00     0.031 A 
ATOM     25  C   UNL A   1      42.273  24.781  28.523  1.00  0.00     0.031 A 
ATOM     26  C   UNL A   1      44.237  29.737  32.274  1.00  0.00     0.049 A 
ATOM     27  C   UNL A   1      43.525  25.046  29.302  1.00  0.00     0.074 A 
ATOM     28  C   UNL A   1      45.407  29.834  33.008  1.00  0.00     0.029 A 
ATOM     29  N   UNL A   1      44.283  28.522  31.608  1.00  0.00    -0.354 N 
ATOM     30  N   UNL A   1      43.823  26.075  30.058  1.00  0.00    -0.248 NA
ATOM     31  C   UNL A   1      44.578  24.026  29.224  1.00  0.00     0.031 C 
ATOM     32  C   UNL A   1      46.184  28.701  32.745  1.00  0.00     0.029 A 
ATOM     33  C   UNL A   1      45.475  27.875  31.889  1.00  0.00     0.049 A 
ATOM     34  H   UNL A   1      43.574  28.172  31.022  1.00  0.00     0.167 HD
ATOM     35  C   UNL A   1      45.093  25.821  30.554  1.00  0.00     0.074 A 
ATOM     36  C   UNL A   1      45.496  24.529  30.038  1.00  0.00     0.031 C 
ATOM     37  C   UNL A   1      45.861  26.593  31.359  1.00  0.00     0.031 A 
BRANCH  24  38
ATOM     38  C   UNL A   1      43.312  31.993  32.908  1.00  0.00    -0.014 A 
ATOM     39  C   UNL A   1      42.902  32.141  34.241  1.00  0.00     0.009 A 
ATOM     40  C   UNL A   1      43.959  33.064  32.273  1.00  0.00     0.009 A 
ATOM     41  C   UNL A   1      43.122  33.343  34.918  1.00  0.00     0.001 A 
ATOM     42  C   UNL A   1      44.196  34.257  32.958  1.00  0.00     0.001 A 
ATOM     43  C   UNL A   1      43.774  34.398  34.279  1.00  0.00     0.000 A 
ENDBRANCH  24  38
BRANCH  25  44
ATOM     44  C   UNL A   1      42.113  23.535  27.731  1.00  0.00    -0.014 A 
ATOM     45  C   UNL A   1      41.578  22.377  28.313  1.00  0.00     0.009 A 
ATOM     46  C   UNL A   1      42.502  23.499  26.382  1.00  0.00     0.009 A 
ATOM     47  C   UNL A   1      41.461  21.202  27.567  1.00  0.00     0.001 A 
ATOM     48  C   UNL A   1      42.354  22.334  25.630  1.00  0.00     0.001 A 
ATOM     49  C   UNL A   1      41.844  21.182  26.226  1.00  0.00     0.000 A 
ENDBRANCH  25  44
BRANCH  37  50
ATOM     50  C   UNL A   1      47.205  26.045  31.741  1.00  0.00    -0.014 A 
ATOM     51  C   UNL A   1      48.310  26.179  30.887  1.00  0.00     0.009 A 
ATOM     52  C   UNL A   1      47.369  25.398  32.975  1.00  0.00     0.009 A 
ATOM     53  C   UNL A   1      49.548  25.645  31.248  1.00  0.00     0.001 A 
ATOM     54  C   UNL A   1      48.614  24.891  33.346  1.00  0.00     0.001 A 
ATOM     55  C   UNL A   1      49.700  25.006  32.478  1.00  0.00     0.000 A 
ENDBRANCH  37  50
ENDBRANCH  11  12
ENDBRANCH   4   6
ENDBRANCH   1   2
BRANCH   1  56
ATOM     56  C   UNL A   1      33.309  27.636  26.714  1.00  0.00     0.042 C 
BRANCH  56  57
ATOM     57  C   UNL A   1      32.077  27.147  25.972  1.00  0.00     0.118 C 
BRANCH  57  58
ATOM     58  N   UNL A   1      31.387  26.081  26.686  1.00  0.00    -0.352 N 
ATOM     59  C   UNL A   1      31.401  24.731  26.447  1.00  0.00     0.252 C 
ATOM     60  H   UNL A   1      30.834  26.370  27.446  1.00  0.00     0.163 HD
ATOM     61  O   UNL A   1      30.673  23.978  27.086  1.00  0.00    -0.269 OA
BRANCH  59  62
ATOM     62  C   UNL A   1      32.243  24.191  25.367  1.00  0.00     0.059 A 
ATOM     63  C   UNL A   1      33.528  23.748  25.719  1.00  0.00     0.024 A 
ATOM     64  C   UNL A   1      31.812  24.129  24.039  1.00  0.00     0.053 A 
ATOM     65  C   UNL A   1      34.377  23.179  24.758  1.00  0.00    -0.017 A 
ATOM     66  C   UNL A   1      32.619  23.506  23.089  1.00  0.00     0.022 A 
ATOM     67  Cl  UNL A   1      30.321  24.815  23.496  1.00  0.00    -0.083 Cl
ATOM     68  C   UNL A   1      33.881  23.025  23.451  1.00  0.00     0.010 A 
BRANCH  65  69
ATOM     69  C   UNL A   1      35.761  22.798  25.081  1.00  0.00    -0.017 A 
ATOM     70  C   UNL A   1      36.637  23.746  25.646  1.00  0.00     0.009 A 
ATOM     71  C   UNL A   1      36.249  21.501  24.861  1.00  0.00     0.029 A 
ATOM     72  C   UNL A   1      37.955  23.418  25.971  1.00  0.00     0.002 A 
ATOM     73  C   UNL A   1      37.569  21.176  25.187  1.00  0.00     0.041 A 
ATOM     74  C   UNL A   1      38.423  22.128  25.739  1.00  0.00     0.020 A 
ATOM     75  Cl  UNL A   1      38.148  19.580  24.904  1.00  0.00    -0.084 Cl
ENDBRANCH  65  69
ENDBRANCH  59  62
ENDBRANCH  57  58
ENDBRANCH  56  57
ENDBRANCH   1  56
TORSDOF 11
ENDMDL
MODEL 2
REMARK VINA RESULT:     -11.4      0.209      6.072
REMARK SMILES O=C(NCCCNC(=O)c1cc(-c2cccc(Cl)c2)ccc1Cl)c1ccc(-c2c3nc(c(-c4ccccc4)c4ccc([nH]4)c(-c4ccccc4)c4nc(c(-c5ccccc5)c5ccc2[nH]5)C=C4)C=C3)cc1
REMARK SMILES IDX 4 1 3 2 1 3 2 4 24 6 25 7 71 8 26 9 70 10 27 11 28 12 29 13
REMARK SMILES IDX 64 14 30 15 69 16 63 17 65 18 31 19 68 20 62 21 61 22 32 24
REMARK SMILES IDX 54 25 39 26 53 27 40 28 43 29 52 30 66 31 41 32 42 33 51 35
REMARK SMILES IDX 67 36 44 37 33 38 34 39 38 40 35 41 37 42 36 43 55 44 56 45
REMARK SMILES IDX 60 46 57 47 59 48 58 49 45 50 46 51 50 52 47 53 49 54 48 55
REMARK SMILES IDX 5 56 6 57 7 58 8 59 9 61 10 62 11 63 22 64 12 65 21 66 23 67
REMARK SMILES IDX 20 68 13 69 14 70 19 71 15 72 17 73 16 74 18 75
REMARK H PARENT 3 5 65 23 43 34 7 60
REMARK Flexibility Score: inf
ROOT
ATOM      1  C   UNL A   1      33.999  28.862  26.021  1.00  0.00     0.118 C 
ENDROOT
BRANCH   1   2
ATOM      2  N   UNL A   1      33.793  30.157  26.658  1.00  0.00    -0.352 N 
ATOM      3  O   UNL A   1      34.057  31.797  28.178  1.00  0.00    -0.269 OA
ATOM      4  C   UNL A   1      34.510  30.787  27.644  1.00  0.00     0.251 C 
ATOM      5  H   UNL A   1      33.015  30.661  26.327  1.00  0.00     0.163 HD
BRANCH   4   6
ATOM      6  C   UNL A   1      35.816  30.249  28.082  1.00  0.00     0.039 A 
ATOM      7  C   UNL A   1      36.939  30.350  27.260  1.00  0.00     0.014 A 
ATOM      8  C   UNL A   1      35.931  29.672  29.351  1.00  0.00     0.014 A 
ATOM      9  C   UNL A   1      38.127  29.735  27.632  1.00  0.00     0.010 A 
ATOM     10  C   UNL A   1      37.159  29.152  29.771  1.00  0.00     0.010 A 
ATOM     11  C   UNL A   1      38.261  29.158  28.905  1.00  0.00    -0.014 A 
BRANCH  11  12
ATOM     12  C   UNL A   1      39.595  28.670  29.329  1.00  0.00     0.031 A 
ATOM     13  C   UNL A   1      40.144  27.357  28.847  1.00  0.00     0.074 A 
ATOM     14  C   UNL A   1      40.330  29.457  30.140  1.00  0.00     0.049 A 
ATOM     15  N   UNL A   1      41.307  26.813  29.103  1.00  0.00    -0.248 NA
ATOM     16  C   UNL A   1      39.281  26.546  27.973  1.00  0.00     0.031 C 
ATOM     17  C   UNL A   1      39.896  30.750  30.682  1.00  0.00     0.029 A 
ATOM     18  N   UNL A   1      41.600  29.305  30.632  1.00  0.00    -0.354 N 
ATOM     19  C   UNL A   1      41.311  25.591  28.444  1.00  0.00     0.074 A 
ATOM     20  C   UNL A   1      40.027  25.463  27.787  1.00  0.00     0.031 C 
ATOM     21  C   UNL A   1      40.900  31.296  31.381  1.00  0.00     0.029 A 
ATOM     22  C   UNL A   1      42.020  30.365  31.399  1.00  0.00     0.049 A 
ATOM     23  H   UNL A   1      42.158  28.514  30.453  1.00  0.00     0.167 HD
ATOM     24  C   UNL A   1      42.296  24.664  28.393  1.00  0.00     0.031 A 
ATOM     25  C   UNL A   1      43.171  30.561  32.066  1.00  0.00     0.031 A 
ATOM     26  C   UNL A   1      43.575  24.800  29.042  1.00  0.00     0.049 A 
ATOM     27  C   UNL A   1      44.230  29.502  32.009  1.00  0.00     0.074 A 
ATOM     28  C   UNL A   1      44.652  23.932  29.011  1.00  0.00     0.029 A 
ATOM     29  N   UNL A   1      43.946  25.869  29.842  1.00  0.00    -0.354 N 
ATOM     30  N   UNL A   1      44.231  28.373  31.344  1.00  0.00    -0.248 NA
ATOM     31  C   UNL A   1      45.444  29.742  32.799  1.00  0.00     0.031 C 
ATOM     32  C   UNL A   1      45.657  24.451  29.835  1.00  0.00     0.029 A 
ATOM     33  C   UNL A   1      45.224  25.667  30.336  1.00  0.00     0.049 A 
ATOM     34  H   UNL A   1      43.384  26.656  30.031  1.00  0.00     0.167 HD
ATOM     35  C   UNL A   1      45.448  27.771  31.627  1.00  0.00     0.074 A 
ATOM     36  C   UNL A   1      46.171  28.675  32.499  1.00  0.00     0.031 C 
ATOM     37  C   UNL A   1      45.923  26.574  31.209  1.00  0.00     0.031 A 
BRANCH  24  38
ATOM     38  C   UNL A   1      42.032  23.395  27.630  1.00  0.00    -0.014 A 
ATOM     39  C   UNL A   1      42.442  23.248  26.296  1.00  0.00     0.009 A 
ATOM     40  C   UNL A   1      41.443  22.303  28.285  1.00  0.00     0.009 A 
ATOM     41  C   UNL A   1      42.250  22.035  25.629  1.00  0.00     0.001 A 
ATOM     42  C   UNL A   1      41.272  21.086  27.623  1.00  0.00     0.001 A 
ATOM     43  C   UNL A   1      41.672  20.953  26.294  1.00  0.00     0.000 A 
ENDBRANCH  24  38
BRANCH  25  44
ATOM     44  C   UNL A   1      43.363  31.794  32.871  1.00  0.00    -0.014 A 
ATOM     45  C   UNL A   1      42.962  31.844  34.214  1.00  0.00     0.009 A 
ATOM     46  C   UNL A   1      43.946  32.933  32.293  1.00  0.00     0.009 A 
ATOM     47  C   UNL A   1      43.119  33.019  34.953  1.00  0.00     0.001 A 
ATOM     48  C   UNL A   1      44.132  34.095  33.043  1.00  0.00     0.001 A 
ATOM     49  C   UNL A   1      43.708  34.141  34.369  1.00  0.00     0.000 A 
ENDBRANCH  25  44
BRANCH  37  50
ATOM     50  C   UNL A   1      47.295  26.189  31.678  1.00  0.00    -0.014 A 
ATOM     51  C   UNL A   1      48.432  26.481  30.909  1.00  0.00     0.009 A 
ATOM     52  C   UNL A   1      47.453  25.539  32.912  1.00  0.00     0.009 A 
ATOM     53  C   UNL A   1      49.699  26.098  31.350  1.00  0.00     0.001 A 
ATOM     54  C   UNL A   1      48.724  25.183  33.364  1.00  0.00     0.001 A 
ATOM     55  C   UNL A   1      49.844  25.454  32.579  1.00  0.00     0.000 A 
ENDBRANCH  37  50
ENDBRANCH  11  12
ENDBRANCH   4   6
ENDBRANCH   1   2
BRANCH   1  56
ATOM     56  C   UNL A   1      33.274  27.733  26.737  1.00  0.00     0.042 C 
BRANCH  56  57
ATOM     57  C   UNL A   1      32.045  27.235  25.996  1.00  0.00     0.118 C 
BRANCH  57  58
ATOM     58  N   UNL A   1      31.358  26.172  26.714  1.00  0.00    -0.352 N 
ATOM     59  C   UNL A   1      31.360  24.822  26.470  1.00  0.00     0.252 C 
ATOM     60  H   UNL A   1      30.817  26.462  27.483  1.00  0.00     0.163 HD
ATOM     61  O   UNL A   1      30.635  24.071  27.116  1.00  0.00    -0.269 OA
BRANCH  59  62
ATOM     62  C   UNL A   1      32.183  24.281  25.377  1.00  0.00     0.059 A 
ATOM     63  C   UNL A   1      33.464  23.811  25.715  1.00  0.00     0.024 A 
ATOM     64  C   UNL A   1      31.741  24.242  24.052  1.00  0.00     0.053 A 
ATOM     65  C   UNL A   1      34.294  23.239  24.740  1.00  0.00    -0.017 A 
ATOM     66  C   UNL A   1      32.530  23.617  23.089  1.00  0.00     0.022 A 
ATOM     67  Cl  UNL A   1      30.259  24.960  23.530  1.00  0.00    -0.083 Cl
ATOM     68  C   UNL A   1      33.786  23.110  23.435  1.00  0.00     0.010 A 
BRANCH  65  69
ATOM     69  C   UNL A   1      35.675  22.830  25.048  1.00  0.00    -0.017 A 
ATOM     70  C   UNL A   1      36.576  23.761  25.602  1.00  0.00     0.009 A 
ATOM     71  C   UNL A   1      36.134  21.523  24.822  1.00  0.00     0.029 A 
ATOM     72  C   UNL A   1      37.890  23.405  25.913  1.00  0.00     0.002 A 
ATOM     73  C   UNL A   1      37.450  21.171  25.134  1.00  0.00     0.041 A 
ATOM     74  C   UNL A   1      38.330  22.106  25.676  1.00  0.00     0.020 A 
ATOM     75  Cl  UNL A   1      37.994  19.564  24.844  1.00  0.00    -0.084 Cl
ENDBRANCH  65  69
ENDBRANCH  59  62
ENDBRANCH  57  58
ENDBRANCH  56  57
ENDBRANCH   1  56
TORSDOF 11
ENDMDL
MODEL 3
REMARK VINA RESULT:     -11.2      2.638      7.830
REMARK SMILES O=C(NCCCNC(=O)c1cc(-c2cccc(Cl)c2)ccc1Cl)c1ccc(-c2c3nc(c(-c4ccccc4)c4ccc([nH]4)c(-c4ccccc4)c4nc(c(-c5ccccc5)c5ccc2[nH]5)C=C4)C=C3)cc1
REMARK SMILES IDX 4 1 3 2 1 3 2 4 24 6 25 7 71 8 26 9 70 10 27 11 28 12 29 13
REMARK SMILES IDX 64 14 30 15 69 16 63 17 65 18 31 19 68 20 62 21 61 22 32 24
REMARK SMILES IDX 54 25 39 26 53 27 40 28 43 29 52 30 66 31 41 32 42 33 51 35
REMARK SMILES IDX 67 36 44 37 33 38 34 39 38 40 35 41 37 42 36 43 55 44 56 45
REMARK SMILES IDX 60 46 57 47 59 48 58 49 45 50 46 51 50 52 47 53 49 54 48 55
REMARK SMILES IDX 5 56 6 57 7 58 8 59 9 61 10 62 11 63 22 64 12 65 21 66 23 67
REMARK SMILES IDX 20 68 13 69 14 70 19 71 15 72 17 73 16 74 18 75
REMARK H PARENT 3 5 65 23 43 34 7 60
REMARK Flexibility Score: inf
ROOT
ATOM      1  C   UNL A   1      36.496  23.590  25.698  1.00  0.00     0.118 C 
ENDROOT
BRANCH   1   2
ATOM      2  N   UNL A   1      37.581  22.626  25.826  1.00  0.00    -0.352 N 
ATOM      3  O   UNL A   1      39.693  21.888  26.088  1.00  0.00    -0.269 OA
ATOM      4  C   UNL A   1      38.881  22.799  26.234  1.00  0.00     0.251 C 
ATOM      5  H   UNL A   1      37.344  21.702  25.582  1.00  0.00     0.163 HD
BRANCH   4   6
ATOM      6  C   UNL A   1      39.316  24.080  26.830  1.00  0.00     0.039 A 
ATOM      7  C   UNL A   1      39.071  24.358  28.175  1.00  0.00     0.014 A 
ATOM      8  C   UNL A   1      40.017  25.000  26.045  1.00  0.00     0.014 A 
ATOM      9  C   UNL A   1      39.376  25.610  28.690  1.00  0.00     0.010 A 
ATOM     10  C   UNL A   1      40.424  26.219  26.596  1.00  0.00     0.010 A 
ATOM     11  C   UNL A   1      40.086  26.543  27.917  1.00  0.00    -0.014 A 
BRANCH  11  12
ATOM     12  C   UNL A   1      40.546  27.798  28.559  1.00  0.00     0.031 A 
ATOM     13  C   UNL A   1      41.981  28.000  28.955  1.00  0.00     0.074 A 
ATOM     14  C   UNL A   1      39.644  28.781  28.751  1.00  0.00     0.049 A 
ATOM     15  N   UNL A   1      42.541  29.054  29.494  1.00  0.00    -0.248 NA
ATOM     16  C   UNL A   1      42.908  26.880  28.727  1.00  0.00     0.031 C 
ATOM     17  C   UNL A   1      38.218  28.694  28.416  1.00  0.00     0.029 A 
ATOM     18  N   UNL A   1      39.787  30.051  29.247  1.00  0.00    -0.354 N 
ATOM     19  C   UNL A   1      43.875  28.721  29.688  1.00  0.00     0.074 A 
ATOM     20  C   UNL A   1      44.041  27.360  29.225  1.00  0.00     0.031 C 
ATOM     21  C   UNL A   1      37.633  29.874  28.662  1.00  0.00     0.029 A 
ATOM     22  C   UNL A   1      38.622  30.776  29.239  1.00  0.00     0.049 A 
ATOM     23  H   UNL A   1      40.644  30.408  29.577  1.00  0.00     0.167 HD
ATOM     24  C   UNL A   1      44.867  29.484  30.206  1.00  0.00     0.031 A 
ATOM     25  C   UNL A   1      38.364  32.025  29.668  1.00  0.00     0.031 A 
ATOM     26  C   UNL A   1      44.698  30.841  30.657  1.00  0.00     0.049 A 
ATOM     27  C   UNL A   1      39.480  32.831  30.259  1.00  0.00     0.074 A 
ATOM     28  C   UNL A   1      45.655  31.707  31.157  1.00  0.00     0.029 A 
ATOM     29  N   UNL A   1      43.493  31.527  30.669  1.00  0.00    -0.354 N 
ATOM     30  N   UNL A   1      40.744  32.513  30.395  1.00  0.00    -0.248 NA
ATOM     31  C   UNL A   1      39.133  34.166  30.762  1.00  0.00     0.031 C 
ATOM     32  C   UNL A   1      45.020  32.900  31.519  1.00  0.00     0.029 A 
ATOM     33  C   UNL A   1      43.677  32.794  31.197  1.00  0.00     0.049 A 
ATOM     34  H   UNL A   1      42.634  31.166  30.351  1.00  0.00     0.167 HD
ATOM     35  C   UNL A   1      41.346  33.612  30.989  1.00  0.00     0.074 A 
ATOM     36  C   UNL A   1      40.315  34.615  31.160  1.00  0.00     0.031 C 
ATOM     37  C   UNL A   1      42.637  33.774  31.367  1.00  0.00     0.031 A 
BRANCH  24  38
ATOM     38  C   UNL A   1      46.232  28.868  30.343  1.00  0.00    -0.014 A 
ATOM     39  C   UNL A   1      46.581  28.112  31.472  1.00  0.00     0.009 A 
ATOM     40  C   UNL A   1      47.148  28.974  29.285  1.00  0.00     0.009 A 
ATOM     41  C   UNL A   1      47.830  27.489  31.545  1.00  0.00     0.001 A 
ATOM     42  C   UNL A   1      48.387  28.332  29.351  1.00  0.00     0.001 A 
ATOM     43  C   UNL A   1      48.728  27.593  30.483  1.00  0.00     0.000 A 
ENDBRANCH  24  38
BRANCH  25  44
ATOM     44  C   UNL A   1      36.985  32.569  29.586  1.00  0.00    -0.014 A 
ATOM     45  C   UNL A   1      36.591  33.367  28.503  1.00  0.00     0.009 A 
ATOM     46  C   UNL A   1      36.054  32.294  30.601  1.00  0.00     0.009 A 
ATOM     47  C   UNL A   1      35.301  33.899  28.452  1.00  0.00     0.001 A 
ATOM     48  C   UNL A   1      34.756  32.800  30.531  1.00  0.00     0.001 A 
ATOM     49  C   UNL A   1      34.383  33.611  29.462  1.00  0.00     0.000 A 
ENDBRANCH  25  44
BRANCH  37  50
ATOM     50  C   UNL A   1      43.000  35.093  31.984  1.00  0.00    -0.014 A 
ATOM     51  C   UNL A   1      42.794  35.333  33.351  1.00  0.00     0.009 A 
ATOM     52  C   UNL A   1      43.569  36.101  31.192  1.00  0.00     0.009 A 
ATOM     53  C   UNL A   1      43.118  36.572  33.906  1.00  0.00     0.001 A 
ATOM     54  C   UNL A   1      43.919  37.328  31.754  1.00  0.00     0.001 A 
ATOM     55  C   UNL A   1      43.684  37.566  33.108  1.00  0.00     0.000 A 
ENDBRANCH  37  50
ENDBRANCH  11  12
ENDBRANCH   4   6
ENDBRANCH   1   2
BRANCH   1  56
ATOM     56  C   UNL A   1      35.274  23.212  26.521  1.00  0.00     0.042 C 
BRANCH  56  57
ATOM     57  C   UNL A   1      34.079  22.802  25.678  1.00  0.00     0.118 C 
BRANCH  57  58
ATOM     58  N   UNL A   1      32.850  22.733  26.456  1.00  0.00    -0.352 N 
ATOM     59  C   UNL A   1      31.816  23.632  26.520  1.00  0.00     0.252 C 
ATOM     60  H   UNL A   1      32.747  21.929  27.013  1.00  0.00     0.163 HD
ATOM     61  O   UNL A   1      30.895  23.467  27.315  1.00  0.00    -0.269 OA
BRANCH  59  62
ATOM     62  C   UNL A   1      31.849  24.841  25.681  1.00  0.00     0.059 A 
ATOM     63  C   UNL A   1      32.290  26.028  26.287  1.00  0.00     0.024 A 
ATOM     64  C   UNL A   1      31.445  24.837  24.343  1.00  0.00     0.053 A 
ATOM     65  C   UNL A   1      32.393  27.214  25.545  1.00  0.00    -0.017 A 
ATOM     66  C   UNL A   1      31.605  25.991  23.580  1.00  0.00     0.022 A 
ATOM     67  Cl  UNL A   1      30.724  23.465  23.578  1.00  0.00    -0.083 Cl
ATOM     68  C   UNL A   1      32.087  27.161  24.174  1.00  0.00     0.010 A 
BRANCH  65  69
ATOM     69  C   UNL A   1      32.758  28.491  26.180  1.00  0.00    -0.017 A 
ATOM     70  C   UNL A   1      33.984  28.611  26.863  1.00  0.00     0.009 A 
ATOM     71  C   UNL A   1      31.926  29.619  26.118  1.00  0.00     0.029 A 
ATOM     72  C   UNL A   1      34.365  29.809  27.471  1.00  0.00     0.002 A 
ATOM     73  C   UNL A   1      32.310  30.817  26.729  1.00  0.00     0.041 A 
ATOM     74  C   UNL A   1      33.524  30.916  27.405  1.00  0.00     0.020 A 
ATOM     75  Cl  UNL A   1      31.272  32.187  26.646  1.00  0.00    -0.084 Cl
ENDBRANCH  65  69
ENDBRANCH  59  62
ENDBRANCH  57  58
ENDBRANCH  56  57
ENDBRANCH   1  56
TORSDOF 11
ENDMDL
