MODEL 1
REMARK VINA RESULT:     -10.2      0.000      0.000
REMARK SMILES Cc1ccnc(C(=O)c2[nH]c3ccc(F)cc3c2CC(=O)NCCCNC(=O)c2ccc(-c3c4nc(c(-c5ccccc5)c5ccc([nH]5)c(-c5ccccc5)c5nc(c(-c6ccccc6)c6ccc3[nH]6)C=C5)C=C4)cc2)c1
REMARK SMILES IDX 23 1 22 2 20 3 21 4 19 6 18 7 9 8 10 9 11 10 17 12 12 13
REMARK SMILES IDX 16 14 13 15 14 16 15 17 7 18 8 19 6 20 1 21 2 22 3 23 77 24
REMARK SMILES IDX 4 25 5 26 24 27 25 28 26 29 27 30 28 32 29 33 30 34 76 35
REMARK SMILES IDX 31 36 75 37 32 38 33 39 34 40 69 41 35 42 74 43 68 44 70 45
REMARK SMILES IDX 36 46 73 47 67 48 66 49 37 51 59 52 44 53 58 54 45 55 48 56
REMARK SMILES IDX 57 57 71 58 46 59 47 60 56 62 72 63 49 64 38 65 39 66 43 67
REMARK SMILES IDX 40 68 42 69 41 70 60 71 61 72 65 73 62 74 64 75 63 76 50 77
REMARK SMILES IDX 51 78 55 79 52 80 54 81 53 82
REMARK H PARENT 22 5 10 11 26 31 70 50 48 61
REMARK Flexibility Score: inf
ROOT
ATOM      1  C   UNL A   1      45.861  21.011  25.365  1.00  0.00     0.117 C 
ENDROOT
BRANCH   1   2
ATOM      2  N   UNL A   1      46.427  21.950  24.417  1.00  0.00    -0.356 N 
ATOM      3  C   UNL A   1      46.204  23.285  24.246  1.00  0.00     0.224 C 
ATOM      4  O   UNL A   1      46.986  23.889  23.504  1.00  0.00    -0.275 OA
ATOM      5  H   UNL A   1      47.081  21.560  23.794  1.00  0.00     0.163 HD
BRANCH   3   6
ATOM      6  C   UNL A   1      45.095  24.033  24.959  1.00  0.00     0.138 C 
BRANCH   6   7
ATOM      7  C   UNL A   1      45.469  25.344  25.596  1.00  0.00    -0.002 A 
ATOM      8  C   UNL A   1      46.668  25.732  26.199  1.00  0.00     0.093 A 
ATOM      9  N   UNL A   1      46.441  26.972  26.766  1.00  0.00    -0.352 N 
ATOM     10  C   UNL A   1      45.199  27.454  26.452  1.00  0.00     0.046 A 
ATOM     11  H   UNL A   1      47.094  27.450  27.327  1.00  0.00     0.167 HD
ATOM     12  C   UNL A   1      44.534  26.432  25.783  1.00  0.00     0.007 A 
ATOM     13  C   UNL A   1      44.613  28.695  26.735  1.00  0.00     0.030 A 
ATOM     14  C   UNL A   1      43.185  26.644  25.424  1.00  0.00     0.049 A 
ATOM     15  C   UNL A   1      43.299  28.901  26.312  1.00  0.00     0.041 A 
ATOM     16  C   UNL A   1      42.601  27.885  25.676  1.00  0.00     0.123 A 
ATOM     17  F   UNL A   1      41.340  28.104  25.277  1.00  0.00    -0.207 F 
BRANCH   8  18
ATOM     18  C   UNL A   1      47.960  25.094  26.440  1.00  0.00     0.227 C 
ATOM     19  O   UNL A   1      48.011  24.105  27.174  1.00  0.00    -0.285 OA
BRANCH  18  20
ATOM     20  C   UNL A   1      49.256  25.684  25.950  1.00  0.00     0.113 A 
ATOM     21  C   UNL A   1      52.998  25.694  26.622  1.00  0.00     0.044 C 
ATOM     22  C   UNL A   1      51.653  25.930  26.003  1.00  0.00    -0.047 A 
ATOM     23  C   UNL A   1      51.546  26.789  24.912  1.00  0.00     0.023 A 
ATOM     24  C   UNL A   1      50.488  25.320  26.488  1.00  0.00     0.036 A 
ATOM     25  C   UNL A   1      50.290  27.042  24.388  1.00  0.00     0.112 A 
ATOM     26  N   UNL A   1      49.150  26.521  24.885  1.00  0.00    -0.253 NA
ENDBRANCH  18  20
ENDBRANCH   8  18
ENDBRANCH   6   7
ENDBRANCH   3   6
ENDBRANCH   1   2
BRANCH   1  27
ATOM     27  C   UNL A   1      44.689  20.177  24.844  1.00  0.00     0.042 C 
BRANCH  27  28
ATOM     28  C   UNL A   1      44.099  19.125  25.778  1.00  0.00     0.118 C 
BRANCH  28  29
ATOM     29  N   UNL A   1      42.693  18.854  25.562  1.00  0.00    -0.352 N 
ATOM     30  C   UNL A   1      41.599  19.599  25.925  1.00  0.00     0.251 C 
ATOM     31  H   UNL A   1      42.494  18.014  25.088  1.00  0.00     0.163 HD
ATOM     32  O   UNL A   1      40.472  19.145  25.765  1.00  0.00    -0.269 OA
BRANCH  30  33
ATOM     33  C   UNL A   1      41.773  20.939  26.527  1.00  0.00     0.039 A 
ATOM     34  C   UNL A   1      41.749  21.051  27.919  1.00  0.00     0.014 A 
ATOM     35  C   UNL A   1      41.924  22.080  25.732  1.00  0.00     0.014 A 
ATOM     36  C   UNL A   1      41.926  22.300  28.518  1.00  0.00     0.010 A 
ATOM     37  C   UNL A   1      42.151  23.318  26.333  1.00  0.00     0.010 A 
ATOM     38  C   UNL A   1      42.156  23.441  27.732  1.00  0.00    -0.014 A 
BRANCH  38  39
ATOM     39  C   UNL A   1      42.425  24.759  28.364  1.00  0.00     0.031 A 
ATOM     40  C   UNL A   1      43.768  25.062  28.969  1.00  0.00     0.074 A 
ATOM     41  C   UNL A   1      41.437  25.674  28.434  1.00  0.00     0.049 A 
ATOM     42  N   UNL A   1      44.168  26.144  29.590  1.00  0.00    -0.248 NA
ATOM     43  C   UNL A   1      44.788  24.006  28.883  1.00  0.00     0.031 C 
ATOM     44  C   UNL A   1      40.081  25.497  27.912  1.00  0.00     0.029 A 
ATOM     45  N   UNL A   1      41.422  26.934  28.979  1.00  0.00    -0.354 N 
ATOM     46  C   UNL A   1      45.480  25.897  29.976  1.00  0.00     0.074 A 
ATOM     47  C   UNL A   1      45.792  24.545  29.561  1.00  0.00     0.031 C 
ATOM     48  C   UNL A   1      39.374  26.616  28.138  1.00  0.00     0.029 A 
ATOM     49  C   UNL A   1      40.209  27.570  28.859  1.00  0.00     0.049 A 
ATOM     50  H   UNL A   1      42.204  27.343  29.414  1.00  0.00     0.167 HD
ATOM     51  C   UNL A   1      46.351  26.722  30.605  1.00  0.00     0.031 A 
ATOM     52  C   UNL A   1      39.810  28.782  29.288  1.00  0.00     0.031 A 
ATOM     53  C   UNL A   1      46.041  28.065  31.022  1.00  0.00     0.049 A 
ATOM     54  C   UNL A   1      40.784  29.666  30.016  1.00  0.00     0.074 A 
ATOM     55  C   UNL A   1      46.873  28.995  31.622  1.00  0.00     0.029 A 
ATOM     56  N   UNL A   1      44.799  28.668  30.891  1.00  0.00    -0.354 N 
ATOM     57  N   UNL A   1      42.042  29.441  30.312  1.00  0.00    -0.248 NA
ATOM     58  C   UNL A   1      40.287  30.976  30.458  1.00  0.00     0.031 C 
ATOM     59  C   UNL A   1      46.118  30.137  31.910  1.00  0.00     0.029 A 
ATOM     60  C   UNL A   1      44.835  29.945  31.427  1.00  0.00     0.049 A 
ATOM     61  H   UNL A   1      44.010  28.250  30.478  1.00  0.00     0.167 HD
ATOM     62  C   UNL A   1      42.493  30.592  30.946  1.00  0.00     0.074 A 
ATOM     63  C   UNL A   1      41.380  31.518  30.977  1.00  0.00     0.031 C 
ATOM     64  C   UNL A   1      43.721  30.858  31.455  1.00  0.00     0.031 A 
BRANCH  51  65
ATOM     65  C   UNL A   1      47.727  26.188  30.897  1.00  0.00    -0.014 A 
ATOM     66  C   UNL A   1      48.736  26.199  29.920  1.00  0.00     0.009 A 
ATOM     67  C   UNL A   1      48.032  25.707  32.180  1.00  0.00     0.009 A 
ATOM     68  C   UNL A   1      50.010  25.704  30.212  1.00  0.00     0.001 A 
ATOM     69  C   UNL A   1      49.315  25.243  32.478  1.00  0.00     0.001 A 
ATOM     70  C   UNL A   1      50.299  25.231  31.491  1.00  0.00     0.000 A 
ENDBRANCH  51  65
BRANCH  52  71
ATOM     71  C   UNL A   1      38.417  29.239  29.039  1.00  0.00    -0.014 A 
ATOM     72  C   UNL A   1      38.043  29.737  27.781  1.00  0.00     0.009 A 
ATOM     73  C   UNL A   1      37.455  29.189  30.060  1.00  0.00     0.009 A 
ATOM     74  C   UNL A   1      36.745  30.204  27.561  1.00  0.00     0.001 A 
ATOM     75  C   UNL A   1      36.149  29.626  29.828  1.00  0.00     0.001 A 
ATOM     76  C   UNL A   1      35.798  30.144  28.582  1.00  0.00     0.000 A 
ENDBRANCH  52  71
BRANCH  64  77
ATOM     77  C   UNL A   1      43.938  32.219  32.056  1.00  0.00    -0.014 A 
ATOM     78  C   UNL A   1      44.448  33.284  31.296  1.00  0.00     0.009 A 
ATOM     79  C   UNL A   1      43.588  32.448  33.396  1.00  0.00     0.009 A 
ATOM     80  C   UNL A   1      44.638  34.540  31.879  1.00  0.00     0.001 A 
ATOM     81  C   UNL A   1      43.748  33.712  33.966  1.00  0.00     0.001 A 
ATOM     82  C   UNL A   1      44.283  34.754  33.210  1.00  0.00     0.000 A 
ENDBRANCH  64  77
ENDBRANCH  38  39
ENDBRANCH  30  33
ENDBRANCH  28  29
ENDBRANCH  27  28
ENDBRANCH   1  27
TORSDOF 13
ENDMDL
MODEL 2
REMARK VINA RESULT:     -10.2      4.723      8.851
REMARK SMILES Cc1ccnc(C(=O)c2[nH]c3ccc(F)cc3c2CC(=O)NCCCNC(=O)c2ccc(-c3c4nc(c(-c5ccccc5)c5ccc([nH]5)c(-c5ccccc5)c5nc(c(-c6ccccc6)c6ccc3[nH]6)C=C5)C=C4)cc2)c1
REMARK SMILES IDX 23 1 22 2 20 3 21 4 19 6 18 7 9 8 10 9 11 10 17 12 12 13
REMARK SMILES IDX 16 14 13 15 14 16 15 17 7 18 8 19 6 20 1 21 2 22 3 23 77 24
REMARK SMILES IDX 4 25 5 26 24 27 25 28 26 29 27 30 28 32 29 33 30 34 76 35
REMARK SMILES IDX 31 36 75 37 32 38 33 39 34 40 69 41 35 42 74 43 68 44 70 45
REMARK SMILES IDX 36 46 73 47 67 48 66 49 37 51 59 52 44 53 58 54 45 55 48 56
REMARK SMILES IDX 57 57 71 58 46 59 47 60 56 62 72 63 49 64 38 65 39 66 43 67
REMARK SMILES IDX 40 68 42 69 41 70 60 71 61 72 65 73 62 74 64 75 63 76 50 77
REMARK SMILES IDX 51 78 55 79 52 80 54 81 53 82
REMARK H PARENT 22 5 10 11 26 31 70 50 48 61
REMARK Flexibility Score: inf
ROOT
ATOM      1  C   UNL A   1      35.190  22.933  23.547  1.00  0.00     0.117 C 
ENDROOT
BRANCH   1   2
ATOM      2  N   UNL A   1      34.408  24.077  23.125  1.00  0.00    -0.356 N 
ATOM      3  C   UNL A   1      34.034  25.200  23.804  1.00  0.00     0.224 C 
ATOM      4  O   UNL A   1      33.553  26.120  23.135  1.00  0.00    -0.275 OA
ATOM      5  H   UNL A   1      34.093  24.037  22.193  1.00  0.00     0.163 HD
BRANCH   3   6
ATOM      6  C   UNL A   1      34.239  25.365  25.297  1.00  0.00     0.138 C 
BRANCH   6   7
ATOM      7  C   UNL A   1      33.136  26.052  26.055  1.00  0.00    -0.002 A 
ATOM      8  C   UNL A   1      31.898  25.556  26.472  1.00  0.00     0.093 A 
ATOM      9  N   UNL A   1      31.195  26.631  26.985  1.00  0.00    -0.352 N 
ATOM     10  C   UNL A   1      31.963  27.763  27.033  1.00  0.00     0.046 A 
ATOM     11  H   UNL A   1      30.257  26.586  27.279  1.00  0.00     0.167 HD
ATOM     12  C   UNL A   1      33.159  27.459  26.392  1.00  0.00     0.007 A 
ATOM     13  C   UNL A   1      31.676  29.027  27.564  1.00  0.00     0.030 A 
ATOM     14  C   UNL A   1      34.103  28.496  26.225  1.00  0.00     0.049 A 
ATOM     15  C   UNL A   1      32.653  30.017  27.442  1.00  0.00     0.041 A 
ATOM     16  C   UNL A   1      33.839  29.750  26.774  1.00  0.00     0.123 A 
ATOM     17  F   UNL A   1      34.764  30.715  26.668  1.00  0.00    -0.207 F 
BRANCH   8  18
ATOM     18  C   UNL A   1      31.209  24.272  26.369  1.00  0.00     0.227 C 
ATOM     19  O   UNL A   1      29.992  24.229  26.558  1.00  0.00    -0.285 OA
BRANCH  18  20
ATOM     20  C   UNL A   1      31.946  22.972  26.191  1.00  0.00     0.113 A 
ATOM     21  C   UNL A   1      32.348  20.046  23.797  1.00  0.00     0.044 C 
ATOM     22  C   UNL A   1      32.526  20.991  24.948  1.00  0.00    -0.047 A 
ATOM     23  C   UNL A   1      33.405  20.655  25.975  1.00  0.00     0.023 A 
ATOM     24  C   UNL A   1      31.832  22.205  25.035  1.00  0.00     0.036 A 
ATOM     25  C   UNL A   1      33.516  21.509  27.058  1.00  0.00     0.112 A 
ATOM     26  N   UNL A   1      32.804  22.646  27.194  1.00  0.00    -0.253 NA
ENDBRANCH  18  20
ENDBRANCH   8  18
ENDBRANCH   6   7
ENDBRANCH   3   6
ENDBRANCH   1   2
BRANCH   1  27
ATOM     27  C   UNL A   1      36.703  23.156  23.605  1.00  0.00     0.042 C 
BRANCH  27  28
ATOM     28  C   UNL A   1      37.323  23.453  24.967  1.00  0.00     0.118 C 
BRANCH  28  29
ATOM     29  N   UNL A   1      38.310  22.485  25.399  1.00  0.00    -0.352 N 
ATOM     30  C   UNL A   1      39.435  22.674  26.163  1.00  0.00     0.251 C 
ATOM     31  H   UNL A   1      38.152  21.560  25.101  1.00  0.00     0.163 HD
ATOM     32  O   UNL A   1      40.224  21.749  26.324  1.00  0.00    -0.269 OA
BRANCH  30  33
ATOM     33  C   UNL A   1      39.711  23.991  26.775  1.00  0.00     0.039 A 
ATOM     34  C   UNL A   1      39.168  24.267  28.032  1.00  0.00     0.014 A 
ATOM     35  C   UNL A   1      40.465  24.961  26.107  1.00  0.00     0.014 A 
ATOM     36  C   UNL A   1      39.421  25.497  28.644  1.00  0.00     0.010 A 
ATOM     37  C   UNL A   1      40.761  26.169  26.742  1.00  0.00     0.010 A 
ATOM     38  C   UNL A   1      40.243  26.449  28.017  1.00  0.00    -0.014 A 
BRANCH  38  39
ATOM     39  C   UNL A   1      40.583  27.726  28.696  1.00  0.00     0.031 A 
ATOM     40  C   UNL A   1      41.931  27.923  29.333  1.00  0.00     0.074 A 
ATOM     41  C   UNL A   1      39.654  28.700  28.779  1.00  0.00     0.049 A 
ATOM     42  N   UNL A   1      42.388  28.957  29.995  1.00  0.00    -0.248 NA
ATOM     43  C   UNL A   1      42.884  26.806  29.229  1.00  0.00     0.031 C 
ATOM     44  C   UNL A   1      38.300  28.627  28.228  1.00  0.00     0.029 A 
ATOM     45  N   UNL A   1      39.709  29.940  29.364  1.00  0.00    -0.354 N 
ATOM     46  C   UNL A   1      43.674  28.613  30.394  1.00  0.00     0.074 A 
ATOM     47  C   UNL A   1      43.907  27.258  29.941  1.00  0.00     0.031 C 
ATOM     48  C   UNL A   1      37.662  29.781  28.479  1.00  0.00     0.029 A 
ATOM     49  C   UNL A   1      38.542  30.657  29.245  1.00  0.00     0.049 A 
ATOM     50  H   UNL A   1      40.508  30.284  29.825  1.00  0.00     0.167 HD
ATOM     51  C   UNL A   1      44.583  29.361  31.065  1.00  0.00     0.031 A 
ATOM     52  C   UNL A   1      38.213  31.877  29.707  1.00  0.00     0.031 A 
ATOM     53  C   UNL A   1      44.352  30.707  31.520  1.00  0.00     0.049 A 
ATOM     54  C   UNL A   1      39.228  32.674  30.479  1.00  0.00     0.074 A 
ATOM     55  C   UNL A   1      45.231  31.563  32.163  1.00  0.00     0.029 A 
ATOM     56  N   UNL A   1      43.154  31.392  31.388  1.00  0.00    -0.354 N 
ATOM     57  N   UNL A   1      40.463  32.359  30.788  1.00  0.00    -0.248 NA
ATOM     58  C   UNL A   1      38.808  33.999  30.955  1.00  0.00     0.031 C 
ATOM     59  C   UNL A   1      44.545  32.740  32.476  1.00  0.00     0.029 A 
ATOM     60  C   UNL A   1      43.261  32.647  31.966  1.00  0.00     0.049 A 
ATOM     61  H   UNL A   1      42.347  31.039  30.948  1.00  0.00     0.167 HD
ATOM     62  C   UNL A   1      40.974  33.458  31.467  1.00  0.00     0.074 A 
ATOM     63  C   UNL A   1      39.923  34.452  31.510  1.00  0.00     0.031 C 
ATOM     64  C   UNL A   1      42.207  33.628  32.005  1.00  0.00     0.031 A 
BRANCH  51  65
ATOM     65  C   UNL A   1      45.918  28.731  31.362  1.00  0.00    -0.014 A 
ATOM     66  C   UNL A   1      47.000  28.861  30.476  1.00  0.00     0.009 A 
ATOM     67  C   UNL A   1      46.108  28.033  32.565  1.00  0.00     0.009 A 
ATOM     68  C   UNL A   1      48.233  28.273  30.772  1.00  0.00     0.001 A 
ATOM     69  C   UNL A   1      47.350  27.473  32.873  1.00  0.00     0.001 A 
ATOM     70  C   UNL A   1      48.407  27.585  31.972  1.00  0.00     0.000 A 
ENDBRANCH  51  65
BRANCH  52  71
ATOM     71  C   UNL A   1      36.857  32.431  29.449  1.00  0.00    -0.014 A 
ATOM     72  C   UNL A   1      35.813  32.220  30.364  1.00  0.00     0.009 A 
ATOM     73  C   UNL A   1      36.595  33.164  28.280  1.00  0.00     0.009 A 
ATOM     74  C   UNL A   1      34.531  32.707  30.099  1.00  0.00     0.001 A 
ATOM     75  C   UNL A   1      35.321  33.676  28.034  1.00  0.00     0.001 A 
ATOM     76  C   UNL A   1      34.286  33.438  28.937  1.00  0.00     0.000 A 
ENDBRANCH  52  71
BRANCH  64  77
ATOM     77  C   UNL A   1      42.499  34.954  32.653  1.00  0.00    -0.014 A 
ATOM     78  C   UNL A   1      42.067  35.244  33.957  1.00  0.00     0.009 A 
ATOM     79  C   UNL A   1      43.255  35.913  31.960  1.00  0.00     0.009 A 
ATOM     80  C   UNL A   1      42.353  36.483  34.537  1.00  0.00     0.001 A 
ATOM     81  C   UNL A   1      43.567  37.136  32.554  1.00  0.00     0.001 A 
ATOM     82  C   UNL A   1      43.107  37.424  33.838  1.00  0.00     0.000 A 
ENDBRANCH  64  77
ENDBRANCH  38  39
ENDBRANCH  30  33
ENDBRANCH  28  29
ENDBRANCH  27  28
ENDBRANCH   1  27
TORSDOF 13
ENDMDL
MODEL 3
REMARK VINA RESULT:     -10.2      5.580     11.575
REMARK SMILES Cc1ccnc(C(=O)c2[nH]c3ccc(F)cc3c2CC(=O)NCCCNC(=O)c2ccc(-c3c4nc(c(-c5ccccc5)c5ccc([nH]5)c(-c5ccccc5)c5nc(c(-c6ccccc6)c6ccc3[nH]6)C=C5)C=C4)cc2)c1
REMARK SMILES IDX 23 1 22 2 20 3 21 4 19 6 18 7 9 8 10 9 11 10 17 12 12 13
REMARK SMILES IDX 16 14 13 15 14 16 15 17 7 18 8 19 6 20 1 21 2 22 3 23 77 24
REMARK SMILES IDX 4 25 5 26 24 27 25 28 26 29 27 30 28 32 29 33 30 34 76 35
REMARK SMILES IDX 31 36 75 37 32 38 33 39 34 40 69 41 35 42 74 43 68 44 70 45
REMARK SMILES IDX 36 46 73 47 67 48 66 49 37 51 59 52 44 53 58 54 45 55 48 56
REMARK SMILES IDX 57 57 71 58 46 59 47 60 56 62 72 63 49 64 38 65 39 66 43 67
REMARK SMILES IDX 40 68 42 69 41 70 60 71 61 72 65 73 62 74 64 75 63 76 50 77
REMARK SMILES IDX 51 78 55 79 52 80 54 81 53 82
REMARK H PARENT 22 5 10 11 26 31 70 50 48 61
REMARK Flexibility Score: inf
ROOT
ATOM      1  C   UNL A   1      32.126  26.918  26.138  1.00  0.00     0.117 C 
ENDROOT
BRANCH   1   2
ATOM      2  N   UNL A   1      31.509  25.706  26.638  1.00  0.00    -0.356 N 
ATOM      3  C   UNL A   1      31.930  24.409  26.594  1.00  0.00     0.224 C 
ATOM      4  O   UNL A   1      31.312  23.600  27.293  1.00  0.00    -0.275 OA
ATOM      5  H   UNL A   1      30.642  25.842  27.084  1.00  0.00     0.163 HD
BRANCH   3   6
ATOM      6  C   UNL A   1      33.128  23.960  25.782  1.00  0.00     0.138 C 
BRANCH   6   7
ATOM      7  C   UNL A   1      32.839  23.152  24.546  1.00  0.00    -0.002 A 
ATOM      8  C   UNL A   1      32.571  23.581  23.243  1.00  0.00     0.093 A 
ATOM      9  N   UNL A   1      32.217  22.456  22.523  1.00  0.00    -0.352 N 
ATOM     10  C   UNL A   1      32.364  21.313  23.262  1.00  0.00     0.046 A 
ATOM     11  H   UNL A   1      31.898  22.475  21.592  1.00  0.00     0.167 HD
ATOM     12  C   UNL A   1      32.680  21.714  24.556  1.00  0.00     0.007 A 
ATOM     13  C   UNL A   1      32.211  19.971  22.890  1.00  0.00     0.030 A 
ATOM     14  C   UNL A   1      32.798  20.716  25.548  1.00  0.00     0.049 A 
ATOM     15  C   UNL A   1      32.396  19.001  23.877  1.00  0.00     0.041 A 
ATOM     16  C   UNL A   1      32.676  19.376  25.183  1.00  0.00     0.123 A 
ATOM     17  F   UNL A   1      32.850  18.429  26.116  1.00  0.00    -0.207 F 
BRANCH   8  18
ATOM     18  C   UNL A   1      32.476  24.879  22.579  1.00  0.00     0.227 C 
ATOM     19  O   UNL A   1      33.404  25.253  21.861  1.00  0.00    -0.285 OA
BRANCH  18  20
ATOM     20  C   UNL A   1      31.358  25.848  22.858  1.00  0.00     0.113 A 
ATOM     21  C   UNL A   1      30.267  29.437  22.238  1.00  0.00     0.044 C 
ATOM     22  C   UNL A   1      30.285  27.996  22.653  1.00  0.00    -0.047 A 
ATOM     23  C   UNL A   1      29.219  27.486  23.392  1.00  0.00     0.023 A 
ATOM     24  C   UNL A   1      31.344  27.137  22.331  1.00  0.00     0.036 A 
ATOM     25  C   UNL A   1      29.277  26.171  23.817  1.00  0.00     0.112 A 
ATOM     26  N   UNL A   1      30.320  25.349  23.578  1.00  0.00    -0.253 NA
ENDBRANCH  18  20
ENDBRANCH   8  18
ENDBRANCH   6   7
ENDBRANCH   3   6
ENDBRANCH   1   2
BRANCH   1  27
ATOM     27  C   UNL A   1      32.345  28.021  27.176  1.00  0.00     0.042 C 
BRANCH  27  28
ATOM     28  C   UNL A   1      33.671  28.776  27.137  1.00  0.00     0.118 C 
BRANCH  28  29
ATOM     29  N   UNL A   1      33.601  30.135  27.633  1.00  0.00    -0.352 N 
ATOM     30  C   UNL A   1      34.540  30.856  28.328  1.00  0.00     0.251 C 
ATOM     31  H   UNL A   1      32.759  30.609  27.444  1.00  0.00     0.163 HD
ATOM     32  O   UNL A   1      34.252  31.961  28.774  1.00  0.00    -0.269 OA
BRANCH  30  33
ATOM     33  C   UNL A   1      35.890  30.299  28.558  1.00  0.00     0.039 A 
ATOM     34  C   UNL A   1      36.816  30.343  27.512  1.00  0.00     0.014 A 
ATOM     35  C   UNL A   1      36.235  29.706  29.777  1.00  0.00     0.014 A 
ATOM     36  C   UNL A   1      38.104  29.838  27.703  1.00  0.00     0.010 A 
ATOM     37  C   UNL A   1      37.538  29.249  29.982  1.00  0.00     0.010 A 
ATOM     38  C   UNL A   1      38.486  29.311  28.948  1.00  0.00    -0.014 A 
BRANCH  38  39
ATOM     39  C   UNL A   1      39.877  28.846  29.183  1.00  0.00     0.031 A 
ATOM     40  C   UNL A   1      40.898  29.758  29.807  1.00  0.00     0.074 A 
ATOM     41  C   UNL A   1      40.237  27.608  28.790  1.00  0.00     0.049 A 
ATOM     42  N   UNL A   1      42.164  29.532  30.055  1.00  0.00    -0.248 NA
ATOM     43  C   UNL A   1      40.442  31.105  30.183  1.00  0.00     0.031 C 
ATOM     44  C   UNL A   1      39.354  26.634  28.149  1.00  0.00     0.029 A 
ATOM     45  N   UNL A   1      41.445  26.960  28.869  1.00  0.00    -0.354 N 
ATOM     46  C   UNL A   1      42.658  30.708  30.607  1.00  0.00     0.074 A 
ATOM     47  C   UNL A   1      41.567  31.660  30.612  1.00  0.00     0.031 C 
ATOM     48  C   UNL A   1      40.041  25.504  27.916  1.00  0.00     0.029 A 
ATOM     49  C   UNL A   1      41.422  25.688  28.349  1.00  0.00     0.049 A 
ATOM     50  H   UNL A   1      42.251  27.368  29.261  1.00  0.00     0.167 HD
ATOM     51  C   UNL A   1      43.901  30.969  31.078  1.00  0.00     0.031 A 
ATOM     52  C   UNL A   1      42.402  24.774  28.226  1.00  0.00     0.031 A 
ATOM     53  C   UNL A   1      44.988  30.025  31.070  1.00  0.00     0.049 A 
ATOM     54  C   UNL A   1      43.783  25.100  28.725  1.00  0.00     0.074 A 
ATOM     55  C   UNL A   1      46.269  30.181  31.572  1.00  0.00     0.029 A 
ATOM     56  N   UNL A   1      44.926  28.751  30.526  1.00  0.00    -0.354 N 
ATOM     57  N   UNL A   1      44.214  26.194  29.306  1.00  0.00    -0.248 NA
ATOM     58  C   UNL A   1      44.809  24.061  28.562  1.00  0.00     0.031 C 
ATOM     59  C   UNL A   1      46.999  29.026  31.274  1.00  0.00     0.029 A 
ATOM     60  C   UNL A   1      46.155  28.123  30.651  1.00  0.00     0.049 A 
ATOM     61  H   UNL A   1      44.127  28.353  30.112  1.00  0.00     0.167 HD
ATOM     62  C   UNL A   1      45.551  25.961  29.604  1.00  0.00     0.074 A 
ATOM     63  C   UNL A   1      45.854  24.619  29.156  1.00  0.00     0.031 C 
ATOM     64  C   UNL A   1      46.447  26.787  30.199  1.00  0.00     0.031 A 
BRANCH  51  65
ATOM     65  C   UNL A   1      44.159  32.344  31.634  1.00  0.00    -0.014 A 
ATOM     66  C   UNL A   1      44.013  32.616  33.004  1.00  0.00     0.009 A 
ATOM     67  C   UNL A   1      44.597  33.370  30.782  1.00  0.00     0.009 A 
ATOM     68  C   UNL A   1      44.262  33.898  33.502  1.00  0.00     0.001 A 
ATOM     69  C   UNL A   1      44.876  34.642  31.288  1.00  0.00     0.001 A 
ATOM     70  C   UNL A   1      44.698  34.907  32.644  1.00  0.00     0.000 A 
ENDBRANCH  51  65
BRANCH  52  71
ATOM     71  C   UNL A   1      42.116  23.454  27.605  1.00  0.00    -0.014 A 
ATOM     72  C   UNL A   1      42.425  23.216  26.257  1.00  0.00     0.009 A 
ATOM     73  C   UNL A   1      41.523  22.426  28.355  1.00  0.00     0.009 A 
ATOM     74  C   UNL A   1      42.118  21.988  25.666  1.00  0.00     0.001 A 
ATOM     75  C   UNL A   1      41.247  21.188  27.771  1.00  0.00     0.001 A 
ATOM     76  C   UNL A   1      41.534  20.974  26.423  1.00  0.00     0.000 A 
ENDBRANCH  52  71
BRANCH  64  77
ATOM     77  C   UNL A   1      47.831  26.248  30.435  1.00  0.00    -0.014 A 
ATOM     78  C   UNL A   1      48.212  25.724  31.680  1.00  0.00     0.009 A 
ATOM     79  C   UNL A   1      48.756  26.230  29.378  1.00  0.00     0.009 A 
ATOM     80  C   UNL A   1      49.504  25.227  31.871  1.00  0.00     0.001 A 
ATOM     81  C   UNL A   1      50.035  25.703  29.564  1.00  0.00     0.001 A 
ATOM     82  C   UNL A   1      50.411  25.212  30.812  1.00  0.00     0.000 A 
ENDBRANCH  64  77
ENDBRANCH  38  39
ENDBRANCH  30  33
ENDBRANCH  28  29
ENDBRANCH  27  28
ENDBRANCH   1  27
TORSDOF 13
ENDMDL
