MODEL 1
REMARK VINA RESULT:     -11.6      0.000      0.000
REMARK SMILES CC(=O)O[C@H]1C[C@@H](C(=O)NCCCNC(=O)c2ccc(-c3c4nc(c(-c5ccccc5)c5ccc([nH]5)c(-c5ccccc5)c5nc(c(-c6ccccc6)c6ccc3[nH]6)C=C5)C=C4)cc2)N(S(=O)(=O)c2ccc(F)cc2)C1
REMARK SMILES IDX 12 1 11 2 10 3 8 4 9 5 7 7 5 8 6 9 76 10 65 11 4 12 2 13
REMARK SMILES IDX 1 14 3 15 66 16 67 17 68 18 69 19 70 20 75 21 71 22 74 23
REMARK SMILES IDX 72 24 73 25 13 26 14 27 15 28 16 30 17 31 18 32 64 33 19 34
REMARK SMILES IDX 63 35 20 36 21 37 22 38 57 39 23 40 62 41 56 42 58 43 24 44
REMARK SMILES IDX 61 45 55 46 54 47 25 49 47 50 32 51 46 52 33 53 36 54 45 55
REMARK SMILES IDX 59 56 34 57 35 58 44 60 60 61 37 62 26 63 27 64 31 65 28 66
REMARK SMILES IDX 30 67 29 68 48 69 49 70 53 71 50 72 52 73 51 74 38 75 39 76
REMARK SMILES IDX 43 77 40 78 42 79 41 80
REMARK H PARENT 10 6 14 29 58 48 36 59
REMARK Flexibility Score: inf
ROOT
ATOM      1  C   UNL A   1      37.056  19.691  24.998  1.00  0.00     0.042 C 
ENDROOT
BRANCH   1   2
ATOM      2  C   UNL A   1      35.867  20.627  24.824  1.00  0.00     0.117 C 
BRANCH   2   3
ATOM      3  N   UNL A   1      34.636  20.105  25.382  1.00  0.00    -0.355 N 
ATOM      4  C   UNL A   1      33.331  20.335  25.099  1.00  0.00     0.238 C 
ATOM      5  O   UNL A   1      32.541  19.493  25.545  1.00  0.00    -0.273 OA
ATOM      6  H   UNL A   1      34.775  19.456  26.109  1.00  0.00     0.163 HD
BRANCH   4   7
ATOM      7  C   UNL A   1      32.795  21.473  24.241  1.00  0.00     0.166 C 
ATOM      8  C   UNL A   1      32.667  23.352  22.804  1.00  0.00     0.193 C 
ATOM      9  C   UNL A   1      33.681  22.395  23.424  1.00  0.00     0.077 C 
ATOM     10  C   UNL A   1      31.542  23.456  23.845  1.00  0.00     0.148 C 
ATOM     11  N   UNL A   1      31.838  22.434  24.912  1.00  0.00    -0.182 NA
BRANCH   8  12
ATOM     12  O   UNL A   1      33.321  24.604  22.546  1.00  0.00    -0.461 OA
BRANCH  12  13
ATOM     13  C   UNL A   1      32.828  25.532  21.689  1.00  0.00     0.302 C 
ATOM     14  C   UNL A   1      31.948  26.605  22.262  1.00  0.00     0.139 C 
ATOM     15  O   UNL A   1      33.090  25.487  20.492  1.00  0.00    -0.253 OA
ENDBRANCH  12  13
ENDBRANCH   8  12
BRANCH  11  16
ATOM     16  S   UNL A   1      32.297  23.182  26.392  1.00  0.00     0.243 S 
ATOM     17  O   UNL A   1      31.225  22.962  27.338  1.00  0.00    -0.207 OA
ATOM     18  O   UNL A   1      33.639  22.720  26.691  1.00  0.00    -0.207 OA
BRANCH  16  19
ATOM     19  C   UNL A   1      32.426  24.931  26.121  1.00  0.00     0.082 A 
ATOM     20  C   UNL A   1      33.669  25.498  25.808  1.00  0.00     0.025 A 
ATOM     21  C   UNL A   1      31.325  25.755  26.392  1.00  0.00     0.025 A 
ATOM     22  C   UNL A   1      33.784  26.885  25.694  1.00  0.00     0.040 A 
ATOM     23  C   UNL A   1      31.435  27.135  26.237  1.00  0.00     0.040 A 
ATOM     24  C   UNL A   1      32.663  27.688  25.888  1.00  0.00     0.123 A 
ATOM     25  F   UNL A   1      32.771  29.016  25.758  1.00  0.00    -0.207 F 
ENDBRANCH  16  19
ENDBRANCH  11  16
ENDBRANCH   4   7
ENDBRANCH   2   3
ENDBRANCH   1   2
BRANCH   1  26
ATOM     26  C   UNL A   1      38.387  20.402  25.243  1.00  0.00     0.118 C 
BRANCH  26  27
ATOM     27  N   UNL A   1      39.473  19.477  25.537  1.00  0.00    -0.352 N 
ATOM     28  C   UNL A   1      40.740  19.686  26.014  1.00  0.00     0.251 C 
ATOM     29  H   UNL A   1      39.258  18.532  25.362  1.00  0.00     0.163 HD
ATOM     30  O   UNL A   1      41.555  18.768  25.949  1.00  0.00    -0.269 OA
BRANCH  28  31
ATOM     31  C   UNL A   1      41.148  20.981  26.604  1.00  0.00     0.039 A 
ATOM     32  C   UNL A   1      41.626  21.980  25.750  1.00  0.00     0.014 A 
ATOM     33  C   UNL A   1      41.145  21.197  27.984  1.00  0.00     0.014 A 
ATOM     34  C   UNL A   1      42.056  23.201  26.272  1.00  0.00     0.010 A 
ATOM     35  C   UNL A   1      41.498  22.446  28.500  1.00  0.00     0.010 A 
ATOM     36  C   UNL A   1      41.967  23.457  27.651  1.00  0.00    -0.014 A 
BRANCH  36  37
ATOM     37  C   UNL A   1      42.353  24.783  28.200  1.00  0.00     0.031 A 
ATOM     38  C   UNL A   1      43.782  25.082  28.566  1.00  0.00     0.074 A 
ATOM     39  C   UNL A   1      41.399  25.714  28.398  1.00  0.00     0.049 A 
ATOM     40  N   UNL A   1      44.298  26.193  29.032  1.00  0.00    -0.248 NA
ATOM     41  C   UNL A   1      44.756  23.991  28.409  1.00  0.00     0.031 C 
ATOM     42  C   UNL A   1      39.969  25.532  28.130  1.00  0.00     0.029 A 
ATOM     43  N   UNL A   1      41.488  27.002  28.862  1.00  0.00    -0.354 N 
ATOM     44  C   UNL A   1      45.647  25.929  29.236  1.00  0.00     0.074 A 
ATOM     45  C   UNL A   1      45.862  24.541  28.890  1.00  0.00     0.031 C 
ATOM     46  C   UNL A   1      39.324  26.680  28.390  1.00  0.00     0.029 A 
ATOM     47  C   UNL A   1      40.283  27.664  28.879  1.00  0.00     0.049 A 
ATOM     48  H   UNL A   1      42.333  27.413  29.154  1.00  0.00     0.167 HD
ATOM     49  C   UNL A   1      46.624  26.769  29.657  1.00  0.00     0.031 A 
ATOM     50  C   UNL A   1      39.984  28.925  29.244  1.00  0.00     0.031 A 
ATOM     51  C   UNL A   1      46.411  28.153  29.995  1.00  0.00     0.049 A 
ATOM     52  C   UNL A   1      41.086  29.832  29.711  1.00  0.00     0.074 A 
ATOM     53  C   UNL A   1      47.346  29.103  30.370  1.00  0.00     0.029 A 
ATOM     54  N   UNL A   1      45.176  28.783  30.007  1.00  0.00    -0.354 N 
ATOM     55  N   UNL A   1      42.371  29.590  29.814  1.00  0.00    -0.248 NA
ATOM     56  C   UNL A   1      40.695  31.195  30.097  1.00  0.00     0.031 C 
ATOM     57  C   UNL A   1      46.670  30.291  30.665  1.00  0.00     0.029 A 
ATOM     58  C   UNL A   1      45.322  30.100  30.412  1.00  0.00     0.049 A 
ATOM     59  H   UNL A   1      44.323  28.357  29.765  1.00  0.00     0.167 HD
ATOM     60  C   UNL A   1      42.944  30.779  30.248  1.00  0.00     0.074 A 
ATOM     61  C   UNL A   1      41.871  31.744  30.362  1.00  0.00     0.031 C 
ATOM     62  C   UNL A   1      44.244  31.047  30.530  1.00  0.00     0.031 A 
BRANCH  49  63
ATOM     63  C   UNL A   1      48.017  26.214  29.786  1.00  0.00    -0.014 A 
ATOM     64  C   UNL A   1      48.895  26.182  28.691  1.00  0.00     0.009 A 
ATOM     65  C   UNL A   1      48.474  25.761  31.034  1.00  0.00     0.009 A 
ATOM     66  C   UNL A   1      50.190  25.678  28.836  1.00  0.00     0.001 A 
ATOM     67  C   UNL A   1      49.779  25.285  31.182  1.00  0.00     0.001 A 
ATOM     68  C   UNL A   1      50.632  25.237  30.082  1.00  0.00     0.000 A 
ENDBRANCH  49  63
BRANCH  50  69
ATOM     69  C   UNL A   1      38.583  29.417  29.161  1.00  0.00    -0.014 A 
ATOM     70  C   UNL A   1      37.721  29.298  30.263  1.00  0.00     0.009 A 
ATOM     71  C   UNL A   1      38.093  29.987  27.976  1.00  0.00     0.009 A 
ATOM     72  C   UNL A   1      36.389  29.706  30.167  1.00  0.00     0.001 A 
ATOM     73  C   UNL A   1      36.769  30.423  27.894  1.00  0.00     0.001 A 
ATOM     74  C   UNL A   1      35.915  30.272  28.984  1.00  0.00     0.000 A 
ENDBRANCH  50  69
BRANCH  62  75
ATOM     75  C   UNL A   1      44.570  32.451  30.957  1.00  0.00    -0.014 A 
ATOM     76  C   UNL A   1      44.880  33.450  30.020  1.00  0.00     0.009 A 
ATOM     77  C   UNL A   1      44.566  32.779  32.322  1.00  0.00     0.009 A 
ATOM     78  C   UNL A   1      45.228  34.734  30.444  1.00  0.00     0.001 A 
ATOM     79  C   UNL A   1      44.880  34.073  32.741  1.00  0.00     0.001 A 
ATOM     80  C   UNL A   1      45.226  35.044  31.803  1.00  0.00     0.000 A 
ENDBRANCH  62  75
ENDBRANCH  36  37
ENDBRANCH  28  31
ENDBRANCH  26  27
ENDBRANCH   1  26
TORSDOF 14
ENDMDL
MODEL 2
REMARK VINA RESULT:     -11.6      0.311      5.845
REMARK SMILES CC(=O)O[C@H]1C[C@@H](C(=O)NCCCNC(=O)c2ccc(-c3c4nc(c(-c5ccccc5)c5ccc([nH]5)c(-c5ccccc5)c5nc(c(-c6ccccc6)c6ccc3[nH]6)C=C5)C=C4)cc2)N(S(=O)(=O)c2ccc(F)cc2)C1
REMARK SMILES IDX 12 1 11 2 10 3 8 4 9 5 7 7 5 8 6 9 76 10 65 11 4 12 2 13
REMARK SMILES IDX 1 14 3 15 66 16 67 17 68 18 69 19 70 20 75 21 71 22 74 23
REMARK SMILES IDX 72 24 73 25 13 26 14 27 15 28 16 30 17 31 18 32 64 33 19 34
REMARK SMILES IDX 63 35 20 36 21 37 22 38 57 39 23 40 62 41 56 42 58 43 24 44
REMARK SMILES IDX 61 45 55 46 54 47 25 49 47 50 32 51 46 52 33 53 36 54 45 55
REMARK SMILES IDX 59 56 34 57 35 58 44 60 60 61 37 62 26 63 27 64 31 65 28 66
REMARK SMILES IDX 30 67 29 68 48 69 49 70 53 71 50 72 52 73 51 74 38 75 39 76
REMARK SMILES IDX 43 77 40 78 42 79 41 80
REMARK H PARENT 10 6 14 29 58 48 36 59
REMARK Flexibility Score: inf
ROOT
ATOM      1  C   UNL A   1      37.013  19.828  24.997  1.00  0.00     0.042 C 
ENDROOT
BRANCH   1   2
ATOM      2  C   UNL A   1      35.836  20.795  24.957  1.00  0.00     0.117 C 
BRANCH   2   3
ATOM      3  N   UNL A   1      34.594  20.211  25.419  1.00  0.00    -0.355 N 
ATOM      4  C   UNL A   1      33.301  20.403  25.059  1.00  0.00     0.238 C 
ATOM      5  O   UNL A   1      32.517  19.519  25.427  1.00  0.00    -0.273 OA
ATOM      6  H   UNL A   1      34.711  19.544  26.133  1.00  0.00     0.163 HD
BRANCH   4   7
ATOM      7  C   UNL A   1      32.778  21.548  24.204  1.00  0.00     0.166 C 
ATOM      8  C   UNL A   1      32.670  23.439  22.781  1.00  0.00     0.193 C 
ATOM      9  C   UNL A   1      33.675  22.476  23.406  1.00  0.00     0.077 C 
ATOM     10  C   UNL A   1      31.532  23.536  23.807  1.00  0.00     0.148 C 
ATOM     11  N   UNL A   1      31.812  22.505  24.869  1.00  0.00    -0.182 NA
BRANCH   8  12
ATOM     12  O   UNL A   1      33.329  24.693  22.542  1.00  0.00    -0.461 OA
BRANCH  12  13
ATOM     13  C   UNL A   1      32.853  25.624  21.677  1.00  0.00     0.302 C 
ATOM     14  C   UNL A   1      31.985  26.711  22.239  1.00  0.00     0.139 C 
ATOM     15  O   UNL A   1      33.123  25.570  20.482  1.00  0.00    -0.253 OA
ENDBRANCH  12  13
ENDBRANCH   8  12
BRANCH  11  16
ATOM     16  S   UNL A   1      32.252  23.240  26.361  1.00  0.00     0.243 S 
ATOM     17  O   UNL A   1      31.167  23.013  27.292  1.00  0.00    -0.207 OA
ATOM     18  O   UNL A   1      33.590  22.775  26.675  1.00  0.00    -0.207 OA
BRANCH  16  19
ATOM     19  C   UNL A   1      32.386  24.991  26.107  1.00  0.00     0.082 A 
ATOM     20  C   UNL A   1      33.641  25.566  25.861  1.00  0.00     0.025 A 
ATOM     21  C   UNL A   1      31.269  25.808  26.326  1.00  0.00     0.025 A 
ATOM     22  C   UNL A   1      33.754  26.954  25.760  1.00  0.00     0.040 A 
ATOM     23  C   UNL A   1      31.380  27.190  26.184  1.00  0.00     0.040 A 
ATOM     24  C   UNL A   1      32.621  27.751  25.901  1.00  0.00     0.123 A 
ATOM     25  F   UNL A   1      32.729  29.080  25.783  1.00  0.00    -0.207 F 
ENDBRANCH  16  19
ENDBRANCH  11  16
ENDBRANCH   4   7
ENDBRANCH   2   3
ENDBRANCH   1   2
BRANCH   1  26
ATOM     26  C   UNL A   1      38.374  20.499  25.180  1.00  0.00     0.118 C 
BRANCH  26  27
ATOM     27  N   UNL A   1      39.429  19.549  25.507  1.00  0.00    -0.352 N 
ATOM     28  C   UNL A   1      40.694  19.732  26.001  1.00  0.00     0.251 C 
ATOM     29  H   UNL A   1      39.191  18.608  25.344  1.00  0.00     0.163 HD
ATOM     30  O   UNL A   1      41.484  18.791  25.965  1.00  0.00    -0.269 OA
BRANCH  28  31
ATOM     31  C   UNL A   1      41.128  21.025  26.576  1.00  0.00     0.039 A 
ATOM     32  C   UNL A   1      41.691  21.977  25.720  1.00  0.00     0.014 A 
ATOM     33  C   UNL A   1      41.066  21.281  27.948  1.00  0.00     0.014 A 
ATOM     34  C   UNL A   1      42.147  23.194  26.231  1.00  0.00     0.010 A 
ATOM     35  C   UNL A   1      41.447  22.528  28.447  1.00  0.00     0.010 A 
ATOM     36  C   UNL A   1      42.001  23.494  27.596  1.00  0.00    -0.014 A 
BRANCH  36  37
ATOM     37  C   UNL A   1      42.417  24.817  28.129  1.00  0.00     0.031 A 
ATOM     38  C   UNL A   1      41.410  25.916  28.343  1.00  0.00     0.074 A 
ATOM     39  C   UNL A   1      43.720  25.038  28.394  1.00  0.00     0.049 A 
ATOM     40  N   UNL A   1      41.595  27.121  28.823  1.00  0.00    -0.248 NA
ATOM     41  C   UNL A   1      40.020  25.637  27.948  1.00  0.00     0.031 C 
ATOM     42  C   UNL A   1      44.802  24.072  28.184  1.00  0.00     0.029 A 
ATOM     43  N   UNL A   1      44.355  26.142  28.905  1.00  0.00    -0.354 N 
ATOM     44  C   UNL A   1      40.354  27.744  28.775  1.00  0.00     0.074 A 
ATOM     45  C   UNL A   1      39.433  26.804  28.174  1.00  0.00     0.031 C 
ATOM     46  C   UNL A   1      45.958  24.609  28.606  1.00  0.00     0.029 A 
ATOM     47  C   UNL A   1      45.707  25.966  29.077  1.00  0.00     0.049 A 
ATOM     48  H   UNL A   1      43.887  26.978  29.126  1.00  0.00     0.167 HD
ATOM     49  C   UNL A   1      40.006  28.981  29.207  1.00  0.00     0.031 A 
ATOM     50  C   UNL A   1      46.642  26.803  29.565  1.00  0.00     0.031 A 
ATOM     51  C   UNL A   1      40.921  29.914  29.811  1.00  0.00     0.049 A 
ATOM     52  C   UNL A   1      46.228  28.169  30.032  1.00  0.00     0.074 A 
ATOM     53  C   UNL A   1      40.653  31.165  30.339  1.00  0.00     0.029 A 
ATOM     54  N   UNL A   1      42.282  29.702  29.960  1.00  0.00    -0.354 N 
ATOM     55  N   UNL A   1      45.033  28.709  30.059  1.00  0.00    -0.248 NA
ATOM     56  C   UNL A   1      47.294  29.036  30.552  1.00  0.00     0.031 C 
ATOM     57  C   UNL A   1      41.861  31.734  30.755  1.00  0.00     0.029 A 
ATOM     58  C   UNL A   1      42.872  30.811  30.545  1.00  0.00     0.049 A 
ATOM     59  H   UNL A   1      42.760  28.885  29.691  1.00  0.00     0.167 HD
ATOM     60  C   UNL A   1      45.200  29.967  30.625  1.00  0.00     0.074 A 
ATOM     61  C   UNL A   1      46.606  30.096  30.949  1.00  0.00     0.031 C 
ATOM     62  C   UNL A   1      44.273  30.930  30.854  1.00  0.00     0.031 A 
BRANCH  49  63
ATOM     63  C   UNL A   1      38.572  29.404  29.033  1.00  0.00    -0.014 A 
ATOM     64  C   UNL A   1      38.091  29.866  27.797  1.00  0.00     0.009 A 
ATOM     65  C   UNL A   1      37.677  29.291  30.108  1.00  0.00     0.009 A 
ATOM     66  C   UNL A   1      36.753  30.239  27.652  1.00  0.00     0.001 A 
ATOM     67  C   UNL A   1      36.332  29.635  29.952  1.00  0.00     0.001 A 
ATOM     68  C   UNL A   1      35.874  30.116  28.727  1.00  0.00     0.000 A 
ENDBRANCH  49  63
BRANCH  50  69
ATOM     69  C   UNL A   1      48.061  26.369  29.662  1.00  0.00    -0.014 A 
ATOM     70  C   UNL A   1      48.545  25.777  30.839  1.00  0.00     0.009 A 
ATOM     71  C   UNL A   1      48.944  26.565  28.589  1.00  0.00     0.009 A 
ATOM     72  C   UNL A   1      49.892  25.423  30.952  1.00  0.00     0.001 A 
ATOM     73  C   UNL A   1      50.283  26.181  28.693  1.00  0.00     0.001 A 
ATOM     74  C   UNL A   1      50.758  25.622  29.878  1.00  0.00     0.000 A 
ENDBRANCH  50  69
BRANCH  62  75
ATOM     75  C   UNL A   1      44.754  32.191  31.515  1.00  0.00    -0.014 A 
ATOM     76  C   UNL A   1      45.201  33.290  30.763  1.00  0.00     0.009 A 
ATOM     77  C   UNL A   1      44.759  32.282  32.916  1.00  0.00     0.009 A 
ATOM     78  C   UNL A   1      45.689  34.432  31.400  1.00  0.00     0.001 A 
ATOM     79  C   UNL A   1      45.215  33.439  33.550  1.00  0.00     0.001 A 
ATOM     80  C   UNL A   1      45.693  34.506  32.792  1.00  0.00     0.000 A 
ENDBRANCH  62  75
ENDBRANCH  36  37
ENDBRANCH  28  31
ENDBRANCH  26  27
ENDBRANCH   1  26
TORSDOF 14
ENDMDL
MODEL 3
REMARK VINA RESULT:     -11.5      3.554      8.343
REMARK SMILES CC(=O)O[C@H]1C[C@@H](C(=O)NCCCNC(=O)c2ccc(-c3c4nc(c(-c5ccccc5)c5ccc([nH]5)c(-c5ccccc5)c5nc(c(-c6ccccc6)c6ccc3[nH]6)C=C5)C=C4)cc2)N(S(=O)(=O)c2ccc(F)cc2)C1
REMARK SMILES IDX 12 1 11 2 10 3 8 4 9 5 7 7 5 8 6 9 76 10 65 11 4 12 2 13
REMARK SMILES IDX 1 14 3 15 66 16 67 17 68 18 69 19 70 20 75 21 71 22 74 23
REMARK SMILES IDX 72 24 73 25 13 26 14 27 15 28 16 30 17 31 18 32 64 33 19 34
REMARK SMILES IDX 63 35 20 36 21 37 22 38 57 39 23 40 62 41 56 42 58 43 24 44
REMARK SMILES IDX 61 45 55 46 54 47 25 49 47 50 32 51 46 52 33 53 36 54 45 55
REMARK SMILES IDX 59 56 34 57 35 58 44 60 60 61 37 62 26 63 27 64 31 65 28 66
REMARK SMILES IDX 30 67 29 68 48 69 49 70 53 71 50 72 52 73 51 74 38 75 39 76
REMARK SMILES IDX 43 77 40 78 42 79 41 80
REMARK H PARENT 10 6 14 29 58 48 36 59
REMARK Flexibility Score: inf
ROOT
ATOM      1  C   UNL A   1      31.263  31.246  25.795  1.00  0.00     0.042 C 
ENDROOT
BRANCH   1   2
ATOM      2  C   UNL A   1      31.438  29.819  25.291  1.00  0.00     0.117 C 
BRANCH   2   3
ATOM      3  N   UNL A   1      31.203  29.677  23.869  1.00  0.00    -0.355 N 
ATOM      4  C   UNL A   1      30.721  28.658  23.117  1.00  0.00     0.238 C 
ATOM      5  O   UNL A   1      30.352  28.975  21.978  1.00  0.00    -0.273 OA
ATOM      6  H   UNL A   1      31.441  30.476  23.346  1.00  0.00     0.163 HD
BRANCH   4   7
ATOM      7  C   UNL A   1      30.536  27.220  23.582  1.00  0.00     0.166 C 
ATOM      8  C   UNL A   1      30.431  25.280  24.937  1.00  0.00     0.193 C 
ATOM      9  C   UNL A   1      30.667  26.785  25.029  1.00  0.00     0.077 C 
ATOM     10  C   UNL A   1      30.981  24.883  23.559  1.00  0.00     0.148 C 
ATOM     11  N   UNL A   1      31.324  26.162  22.840  1.00  0.00    -0.182 NA
BRANCH   8  12
ATOM     12  O   UNL A   1      31.116  24.644  26.027  1.00  0.00    -0.461 OA
BRANCH  12  13
ATOM     13  C   UNL A   1      30.808  23.398  26.466  1.00  0.00     0.302 C 
ATOM     14  C   UNL A   1      31.479  22.240  25.789  1.00  0.00     0.139 C 
ATOM     15  O   UNL A   1      30.006  23.232  27.379  1.00  0.00    -0.253 OA
ENDBRANCH  12  13
ENDBRANCH   8  12
BRANCH  11  16
ATOM     16  S   UNL A   1      33.025  26.350  22.665  1.00  0.00     0.243 S 
ATOM     17  O   UNL A   1      33.348  26.100  21.277  1.00  0.00    -0.207 OA
ATOM     18  O   UNL A   1      33.367  27.622  23.274  1.00  0.00    -0.207 OA
BRANCH  16  19
ATOM     19  C   UNL A   1      33.831  25.104  23.639  1.00  0.00     0.082 A 
ATOM     20  C   UNL A   1      34.262  25.406  24.938  1.00  0.00     0.025 A 
ATOM     21  C   UNL A   1      34.188  23.887  23.044  1.00  0.00     0.025 A 
ATOM     22  C   UNL A   1      34.983  24.454  25.663  1.00  0.00     0.040 A 
ATOM     23  C   UNL A   1      34.872  22.925  23.786  1.00  0.00     0.040 A 
ATOM     24  C   UNL A   1      35.262  23.217  25.088  1.00  0.00     0.123 A 
ATOM     25  F   UNL A   1      35.935  22.299  25.793  1.00  0.00    -0.207 F 
ENDBRANCH  16  19
ENDBRANCH  11  16
ENDBRANCH   4   7
ENDBRANCH   2   3
ENDBRANCH   1   2
BRANCH   1  26
ATOM     26  C   UNL A   1      32.160  31.611  26.978  1.00  0.00     0.118 C 
BRANCH  26  27
ATOM     27  N   UNL A   1      32.138  33.036  27.280  1.00  0.00    -0.352 N 
ATOM     28  C   UNL A   1      32.960  33.813  28.054  1.00  0.00     0.251 C 
ATOM     29  H   UNL A   1      31.401  33.529  26.852  1.00  0.00     0.163 HD
ATOM     30  O   UNL A   1      32.594  34.948  28.349  1.00  0.00    -0.269 OA
BRANCH  28  31
ATOM     31  C   UNL A   1      34.270  33.321  28.536  1.00  0.00     0.039 A 
ATOM     32  C   UNL A   1      34.312  32.617  29.744  1.00  0.00     0.014 A 
ATOM     33  C   UNL A   1      35.461  33.613  27.866  1.00  0.00     0.014 A 
ATOM     34  C   UNL A   1      35.534  32.171  30.251  1.00  0.00     0.010 A 
ATOM     35  C   UNL A   1      36.672  33.097  28.330  1.00  0.00     0.010 A 
ATOM     36  C   UNL A   1      36.724  32.380  29.533  1.00  0.00    -0.014 A 
BRANCH  36  37
ATOM     37  C   UNL A   1      38.015  31.841  30.033  1.00  0.00     0.031 A 
ATOM     38  C   UNL A   1      38.561  30.538  29.514  1.00  0.00     0.074 A 
ATOM     39  C   UNL A   1      38.684  32.519  30.986  1.00  0.00     0.049 A 
ATOM     40  N   UNL A   1      39.683  29.934  29.821  1.00  0.00    -0.248 NA
ATOM     41  C   UNL A   1      37.736  29.805  28.542  1.00  0.00     0.031 C 
ATOM     42  C   UNL A   1      38.238  33.770  31.607  1.00  0.00     0.029 A 
ATOM     43  N   UNL A   1      39.887  32.258  31.593  1.00  0.00    -0.354 N 
ATOM     44  C   UNL A   1      39.690  28.751  29.093  1.00  0.00     0.074 A 
ATOM     45  C   UNL A   1      38.440  28.695  28.367  1.00  0.00     0.031 C 
ATOM     46  C   UNL A   1      39.175  34.190  32.471  1.00  0.00     0.029 A 
ATOM     47  C   UNL A   1      40.266  33.222  32.496  1.00  0.00     0.049 A 
ATOM     48  H   UNL A   1      40.426  31.458  31.400  1.00  0.00     0.167 HD
ATOM     49  C   UNL A   1      40.655  27.802  29.021  1.00  0.00     0.031 A 
ATOM     50  C   UNL A   1      41.372  33.320  33.257  1.00  0.00     0.031 A 
ATOM     51  C   UNL A   1      41.903  27.860  29.740  1.00  0.00     0.049 A 
ATOM     52  C   UNL A   1      42.423  32.251  33.160  1.00  0.00     0.074 A 
ATOM     53  C   UNL A   1      42.971  26.982  29.684  1.00  0.00     0.029 A 
ATOM     54  N   UNL A   1      42.245  28.847  30.650  1.00  0.00    -0.354 N 
ATOM     55  N   UNL A   1      42.451  31.183  32.400  1.00  0.00    -0.248 NA
ATOM     56  C   UNL A   1      43.605  32.413  34.017  1.00  0.00     0.031 C 
ATOM     57  C   UNL A   1      43.936  27.406  30.604  1.00  0.00     0.029 A 
ATOM     58  C   UNL A   1      43.496  28.584  31.184  1.00  0.00     0.049 A 
ATOM     59  H   UNL A   1      41.683  29.621  30.881  1.00  0.00     0.167 HD
ATOM     60  C   UNL A   1      43.665  30.562  32.667  1.00  0.00     0.074 A 
ATOM     61  C   UNL A   1      44.353  31.388  33.637  1.00  0.00     0.031 C 
ATOM     62  C   UNL A   1      44.165  29.410  32.156  1.00  0.00     0.031 A 
BRANCH  49  63
ATOM     63  C   UNL A   1      40.399  26.609  28.140  1.00  0.00    -0.014 A 
ATOM     64  C   UNL A   1      39.645  25.514  28.594  1.00  0.00     0.009 A 
ATOM     65  C   UNL A   1      40.876  26.602  26.820  1.00  0.00     0.009 A 
ATOM     66  C   UNL A   1      39.404  24.424  27.755  1.00  0.00     0.001 A 
ATOM     67  C   UNL A   1      40.607  25.524  25.973  1.00  0.00     0.001 A 
ATOM     68  C   UNL A   1      39.879  24.433  26.444  1.00  0.00     0.000 A 
ENDBRANCH  49  63
BRANCH  50  69
ATOM     69  C   UNL A   1      41.559  34.484  34.164  1.00  0.00    -0.014 A 
ATOM     70  C   UNL A   1      41.067  34.449  35.478  1.00  0.00     0.009 A 
ATOM     71  C   UNL A   1      42.209  35.644  33.714  1.00  0.00     0.009 A 
ATOM     72  C   UNL A   1      41.190  35.563  36.310  1.00  0.00     0.001 A 
ATOM     73  C   UNL A   1      42.359  36.745  34.560  1.00  0.00     0.001 A 
ATOM     74  C   UNL A   1      41.839  36.709  35.852  1.00  0.00     0.000 A 
ENDBRANCH  50  69
BRANCH  62  75
ATOM     75  C   UNL A   1      45.535  29.000  32.618  1.00  0.00    -0.014 A 
ATOM     76  C   UNL A   1      46.690  29.368  31.909  1.00  0.00     0.009 A 
ATOM     77  C   UNL A   1      45.672  28.233  33.787  1.00  0.00     0.009 A 
ATOM     78  C   UNL A   1      47.948  28.933  32.332  1.00  0.00     0.001 A 
ATOM     79  C   UNL A   1      46.934  27.830  34.226  1.00  0.00     0.001 A 
ATOM     80  C   UNL A   1      48.068  28.167  33.490  1.00  0.00     0.000 A 
ENDBRANCH  62  75
ENDBRANCH  36  37
ENDBRANCH  28  31
ENDBRANCH  26  27
ENDBRANCH   1  26
TORSDOF 14
ENDMDL
