MODEL 1
REMARK VINA RESULT:     -12.7      0.000      0.000
REMARK SMILES CC1=Nc2ncnn2[C@H](c2ccc(F)cc2)[C@@H]1C(=O)NCCCNC(=O)c1ccc(-c2c3nc(c(-c4ccccc4)c4ccc([nH]4)c(-c4ccccc4)c4nc(c(-c5ccccc5)c5ccc2[nH]5)C=C4)C=C3)cc1
REMARK SMILES IDX 22 1 21 2 20 3 18 4 19 5 17 7 1 8 2 9 3 10 4 11 9 12 5 13
REMARK SMILES IDX 8 14 6 15 7 16 10 17 11 18 16 19 12 20 15 21 13 22 14 23
REMARK SMILES IDX 23 24 24 25 25 26 26 28 27 29 28 30 74 31 29 32 73 33 30 34
REMARK SMILES IDX 31 35 32 36 67 37 33 38 72 39 66 40 68 41 34 42 71 43 65 44
REMARK SMILES IDX 64 45 35 47 57 48 42 49 56 50 43 51 46 52 55 53 69 54 44 55
REMARK SMILES IDX 45 56 54 58 70 59 47 60 36 61 37 62 41 63 38 64 40 65 39 66
REMARK SMILES IDX 58 67 59 68 63 69 60 70 62 71 61 72 48 73 49 74 53 75 50 76
REMARK SMILES IDX 52 77 51 78
REMARK H PARENT 20 6 24 27 68 46 46 57
REMARK Flexibility Score: inf
ROOT
ATOM      1  C   UNL A   1      37.784  20.243  25.019  1.00  0.00     0.042 C 
ENDROOT
BRANCH   1   2
ATOM      2  C   UNL A   1      36.773  21.346  25.322  1.00  0.00     0.117 C 
BRANCH   2   3
ATOM      3  N   UNL A   1      36.133  21.938  24.155  1.00  0.00    -0.355 N 
ATOM      4  C   UNL A   1      34.871  22.457  24.040  1.00  0.00     0.231 C 
ATOM      5  O   UNL A   1      34.637  23.142  23.042  1.00  0.00    -0.274 OA
ATOM      6  H   UNL A   1      36.682  21.969  23.339  1.00  0.00     0.163 HD
BRANCH   4   7
ATOM      7  C   UNL A   1      33.812  22.188  25.102  1.00  0.00     0.152 C 
ATOM      8  C   UNL A   1      33.345  19.766  24.160  1.00  0.00     0.063 C 
ATOM      9  C   UNL A   1      32.824  21.069  24.739  1.00  0.00     0.034 C 
ATOM     10  N   UNL A   1      31.568  21.050  25.070  1.00  0.00    -0.220 NA
ATOM     11  C   UNL A   1      31.061  22.065  25.799  1.00  0.00     0.248 A 
ATOM     12  C   UNL A   1      33.102  23.472  25.605  1.00  0.00     0.159 C 
ATOM     13  N   UNL A   1      29.928  22.121  26.468  1.00  0.00    -0.198 NA
ATOM     14  N   UNL A   1      31.741  23.224  26.035  1.00  0.00    -0.221 N 
ATOM     15  C   UNL A   1      29.998  23.307  27.139  1.00  0.00     0.248 A 
ATOM     16  N   UNL A   1      31.117  24.006  26.940  1.00  0.00    -0.157 NA
BRANCH  12  17
ATOM     17  C   UNL A   1      33.184  24.769  24.796  1.00  0.00    -0.022 A 
ATOM     18  C   UNL A   1      32.260  24.948  23.740  1.00  0.00     0.009 A 
ATOM     19  C   UNL A   1      34.049  25.829  25.106  1.00  0.00     0.009 A 
ATOM     20  C   UNL A   1      32.107  26.188  23.120  1.00  0.00     0.039 A 
ATOM     21  C   UNL A   1      33.879  27.077  24.495  1.00  0.00     0.039 A 
ATOM     22  C   UNL A   1      32.896  27.251  23.528  1.00  0.00     0.123 A 
ATOM     23  F   UNL A   1      32.704  28.461  22.990  1.00  0.00    -0.207 F 
ENDBRANCH  12  17
ENDBRANCH   4   7
ENDBRANCH   2   3
ENDBRANCH   1   2
BRANCH   1  24
ATOM     24  C   UNL A   1      39.143  20.473  25.664  1.00  0.00     0.118 C 
BRANCH  24  25
ATOM     25  N   UNL A   1      40.010  19.290  25.758  1.00  0.00    -0.352 N 
ATOM     26  C   UNL A   1      41.398  19.279  25.944  1.00  0.00     0.251 C 
ATOM     27  H   UNL A   1      39.568  18.413  25.682  1.00  0.00     0.163 HD
ATOM     28  O   UNL A   1      42.082  18.318  25.693  1.00  0.00    -0.269 OA
BRANCH  26  29
ATOM     29  C   UNL A   1      41.988  20.514  26.504  1.00  0.00     0.039 A 
ATOM     30  C   UNL A   1      42.659  21.476  25.739  1.00  0.00     0.014 A 
ATOM     31  C   UNL A   1      41.670  20.745  27.830  1.00  0.00     0.014 A 
ATOM     32  C   UNL A   1      42.904  22.729  26.311  1.00  0.00     0.010 A 
ATOM     33  C   UNL A   1      41.648  22.035  28.264  1.00  0.00     0.010 A 
ATOM     34  C   UNL A   1      42.366  23.006  27.574  1.00  0.00    -0.014 A 
BRANCH  34  35
ATOM     35  C   UNL A   1      42.465  24.299  28.243  1.00  0.00     0.031 A 
ATOM     36  C   UNL A   1      41.363  25.265  27.995  1.00  0.00     0.074 A 
ATOM     37  C   UNL A   1      43.312  24.460  29.286  1.00  0.00     0.049 A 
ATOM     38  N   UNL A   1      41.444  26.430  27.441  1.00  0.00    -0.248 NA
ATOM     39  C   UNL A   1      39.990  24.866  28.342  1.00  0.00     0.031 C 
ATOM     40  C   UNL A   1      44.229  23.467  29.878  1.00  0.00     0.029 A 
ATOM     41  N   UNL A   1      43.413  25.499  30.154  1.00  0.00    -0.354 N 
ATOM     42  C   UNL A   1      40.176  26.995  27.540  1.00  0.00     0.074 A 
ATOM     43  C   UNL A   1      39.289  25.929  27.937  1.00  0.00     0.031 C 
ATOM     44  C   UNL A   1      44.574  23.848  31.125  1.00  0.00     0.029 A 
ATOM     45  C   UNL A   1      44.094  25.198  31.328  1.00  0.00     0.049 A 
ATOM     46  H   UNL A   1      43.037  26.389  29.967  1.00  0.00     0.167 HD
ATOM     47  C   UNL A   1      39.990  28.345  27.534  1.00  0.00     0.031 A 
ATOM     48  C   UNL A   1      44.259  26.005  32.401  1.00  0.00     0.031 A 
ATOM     49  C   UNL A   1      41.189  29.047  27.148  1.00  0.00     0.049 A 
ATOM     50  C   UNL A   1      44.033  27.389  31.936  1.00  0.00     0.074 A 
ATOM     51  C   UNL A   1      41.987  29.085  26.025  1.00  0.00     0.029 A 
ATOM     52  N   UNL A   1      41.948  29.567  28.170  1.00  0.00    -0.354 N 
ATOM     53  N   UNL A   1      44.803  27.985  31.071  1.00  0.00    -0.248 NA
ATOM     54  C   UNL A   1      42.707  27.963  32.089  1.00  0.00     0.031 C 
ATOM     55  C   UNL A   1      43.321  29.172  26.525  1.00  0.00     0.029 A 
ATOM     56  C   UNL A   1      43.258  29.248  27.919  1.00  0.00     0.049 A 
ATOM     57  H   UNL A   1      41.613  30.075  28.943  1.00  0.00     0.167 HD
ATOM     58  C   UNL A   1      43.935  28.704  30.263  1.00  0.00     0.074 A 
ATOM     59  C   UNL A   1      42.684  28.762  31.016  1.00  0.00     0.031 C 
ATOM     60  C   UNL A   1      44.227  28.930  28.947  1.00  0.00     0.031 A 
BRANCH  47  61
ATOM     61  C   UNL A   1      38.877  29.052  28.267  1.00  0.00    -0.014 A 
ATOM     62  C   UNL A   1      38.697  28.796  29.639  1.00  0.00     0.009 A 
ATOM     63  C   UNL A   1      37.835  29.736  27.611  1.00  0.00     0.009 A 
ATOM     64  C   UNL A   1      37.514  29.152  30.300  1.00  0.00     0.001 A 
ATOM     65  C   UNL A   1      36.672  30.131  28.278  1.00  0.00     0.001 A 
ATOM     66  C   UNL A   1      36.500  29.814  29.617  1.00  0.00     0.000 A 
ENDBRANCH  47  61
BRANCH  48  67
ATOM     67  C   UNL A   1      44.381  25.643  33.824  1.00  0.00    -0.014 A 
ATOM     68  C   UNL A   1      43.322  25.024  34.503  1.00  0.00     0.009 A 
ATOM     69  C   UNL A   1      45.643  25.662  34.446  1.00  0.00     0.009 A 
ATOM     70  C   UNL A   1      43.530  24.403  35.742  1.00  0.00     0.001 A 
ATOM     71  C   UNL A   1      45.851  25.040  35.682  1.00  0.00     0.001 A 
ATOM     72  C   UNL A   1      44.798  24.396  36.321  1.00  0.00     0.000 A 
ENDBRANCH  48  67
BRANCH  60  73
ATOM     73  C   UNL A   1      45.614  28.562  28.469  1.00  0.00    -0.014 A 
ATOM     74  C   UNL A   1      46.689  29.471  28.475  1.00  0.00     0.009 A 
ATOM     75  C   UNL A   1      45.882  27.227  28.145  1.00  0.00     0.009 A 
ATOM     76  C   UNL A   1      47.985  29.061  28.140  1.00  0.00     0.001 A 
ATOM     77  C   UNL A   1      47.179  26.812  27.826  1.00  0.00     0.001 A 
ATOM     78  C   UNL A   1      48.229  27.729  27.820  1.00  0.00     0.000 A 
ENDBRANCH  60  73
ENDBRANCH  34  35
ENDBRANCH  26  29
ENDBRANCH  24  25
ENDBRANCH   1  24
TORSDOF 11
ENDMDL
MODEL 2
REMARK VINA RESULT:     -12.4      4.409      9.051
REMARK SMILES CC1=Nc2ncnn2[C@H](c2ccc(F)cc2)[C@@H]1C(=O)NCCCNC(=O)c1ccc(-c2c3nc(c(-c4ccccc4)c4ccc([nH]4)c(-c4ccccc4)c4nc(c(-c5ccccc5)c5ccc2[nH]5)C=C4)C=C3)cc1
REMARK SMILES IDX 22 1 21 2 20 3 18 4 19 5 17 7 1 8 2 9 3 10 4 11 9 12 5 13
REMARK SMILES IDX 8 14 6 15 7 16 10 17 11 18 16 19 12 20 15 21 13 22 14 23
REMARK SMILES IDX 23 24 24 25 25 26 26 28 27 29 28 30 74 31 29 32 73 33 30 34
REMARK SMILES IDX 31 35 32 36 67 37 33 38 72 39 66 40 68 41 34 42 71 43 65 44
REMARK SMILES IDX 64 45 35 47 57 48 42 49 56 50 43 51 46 52 55 53 69 54 44 55
REMARK SMILES IDX 45 56 54 58 70 59 47 60 36 61 37 62 41 63 38 64 40 65 39 66
REMARK SMILES IDX 58 67 59 68 63 69 60 70 62 71 61 72 48 73 49 74 53 75 50 76
REMARK SMILES IDX 52 77 51 78
REMARK H PARENT 20 6 24 27 68 46 46 57
REMARK Flexibility Score: inf
ROOT
ATOM      1  C   UNL A   1      31.926  31.489  26.562  1.00  0.00     0.042 C 
ENDROOT
BRANCH   1   2
ATOM      2  C   UNL A   1      32.502  30.118  26.215  1.00  0.00     0.117 C 
BRANCH   2   3
ATOM      3  N   UNL A   1      31.638  28.986  26.523  1.00  0.00    -0.355 N 
ATOM      4  C   UNL A   1      31.404  27.859  25.782  1.00  0.00     0.231 C 
ATOM      5  O   UNL A   1      30.850  26.918  26.354  1.00  0.00    -0.274 OA
ATOM      6  H   UNL A   1      31.157  29.039  27.380  1.00  0.00     0.163 HD
BRANCH   4   7
ATOM      7  C   UNL A   1      31.812  27.787  24.315  1.00  0.00     0.152 C 
ATOM      8  C   UNL A   1      29.689  29.161  23.557  1.00  0.00     0.063 C 
ATOM      9  C   UNL A   1      30.658  28.015  23.327  1.00  0.00     0.034 C 
ATOM     10  N   UNL A   1      30.541  27.430  22.173  1.00  0.00    -0.220 NA
ATOM     11  C   UNL A   1      31.491  26.561  21.772  1.00  0.00     0.248 A 
ATOM     12  C   UNL A   1      32.654  26.530  23.970  1.00  0.00     0.159 C 
ATOM     13  N   UNL A   1      31.722  26.081  20.568  1.00  0.00    -0.198 NA
ATOM     14  N   UNL A   1      32.469  26.095  22.601  1.00  0.00    -0.221 N 
ATOM     15  C   UNL A   1      32.883  25.379  20.709  1.00  0.00     0.248 A 
ATOM     16  N   UNL A   1      33.409  25.393  21.935  1.00  0.00    -0.157 NA
BRANCH  12  17
ATOM     17  C   UNL A   1      32.675  25.329  24.919  1.00  0.00    -0.022 A 
ATOM     18  C   UNL A   1      31.646  24.367  24.792  1.00  0.00     0.009 A 
ATOM     19  C   UNL A   1      33.709  25.075  25.833  1.00  0.00     0.009 A 
ATOM     20  C   UNL A   1      31.727  23.136  25.441  1.00  0.00     0.039 A 
ATOM     21  C   UNL A   1      33.797  23.830  26.468  1.00  0.00     0.039 A 
ATOM     22  C   UNL A   1      32.821  22.866  26.247  1.00  0.00     0.123 A 
ATOM     23  F   UNL A   1      32.943  21.660  26.814  1.00  0.00    -0.207 F 
ENDBRANCH  12  17
ENDBRANCH   4   7
ENDBRANCH   2   3
ENDBRANCH   1   2
BRANCH   1  24
ATOM     24  C   UNL A   1      32.804  32.292  27.512  1.00  0.00     0.118 C 
BRANCH  24  25
ATOM     25  N   UNL A   1      32.469  33.717  27.633  1.00  0.00    -0.352 N 
ATOM     26  C   UNL A   1      33.029  34.638  28.528  1.00  0.00     0.251 C 
ATOM     27  H   UNL A   1      31.780  34.062  27.020  1.00  0.00     0.163 HD
ATOM     28  O   UNL A   1      32.500  35.688  28.799  1.00  0.00    -0.269 OA
BRANCH  26  29
ATOM     29  C   UNL A   1      34.336  34.266  29.110  1.00  0.00     0.039 A 
ATOM     30  C   UNL A   1      34.498  33.742  30.397  1.00  0.00     0.014 A 
ATOM     31  C   UNL A   1      35.389  34.305  28.213  1.00  0.00     0.014 A 
ATOM     32  C   UNL A   1      35.722  33.150  30.726  1.00  0.00     0.010 A 
ATOM     33  C   UNL A   1      36.448  33.481  28.438  1.00  0.00     0.010 A 
ATOM     34  C   UNL A   1      36.686  33.001  29.721  1.00  0.00    -0.014 A 
BRANCH  34  35
ATOM     35  C   UNL A   1      37.963  32.320  29.903  1.00  0.00     0.031 A 
ATOM     36  C   UNL A   1      38.029  30.898  29.474  1.00  0.00     0.074 A 
ATOM     37  C   UNL A   1      39.092  33.037  30.113  1.00  0.00     0.049 A 
ATOM     38  N   UNL A   1      38.267  29.862  30.208  1.00  0.00    -0.248 NA
ATOM     39  C   UNL A   1      37.728  30.576  28.069  1.00  0.00     0.031 C 
ATOM     40  C   UNL A   1      39.235  34.503  30.215  1.00  0.00     0.029 A 
ATOM     41  N   UNL A   1      40.383  32.621  30.112  1.00  0.00    -0.354 N 
ATOM     42  C   UNL A   1      38.339  28.778  29.337  1.00  0.00     0.074 A 
ATOM     43  C   UNL A   1      37.827  29.244  28.071  1.00  0.00     0.031 C 
ATOM     44  C   UNL A   1      40.519  34.854  29.996  1.00  0.00     0.029 A 
ATOM     45  C   UNL A   1      41.314  33.645  29.968  1.00  0.00     0.049 A 
ATOM     46  H   UNL A   1      40.640  31.675  30.205  1.00  0.00     0.167 HD
ATOM     47  C   UNL A   1      39.044  27.654  29.647  1.00  0.00     0.031 A 
ATOM     48  C   UNL A   1      42.653  33.513  29.837  1.00  0.00     0.031 A 
ATOM     49  C   UNL A   1      39.440  27.638  31.033  1.00  0.00     0.049 A 
ATOM     50  C   UNL A   1      43.005  32.175  30.356  1.00  0.00     0.074 A 
ATOM     51  C   UNL A   1      38.779  27.639  32.244  1.00  0.00     0.029 A 
ATOM     52  N   UNL A   1      40.729  28.030  31.305  1.00  0.00    -0.354 N 
ATOM     53  N   UNL A   1      42.855  31.832  31.603  1.00  0.00    -0.248 NA
ATOM     54  C   UNL A   1      43.110  31.073  29.415  1.00  0.00     0.031 C 
ATOM     55  C   UNL A   1      39.563  28.482  33.088  1.00  0.00     0.029 A 
ATOM     56  C   UNL A   1      40.688  28.895  32.369  1.00  0.00     0.049 A 
ATOM     57  H   UNL A   1      41.538  27.741  30.824  1.00  0.00     0.167 HD
ATOM     58  C   UNL A   1      42.401  30.523  31.556  1.00  0.00     0.074 A 
ATOM     59  C   UNL A   1      42.707  30.069  30.200  1.00  0.00     0.031 C 
ATOM     60  C   UNL A   1      41.565  30.035  32.521  1.00  0.00     0.031 A 
BRANCH  47  61
ATOM     61  C   UNL A   1      39.734  26.777  28.631  1.00  0.00    -0.014 A 
ATOM     62  C   UNL A   1      40.679  27.357  27.764  1.00  0.00     0.009 A 
ATOM     63  C   UNL A   1      39.293  25.480  28.307  1.00  0.00     0.009 A 
ATOM     64  C   UNL A   1      41.111  26.696  26.607  1.00  0.00     0.001 A 
ATOM     65  C   UNL A   1      39.755  24.800  27.177  1.00  0.00     0.001 A 
ATOM     66  C   UNL A   1      40.644  25.419  26.312  1.00  0.00     0.000 A 
ENDBRANCH  47  61
BRANCH  48  67
ATOM     67  C   UNL A   1      43.602  34.368  29.102  1.00  0.00    -0.014 A 
ATOM     68  C   UNL A   1      44.796  34.798  29.698  1.00  0.00     0.009 A 
ATOM     69  C   UNL A   1      43.460  34.537  27.712  1.00  0.00     0.009 A 
ATOM     70  C   UNL A   1      45.832  35.335  28.923  1.00  0.00     0.001 A 
ATOM     71  C   UNL A   1      44.495  35.072  26.938  1.00  0.00     0.001 A 
ATOM     72  C   UNL A   1      45.687  35.455  27.542  1.00  0.00     0.000 A 
ENDBRANCH  48  67
BRANCH  60  73
ATOM     73  C   UNL A   1      41.337  30.898  33.743  1.00  0.00    -0.014 A 
ATOM     74  C   UNL A   1      40.358  31.909  33.792  1.00  0.00     0.009 A 
ATOM     75  C   UNL A   1      42.021  30.586  34.924  1.00  0.00     0.009 A 
ATOM     76  C   UNL A   1      40.094  32.604  34.978  1.00  0.00     0.001 A 
ATOM     77  C   UNL A   1      41.747  31.268  36.113  1.00  0.00     0.001 A 
ATOM     78  C   UNL A   1      40.787  32.278  36.140  1.00  0.00     0.000 A 
ENDBRANCH  60  73
ENDBRANCH  34  35
ENDBRANCH  26  29
ENDBRANCH  24  25
ENDBRANCH   1  24
TORSDOF 11
ENDMDL
MODEL 3
REMARK VINA RESULT:     -12.4      2.622      7.116
REMARK SMILES CC1=Nc2ncnn2[C@H](c2ccc(F)cc2)[C@@H]1C(=O)NCCCNC(=O)c1ccc(-c2c3nc(c(-c4ccccc4)c4ccc([nH]4)c(-c4ccccc4)c4nc(c(-c5ccccc5)c5ccc2[nH]5)C=C4)C=C3)cc1
REMARK SMILES IDX 22 1 21 2 20 3 18 4 19 5 17 7 1 8 2 9 3 10 4 11 9 12 5 13
REMARK SMILES IDX 8 14 6 15 7 16 10 17 11 18 16 19 12 20 15 21 13 22 14 23
REMARK SMILES IDX 23 24 24 25 25 26 26 28 27 29 28 30 74 31 29 32 73 33 30 34
REMARK SMILES IDX 31 35 32 36 67 37 33 38 72 39 66 40 68 41 34 42 71 43 65 44
REMARK SMILES IDX 64 45 35 47 57 48 42 49 56 50 43 51 46 52 55 53 69 54 44 55
REMARK SMILES IDX 45 56 54 58 70 59 47 60 36 61 37 62 41 63 38 64 40 65 39 66
REMARK SMILES IDX 58 67 59 68 63 69 60 70 62 71 61 72 48 73 49 74 53 75 50 76
REMARK SMILES IDX 52 77 51 78
REMARK H PARENT 20 6 24 27 68 46 46 57
REMARK Flexibility Score: inf
ROOT
ATOM      1  C   UNL A   1      33.687  30.577  27.248  1.00  0.00     0.042 C 
ENDROOT
BRANCH   1   2
ATOM      2  C   UNL A   1      34.177  29.136  27.124  1.00  0.00     0.117 C 
BRANCH   2   3
ATOM      3  N   UNL A   1      34.422  28.679  25.763  1.00  0.00    -0.355 N 
ATOM      4  C   UNL A   1      33.942  27.563  25.133  1.00  0.00     0.231 C 
ATOM      5  O   UNL A   1      34.063  27.516  23.907  1.00  0.00    -0.274 OA
ATOM      6  H   UNL A   1      35.014  29.251  25.222  1.00  0.00     0.163 HD
BRANCH   4   7
ATOM      7  C   UNL A   1      33.294  26.433  25.925  1.00  0.00     0.152 C 
ATOM      8  C   UNL A   1      35.296  24.792  25.408  1.00  0.00     0.063 C 
ATOM      9  C   UNL A   1      33.804  25.031  25.559  1.00  0.00     0.034 C 
ATOM     10  N   UNL A   1      33.080  23.953  25.559  1.00  0.00    -0.220 NA
ATOM     11  C   UNL A   1      31.782  24.029  25.915  1.00  0.00     0.248 A 
ATOM     12  C   UNL A   1      31.745  26.515  25.961  1.00  0.00     0.159 C 
ATOM     13  N   UNL A   1      30.955  23.060  26.250  1.00  0.00    -0.198 NA
ATOM     14  N   UNL A   1      31.121  25.212  26.074  1.00  0.00    -0.221 N 
ATOM     15  C   UNL A   1      29.830  23.712  26.661  1.00  0.00     0.248 A 
ATOM     16  N   UNL A   1      29.896  25.044  26.614  1.00  0.00    -0.157 NA
BRANCH  12  17
ATOM     17  C   UNL A   1      30.992  27.387  24.952  1.00  0.00    -0.022 A 
ATOM     18  C   UNL A   1      30.996  28.786  25.155  1.00  0.00     0.009 A 
ATOM     19  C   UNL A   1      30.391  26.889  23.787  1.00  0.00     0.009 A 
ATOM     20  C   UNL A   1      30.550  29.659  24.164  1.00  0.00     0.039 A 
ATOM     21  C   UNL A   1      29.963  27.768  22.786  1.00  0.00     0.039 A 
ATOM     22  C   UNL A   1      30.069  29.140  22.973  1.00  0.00     0.123 A 
ATOM     23  F   UNL A   1      29.709  29.972  21.987  1.00  0.00    -0.207 F 
ENDBRANCH  12  17
ENDBRANCH   4   7
ENDBRANCH   2   3
ENDBRANCH   1   2
BRANCH   1  24
ATOM     24  C   UNL A   1      34.779  31.555  27.659  1.00  0.00     0.118 C 
BRANCH  24  25
ATOM     25  N   UNL A   1      34.669  32.092  29.022  1.00  0.00    -0.352 N 
ATOM     26  C   UNL A   1      35.465  31.753  30.124  1.00  0.00     0.251 C 
ATOM     27  H   UNL A   1      33.963  32.761  29.178  1.00  0.00     0.163 HD
ATOM     28  O   UNL A   1      35.131  31.974  31.261  1.00  0.00    -0.269 OA
BRANCH  26  29
ATOM     29  C   UNL A   1      36.770  31.131  29.815  1.00  0.00     0.039 A 
ATOM     30  C   UNL A   1      37.972  31.843  29.715  1.00  0.00     0.014 A 
ATOM     31  C   UNL A   1      36.753  29.748  29.809  1.00  0.00     0.014 A 
ATOM     32  C   UNL A   1      39.173  31.125  29.723  1.00  0.00     0.010 A 
ATOM     33  C   UNL A   1      37.908  29.095  30.109  1.00  0.00     0.010 A 
ATOM     34  C   UNL A   1      39.128  29.744  29.949  1.00  0.00    -0.014 A 
BRANCH  34  35
ATOM     35  C   UNL A   1      40.306  28.893  30.075  1.00  0.00     0.031 A 
ATOM     36  C   UNL A   1      40.823  28.668  31.450  1.00  0.00     0.074 A 
ATOM     37  C   UNL A   1      40.677  28.090  29.050  1.00  0.00     0.049 A 
ATOM     38  N   UNL A   1      41.979  28.996  31.924  1.00  0.00    -0.248 NA
ATOM     39  C   UNL A   1      39.923  28.062  32.446  1.00  0.00     0.031 C 
ATOM     40  C   UNL A   1      40.039  27.948  27.727  1.00  0.00     0.029 A 
ATOM     41  N   UNL A   1      41.604  27.099  29.032  1.00  0.00    -0.354 N 
ATOM     42  C   UNL A   1      42.033  28.473  33.213  1.00  0.00     0.074 A 
ATOM     43  C   UNL A   1      40.688  28.069  33.540  1.00  0.00     0.031 C 
ATOM     44  C   UNL A   1      40.413  26.782  27.161  1.00  0.00     0.029 A 
ATOM     45  C   UNL A   1      41.474  26.215  27.967  1.00  0.00     0.049 A 
ATOM     46  H   UNL A   1      42.308  27.014  29.714  1.00  0.00     0.167 HD
ATOM     47  C   UNL A   1      43.218  28.179  33.818  1.00  0.00     0.031 A 
ATOM     48  C   UNL A   1      42.191  25.089  27.753  1.00  0.00     0.031 A 
ATOM     49  C   UNL A   1      44.339  28.720  33.089  1.00  0.00     0.049 A 
ATOM     50  C   UNL A   1      43.432  25.214  28.546  1.00  0.00     0.074 A 
ATOM     51  C   UNL A   1      44.759  29.983  32.729  1.00  0.00     0.029 A 
ATOM     52  N   UNL A   1      45.010  27.848  32.266  1.00  0.00    -0.354 N 
ATOM     53  N   UNL A   1      44.338  26.120  28.313  1.00  0.00    -0.248 NA
ATOM     54  C   UNL A   1      43.469  24.624  29.872  1.00  0.00     0.031 C 
ATOM     55  C   UNL A   1      45.283  29.833  31.410  1.00  0.00     0.029 A 
ATOM     56  C   UNL A   1      45.213  28.480  31.066  1.00  0.00     0.049 A 
ATOM     57  H   UNL A   1      45.295  26.935  32.495  1.00  0.00     0.167 HD
ATOM     58  C   UNL A   1      44.757  26.531  29.569  1.00  0.00     0.074 A 
ATOM     59  C   UNL A   1      44.291  25.486  30.479  1.00  0.00     0.031 C 
ATOM     60  C   UNL A   1      45.184  27.812  29.782  1.00  0.00     0.031 A 
BRANCH  47  61
ATOM     61  C   UNL A   1      43.407  27.067  34.821  1.00  0.00    -0.014 A 
ATOM     62  C   UNL A   1      43.123  25.745  34.430  1.00  0.00     0.009 A 
ATOM     63  C   UNL A   1      43.579  27.295  36.200  1.00  0.00     0.009 A 
ATOM     64  C   UNL A   1      42.963  24.723  35.374  1.00  0.00     0.001 A 
ATOM     65  C   UNL A   1      43.463  26.268  37.141  1.00  0.00     0.001 A 
ATOM     66  C   UNL A   1      43.127  24.987  36.730  1.00  0.00     0.000 A 
ENDBRANCH  47  61
BRANCH  48  67
ATOM     67  C   UNL A   1      41.780  23.838  27.093  1.00  0.00    -0.014 A 
ATOM     68  C   UNL A   1      42.603  23.221  26.141  1.00  0.00     0.009 A 
ATOM     69  C   UNL A   1      40.694  23.101  27.602  1.00  0.00     0.009 A 
ATOM     70  C   UNL A   1      42.376  21.896  25.746  1.00  0.00     0.001 A 
ATOM     71  C   UNL A   1      40.468  21.778  27.210  1.00  0.00     0.001 A 
ATOM     72  C   UNL A   1      41.320  21.170  26.294  1.00  0.00     0.000 A 
ENDBRANCH  48  67
BRANCH  60  73
ATOM     73  C   UNL A   1      45.388  28.688  28.566  1.00  0.00    -0.014 A 
ATOM     74  C   UNL A   1      44.362  29.474  28.009  1.00  0.00     0.009 A 
ATOM     75  C   UNL A   1      46.684  28.841  28.057  1.00  0.00     0.009 A 
ATOM     76  C   UNL A   1      44.618  30.363  26.959  1.00  0.00     0.001 A 
ATOM     77  C   UNL A   1      46.945  29.740  27.019  1.00  0.00     0.001 A 
ATOM     78  C   UNL A   1      45.913  30.499  26.468  1.00  0.00     0.000 A 
ENDBRANCH  60  73
ENDBRANCH  34  35
ENDBRANCH  26  29
ENDBRANCH  24  25
ENDBRANCH   1  24
TORSDOF 11
ENDMDL
