MODEL 1
REMARK VINA RESULT:     -13.3      0.000      0.000
REMARK SMILES O=C1NC(=S)S/C1=C\c1ccc(OCc2cn(-c3ccc(C(=O)NCCCNC(=O)c4ccc(-c5c6nc(c(-c7ccccc7)c7ccc([nH]7)c(-c7ccccc7)c7nc(c(-c8ccccc8)c8ccc5[nH]8)C=C7)C=C6)cc4)cc3)nn2)cc1
REMARK SMILES IDX 22 1 23 2 24 3 21 5 18 6 19 7 80 8 20 9 79 10 17 11 15 12
REMARK SMILES IDX 16 13 82 14 81 15 14 16 13 17 12 18 9 19 10 20 84 21 11 22
REMARK SMILES IDX 83 23 8 24 1 25 2 26 3 27 7 28 4 29 6 31 5 32 25 33 26 34
REMARK SMILES IDX 27 35 28 36 29 37 30 39 31 40 32 41 78 42 33 43 77 44 34 45
REMARK SMILES IDX 35 46 36 47 71 48 37 49 76 50 70 51 72 52 38 53 75 54 69 55
REMARK SMILES IDX 68 56 39 58 61 59 46 60 60 61 47 62 50 63 59 64 73 65 48 66
REMARK SMILES IDX 49 67 58 69 74 70 51 71 40 72 41 73 45 74 42 75 44 76 43 77
REMARK SMILES IDX 62 78 63 79 67 80 64 81 66 82 65 83 52 84 53 85 57 86 54 87
REMARK SMILES IDX 56 88 55 89
REMARK H PARENT 24 4 3 30 28 38 72 57 50 68
REMARK Flexibility Score: inf
ROOT
ATOM      1  C   UNL A   1      33.910  19.801  24.900  1.00  0.00     0.251 C 
ATOM      2  O   UNL A   1      33.086  18.893  24.795  1.00  0.00    -0.269 OA
ATOM      3  N   UNL A   1      35.239  19.460  24.985  1.00  0.00    -0.352 N 
ATOM      4  H   UNL A   1      35.406  18.490  25.005  1.00  0.00     0.163 HD
ENDROOT
BRANCH   1   5
ATOM      5  C   UNL A   1      33.446  21.219  24.870  1.00  0.00     0.039 A 
ATOM      6  C   UNL A   1      32.810  23.944  24.859  1.00  0.00     0.066 A 
ATOM      7  C   UNL A   1      33.603  23.412  23.835  1.00  0.00     0.029 A 
ATOM      8  C   UNL A   1      32.270  23.115  25.834  1.00  0.00     0.029 A 
ATOM      9  C   UNL A   1      33.946  22.056  23.864  1.00  0.00     0.016 A 
ATOM     10  C   UNL A   1      32.542  21.754  25.790  1.00  0.00     0.016 A 
BRANCH   6  11
ATOM     11  N   UNL A   1      32.526  25.318  24.902  1.00  0.00    -0.220 N 
ATOM     12  C   UNL A   1      32.563  27.468  25.246  1.00  0.00     0.120 A 
ATOM     13  C   UNL A   1      33.344  26.338  25.329  1.00  0.00     0.144 A 
ATOM     14  N   UNL A   1      31.344  27.110  24.730  1.00  0.00    -0.131 NA
ATOM     15  N   UNL A   1      31.346  25.812  24.488  1.00  0.00    -0.062 NA
BRANCH  12  16
ATOM     16  C   UNL A   1      32.894  28.902  25.507  1.00  0.00     0.289 C 
BRANCH  16  17
ATOM     17  O   UNL A   1      32.305  29.475  26.688  1.00  0.00    -0.487 OA
BRANCH  17  18
ATOM     18  C   UNL A   1      32.482  30.812  26.922  1.00  0.00     0.119 A 
ATOM     19  C   UNL A   1      32.908  33.434  27.831  1.00  0.00    -0.024 A 
ATOM     20  C   UNL A   1      33.891  32.460  28.016  1.00  0.00     0.012 A 
ATOM     21  C   UNL A   1      31.763  33.114  27.099  1.00  0.00     0.012 A 
ATOM     22  C   UNL A   1      33.673  31.152  27.569  1.00  0.00     0.047 A 
ATOM     23  C   UNL A   1      31.573  31.820  26.615  1.00  0.00     0.047 A 
BRANCH  19  24
ATOM     24  C   UNL A   1      33.052  34.775  28.399  1.00  0.00     0.029 C 
ATOM     25  O   UNL A   1      33.187  37.423  29.591  1.00  0.00    -0.268 OA
ATOM     26  C   UNL A   1      33.545  36.425  30.175  1.00  0.00     0.263 C 
ATOM     27  N   UNL A   1      34.032  36.397  31.457  1.00  0.00    -0.307 N 
ATOM     28  C   UNL A   1      33.513  35.038  29.629  1.00  0.00     0.080 C 
ATOM     29  C   UNL A   1      34.394  35.196  31.983  1.00  0.00     0.145 C 
ATOM     30  H   UNL A   1      34.116  37.225  31.982  1.00  0.00     0.171 HD
ATOM     31  S   UNL A   1      34.118  33.930  30.810  1.00  0.00    -0.055 SA
ATOM     32  S   UNL A   1      35.003  35.013  33.511  1.00  0.00    -0.052 S 
ENDBRANCH  19  24
ENDBRANCH  17  18
ENDBRANCH  16  17
ENDBRANCH  12  16
ENDBRANCH   6  11
ENDBRANCH   1   5
BRANCH   3  33
ATOM     33  C   UNL A   1      36.446  20.274  25.052  1.00  0.00     0.118 C 
BRANCH  33  34
ATOM     34  C   UNL A   1      37.718  19.427  24.872  1.00  0.00     0.042 C 
BRANCH  34  35
ATOM     35  C   UNL A   1      38.904  20.044  25.576  1.00  0.00     0.118 C 
BRANCH  35  36
ATOM     36  N   UNL A   1      39.991  19.078  25.796  1.00  0.00    -0.352 N 
ATOM     37  C   UNL A   1      41.345  19.301  26.005  1.00  0.00     0.251 C 
ATOM     38  H   UNL A   1      39.718  18.132  25.796  1.00  0.00     0.163 HD
ATOM     39  O   UNL A   1      42.162  18.407  25.839  1.00  0.00    -0.269 OA
BRANCH  37  40
ATOM     40  C   UNL A   1      41.784  20.635  26.447  1.00  0.00     0.039 A 
ATOM     41  C   UNL A   1      42.375  21.595  25.617  1.00  0.00     0.014 A 
ATOM     42  C   UNL A   1      41.523  20.944  27.760  1.00  0.00     0.014 A 
ATOM     43  C   UNL A   1      42.696  22.834  26.175  1.00  0.00     0.010 A 
ATOM     44  C   UNL A   1      41.302  22.249  28.019  1.00  0.00     0.010 A 
ATOM     45  C   UNL A   1      42.181  23.125  27.436  1.00  0.00    -0.014 A 
BRANCH  45  46
ATOM     46  C   UNL A   1      42.425  24.322  28.212  1.00  0.00     0.031 A 
ATOM     47  C   UNL A   1      41.382  25.356  28.063  1.00  0.00     0.074 A 
ATOM     48  C   UNL A   1      43.330  24.331  29.222  1.00  0.00     0.049 A 
ATOM     49  N   UNL A   1      41.492  26.484  27.454  1.00  0.00    -0.248 NA
ATOM     50  C   UNL A   1      40.008  25.027  28.477  1.00  0.00     0.031 C 
ATOM     51  C   UNL A   1      44.168  23.234  29.736  1.00  0.00     0.029 A 
ATOM     52  N   UNL A   1      43.596  25.324  30.106  1.00  0.00    -0.354 N 
ATOM     53  C   UNL A   1      40.252  27.099  27.573  1.00  0.00     0.074 A 
ATOM     54  C   UNL A   1      39.336  26.074  27.997  1.00  0.00     0.031 C 
ATOM     55  C   UNL A   1      44.646  23.560  30.961  1.00  0.00     0.029 A 
ATOM     56  C   UNL A   1      44.277  24.933  31.252  1.00  0.00     0.049 A 
ATOM     57  H   UNL A   1      43.326  26.258  29.946  1.00  0.00     0.167 HD
ATOM     58  C   UNL A   1      40.131  28.454  27.564  1.00  0.00     0.031 A 
ATOM     59  C   UNL A   1      44.457  25.682  32.372  1.00  0.00     0.031 A 
ATOM     60  C   UNL A   1      41.379  29.084  27.206  1.00  0.00     0.049 A 
ATOM     61  C   UNL A   1      44.216  27.098  31.986  1.00  0.00     0.074 A 
ATOM     62  C   UNL A   1      42.186  29.055  26.086  1.00  0.00     0.029 A 
ATOM     63  N   UNL A   1      42.180  29.505  28.245  1.00  0.00    -0.354 N 
ATOM     64  N   UNL A   1      44.980  27.746  31.151  1.00  0.00    -0.248 NA
ATOM     65  C   UNL A   1      42.858  27.613  32.111  1.00  0.00     0.031 C 
ATOM     66  C   UNL A   1      43.514  28.976  26.600  1.00  0.00     0.029 A 
ATOM     67  C   UNL A   1      43.455  29.062  27.993  1.00  0.00     0.049 A 
ATOM     68  H   UNL A   1      41.890  30.029  29.027  1.00  0.00     0.167 HD
ATOM     69  C   UNL A   1      44.102  28.438  30.326  1.00  0.00     0.074 A 
ATOM     70  C   UNL A   1      42.813  28.392  31.022  1.00  0.00     0.031 C 
ATOM     71  C   UNL A   1      44.413  28.707  29.021  1.00  0.00     0.031 A 
BRANCH  58  72
ATOM     72  C   UNL A   1      39.030  29.219  28.247  1.00  0.00    -0.014 A 
ATOM     73  C   UNL A   1      38.947  29.155  29.649  1.00  0.00     0.009 A 
ATOM     74  C   UNL A   1      37.933  29.790  27.575  1.00  0.00     0.009 A 
ATOM     75  C   UNL A   1      37.799  29.570  30.332  1.00  0.00     0.001 A 
ATOM     76  C   UNL A   1      36.800  30.243  28.256  1.00  0.00     0.001 A 
ATOM     77  C   UNL A   1      36.722  30.105  29.634  1.00  0.00     0.000 A 
ENDBRANCH  58  72
BRANCH  59  78
ATOM     78  C   UNL A   1      44.482  25.226  33.785  1.00  0.00    -0.014 A 
ATOM     79  C   UNL A   1      43.352  24.644  34.386  1.00  0.00     0.009 A 
ATOM     80  C   UNL A   1      45.706  25.118  34.473  1.00  0.00     0.009 A 
ATOM     81  C   UNL A   1      43.455  23.952  35.604  1.00  0.00     0.001 A 
ATOM     82  C   UNL A   1      45.810  24.430  35.688  1.00  0.00     0.001 A 
ATOM     83  C   UNL A   1      44.686  23.833  36.247  1.00  0.00     0.000 A 
ENDBRANCH  59  78
BRANCH  71  84
ATOM     84  C   UNL A   1      45.809  28.374  28.539  1.00  0.00    -0.014 A 
ATOM     85  C   UNL A   1      46.889  29.275  28.613  1.00  0.00     0.009 A 
ATOM     86  C   UNL A   1      46.086  27.049  28.175  1.00  0.00     0.009 A 
ATOM     87  C   UNL A   1      48.194  28.868  28.311  1.00  0.00     0.001 A 
ATOM     88  C   UNL A   1      47.391  26.635  27.894  1.00  0.00     0.001 A 
ATOM     89  C   UNL A   1      48.445  27.545  27.958  1.00  0.00     0.000 A 
ENDBRANCH  71  84
ENDBRANCH  45  46
ENDBRANCH  37  40
ENDBRANCH  35  36
ENDBRANCH  34  35
ENDBRANCH  33  34
ENDBRANCH   3  33
TORSDOF 15
ENDMDL
MODEL 2
REMARK VINA RESULT:     -13.1      3.664      9.797
REMARK SMILES O=C1NC(=S)S/C1=C\c1ccc(OCc2cn(-c3ccc(C(=O)NCCCNC(=O)c4ccc(-c5c6nc(c(-c7ccccc7)c7ccc([nH]7)c(-c7ccccc7)c7nc(c(-c8ccccc8)c8ccc5[nH]8)C=C7)C=C6)cc4)cc3)nn2)cc1
REMARK SMILES IDX 22 1 23 2 24 3 21 5 18 6 19 7 80 8 20 9 79 10 17 11 15 12
REMARK SMILES IDX 16 13 82 14 81 15 14 16 13 17 12 18 9 19 10 20 84 21 11 22
REMARK SMILES IDX 83 23 8 24 1 25 2 26 3 27 7 28 4 29 6 31 5 32 25 33 26 34
REMARK SMILES IDX 27 35 28 36 29 37 30 39 31 40 32 41 78 42 33 43 77 44 34 45
REMARK SMILES IDX 35 46 36 47 71 48 37 49 76 50 70 51 72 52 38 53 75 54 69 55
REMARK SMILES IDX 68 56 39 58 61 59 46 60 60 61 47 62 50 63 59 64 73 65 48 66
REMARK SMILES IDX 49 67 58 69 74 70 51 71 40 72 41 73 45 74 42 75 44 76 43 77
REMARK SMILES IDX 62 78 63 79 67 80 64 81 66 82 65 83 52 84 53 85 57 86 54 87
REMARK SMILES IDX 56 88 55 89
REMARK H PARENT 24 4 3 30 28 38 72 57 50 68
REMARK Flexibility Score: inf
ROOT
ATOM      1  C   UNL A   1      39.116  30.694  35.444  1.00  0.00     0.251 C 
ATOM      2  O   UNL A   1      38.768  30.097  36.461  1.00  0.00    -0.269 OA
ATOM      3  N   UNL A   1      40.445  31.020  35.310  1.00  0.00    -0.352 N 
ATOM      4  H   UNL A   1      40.999  30.781  36.089  1.00  0.00     0.163 HD
ENDROOT
BRANCH   1   5
ATOM      5  C   UNL A   1      38.109  30.984  34.382  1.00  0.00     0.039 A 
ATOM      6  C   UNL A   1      36.408  31.534  32.230  1.00  0.00     0.066 A 
ATOM      7  C   UNL A   1      37.063  30.298  32.299  1.00  0.00     0.029 A 
ATOM      8  C   UNL A   1      36.532  32.455  33.262  1.00  0.00     0.029 A 
ATOM      9  C   UNL A   1      37.938  30.042  33.359  1.00  0.00     0.016 A 
ATOM     10  C   UNL A   1      37.330  32.142  34.354  1.00  0.00     0.016 A 
BRANCH   6  11
ATOM     11  N   UNL A   1      35.594  31.851  31.131  1.00  0.00    -0.220 N 
ATOM     12  C   UNL A   1      34.717  32.059  29.148  1.00  0.00     0.120 A 
ATOM     13  C   UNL A   1      35.691  31.378  29.842  1.00  0.00     0.144 A 
ATOM     14  N   UNL A   1      34.041  32.861  30.032  1.00  0.00    -0.131 NA
ATOM     15  N   UNL A   1      34.555  32.698  31.237  1.00  0.00    -0.062 NA
BRANCH  12  16
ATOM     16  C   UNL A   1      34.277  31.946  27.724  1.00  0.00     0.289 C 
BRANCH  16  17
ATOM     17  O   UNL A   1      33.011  31.297  27.510  1.00  0.00    -0.487 OA
BRANCH  17  18
ATOM     18  C   UNL A   1      32.978  30.175  26.727  1.00  0.00     0.119 A 
ATOM     19  C   UNL A   1      33.342  27.960  25.041  1.00  0.00    -0.024 A 
ATOM     20  C   UNL A   1      34.123  28.101  26.189  1.00  0.00     0.012 A 
ATOM     21  C   UNL A   1      32.313  28.871  24.801  1.00  0.00     0.012 A 
ATOM     22  C   UNL A   1      33.945  29.211  27.023  1.00  0.00     0.047 A 
ATOM     23  C   UNL A   1      32.110  29.949  25.663  1.00  0.00     0.047 A 
BRANCH  19  24
ATOM     24  C   UNL A   1      33.591  26.882  24.082  1.00  0.00     0.029 C 
ATOM     25  O   UNL A   1      34.220  24.703  22.263  1.00  0.00    -0.268 OA
ATOM     26  C   UNL A   1      33.562  24.547  23.267  1.00  0.00     0.263 C 
ATOM     27  N   UNL A   1      33.052  23.346  23.691  1.00  0.00    -0.307 N 
ATOM     28  C   UNL A   1      33.193  25.612  24.241  1.00  0.00     0.080 C 
ATOM     29  C   UNL A   1      32.331  23.324  24.845  1.00  0.00     0.145 C 
ATOM     30  H   UNL A   1      33.204  22.523  23.174  1.00  0.00     0.171 HD
ATOM     31  S   UNL A   1      32.250  24.934  25.521  1.00  0.00    -0.055 SA
ATOM     32  S   UNL A   1      31.650  21.952  25.472  1.00  0.00    -0.052 S 
ENDBRANCH  19  24
ENDBRANCH  17  18
ENDBRANCH  16  17
ENDBRANCH  12  16
ENDBRANCH   6  11
ENDBRANCH   1   5
BRANCH   3  33
ATOM     33  C   UNL A   1      41.183  31.656  34.227  1.00  0.00     0.118 C 
BRANCH  33  34
ATOM     34  C   UNL A   1      40.955  33.177  34.194  1.00  0.00     0.042 C 
BRANCH  34  35
ATOM     35  C   UNL A   1      41.947  33.872  33.291  1.00  0.00     0.118 C 
BRANCH  35  36
ATOM     36  N   UNL A   1      41.310  34.461  32.103  1.00  0.00    -0.352 N 
ATOM     37  C   UNL A   1      41.133  33.924  30.835  1.00  0.00     0.251 C 
ATOM     38  H   UNL A   1      40.957  35.372  32.225  1.00  0.00     0.163 HD
ATOM     39  O   UNL A   1      40.893  34.644  29.876  1.00  0.00    -0.269 OA
BRANCH  37  40
ATOM     40  C   UNL A   1      41.223  32.465  30.664  1.00  0.00     0.039 A 
ATOM     41  C   UNL A   1      40.125  31.598  30.626  1.00  0.00     0.014 A 
ATOM     42  C   UNL A   1      42.488  31.964  30.470  1.00  0.00     0.014 A 
ATOM     43  C   UNL A   1      40.371  30.240  30.411  1.00  0.00     0.010 A 
ATOM     44  C   UNL A   1      42.566  30.853  29.709  1.00  0.00     0.010 A 
ATOM     45  C   UNL A   1      41.649  29.875  29.996  1.00  0.00    -0.014 A 
BRANCH  45  46
ATOM     46  C   UNL A   1      42.129  28.529  29.763  1.00  0.00     0.031 A 
ATOM     47  C   UNL A   1      42.787  27.917  30.934  1.00  0.00     0.074 A 
ATOM     48  C   UNL A   1      41.701  27.807  28.699  1.00  0.00     0.049 A 
ATOM     49  N   UNL A   1      44.042  27.667  31.074  1.00  0.00    -0.248 NA
ATOM     50  C   UNL A   1      41.995  27.725  32.160  1.00  0.00     0.031 C 
ATOM     51  C   UNL A   1      40.726  28.167  27.655  1.00  0.00     0.029 A 
ATOM     52  N   UNL A   1      41.964  26.510  28.400  1.00  0.00    -0.354 N 
ATOM     53  C   UNL A   1      44.176  27.105  32.337  1.00  0.00     0.074 A 
ATOM     54  C   UNL A   1      42.945  27.380  33.030  1.00  0.00     0.031 C 
ATOM     55  C   UNL A   1      40.316  27.050  27.007  1.00  0.00     0.029 A 
ATOM     56  C   UNL A   1      41.101  25.925  27.482  1.00  0.00     0.049 A 
ATOM     57  H   UNL A   1      42.714  26.017  28.806  1.00  0.00     0.167 HD
ATOM     58  C   UNL A   1      45.184  26.237  32.621  1.00  0.00     0.031 A 
ATOM     59  C   UNL A   1      41.015  24.600  27.195  1.00  0.00     0.031 A 
ATOM     60  C   UNL A   1      46.143  26.185  31.544  1.00  0.00     0.049 A 
ATOM     61  C   UNL A   1      42.277  23.973  27.671  1.00  0.00     0.074 A 
ATOM     62  C   UNL A   1      46.981  27.111  30.956  1.00  0.00     0.029 A 
ATOM     63  N   UNL A   1      45.988  25.170  30.627  1.00  0.00    -0.354 N 
ATOM     64  N   UNL A   1      43.443  24.245  27.155  1.00  0.00    -0.248 NA
ATOM     65  C   UNL A   1      42.307  23.464  29.037  1.00  0.00     0.031 C 
ATOM     66  C   UNL A   1      46.881  26.850  29.557  1.00  0.00     0.029 A 
ATOM     67  C   UNL A   1      46.073  25.725  29.373  1.00  0.00     0.049 A 
ATOM     68  H   UNL A   1      45.842  24.218  30.832  1.00  0.00     0.167 HD
ATOM     69  C   UNL A   1      44.294  24.379  28.245  1.00  0.00     0.074 A 
ATOM     70  C   UNL A   1      43.560  23.795  29.371  1.00  0.00     0.031 C 
ATOM     71  C   UNL A   1      45.369  25.225  28.210  1.00  0.00     0.031 A 
BRANCH  58  72
ATOM     72  C   UNL A   1      45.112  25.155  33.665  1.00  0.00    -0.014 A 
ATOM     73  C   UNL A   1      44.606  23.899  33.288  1.00  0.00     0.009 A 
ATOM     74  C   UNL A   1      45.280  25.380  35.045  1.00  0.00     0.009 A 
ATOM     75  C   UNL A   1      44.220  22.952  34.241  1.00  0.00     0.001 A 
ATOM     76  C   UNL A   1      44.933  24.421  36.000  1.00  0.00     0.001 A 
ATOM     77  C   UNL A   1      44.375  23.217  35.597  1.00  0.00     0.000 A 
ENDBRANCH  58  72
BRANCH  59  78
ATOM     78  C   UNL A   1      39.801  23.812  26.859  1.00  0.00    -0.014 A 
ATOM     79  C   UNL A   1      38.566  24.438  26.619  1.00  0.00     0.009 A 
ATOM     80  C   UNL A   1      39.913  22.451  26.513  1.00  0.00     0.009 A 
ATOM     81  C   UNL A   1      37.504  23.739  26.022  1.00  0.00     0.001 A 
ATOM     82  C   UNL A   1      38.855  21.753  25.919  1.00  0.00     0.001 A 
ATOM     83  C   UNL A   1      37.654  22.402  25.659  1.00  0.00     0.000 A 
ENDBRANCH  59  78
BRANCH  71  84
ATOM     84  C   UNL A   1      45.705  25.894  26.893  1.00  0.00    -0.014 A 
ATOM     85  C   UNL A   1      45.131  27.110  26.475  1.00  0.00     0.009 A 
ATOM     86  C   UNL A   1      46.772  25.380  26.143  1.00  0.00     0.009 A 
ATOM     87  C   UNL A   1      45.595  27.774  25.333  1.00  0.00     0.001 A 
ATOM     88  C   UNL A   1      47.250  26.052  25.015  1.00  0.00     0.001 A 
ATOM     89  C   UNL A   1      46.659  27.247  24.606  1.00  0.00     0.000 A 
ENDBRANCH  71  84
ENDBRANCH  45  46
ENDBRANCH  37  40
ENDBRANCH  35  36
ENDBRANCH  34  35
ENDBRANCH  33  34
ENDBRANCH   3  33
TORSDOF 15
ENDMDL
MODEL 3
REMARK VINA RESULT:     -12.6      3.563     10.378
REMARK SMILES O=C1NC(=S)S/C1=C\c1ccc(OCc2cn(-c3ccc(C(=O)NCCCNC(=O)c4ccc(-c5c6nc(c(-c7ccccc7)c7ccc([nH]7)c(-c7ccccc7)c7nc(c(-c8ccccc8)c8ccc5[nH]8)C=C7)C=C6)cc4)cc3)nn2)cc1
REMARK SMILES IDX 22 1 23 2 24 3 21 5 18 6 19 7 80 8 20 9 79 10 17 11 15 12
REMARK SMILES IDX 16 13 82 14 81 15 14 16 13 17 12 18 9 19 10 20 84 21 11 22
REMARK SMILES IDX 83 23 8 24 1 25 2 26 3 27 7 28 4 29 6 31 5 32 25 33 26 34
REMARK SMILES IDX 27 35 28 36 29 37 30 39 31 40 32 41 78 42 33 43 77 44 34 45
REMARK SMILES IDX 35 46 36 47 71 48 37 49 76 50 70 51 72 52 38 53 75 54 69 55
REMARK SMILES IDX 68 56 39 58 61 59 46 60 60 61 47 62 50 63 59 64 73 65 48 66
REMARK SMILES IDX 49 67 58 69 74 70 51 71 40 72 41 73 45 74 42 75 44 76 43 77
REMARK SMILES IDX 62 78 63 79 67 80 64 81 66 82 65 83 52 84 53 85 57 86 54 87
REMARK SMILES IDX 56 88 55 89
REMARK H PARENT 24 4 3 30 28 38 72 57 50 68
REMARK Flexibility Score: inf
ROOT
ATOM      1  C   UNL A   1      34.458  34.761  28.777  1.00  0.00     0.251 C 
ATOM      2  O   UNL A   1      34.645  35.727  28.038  1.00  0.00    -0.269 OA
ATOM      3  N   UNL A   1      34.442  34.981  30.134  1.00  0.00    -0.352 N 
ATOM      4  H   UNL A   1      34.638  35.910  30.394  1.00  0.00     0.163 HD
ENDROOT
BRANCH   1   5
ATOM      5  C   UNL A   1      34.199  33.419  28.179  1.00  0.00     0.039 A 
ATOM      6  C   UNL A   1      33.565  30.857  27.251  1.00  0.00     0.066 A 
ATOM      7  C   UNL A   1      32.580  31.851  27.271  1.00  0.00     0.029 A 
ATOM      8  C   UNL A   1      34.873  31.155  27.611  1.00  0.00     0.029 A 
ATOM      9  C   UNL A   1      32.893  33.121  27.767  1.00  0.00     0.016 A 
ATOM     10  C   UNL A   1      35.187  32.447  28.009  1.00  0.00     0.016 A 
BRANCH   6  11
ATOM     11  N   UNL A   1      33.254  29.551  26.841  1.00  0.00    -0.220 N 
ATOM     12  C   UNL A   1      33.320  27.492  26.133  1.00  0.00     0.120 A 
ATOM     13  C   UNL A   1      34.124  28.518  26.573  1.00  0.00     0.144 A 
ATOM     14  N   UNL A   1      32.015  27.910  26.200  1.00  0.00    -0.131 NA
ATOM     15  N   UNL A   1      31.984  29.145  26.667  1.00  0.00    -0.062 NA
BRANCH  12  16
ATOM     16  C   UNL A   1      33.656  26.087  25.750  1.00  0.00     0.289 C 
BRANCH  16  17
ATOM     17  O   UNL A   1      32.952  25.057  26.467  1.00  0.00    -0.487 OA
BRANCH  17  18
ATOM     18  C   UNL A   1      32.845  23.820  25.893  1.00  0.00     0.119 A 
ATOM     19  C   UNL A   1      32.683  21.496  24.326  1.00  0.00    -0.024 A 
ATOM     20  C   UNL A   1      33.827  22.295  24.277  1.00  0.00     0.012 A 
ATOM     21  C   UNL A   1      31.673  21.808  25.237  1.00  0.00     0.012 A 
ATOM     22  C   UNL A   1      33.902  23.457  25.054  1.00  0.00     0.047 A 
ATOM     23  C   UNL A   1      31.775  22.942  26.042  1.00  0.00     0.047 A 
BRANCH  19  24
ATOM     24  C   UNL A   1      32.522  20.347  23.433  1.00  0.00     0.029 C 
ATOM     25  O   UNL A   1      32.364  18.066  21.637  1.00  0.00    -0.268 OA
ATOM     26  C   UNL A   1      32.542  17.948  22.829  1.00  0.00     0.263 C 
ATOM     27  N   UNL A   1      32.713  16.755  23.482  1.00  0.00    -0.307 N 
ATOM     28  C   UNL A   1      32.627  19.066  23.812  1.00  0.00     0.080 C 
ATOM     29  C   UNL A   1      32.907  16.779  24.829  1.00  0.00     0.145 C 
ATOM     30  H   UNL A   1      32.697  15.903  22.989  1.00  0.00     0.171 HD
ATOM     31  S   UNL A   1      32.889  18.432  25.398  1.00  0.00    -0.055 SA
ATOM     32  S   UNL A   1      33.119  15.418  25.748  1.00  0.00    -0.052 S 
ENDBRANCH  19  24
ENDBRANCH  17  18
ENDBRANCH  16  17
ENDBRANCH  12  16
ENDBRANCH   6  11
ENDBRANCH   1   5
BRANCH   3  33
ATOM     33  C   UNL A   1      34.190  34.088  31.258  1.00  0.00     0.118 C 
BRANCH  33  34
ATOM     34  C   UNL A   1      35.166  32.899  31.275  1.00  0.00     0.042 C 
BRANCH  34  35
ATOM     35  C   UNL A   1      36.511  33.289  31.844  1.00  0.00     0.118 C 
BRANCH  35  36
ATOM     36  N   UNL A   1      37.261  34.184  30.950  1.00  0.00    -0.352 N 
ATOM     37  C   UNL A   1      38.489  33.994  30.332  1.00  0.00     0.251 C 
ATOM     38  H   UNL A   1      36.828  35.049  30.763  1.00  0.00     0.163 HD
ATOM     39  O   UNL A   1      39.128  34.942  29.900  1.00  0.00    -0.269 OA
BRANCH  37  40
ATOM     40  C   UNL A   1      39.007  32.623  30.190  1.00  0.00     0.039 A 
ATOM     41  C   UNL A   1      38.339  31.584  29.534  1.00  0.00     0.014 A 
ATOM     42  C   UNL A   1      40.264  32.405  30.699  1.00  0.00     0.014 A 
ATOM     43  C   UNL A   1      38.982  30.347  29.443  1.00  0.00     0.010 A 
ATOM     44  C   UNL A   1      40.994  31.463  30.067  1.00  0.00     0.010 A 
ATOM     45  C   UNL A   1      40.332  30.298  29.778  1.00  0.00    -0.014 A 
BRANCH  45  46
ATOM     46  C   UNL A   1      41.173  29.120  29.799  1.00  0.00     0.031 A 
ATOM     47  C   UNL A   1      41.580  28.699  31.154  1.00  0.00     0.074 A 
ATOM     48  C   UNL A   1      41.273  28.310  28.717  1.00  0.00     0.049 A 
ATOM     49  N   UNL A   1      42.757  28.780  31.670  1.00  0.00    -0.248 NA
ATOM     50  C   UNL A   1      40.529  28.313  32.111  1.00  0.00     0.031 C 
ATOM     51  C   UNL A   1      40.598  28.407  27.411  1.00  0.00     0.029 A 
ATOM     52  N   UNL A   1      41.922  27.124  28.609  1.00  0.00    -0.354 N 
ATOM     53  C   UNL A   1      42.640  28.274  32.958  1.00  0.00     0.074 A 
ATOM     54  C   UNL A   1      41.230  28.225  33.242  1.00  0.00     0.031 C 
ATOM     55  C   UNL A   1      40.687  27.221  26.762  1.00  0.00     0.029 A 
ATOM     56  C   UNL A   1      41.544  26.336  27.529  1.00  0.00     0.049 A 
ATOM     57  H   UNL A   1      42.613  26.841  29.252  1.00  0.00     0.167 HD
ATOM     58  C   UNL A   1      43.697  27.694  33.588  1.00  0.00     0.031 A 
ATOM     59  C   UNL A   1      41.874  25.032  27.335  1.00  0.00     0.031 A 
ATOM     60  C   UNL A   1      44.916  27.888  32.841  1.00  0.00     0.049 A 
ATOM     61  C   UNL A   1      43.049  24.751  28.203  1.00  0.00     0.074 A 
ATOM     62  C   UNL A   1      45.639  28.996  32.449  1.00  0.00     0.029 A 
ATOM     63  N   UNL A   1      45.296  26.865  32.000  1.00  0.00    -0.354 N 
ATOM     64  N   UNL A   1      44.213  25.312  28.025  1.00  0.00    -0.248 NA
ATOM     65  C   UNL A   1      42.793  24.269  29.554  1.00  0.00     0.031 C 
ATOM     66  C   UNL A   1      46.028  28.716  31.106  1.00  0.00     0.029 A 
ATOM     67  C   UNL A   1      45.614  27.421  30.785  1.00  0.00     0.049 A 
ATOM     68  H   UNL A   1      45.332  25.908  32.228  1.00  0.00     0.167 HD
ATOM     69  C   UNL A   1      44.639  25.662  29.301  1.00  0.00     0.074 A 
ATOM     70  C   UNL A   1      43.768  24.911  30.209  1.00  0.00     0.031 C 
ATOM     71  C   UNL A   1      45.434  26.755  29.511  1.00  0.00     0.031 A 
BRANCH  58  72
ATOM     72  C   UNL A   1      43.583  26.632  34.648  1.00  0.00    -0.014 A 
ATOM     73  C   UNL A   1      42.818  25.487  34.363  1.00  0.00     0.009 A 
ATOM     74  C   UNL A   1      43.977  26.811  35.988  1.00  0.00     0.009 A 
ATOM     75  C   UNL A   1      42.409  24.613  35.375  1.00  0.00     0.001 A 
ATOM     76  C   UNL A   1      43.604  25.918  36.996  1.00  0.00     0.001 A 
ATOM     77  C   UNL A   1      42.794  24.834  36.693  1.00  0.00     0.000 A 
ENDBRANCH  58  72
BRANCH  59  78
ATOM     78  C   UNL A   1      41.048  23.958  26.726  1.00  0.00    -0.014 A 
ATOM     79  C   UNL A   1      41.594  22.701  26.417  1.00  0.00     0.009 A 
ATOM     80  C   UNL A   1      39.645  24.079  26.691  1.00  0.00     0.009 A 
ATOM     81  C   UNL A   1      40.766  21.604  26.123  1.00  0.00     0.001 A 
ATOM     82  C   UNL A   1      38.819  22.987  26.396  1.00  0.00     0.001 A 
ATOM     83  C   UNL A   1      39.380  21.745  26.127  1.00  0.00     0.000 A 
ENDBRANCH  59  78
BRANCH  71  84
ATOM     84  C   UNL A   1      45.975  27.486  28.300  1.00  0.00    -0.014 A 
ATOM     85  C   UNL A   1      47.163  27.116  27.640  1.00  0.00     0.009 A 
ATOM     86  C   UNL A   1      45.163  28.455  27.694  1.00  0.00     0.009 A 
ATOM     87  C   UNL A   1      47.534  27.714  26.430  1.00  0.00     0.001 A 
ATOM     88  C   UNL A   1      45.522  29.037  26.475  1.00  0.00     0.001 A 
ATOM     89  C   UNL A   1      46.710  28.670  25.844  1.00  0.00     0.000 A 
ENDBRANCH  71  84
ENDBRANCH  45  46
ENDBRANCH  37  40
ENDBRANCH  35  36
ENDBRANCH  34  35
ENDBRANCH  33  34
ENDBRANCH   3  33
TORSDOF 15
ENDMDL
