MODEL 1
REMARK VINA RESULT:     -11.7      0.000      0.000
REMARK SMILES CCS(=O)(=O)Nc1ccc(N2CC[NH+](C)CC2)cc1C(=O)NCCCNC(=O)c1ccc(-c2c3nc(c(-c4ccccc4)c4ccc([nH]4)c(-c4ccccc4)c4nc(c(-c5ccccc5)c5ccc2[nH]5)C=C4)C=C3)cc1
REMARK SMILES IDX 23 1 22 2 20 3 21 4 19 6 7 7 8 8 9 9 18 10 10 11 6 12 3 14
REMARK SMILES IDX 4 15 5 16 2 17 1 18 11 19 12 20 17 21 13 22 16 23 14 24
REMARK SMILES IDX 15 25 24 27 25 28 26 29 27 30 28 32 29 33 30 34 76 35 31 36
REMARK SMILES IDX 75 37 32 38 33 39 34 40 69 41 35 42 74 43 68 44 70 45 36 46
REMARK SMILES IDX 73 47 67 48 66 49 37 51 59 52 44 53 58 54 45 55 48 56 57 57
REMARK SMILES IDX 71 58 46 59 47 60 56 62 72 63 49 64 38 65 39 66 43 67 40 68
REMARK SMILES IDX 42 69 41 70 60 71 61 72 65 73 62 74 64 75 63 76 50 77 51 78
REMARK SMILES IDX 55 79 52 80 54 81 53 82
REMARK H PARENT 22 5 6 13 14 26 26 31 70 50 48 61
REMARK Flexibility Score: inf
ROOT
ATOM      1  C   UNL A   1      36.479  20.792  24.983  1.00  0.00     0.118 C 
ENDROOT
BRANCH   1   2
ATOM      2  N   UNL A   1      35.529  21.030  26.055  1.00  0.00    -0.352 N 
ATOM      3  C   UNL A   1      34.173  21.185  26.051  1.00  0.00     0.253 C 
ATOM      4  O   UNL A   1      33.610  21.358  27.133  1.00  0.00    -0.269 OA
ATOM      5  H   UNL A   1      35.937  21.090  26.949  1.00  0.00     0.163 HD
BRANCH   3   6
ATOM      6  C   UNL A   1      33.375  21.266  24.807  1.00  0.00     0.066 A 
ATOM      7  C   UNL A   1      32.710  20.220  24.169  1.00  0.00     0.061 A 
ATOM      8  C   UNL A   1      32.169  20.460  22.903  1.00  0.00     0.030 A 
ATOM      9  C   UNL A   1      32.111  21.751  22.380  1.00  0.00     0.028 A 
ATOM     10  C   UNL A   1      33.244  22.581  24.285  1.00  0.00     0.042 A 
ATOM     11  C   UNL A   1      32.546  22.864  23.105  1.00  0.00     0.038 A 
BRANCH   7  12
ATOM     12  N   UNL A   1      32.480  18.897  24.656  1.00  0.00    -0.283 N 
ATOM     13  H   UNL A   1      31.667  18.739  25.187  1.00  0.00     0.180 HD
BRANCH  12  14
ATOM     14  S   UNL A   1      33.498  17.599  24.386  1.00  0.00     0.232 S 
ATOM     15  O   UNL A   1      34.861  18.085  24.316  1.00  0.00    -0.207 OA
ATOM     16  O   UNL A   1      32.910  16.969  23.224  1.00  0.00    -0.207 OA
BRANCH  14  17
ATOM     17  C   UNL A   1      33.310  16.446  25.751  1.00  0.00     0.156 C 
ATOM     18  C   UNL A   1      32.881  15.048  25.356  1.00  0.00     0.023 C 
ENDBRANCH  14  17
ENDBRANCH  12  14
ENDBRANCH   7  12
BRANCH  11  19
ATOM     19  N   UNL A   1      32.227  24.148  22.711  1.00  0.00    -0.360 N 
ATOM     20  C   UNL A   1      32.946  24.891  21.659  1.00  0.00     0.178 C 
ATOM     21  C   UNL A   1      30.956  24.769  23.130  1.00  0.00     0.178 C 
ATOM     22  C   UNL A   1      33.045  26.403  22.001  1.00  0.00     0.283 C 
ATOM     23  C   UNL A   1      31.147  26.261  23.464  1.00  0.00     0.283 C 
ATOM     24  N   UNL A   1      31.742  27.016  22.347  1.00  0.00    -0.334 N 
ATOM     25  C   UNL A   1      31.906  28.420  22.721  1.00  0.00     0.332 C 
ATOM     26  H   UNL A   1      31.128  26.981  21.533  1.00  0.00     0.347 HD
ENDBRANCH  11  19
ENDBRANCH   3   6
ENDBRANCH   1   2
BRANCH   1  27
ATOM     27  C   UNL A   1      37.437  21.961  24.796  1.00  0.00     0.042 C 
BRANCH  27  28
ATOM     28  C   UNL A   1      38.276  22.274  26.035  1.00  0.00     0.118 C 
BRANCH  28  29
ATOM     29  N   UNL A   1      39.720  22.202  25.840  1.00  0.00    -0.352 N 
ATOM     30  C   UNL A   1      40.712  23.115  26.126  1.00  0.00     0.251 C 
ATOM     31  H   UNL A   1      40.038  21.362  25.437  1.00  0.00     0.163 HD
ATOM     32  O   UNL A   1      41.886  22.896  25.849  1.00  0.00    -0.269 OA
BRANCH  30  33
ATOM     33  C   UNL A   1      40.340  24.417  26.718  1.00  0.00     0.039 A 
ATOM     34  C   UNL A   1      39.585  24.441  27.893  1.00  0.00     0.014 A 
ATOM     35  C   UNL A   1      40.832  25.602  26.178  1.00  0.00     0.014 A 
ATOM     36  C   UNL A   1      39.477  25.632  28.615  1.00  0.00     0.010 A 
ATOM     37  C   UNL A   1      40.838  26.748  26.960  1.00  0.00     0.010 A 
ATOM     38  C   UNL A   1      40.189  26.770  28.206  1.00  0.00    -0.014 A 
BRANCH  38  39
ATOM     39  C   UNL A   1      40.332  27.979  29.064  1.00  0.00     0.031 A 
ATOM     40  C   UNL A   1      41.424  28.033  30.098  1.00  0.00     0.074 A 
ATOM     41  C   UNL A   1      39.399  28.952  29.026  1.00  0.00     0.049 A 
ATOM     42  N   UNL A   1      41.566  28.851  31.110  1.00  0.00    -0.248 NA
ATOM     43  C   UNL A   1      42.463  26.994  30.015  1.00  0.00     0.031 C 
ATOM     44  C   UNL A   1      38.254  29.011  28.113  1.00  0.00     0.029 A 
ATOM     45  N   UNL A   1      39.254  30.078  29.802  1.00  0.00    -0.354 N 
ATOM     46  C   UNL A   1      42.665  28.383  31.818  1.00  0.00     0.074 A 
ATOM     47  C   UNL A   1      43.132  27.194  31.139  1.00  0.00     0.031 C 
ATOM     48  C   UNL A   1      37.547  30.125  28.358  1.00  0.00     0.029 A 
ATOM     49  C   UNL A   1      38.147  30.830  29.484  1.00  0.00     0.049 A 
ATOM     50  H   UNL A   1      39.883  30.323  30.518  1.00  0.00     0.167 HD
ATOM     51  C   UNL A   1      43.245  28.901  32.926  1.00  0.00     0.031 A 
ATOM     52  C   UNL A   1      37.653  31.948  30.048  1.00  0.00     0.031 A 
ATOM     53  C   UNL A   1      42.825  30.120  33.562  1.00  0.00     0.049 A 
ATOM     54  C   UNL A   1      38.346  32.538  31.244  1.00  0.00     0.074 A 
ATOM     55  C   UNL A   1      43.398  30.772  34.639  1.00  0.00     0.029 A 
ATOM     56  N   UNL A   1      41.740  30.882  33.161  1.00  0.00    -0.354 N 
ATOM     57  N   UNL A   1      39.403  32.100  31.882  1.00  0.00    -0.248 NA
ATOM     58  C   UNL A   1      37.775  33.774  31.799  1.00  0.00     0.031 C 
ATOM     59  C   UNL A   1      42.644  31.919  34.906  1.00  0.00     0.029 A 
ATOM     60  C   UNL A   1      41.625  31.999  33.971  1.00  0.00     0.049 A 
ATOM     61  H   UNL A   1      41.139  30.662  32.412  1.00  0.00     0.167 HD
ATOM     62  C   UNL A   1      39.643  33.022  32.893  1.00  0.00     0.074 A 
ATOM     63  C   UNL A   1      38.624  34.045  32.781  1.00  0.00     0.031 C 
ATOM     64  C   UNL A   1      40.620  33.017  33.831  1.00  0.00     0.031 A 
BRANCH  51  65
ATOM     65  C   UNL A   1      44.400  28.147  33.519  1.00  0.00    -0.014 A 
ATOM     66  C   UNL A   1      44.197  27.116  34.451  1.00  0.00     0.009 A 
ATOM     67  C   UNL A   1      45.711  28.461  33.128  1.00  0.00     0.009 A 
ATOM     68  C   UNL A   1      45.285  26.447  35.013  1.00  0.00     0.001 A 
ATOM     69  C   UNL A   1      46.796  27.769  33.669  1.00  0.00     0.001 A 
ATOM     70  C   UNL A   1      46.583  26.772  34.620  1.00  0.00     0.000 A 
ENDBRANCH  51  65
BRANCH  52  71
ATOM     71  C   UNL A   1      36.442  32.599  29.484  1.00  0.00    -0.014 A 
ATOM     72  C   UNL A   1      35.170  32.267  29.977  1.00  0.00     0.009 A 
ATOM     73  C   UNL A   1      36.545  33.546  28.453  1.00  0.00     0.009 A 
ATOM     74  C   UNL A   1      34.025  32.850  29.431  1.00  0.00     0.001 A 
ATOM     75  C   UNL A   1      35.398  34.145  27.926  1.00  0.00     0.001 A 
ATOM     76  C   UNL A   1      34.139  33.791  28.409  1.00  0.00     0.000 A 
ENDBRANCH  52  71
BRANCH  64  77
ATOM     77  C   UNL A   1      40.674  34.179  34.777  1.00  0.00    -0.014 A 
ATOM     78  C   UNL A   1      41.349  35.360  34.438  1.00  0.00     0.009 A 
ATOM     79  C   UNL A   1      39.977  34.113  35.993  1.00  0.00     0.009 A 
ATOM     80  C   UNL A   1      41.337  36.451  35.310  1.00  0.00     0.001 A 
ATOM     81  C   UNL A   1      39.949  35.210  36.853  1.00  0.00     0.001 A 
ATOM     82  C   UNL A   1      40.632  36.377  36.512  1.00  0.00     0.000 A 
ENDBRANCH  64  77
ENDBRANCH  38  39
ENDBRANCH  30  33
ENDBRANCH  28  29
ENDBRANCH  27  28
ENDBRANCH   1  27
TORSDOF 14
ENDMDL
MODEL 2
REMARK VINA RESULT:     -11.6      3.037      6.955
REMARK SMILES CCS(=O)(=O)Nc1ccc(N2CC[NH+](C)CC2)cc1C(=O)NCCCNC(=O)c1ccc(-c2c3nc(c(-c4ccccc4)c4ccc([nH]4)c(-c4ccccc4)c4nc(c(-c5ccccc5)c5ccc2[nH]5)C=C4)C=C3)cc1
REMARK SMILES IDX 23 1 22 2 20 3 21 4 19 6 7 7 8 8 9 9 18 10 10 11 6 12 3 14
REMARK SMILES IDX 4 15 5 16 2 17 1 18 11 19 12 20 17 21 13 22 16 23 14 24
REMARK SMILES IDX 15 25 24 27 25 28 26 29 27 30 28 32 29 33 30 34 76 35 31 36
REMARK SMILES IDX 75 37 32 38 33 39 34 40 69 41 35 42 74 43 68 44 70 45 36 46
REMARK SMILES IDX 73 47 67 48 66 49 37 51 59 52 44 53 58 54 45 55 48 56 57 57
REMARK SMILES IDX 71 58 46 59 47 60 56 62 72 63 49 64 38 65 39 66 43 67 40 68
REMARK SMILES IDX 42 69 41 70 60 71 61 72 65 73 62 74 64 75 63 76 50 77 51 78
REMARK SMILES IDX 55 79 52 80 54 81 53 82
REMARK H PARENT 22 5 6 13 14 26 26 31 70 50 48 61
REMARK Flexibility Score: inf
ROOT
ATOM      1  C   UNL A   1      36.545  20.855  24.998  1.00  0.00     0.118 C 
ENDROOT
BRANCH   1   2
ATOM      2  N   UNL A   1      35.581  20.933  26.082  1.00  0.00    -0.352 N 
ATOM      3  C   UNL A   1      34.222  21.050  26.083  1.00  0.00     0.253 C 
ATOM      4  O   UNL A   1      33.648  21.074  27.173  1.00  0.00    -0.269 OA
ATOM      5  H   UNL A   1      35.982  20.894  26.980  1.00  0.00     0.163 HD
BRANCH   3   6
ATOM      6  C   UNL A   1      33.430  21.262  24.851  1.00  0.00     0.066 A 
ATOM      7  C   UNL A   1      32.730  20.295  24.129  1.00  0.00     0.061 A 
ATOM      8  C   UNL A   1      32.201  20.658  22.888  1.00  0.00     0.030 A 
ATOM      9  C   UNL A   1      32.187  21.989  22.474  1.00  0.00     0.028 A 
ATOM     10  C   UNL A   1      33.344  22.619  24.440  1.00  0.00     0.042 A 
ATOM     11  C   UNL A   1      32.658  23.022  23.288  1.00  0.00     0.038 A 
BRANCH   7  12
ATOM     12  N   UNL A   1      32.455  18.945  24.504  1.00  0.00    -0.283 N 
ATOM     13  H   UNL A   1      31.579  18.751  24.908  1.00  0.00     0.180 HD
BRANCH  12  14
ATOM     14  S   UNL A   1      33.519  17.671  24.306  1.00  0.00     0.232 S 
ATOM     15  O   UNL A   1      34.872  18.192  24.306  1.00  0.00    -0.207 OA
ATOM     16  O   UNL A   1      33.014  17.015  23.119  1.00  0.00    -0.207 OA
BRANCH  14  17
ATOM     17  C   UNL A   1      33.285  16.526  25.671  1.00  0.00     0.156 C 
ATOM     18  C   UNL A   1      32.629  15.212  25.301  1.00  0.00     0.023 C 
ENDBRANCH  14  17
ENDBRANCH  12  14
ENDBRANCH   7  12
BRANCH  11  19
ATOM     19  N   UNL A   1      32.384  24.345  23.003  1.00  0.00    -0.360 N 
ATOM     20  C   UNL A   1      33.399  25.324  22.573  1.00  0.00     0.178 C 
ATOM     21  C   UNL A   1      30.991  24.805  22.841  1.00  0.00     0.178 C 
ATOM     22  C   UNL A   1      33.111  26.733  23.160  1.00  0.00     0.283 C 
ATOM     23  C   UNL A   1      30.789  26.200  23.463  1.00  0.00     0.283 C 
ATOM     24  N   UNL A   1      31.726  27.200  22.918  1.00  0.00    -0.334 N 
ATOM     25  C   UNL A   1      31.494  28.499  23.546  1.00  0.00     0.332 C 
ATOM     26  H   UNL A   1      31.579  27.310  21.914  1.00  0.00     0.347 HD
ENDBRANCH  11  19
ENDBRANCH   3   6
ENDBRANCH   1   2
BRANCH   1  27
ATOM     27  C   UNL A   1      37.522  22.021  25.014  1.00  0.00     0.042 C 
BRANCH  27  28
ATOM     28  C   UNL A   1      38.714  21.814  25.950  1.00  0.00     0.118 C 
BRANCH  28  29
ATOM     29  N   UNL A   1      39.451  20.571  25.748  1.00  0.00    -0.352 N 
ATOM     30  C   UNL A   1      40.763  20.250  26.019  1.00  0.00     0.251 C 
ATOM     31  H   UNL A   1      38.923  19.841  25.352  1.00  0.00     0.163 HD
ATOM     32  O   UNL A   1      41.228  19.152  25.738  1.00  0.00    -0.269 OA
BRANCH  30  33
ATOM     33  C   UNL A   1      41.648  21.283  26.599  1.00  0.00     0.039 A 
ATOM     34  C   UNL A   1      42.203  22.254  25.762  1.00  0.00     0.014 A 
ATOM     35  C   UNL A   1      41.834  21.358  27.976  1.00  0.00     0.014 A 
ATOM     36  C   UNL A   1      42.791  23.390  26.324  1.00  0.00     0.010 A 
ATOM     37  C   UNL A   1      42.294  22.542  28.531  1.00  0.00     0.010 A 
ATOM     38  C   UNL A   1      42.749  23.589  27.712  1.00  0.00    -0.014 A 
BRANCH  38  39
ATOM     39  C   UNL A   1      43.112  24.886  28.348  1.00  0.00     0.031 A 
ATOM     40  C   UNL A   1      42.042  25.913  28.611  1.00  0.00     0.074 A 
ATOM     41  C   UNL A   1      44.408  25.206  28.545  1.00  0.00     0.049 A 
ATOM     42  N   UNL A   1      42.168  27.183  28.901  1.00  0.00    -0.248 NA
ATOM     43  C   UNL A   1      40.649  25.462  28.471  1.00  0.00     0.031 C 
ATOM     44  C   UNL A   1      45.557  24.334  28.289  1.00  0.00     0.029 A 
ATOM     45  N   UNL A   1      44.979  26.376  28.988  1.00  0.00    -0.354 N 
ATOM     46  C   UNL A   1      40.876  27.693  28.910  1.00  0.00     0.074 A 
ATOM     47  C   UNL A   1      39.987  26.605  28.566  1.00  0.00     0.031 C 
ATOM     48  C   UNL A   1      46.687  24.983  28.610  1.00  0.00     0.029 A 
ATOM     49  C   UNL A   1      46.353  26.338  29.033  1.00  0.00     0.049 A 
ATOM     50  H   UNL A   1      44.454  27.166  29.250  1.00  0.00     0.167 HD
ATOM     51  C   UNL A   1      40.462  28.950  29.193  1.00  0.00     0.031 A 
ATOM     52  C   UNL A   1      47.248  27.290  29.354  1.00  0.00     0.031 A 
ATOM     53  C   UNL A   1      41.337  30.015  29.602  1.00  0.00     0.049 A 
ATOM     54  C   UNL A   1      46.762  28.665  29.720  1.00  0.00     0.074 A 
ATOM     55  C   UNL A   1      41.005  31.301  29.991  1.00  0.00     0.029 A 
ATOM     56  N   UNL A   1      42.714  29.908  29.698  1.00  0.00    -0.354 N 
ATOM     57  N   UNL A   1      45.535  29.122  29.754  1.00  0.00    -0.248 NA
ATOM     58  C   UNL A   1      47.786  29.654  30.087  1.00  0.00     0.031 C 
ATOM     59  C   UNL A   1      42.187  31.981  30.299  1.00  0.00     0.029 A 
ATOM     60  C   UNL A   1      43.249  31.106  30.139  1.00  0.00     0.049 A 
ATOM     61  H   UNL A   1      43.236  29.101  29.484  1.00  0.00     0.167 HD
ATOM     62  C   UNL A   1      45.635  30.441  30.176  1.00  0.00     0.074 A 
ATOM     63  C   UNL A   1      47.042  30.710  30.390  1.00  0.00     0.031 C 
ATOM     64  C   UNL A   1      44.648  31.348  30.367  1.00  0.00     0.031 A 
BRANCH  51  65
ATOM     65  C   UNL A   1      38.993  29.239  29.069  1.00  0.00    -0.014 A 
ATOM     66  C   UNL A   1      38.431  29.651  27.850  1.00  0.00     0.009 A 
ATOM     67  C   UNL A   1      38.156  29.081  30.185  1.00  0.00     0.009 A 
ATOM     68  C   UNL A   1      37.069  29.943  27.763  1.00  0.00     0.001 A 
ATOM     69  C   UNL A   1      36.789  29.344  30.086  1.00  0.00     0.001 A 
ATOM     70  C   UNL A   1      36.249  29.787  28.880  1.00  0.00     0.000 A 
ENDBRANCH  51  65
BRANCH  52  71
ATOM     71  C   UNL A   1      48.701  26.980  29.360  1.00  0.00    -0.014 A 
ATOM     72  C   UNL A   1      49.304  26.454  30.514  1.00  0.00     0.009 A 
ATOM     73  C   UNL A   1      49.493  27.209  28.225  1.00  0.00     0.009 A 
ATOM     74  C   UNL A   1      50.675  26.190  30.540  1.00  0.00     0.001 A 
ATOM     75  C   UNL A   1      50.860  26.920  28.246  1.00  0.00     0.001 A 
ATOM     76  C   UNL A   1      51.452  26.419  29.405  1.00  0.00     0.000 A 
ENDBRANCH  52  71
BRANCH  64  77
ATOM     77  C   UNL A   1      45.042  32.699  30.884  1.00  0.00    -0.014 A 
ATOM     78  C   UNL A   1      45.321  33.758  30.008  1.00  0.00     0.009 A 
ATOM     79  C   UNL A   1      45.062  32.931  32.268  1.00  0.00     0.009 A 
ATOM     80  C   UNL A   1      45.628  35.024  30.512  1.00  0.00     0.001 A 
ATOM     81  C   UNL A   1      45.349  34.201  32.768  1.00  0.00     0.001 A 
ATOM     82  C   UNL A   1      45.635  35.245  31.889  1.00  0.00     0.000 A 
ENDBRANCH  64  77
ENDBRANCH  38  39
ENDBRANCH  30  33
ENDBRANCH  28  29
ENDBRANCH  27  28
ENDBRANCH   1  27
TORSDOF 14
ENDMDL
MODEL 3
REMARK VINA RESULT:     -11.6      4.069      8.884
REMARK SMILES CCS(=O)(=O)Nc1ccc(N2CC[NH+](C)CC2)cc1C(=O)NCCCNC(=O)c1ccc(-c2c3nc(c(-c4ccccc4)c4ccc([nH]4)c(-c4ccccc4)c4nc(c(-c5ccccc5)c5ccc2[nH]5)C=C4)C=C3)cc1
REMARK SMILES IDX 23 1 22 2 20 3 21 4 19 6 7 7 8 8 9 9 18 10 10 11 6 12 3 14
REMARK SMILES IDX 4 15 5 16 2 17 1 18 11 19 12 20 17 21 13 22 16 23 14 24
REMARK SMILES IDX 15 25 24 27 25 28 26 29 27 30 28 32 29 33 30 34 76 35 31 36
REMARK SMILES IDX 75 37 32 38 33 39 34 40 69 41 35 42 74 43 68 44 70 45 36 46
REMARK SMILES IDX 73 47 67 48 66 49 37 51 59 52 44 53 58 54 45 55 48 56 57 57
REMARK SMILES IDX 71 58 46 59 47 60 56 62 72 63 49 64 38 65 39 66 43 67 40 68
REMARK SMILES IDX 42 69 41 70 60 71 61 72 65 73 62 74 64 75 63 76 50 77 51 78
REMARK SMILES IDX 55 79 52 80 54 81 53 82
REMARK H PARENT 22 5 6 13 14 26 26 31 70 50 48 61
REMARK Flexibility Score: inf
ROOT
ATOM      1  C   UNL A   1      32.600  27.740  26.685  1.00  0.00     0.118 C 
ENDROOT
BRANCH   1   2
ATOM      2  N   UNL A   1      31.352  27.013  26.835  1.00  0.00    -0.352 N 
ATOM      3  C   UNL A   1      30.805  25.988  26.119  1.00  0.00     0.253 C 
ATOM      4  O   UNL A   1      29.719  25.541  26.492  1.00  0.00    -0.269 OA
ATOM      5  H   UNL A   1      30.799  27.313  27.592  1.00  0.00     0.163 HD
BRANCH   3   6
ATOM      6  C   UNL A   1      31.398  25.474  24.865  1.00  0.00     0.066 A 
ATOM      7  C   UNL A   1      31.131  25.916  23.569  1.00  0.00     0.061 A 
ATOM      8  C   UNL A   1      31.650  25.176  22.503  1.00  0.00     0.030 A 
ATOM      9  C   UNL A   1      32.574  24.154  22.719  1.00  0.00     0.028 A 
ATOM     10  C   UNL A   1      32.391  24.476  25.057  1.00  0.00     0.042 A 
ATOM     11  C   UNL A   1      33.055  23.850  23.996  1.00  0.00     0.038 A 
BRANCH   7  12
ATOM     12  N   UNL A   1      30.391  27.069  23.168  1.00  0.00    -0.283 N 
ATOM     13  H   UNL A   1      29.463  26.937  22.870  1.00  0.00     0.180 HD
BRANCH  12  14
ATOM     14  S   UNL A   1      30.994  28.628  23.168  1.00  0.00     0.232 S 
ATOM     15  O   UNL A   1      32.385  28.588  22.764  1.00  0.00    -0.207 OA
ATOM     16  O   UNL A   1      30.655  29.101  24.493  1.00  0.00    -0.207 OA
BRANCH  14  17
ATOM     17  C   UNL A   1      30.029  29.603  22.007  1.00  0.00     0.156 C 
ATOM     18  C   UNL A   1      28.555  29.716  22.334  1.00  0.00     0.023 C 
ENDBRANCH  14  17
ENDBRANCH  12  14
ENDBRANCH   7  12
BRANCH  11  19
ATOM     19  N   UNL A   1      34.165  23.049  24.173  1.00  0.00    -0.360 N 
ATOM     20  C   UNL A   1      34.249  21.963  25.168  1.00  0.00     0.178 C 
ATOM     21  C   UNL A   1      35.256  23.045  23.179  1.00  0.00     0.178 C 
ATOM     22  C   UNL A   1      35.676  21.858  25.773  1.00  0.00     0.283 C 
ATOM     23  C   UNL A   1      36.634  22.955  23.864  1.00  0.00     0.283 C 
ATOM     24  N   UNL A   1      36.745  21.783  24.751  1.00  0.00    -0.334 N 
ATOM     25  C   UNL A   1      38.066  21.751  25.377  1.00  0.00     0.332 C 
ATOM     26  H   UNL A   1      36.635  20.922  24.213  1.00  0.00     0.347 HD
ENDBRANCH  11  19
ENDBRANCH   3   6
ENDBRANCH   1   2
BRANCH   1  27
ATOM     27  C   UNL A   1      32.682  28.937  27.621  1.00  0.00     0.042 C 
BRANCH  27  28
ATOM     28  C   UNL A   1      33.473  30.114  27.049  1.00  0.00     0.118 C 
BRANCH  28  29
ATOM     29  N   UNL A   1      33.763  31.184  27.997  1.00  0.00    -0.352 N 
ATOM     30  C   UNL A   1      34.868  31.408  28.790  1.00  0.00     0.251 C 
ATOM     31  H   UNL A   1      33.052  31.859  28.084  1.00  0.00     0.163 HD
ATOM     32  O   UNL A   1      34.919  32.352  29.570  1.00  0.00    -0.269 OA
BRANCH  30  33
ATOM     33  C   UNL A   1      35.987  30.443  28.748  1.00  0.00     0.039 A 
ATOM     34  C   UNL A   1      36.795  30.385  27.610  1.00  0.00     0.014 A 
ATOM     35  C   UNL A   1      36.307  29.685  29.871  1.00  0.00     0.014 A 
ATOM     36  C   UNL A   1      38.013  29.703  27.666  1.00  0.00     0.010 A 
ATOM     37  C   UNL A   1      37.572  29.125  29.969  1.00  0.00     0.010 A 
ATOM     38  C   UNL A   1      38.456  29.155  28.879  1.00  0.00    -0.014 A 
BRANCH  38  39
ATOM     39  C   UNL A   1      39.846  28.656  29.074  1.00  0.00     0.031 A 
ATOM     40  C   UNL A   1      40.925  29.609  29.512  1.00  0.00     0.074 A 
ATOM     41  C   UNL A   1      40.172  27.398  28.711  1.00  0.00     0.049 A 
ATOM     42  N   UNL A   1      42.225  29.456  29.486  1.00  0.00    -0.248 NA
ATOM     43  C   UNL A   1      40.484  30.930  29.988  1.00  0.00     0.031 C 
ATOM     44  C   UNL A   1      39.243  26.377  28.220  1.00  0.00     0.029 A 
ATOM     45  N   UNL A   1      41.395  26.769  28.679  1.00  0.00    -0.354 N 
ATOM     46  C   UNL A   1      42.753  30.681  29.876  1.00  0.00     0.074 A 
ATOM     47  C   UNL A   1      41.637  31.572  30.100  1.00  0.00     0.031 C 
ATOM     48  C   UNL A   1      39.920  25.245  27.968  1.00  0.00     0.029 A 
ATOM     49  C   UNL A   1      41.338  25.475  28.217  1.00  0.00     0.049 A 
ATOM     50  H   UNL A   1      42.231  27.204  28.959  1.00  0.00     0.167 HD
ATOM     51  C   UNL A   1      44.050  31.030  30.045  1.00  0.00     0.031 A 
ATOM     52  C   UNL A   1      42.317  24.578  27.995  1.00  0.00     0.031 A 
ATOM     53  C   UNL A   1      45.157  30.126  29.889  1.00  0.00     0.049 A 
ATOM     54  C   UNL A   1      43.747  24.971  28.244  1.00  0.00     0.074 A 
ATOM     55  C   UNL A   1      46.500  30.362  30.119  1.00  0.00     0.029 A 
ATOM     56  N   UNL A   1      45.042  28.806  29.486  1.00  0.00    -0.354 N 
ATOM     57  N   UNL A   1      44.226  26.123  28.643  1.00  0.00    -0.248 NA
ATOM     58  C   UNL A   1      44.768  23.940  28.009  1.00  0.00     0.031 C 
ATOM     59  C   UNL A   1      47.204  29.189  29.831  1.00  0.00     0.029 A 
ATOM     60  C   UNL A   1      46.293  28.214  29.459  1.00  0.00     0.049 A 
ATOM     61  H   UNL A   1      44.198  28.356  29.253  1.00  0.00     0.167 HD
ATOM     62  C   UNL A   1      45.601  25.947  28.736  1.00  0.00     0.074 A 
ATOM     63  C   UNL A   1      45.878  24.578  28.358  1.00  0.00     0.031 C 
ATOM     64  C   UNL A   1      46.547  26.844  29.101  1.00  0.00     0.031 A 
BRANCH  51  65
ATOM     65  C   UNL A   1      44.337  32.455  30.422  1.00  0.00    -0.014 A 
ATOM     66  C   UNL A   1      44.424  32.851  31.767  1.00  0.00     0.009 A 
ATOM     67  C   UNL A   1      44.540  33.414  29.417  1.00  0.00     0.009 A 
ATOM     68  C   UNL A   1      44.663  34.186  32.097  1.00  0.00     0.001 A 
ATOM     69  C   UNL A   1      44.809  34.743  29.750  1.00  0.00     0.001 A 
ATOM     70  C   UNL A   1      44.858  35.130  31.089  1.00  0.00     0.000 A 
ENDBRANCH  51  65
BRANCH  52  71
ATOM     71  C   UNL A   1      41.985  23.209  27.521  1.00  0.00    -0.014 A 
ATOM     72  C   UNL A   1      41.532  22.240  28.431  1.00  0.00     0.009 A 
ATOM     73  C   UNL A   1      42.121  22.860  26.169  1.00  0.00     0.009 A 
ATOM     74  C   UNL A   1      41.248  20.942  28.001  1.00  0.00     0.001 A 
ATOM     75  C   UNL A   1      41.812  21.567  25.738  1.00  0.00     0.001 A 
ATOM     76  C   UNL A   1      41.384  20.607  26.655  1.00  0.00     0.000 A 
ENDBRANCH  52  71
BRANCH  64  77
ATOM     77  C   UNL A   1      47.966  26.363  29.167  1.00  0.00    -0.014 A 
ATOM     78  C   UNL A   1      48.502  25.844  30.354  1.00  0.00     0.009 A 
ATOM     79  C   UNL A   1      48.750  26.364  28.003  1.00  0.00     0.009 A 
ATOM     80  C   UNL A   1      49.808  25.347  30.376  1.00  0.00     0.001 A 
ATOM     81  C   UNL A   1      50.046  25.849  28.023  1.00  0.00     0.001 A 
ATOM     82  C   UNL A   1      50.574  25.344  29.211  1.00  0.00     0.000 A 
ENDBRANCH  64  77
ENDBRANCH  38  39
ENDBRANCH  30  33
ENDBRANCH  28  29
ENDBRANCH  27  28
ENDBRANCH   1  27
TORSDOF 14
ENDMDL
