MODEL 1
REMARK VINA RESULT:     -13.8      0.000      0.000
REMARK SMILES Cc1ccc(NC(=O)c2ccccc2NC(=O)[C@H]2CCCC[C@H]2C(=O)NCCCNC(=O)c2ccc(-c3c4nc(c(-c5ccccc5)c5ccc([nH]5)c(-c5ccccc5)c5nc(c(-c6ccccc6)c6ccc3[nH]6)C=C5)C=C4)cc2)cc1
REMARK SMILES IDX 27 1 26 2 24 3 25 4 23 6 18 7 19 8 20 9 22 10 21 11 16 12
REMARK SMILES IDX 15 13 17 15 14 16 9 17 10 18 11 19 13 20 12 21 7 22 6 23
REMARK SMILES IDX 8 25 5 26 1 27 2 28 3 29 82 30 4 31 81 32 28 33 29 34 30 35
REMARK SMILES IDX 31 36 32 38 33 39 34 40 80 41 35 42 79 43 36 44 37 45 38 46
REMARK SMILES IDX 73 47 39 48 78 49 72 50 74 51 40 52 77 53 71 54 70 55 41 57
REMARK SMILES IDX 63 58 48 59 62 60 49 61 52 62 61 63 75 64 50 65 51 66 60 68
REMARK SMILES IDX 76 69 53 70 42 71 43 72 47 73 44 74 46 75 45 76 64 77 65 78
REMARK SMILES IDX 69 79 66 80 68 81 67 82 54 83 55 84 59 85 56 86 58 87 57 88
REMARK H PARENT 26 5 15 14 6 24 30 37 74 56 52 67
REMARK Flexibility Score: inf
ROOT
ATOM      1  C   UNL A   1      37.984  23.738  25.840  1.00  0.00     0.117 C 
ENDROOT
BRANCH   1   2
ATOM      2  N   UNL A   1      37.429  23.565  24.503  1.00  0.00    -0.356 N 
ATOM      3  C   UNL A   1      36.292  23.026  24.003  1.00  0.00     0.223 C 
ATOM      4  O   UNL A   1      36.230  22.961  22.768  1.00  0.00    -0.275 OA
ATOM      5  H   UNL A   1      38.017  23.925  23.800  1.00  0.00     0.163 HD
BRANCH   3   6
ATOM      6  C   UNL A   1      35.126  22.450  24.812  1.00  0.00     0.091 C 
ATOM      7  C   UNL A   1      34.213  23.550  25.402  1.00  0.00     0.091 C 
ATOM      8  C   UNL A   1      33.124  22.952  26.316  1.00  0.00     0.014 C 
ATOM      9  C   UNL A   1      32.424  21.720  25.731  1.00  0.00     0.001 C 
ATOM     10  C   UNL A   1      34.405  21.223  24.259  1.00  0.00     0.014 C 
ATOM     11  C   UNL A   1      33.421  20.656  25.281  1.00  0.00     0.001 C 
BRANCH   7  12
ATOM     12  C   UNL A   1      33.537  24.357  24.323  1.00  0.00     0.228 C 
ATOM     13  N   UNL A   1      33.130  25.647  24.451  1.00  0.00    -0.325 N 
ATOM     14  H   UNL A   1      32.979  26.058  23.570  1.00  0.00     0.169 HD
ATOM     15  O   UNL A   1      33.362  23.836  23.213  1.00  0.00    -0.274 OA
BRANCH  13  16
ATOM     16  C   UNL A   1      32.866  26.565  25.487  1.00  0.00     0.054 A 
ATOM     17  C   UNL A   1      31.599  26.570  26.130  1.00  0.00     0.063 A 
ATOM     18  C   UNL A   1      31.316  27.554  27.104  1.00  0.00     0.016 A 
ATOM     19  C   UNL A   1      32.269  28.489  27.487  1.00  0.00     0.001 A 
ATOM     20  C   UNL A   1      33.833  27.465  25.953  1.00  0.00     0.027 A 
ATOM     21  C   UNL A   1      33.534  28.430  26.924  1.00  0.00     0.002 A 
BRANCH  17  22
ATOM     22  C   UNL A   1      30.411  25.723  25.816  1.00  0.00     0.257 C 
ATOM     23  N   UNL A   1      29.466  25.962  24.850  1.00  0.00    -0.322 N 
ATOM     24  H   UNL A   1      28.752  25.284  24.853  1.00  0.00     0.170 HD
ATOM     25  O   UNL A   1      30.227  24.716  26.511  1.00  0.00    -0.269 OA
BRANCH  23  26
ATOM     26  C   UNL A   1      29.268  26.930  23.865  1.00  0.00     0.041 A 
ATOM     27  C   UNL A   1      28.457  30.596  21.806  1.00  0.00     0.044 C 
ATOM     28  C   UNL A   1      28.710  29.247  22.407  1.00  0.00    -0.051 A 
ATOM     29  C   UNL A   1      30.009  28.721  22.440  1.00  0.00     0.005 A 
ATOM     30  C   UNL A   1      27.670  28.532  23.004  1.00  0.00     0.005 A 
ATOM     31  C   UNL A   1      30.289  27.558  23.163  1.00  0.00     0.026 A 
ATOM     32  C   UNL A   1      27.946  27.362  23.706  1.00  0.00     0.026 A 
ENDBRANCH  23  26
ENDBRANCH  17  22
ENDBRANCH  13  16
ENDBRANCH   7  12
ENDBRANCH   3   6
ENDBRANCH   1   2
BRANCH   1  33
ATOM     33  C   UNL A   1      38.654  22.464  26.346  1.00  0.00     0.042 C 
BRANCH  33  34
ATOM     34  C   UNL A   1      40.165  22.527  26.481  1.00  0.00     0.118 C 
BRANCH  34  35
ATOM     35  N   UNL A   1      40.840  21.434  25.769  1.00  0.00    -0.352 N 
ATOM     36  C   UNL A   1      42.162  21.017  25.872  1.00  0.00     0.251 C 
ATOM     37  H   UNL A   1      40.281  20.929  25.134  1.00  0.00     0.163 HD
ATOM     38  O   UNL A   1      42.577  20.031  25.315  1.00  0.00    -0.269 OA
BRANCH  36  39
ATOM     39  C   UNL A   1      43.032  21.825  26.755  1.00  0.00     0.039 A 
ATOM     40  C   UNL A   1      42.874  21.649  28.129  1.00  0.00     0.014 A 
ATOM     41  C   UNL A   1      43.586  22.985  26.225  1.00  0.00     0.014 A 
ATOM     42  C   UNL A   1      42.997  22.761  28.951  1.00  0.00     0.010 A 
ATOM     43  C   UNL A   1      43.637  24.107  27.030  1.00  0.00     0.010 A 
ATOM     44  C   UNL A   1      43.241  24.008  28.368  1.00  0.00    -0.014 A 
BRANCH  44  45
ATOM     45  C   UNL A   1      42.934  25.254  29.061  1.00  0.00     0.031 A 
ATOM     46  C   UNL A   1      41.743  26.024  28.673  1.00  0.00     0.074 A 
ATOM     47  C   UNL A   1      43.759  25.757  30.008  1.00  0.00     0.049 A 
ATOM     48  N   UNL A   1      41.712  27.312  28.591  1.00  0.00    -0.248 NA
ATOM     49  C   UNL A   1      40.498  25.376  28.282  1.00  0.00     0.031 C 
ATOM     50  C   UNL A   1      43.512  26.926  30.850  1.00  0.00     0.029 A 
ATOM     51  N   UNL A   1      45.103  25.454  30.240  1.00  0.00    -0.354 N 
ATOM     52  C   UNL A   1      40.394  27.669  28.432  1.00  0.00     0.074 A 
ATOM     53  C   UNL A   1      39.697  26.435  28.141  1.00  0.00     0.031 C 
ATOM     54  C   UNL A   1      44.693  27.430  31.241  1.00  0.00     0.029 A 
ATOM     55  C   UNL A   1      45.737  26.658  30.588  1.00  0.00     0.049 A 
ATOM     56  H   UNL A   1      45.523  24.567  30.174  1.00  0.00     0.167 HD
ATOM     57  C   UNL A   1      39.985  28.935  28.724  1.00  0.00     0.031 A 
ATOM     58  C   UNL A   1      46.822  27.166  29.938  1.00  0.00     0.031 A 
ATOM     59  C   UNL A   1      41.083  29.778  29.192  1.00  0.00     0.049 A 
ATOM     60  C   UNL A   1      46.583  28.549  29.374  1.00  0.00     0.074 A 
ATOM     61  C   UNL A   1      41.490  30.154  30.462  1.00  0.00     0.029 A 
ATOM     62  N   UNL A   1      42.115  30.120  28.330  1.00  0.00    -0.354 N 
ATOM     63  N   UNL A   1      45.408  29.106  29.297  1.00  0.00    -0.248 NA
ATOM     64  C   UNL A   1      47.627  29.375  28.769  1.00  0.00     0.031 C 
ATOM     65  C   UNL A   1      42.801  30.681  30.366  1.00  0.00     0.029 A 
ATOM     66  C   UNL A   1      43.182  30.642  29.037  1.00  0.00     0.049 A 
ATOM     67  H   UNL A   1      42.092  30.006  27.352  1.00  0.00     0.167 HD
ATOM     68  C   UNL A   1      45.504  30.296  28.628  1.00  0.00     0.074 A 
ATOM     69  C   UNL A   1      46.918  30.434  28.335  1.00  0.00     0.031 C 
ATOM     70  C   UNL A   1      44.400  31.049  28.350  1.00  0.00     0.031 A 
BRANCH  57  71
ATOM     71  C   UNL A   1      38.530  29.292  28.905  1.00  0.00    -0.014 A 
ATOM     72  C   UNL A   1      37.802  29.826  27.827  1.00  0.00     0.009 A 
ATOM     73  C   UNL A   1      37.835  29.174  30.121  1.00  0.00     0.009 A 
ATOM     74  C   UNL A   1      36.504  30.327  27.983  1.00  0.00     0.001 A 
ATOM     75  C   UNL A   1      36.555  29.717  30.299  1.00  0.00     0.001 A 
ATOM     76  C   UNL A   1      35.894  30.307  29.230  1.00  0.00     0.000 A 
ENDBRANCH  57  71
BRANCH  58  77
ATOM     77  C   UNL A   1      47.680  26.137  29.297  1.00  0.00    -0.014 A 
ATOM     78  C   UNL A   1      47.463  25.849  27.936  1.00  0.00     0.009 A 
ATOM     79  C   UNL A   1      48.899  25.766  29.880  1.00  0.00     0.009 A 
ATOM     80  C   UNL A   1      48.490  25.324  27.148  1.00  0.00     0.001 A 
ATOM     81  C   UNL A   1      49.920  25.233  29.086  1.00  0.00     0.001 A 
ATOM     82  C   UNL A   1      49.730  25.052  27.717  1.00  0.00     0.000 A 
ENDBRANCH  58  77
BRANCH  70  83
ATOM     83  C   UNL A   1      44.352  32.274  27.474  1.00  0.00    -0.014 A 
ATOM     84  C   UNL A   1      44.517  32.262  26.083  1.00  0.00     0.009 A 
ATOM     85  C   UNL A   1      44.001  33.513  28.059  1.00  0.00     0.009 A 
ATOM     86  C   UNL A   1      44.385  33.435  25.324  1.00  0.00     0.001 A 
ATOM     87  C   UNL A   1      43.826  34.674  27.302  1.00  0.00     0.001 A 
ATOM     88  C   UNL A   1      44.032  34.637  25.932  1.00  0.00     0.000 A 
ENDBRANCH  70  83
ENDBRANCH  44  45
ENDBRANCH  36  39
ENDBRANCH  34  35
ENDBRANCH  33  34
ENDBRANCH   1  33
TORSDOF 14
ENDMDL
MODEL 2
REMARK VINA RESULT:     -13.5      2.758      8.238
REMARK SMILES Cc1ccc(NC(=O)c2ccccc2NC(=O)[C@H]2CCCC[C@H]2C(=O)NCCCNC(=O)c2ccc(-c3c4nc(c(-c5ccccc5)c5ccc([nH]5)c(-c5ccccc5)c5nc(c(-c6ccccc6)c6ccc3[nH]6)C=C5)C=C4)cc2)cc1
REMARK SMILES IDX 27 1 26 2 24 3 25 4 23 6 18 7 19 8 20 9 22 10 21 11 16 12
REMARK SMILES IDX 15 13 17 15 14 16 9 17 10 18 11 19 13 20 12 21 7 22 6 23
REMARK SMILES IDX 8 25 5 26 1 27 2 28 3 29 82 30 4 31 81 32 28 33 29 34 30 35
REMARK SMILES IDX 31 36 32 38 33 39 34 40 80 41 35 42 79 43 36 44 37 45 38 46
REMARK SMILES IDX 73 47 39 48 78 49 72 50 74 51 40 52 77 53 71 54 70 55 41 57
REMARK SMILES IDX 63 58 48 59 62 60 49 61 52 62 61 63 75 64 50 65 51 66 60 68
REMARK SMILES IDX 76 69 53 70 42 71 43 72 47 73 44 74 46 75 45 76 64 77 65 78
REMARK SMILES IDX 69 79 66 80 68 81 67 82 54 83 55 84 59 85 56 86 58 87 57 88
REMARK H PARENT 26 5 15 14 6 24 30 37 74 56 52 67
REMARK Flexibility Score: inf
ROOT
ATOM      1  C   UNL A   1      34.483  29.417  27.178  1.00  0.00     0.117 C 
ENDROOT
BRANCH   1   2
ATOM      2  N   UNL A   1      33.256  28.730  27.565  1.00  0.00    -0.356 N 
ATOM      3  C   UNL A   1      32.215  28.183  26.895  1.00  0.00     0.223 C 
ATOM      4  O   UNL A   1      31.278  27.781  27.598  1.00  0.00    -0.275 OA
ATOM      5  H   UNL A   1      33.163  28.644  28.541  1.00  0.00     0.163 HD
BRANCH   3   6
ATOM      6  C   UNL A   1      32.070  28.070  25.374  1.00  0.00     0.091 C 
ATOM      7  C   UNL A   1      32.919  26.922  24.781  1.00  0.00     0.091 C 
ATOM      8  C   UNL A   1      32.858  26.908  23.240  1.00  0.00     0.014 C 
ATOM      9  C   UNL A   1      31.446  27.084  22.668  1.00  0.00     0.001 C 
ATOM     10  C   UNL A   1      30.678  28.239  24.770  1.00  0.00     0.014 C 
ATOM     11  C   UNL A   1      30.745  28.310  23.246  1.00  0.00     0.001 C 
BRANCH   7  12
ATOM     12  C   UNL A   1      32.469  25.573  25.286  1.00  0.00     0.228 C 
ATOM     13  N   UNL A   1      33.270  24.484  25.424  1.00  0.00    -0.325 N 
ATOM     14  H   UNL A   1      32.856  23.817  26.017  1.00  0.00     0.169 HD
ATOM     15  O   UNL A   1      31.292  25.434  25.641  1.00  0.00    -0.274 OA
BRANCH  13  16
ATOM     16  C   UNL A   1      34.525  24.041  24.963  1.00  0.00     0.054 A 
ATOM     17  C   UNL A   1      34.646  23.451  23.675  1.00  0.00     0.063 A 
ATOM     18  C   UNL A   1      35.891  22.929  23.261  1.00  0.00     0.016 A 
ATOM     19  C   UNL A   1      37.019  23.023  24.067  1.00  0.00     0.001 A 
ATOM     20  C   UNL A   1      35.696  24.196  25.716  1.00  0.00     0.027 A 
ATOM     21  C   UNL A   1      36.924  23.675  25.286  1.00  0.00     0.002 A 
BRANCH  17  22
ATOM     22  C   UNL A   1      33.557  23.170  22.693  1.00  0.00     0.257 C 
ATOM     23  N   UNL A   1      32.728  22.077  22.679  1.00  0.00    -0.322 N 
ATOM     24  H   UNL A   1      32.111  22.089  21.913  1.00  0.00     0.170 HD
ATOM     25  O   UNL A   1      33.396  23.980  21.772  1.00  0.00    -0.269 OA
BRANCH  23  26
ATOM     26  C   UNL A   1      32.544  20.953  23.485  1.00  0.00     0.041 A 
ATOM     27  C   UNL A   1      33.016  17.168  25.433  1.00  0.00     0.044 C 
ATOM     28  C   UNL A   1      32.715  18.485  24.783  1.00  0.00    -0.051 A 
ATOM     29  C   UNL A   1      32.884  19.680  25.498  1.00  0.00     0.005 A 
ATOM     30  C   UNL A   1      32.334  18.541  23.442  1.00  0.00     0.005 A 
ATOM     31  C   UNL A   1      32.792  20.916  24.852  1.00  0.00     0.026 A 
ATOM     32  C   UNL A   1      32.220  19.774  22.804  1.00  0.00     0.026 A 
ENDBRANCH  23  26
ENDBRANCH  17  22
ENDBRANCH  13  16
ENDBRANCH   7  12
ENDBRANCH   3   6
ENDBRANCH   1   2
BRANCH   1  33
ATOM     33  C   UNL A   1      34.475  30.879  27.613  1.00  0.00     0.042 C 
BRANCH  33  34
ATOM     34  C   UNL A   1      34.812  31.130  29.073  1.00  0.00     0.118 C 
BRANCH  34  35
ATOM     35  N   UNL A   1      36.010  31.964  29.239  1.00  0.00    -0.352 N 
ATOM     36  C   UNL A   1      37.343  31.613  29.056  1.00  0.00     0.251 C 
ATOM     37  H   UNL A   1      35.847  32.894  29.517  1.00  0.00     0.163 HD
ATOM     38  O   UNL A   1      38.239  32.418  29.115  1.00  0.00    -0.269 OA
BRANCH  36  39
ATOM     39  C   UNL A   1      37.604  30.195  28.726  1.00  0.00     0.039 A 
ATOM     40  C   UNL A   1      37.849  29.333  29.793  1.00  0.00     0.014 A 
ATOM     41  C   UNL A   1      38.039  29.905  27.437  1.00  0.00     0.014 A 
ATOM     42  C   UNL A   1      38.788  28.325  29.622  1.00  0.00     0.010 A 
ATOM     43  C   UNL A   1      39.027  28.952  27.284  1.00  0.00     0.010 A 
ATOM     44  C   UNL A   1      39.469  28.238  28.403  1.00  0.00    -0.014 A 
BRANCH  44  45
ATOM     45  C   UNL A   1      40.749  27.548  28.286  1.00  0.00     0.031 A 
ATOM     46  C   UNL A   1      40.769  26.090  28.096  1.00  0.00     0.074 A 
ATOM     47  C   UNL A   1      41.923  28.208  28.419  1.00  0.00     0.049 A 
ATOM     48  N   UNL A   1      41.613  25.300  28.671  1.00  0.00    -0.248 NA
ATOM     49  C   UNL A   1      39.779  25.404  27.276  1.00  0.00     0.031 C 
ATOM     50  C   UNL A   1      43.261  27.658  28.212  1.00  0.00     0.029 A 
ATOM     51  N   UNL A   1      42.157  29.454  29.003  1.00  0.00    -0.354 N 
ATOM     52  C   UNL A   1      41.471  24.067  28.078  1.00  0.00     0.074 A 
ATOM     53  C   UNL A   1      40.255  24.157  27.298  1.00  0.00     0.031 C 
ATOM     54  C   UNL A   1      44.136  28.380  28.930  1.00  0.00     0.029 A 
ATOM     55  C   UNL A   1      43.377  29.356  29.693  1.00  0.00     0.049 A 
ATOM     56  H   UNL A   1      41.580  30.248  28.942  1.00  0.00     0.167 HD
ATOM     57  C   UNL A   1      42.470  23.145  28.162  1.00  0.00     0.031 A 
ATOM     58  C   UNL A   1      43.529  29.630  31.020  1.00  0.00     0.031 A 
ATOM     59  C   UNL A   1      43.617  23.639  28.920  1.00  0.00     0.049 A 
ATOM     60  C   UNL A   1      44.067  28.459  31.812  1.00  0.00     0.074 A 
ATOM     61  C   UNL A   1      44.830  24.180  28.524  1.00  0.00     0.029 A 
ATOM     62  N   UNL A   1      43.497  23.893  30.279  1.00  0.00    -0.354 N 
ATOM     63  N   UNL A   1      44.152  27.247  31.341  1.00  0.00    -0.248 NA
ATOM     64  C   UNL A   1      44.464  28.537  33.217  1.00  0.00     0.031 C 
ATOM     65  C   UNL A   1      45.420  24.809  29.648  1.00  0.00     0.029 A 
ATOM     66  C   UNL A   1      44.574  24.634  30.728  1.00  0.00     0.049 A 
ATOM     67  H   UNL A   1      42.749  23.590  30.843  1.00  0.00     0.167 HD
ATOM     68  C   UNL A   1      44.556  26.395  32.334  1.00  0.00     0.074 A 
ATOM     69  C   UNL A   1      44.761  27.252  33.486  1.00  0.00     0.031 C 
ATOM     70  C   UNL A   1      44.658  25.050  32.121  1.00  0.00     0.031 A 
BRANCH  57  71
ATOM     71  C   UNL A   1      42.528  21.935  27.263  1.00  0.00    -0.014 A 
ATOM     72  C   UNL A   1      41.766  20.795  27.576  1.00  0.00     0.009 A 
ATOM     73  C   UNL A   1      43.349  21.834  26.127  1.00  0.00     0.009 A 
ATOM     74  C   UNL A   1      41.908  19.591  26.875  1.00  0.00     0.001 A 
ATOM     75  C   UNL A   1      43.535  20.621  25.450  1.00  0.00     0.001 A 
ATOM     76  C   UNL A   1      42.822  19.494  25.835  1.00  0.00     0.000 A 
ENDBRANCH  57  71
BRANCH  58  77
ATOM     77  C   UNL A   1      42.557  30.622  31.548  1.00  0.00    -0.014 A 
ATOM     78  C   UNL A   1      42.792  31.985  31.281  1.00  0.00     0.009 A 
ATOM     79  C   UNL A   1      41.270  30.220  31.931  1.00  0.00     0.009 A 
ATOM     80  C   UNL A   1      41.736  32.899  31.269  1.00  0.00     0.001 A 
ATOM     81  C   UNL A   1      40.219  31.143  31.925  1.00  0.00     0.001 A 
ATOM     82  C   UNL A   1      40.443  32.469  31.554  1.00  0.00     0.000 A 
ENDBRANCH  58  77
BRANCH  70  83
ATOM     83  C   UNL A   1      44.916  23.998  33.169  1.00  0.00    -0.014 A 
ATOM     84  C   UNL A   1      46.170  23.728  33.732  1.00  0.00     0.009 A 
ATOM     85  C   UNL A   1      43.812  23.306  33.720  1.00  0.00     0.009 A 
ATOM     86  C   UNL A   1      46.320  22.783  34.758  1.00  0.00     0.001 A 
ATOM     87  C   UNL A   1      43.951  22.397  34.772  1.00  0.00     0.001 A 
ATOM     88  C   UNL A   1      45.210  22.125  35.282  1.00  0.00     0.000 A 
ENDBRANCH  70  83
ENDBRANCH  44  45
ENDBRANCH  36  39
ENDBRANCH  34  35
ENDBRANCH  33  34
ENDBRANCH   1  33
TORSDOF 14
ENDMDL
MODEL 3
REMARK VINA RESULT:     -13.5      3.719      8.964
REMARK SMILES Cc1ccc(NC(=O)c2ccccc2NC(=O)[C@H]2CCCC[C@H]2C(=O)NCCCNC(=O)c2ccc(-c3c4nc(c(-c5ccccc5)c5ccc([nH]5)c(-c5ccccc5)c5nc(c(-c6ccccc6)c6ccc3[nH]6)C=C5)C=C4)cc2)cc1
REMARK SMILES IDX 27 1 26 2 24 3 25 4 23 6 18 7 19 8 20 9 22 10 21 11 16 12
REMARK SMILES IDX 15 13 17 15 14 16 9 17 10 18 11 19 13 20 12 21 7 22 6 23
REMARK SMILES IDX 8 25 5 26 1 27 2 28 3 29 82 30 4 31 81 32 28 33 29 34 30 35
REMARK SMILES IDX 31 36 32 38 33 39 34 40 80 41 35 42 79 43 36 44 37 45 38 46
REMARK SMILES IDX 73 47 39 48 78 49 72 50 74 51 40 52 77 53 71 54 70 55 41 57
REMARK SMILES IDX 63 58 48 59 62 60 49 61 52 62 61 63 75 64 50 65 51 66 60 68
REMARK SMILES IDX 76 69 53 70 42 71 43 72 47 73 44 74 46 75 45 76 64 77 65 78
REMARK SMILES IDX 69 79 66 80 68 81 67 82 54 83 55 84 59 85 56 86 58 87 57 88
REMARK H PARENT 26 5 15 14 6 24 30 37 74 56 52 67
REMARK Flexibility Score: inf
ROOT
ATOM      1  C   UNL A   1      34.865  29.516  27.328  1.00  0.00     0.117 C 
ENDROOT
BRANCH   1   2
ATOM      2  N   UNL A   1      33.632  28.816  27.667  1.00  0.00    -0.356 N 
ATOM      3  C   UNL A   1      32.573  28.350  26.964  1.00  0.00     0.223 C 
ATOM      4  O   UNL A   1      31.639  27.899  27.641  1.00  0.00    -0.275 OA
ATOM      5  H   UNL A   1      33.550  28.640  28.632  1.00  0.00     0.163 HD
BRANCH   3   6
ATOM      6  C   UNL A   1      32.406  28.382  25.442  1.00  0.00     0.091 C 
ATOM      7  C   UNL A   1      33.112  27.197  24.743  1.00  0.00     0.091 C 
ATOM      8  C   UNL A   1      33.040  27.319  23.207  1.00  0.00     0.014 C 
ATOM      9  C   UNL A   1      31.654  27.704  22.675  1.00  0.00     0.001 C 
ATOM     10  C   UNL A   1      31.039  28.760  24.877  1.00  0.00     0.014 C 
ATOM     11  C   UNL A   1      31.104  28.951  23.362  1.00  0.00     0.001 C 
BRANCH   7  12
ATOM     12  C   UNL A   1      32.511  25.872  25.142  1.00  0.00     0.228 C 
ATOM     13  N   UNL A   1      33.196  24.702  25.240  1.00  0.00    -0.325 N 
ATOM     14  H   UNL A   1      32.694  24.044  25.772  1.00  0.00     0.169 HD
ATOM     15  O   UNL A   1      31.312  25.830  25.445  1.00  0.00    -0.274 OA
BRANCH  13  16
ATOM     16  C   UNL A   1      34.420  24.164  24.797  1.00  0.00     0.054 A 
ATOM     17  C   UNL A   1      34.515  23.566  23.511  1.00  0.00     0.063 A 
ATOM     18  C   UNL A   1      35.723  22.950  23.116  1.00  0.00     0.016 A 
ATOM     19  C   UNL A   1      36.843  22.959  23.938  1.00  0.00     0.001 A 
ATOM     20  C   UNL A   1      35.588  24.231  25.568  1.00  0.00     0.027 A 
ATOM     21  C   UNL A   1      36.779  23.618  25.156  1.00  0.00     0.002 A 
BRANCH  17  22
ATOM     22  C   UNL A   1      33.423  23.367  22.513  1.00  0.00     0.257 C 
ATOM     23  N   UNL A   1      32.571  22.295  22.432  1.00  0.00    -0.322 N 
ATOM     24  H   UNL A   1      31.956  22.365  21.667  1.00  0.00     0.170 HD
ATOM     25  O   UNL A   1      33.279  24.235  21.643  1.00  0.00    -0.269 OA
BRANCH  23  26
ATOM     26  C   UNL A   1      32.364  21.127  23.168  1.00  0.00     0.041 A 
ATOM     27  C   UNL A   1      32.817  17.275  24.984  1.00  0.00     0.044 C 
ATOM     28  C   UNL A   1      32.521  18.609  24.367  1.00  0.00    -0.051 A 
ATOM     29  C   UNL A   1      32.573  19.774  25.145  1.00  0.00     0.005 A 
ATOM     30  C   UNL A   1      32.261  18.714  23.000  1.00  0.00     0.005 A 
ATOM     31  C   UNL A   1      32.488  21.035  24.548  1.00  0.00     0.026 A 
ATOM     32  C   UNL A   1      32.153  19.970  22.408  1.00  0.00     0.026 A 
ENDBRANCH  23  26
ENDBRANCH  17  22
ENDBRANCH  13  16
ENDBRANCH   7  12
ENDBRANCH   3   6
ENDBRANCH   1   2
BRANCH   1  33
ATOM     33  C   UNL A   1      34.766  31.012  27.615  1.00  0.00     0.042 C 
BRANCH  33  34
ATOM     34  C   UNL A   1      34.974  31.414  29.065  1.00  0.00     0.118 C 
BRANCH  34  35
ATOM     35  N   UNL A   1      34.016  32.437  29.508  1.00  0.00    -0.352 N 
ATOM     36  C   UNL A   1      34.274  33.677  30.081  1.00  0.00     0.251 C 
ATOM     37  H   UNL A   1      33.065  32.213  29.382  1.00  0.00     0.163 HD
ATOM     38  O   UNL A   1      33.405  34.482  30.303  1.00  0.00    -0.269 OA
BRANCH  36  39
ATOM     39  C   UNL A   1      35.695  33.984  30.357  1.00  0.00     0.039 A 
ATOM     40  C   UNL A   1      36.493  34.313  29.263  1.00  0.00     0.014 A 
ATOM     41  C   UNL A   1      36.239  33.495  31.540  1.00  0.00     0.014 A 
ATOM     42  C   UNL A   1      37.809  33.871  29.254  1.00  0.00     0.010 A 
ATOM     43  C   UNL A   1      37.525  32.990  31.503  1.00  0.00     0.010 A 
ATOM     44  C   UNL A   1      38.266  33.090  30.321  1.00  0.00    -0.014 A 
BRANCH  44  45
ATOM     45  C   UNL A   1      39.430  32.220  30.193  1.00  0.00     0.031 A 
ATOM     46  C   UNL A   1      39.249  30.828  29.755  1.00  0.00     0.074 A 
ATOM     47  C   UNL A   1      40.668  32.643  30.536  1.00  0.00     0.049 A 
ATOM     48  N   UNL A   1      39.893  29.826  30.254  1.00  0.00    -0.248 NA
ATOM     49  C   UNL A   1      38.263  30.457  28.749  1.00  0.00     0.031 C 
ATOM     50  C   UNL A   1      41.922  31.915  30.350  1.00  0.00     0.029 A 
ATOM     51  N   UNL A   1      41.025  33.724  31.346  1.00  0.00    -0.354 N 
ATOM     52  C   UNL A   1      39.631  28.744  29.446  1.00  0.00     0.074 A 
ATOM     53  C   UNL A   1      38.537  29.160  28.595  1.00  0.00     0.031 C 
ATOM     54  C   UNL A   1      42.811  32.355  31.254  1.00  0.00     0.029 A 
ATOM     55  C   UNL A   1      42.131  33.314  32.108  1.00  0.00     0.049 A 
ATOM     56  H   UNL A   1      40.585  34.604  31.375  1.00  0.00     0.167 HD
ATOM     57  C   UNL A   1      40.462  27.665  29.452  1.00  0.00     0.031 A 
ATOM     58  C   UNL A   1      42.174  33.345  33.470  1.00  0.00     0.031 A 
ATOM     59  C   UNL A   1      41.580  27.833  30.378  1.00  0.00     0.049 A 
ATOM     60  C   UNL A   1      42.437  31.991  34.089  1.00  0.00     0.074 A 
ATOM     61  C   UNL A   1      42.898  28.216  30.185  1.00  0.00     0.029 A 
ATOM     62  N   UNL A   1      41.350  27.886  31.746  1.00  0.00    -0.354 N 
ATOM     63  N   UNL A   1      42.387  30.871  33.425  1.00  0.00    -0.248 NA
ATOM     64  C   UNL A   1      42.683  31.778  35.515  1.00  0.00     0.031 C 
ATOM     65  C   UNL A   1      43.448  28.551  31.446  1.00  0.00     0.029 A 
ATOM     66  C   UNL A   1      42.471  28.354  32.405  1.00  0.00     0.049 A 
ATOM     67  H   UNL A   1      40.507  27.628  32.184  1.00  0.00     0.167 HD
ATOM     68  C   UNL A   1      42.544  29.817  34.285  1.00  0.00     0.074 A 
ATOM     69  C   UNL A   1      42.749  30.435  35.581  1.00  0.00     0.031 C 
ATOM     70  C   UNL A   1      42.463  28.525  33.852  1.00  0.00     0.031 A 
BRANCH  57  71
ATOM     71  C   UNL A   1      40.434  26.619  28.365  1.00  0.00    -0.014 A 
ATOM     72  C   UNL A   1      41.177  26.815  27.187  1.00  0.00     0.009 A 
ATOM     73  C   UNL A   1      39.659  25.449  28.417  1.00  0.00     0.009 A 
ATOM     74  C   UNL A   1      41.057  25.963  26.083  1.00  0.00     0.001 A 
ATOM     75  C   UNL A   1      39.494  24.617  27.301  1.00  0.00     0.001 A 
ATOM     76  C   UNL A   1      40.185  24.883  26.127  1.00  0.00     0.000 A 
ENDBRANCH  57  71
BRANCH  58  77
ATOM     77  C   UNL A   1      41.313  34.392  34.079  1.00  0.00    -0.014 A 
ATOM     78  C   UNL A   1      40.049  34.006  34.567  1.00  0.00     0.009 A 
ATOM     79  C   UNL A   1      41.868  35.600  34.522  1.00  0.00     0.009 A 
ATOM     80  C   UNL A   1      39.419  34.745  35.571  1.00  0.00     0.001 A 
ATOM     81  C   UNL A   1      41.227  36.339  35.521  1.00  0.00     0.001 A 
ATOM     82  C   UNL A   1      40.027  35.890  36.074  1.00  0.00     0.000 A 
ENDBRANCH  58  77
BRANCH  70  83
ATOM     83  C   UNL A   1      42.439  27.293  34.718  1.00  0.00    -0.014 A 
ATOM     84  C   UNL A   1      41.539  27.080  35.771  1.00  0.00     0.009 A 
ATOM     85  C   UNL A   1      43.296  26.217  34.390  1.00  0.00     0.009 A 
ATOM     86  C   UNL A   1      41.529  25.873  36.487  1.00  0.00     0.001 A 
ATOM     87  C   UNL A   1      43.259  24.998  35.072  1.00  0.00     0.001 A 
ATOM     88  C   UNL A   1      42.382  24.831  36.132  1.00  0.00     0.000 A 
ENDBRANCH  70  83
ENDBRANCH  44  45
ENDBRANCH  36  39
ENDBRANCH  34  35
ENDBRANCH  33  34
ENDBRANCH   1  33
TORSDOF 14
ENDMDL
