MODEL 1
REMARK VINA RESULT:     -12.3      0.000      0.000
REMARK SMILES Nc1cc(C(=O)NCCCNC(=O)c2ccc(-c3c4nc(c(-c5ccccc5)c5ccc([nH]5)c(-c5ccccc5)c5nc(c(-c6ccccc6)c6ccc3[nH]6)C=C5)C=C4)cc2)ccc1N1CC2(CCOCC2)C1
REMARK SMILES IDX 9 1 8 2 7 3 5 4 6 5 4 7 2 8 3 9 64 10 63 11 62 12 1 13 65 16
REMARK SMILES IDX 66 17 73 18 67 19 68 20 72 21 69 22 71 23 70 24 10 25 11 26
REMARK SMILES IDX 12 27 13 29 14 30 15 31 61 32 16 33 60 34 17 35 18 36 19 37
REMARK SMILES IDX 54 38 20 39 59 40 53 41 55 42 21 43 58 44 52 45 51 46 22 48
REMARK SMILES IDX 44 49 29 50 43 51 30 52 33 53 42 54 56 55 31 56 32 57 41 59
REMARK SMILES IDX 57 60 34 61 23 62 24 63 28 64 25 65 27 66 26 67 45 68 46 69
REMARK SMILES IDX 50 70 47 71 49 72 48 73 35 74 36 75 40 76 37 77 39 78 38 79
REMARK H PARENT 7 6 1 14 1 15 11 28 55 47 33 58
REMARK Flexibility Score: inf
ROOT
ATOM      1  C   UNL A   1      33.951  28.315  25.761  1.00  0.00     0.042 C 
ENDROOT
BRANCH   1   2
ATOM      2  C   UNL A   1      33.120  27.205  25.120  1.00  0.00     0.118 C 
BRANCH   2   3
ATOM      3  N   UNL A   1      33.396  27.112  23.701  1.00  0.00    -0.352 N 
ATOM      4  C   UNL A   1      33.677  26.067  22.864  1.00  0.00     0.251 C 
ATOM      5  O   UNL A   1      33.893  26.356  21.685  1.00  0.00    -0.269 OA
ATOM      6  H   UNL A   1      33.378  27.983  23.243  1.00  0.00     0.163 HD
BRANCH   4   7
ATOM      7  C   UNL A   1      33.689  24.631  23.271  1.00  0.00     0.041 A 
ATOM      8  C   UNL A   1      32.795  22.405  22.771  1.00  0.00     0.056 A 
ATOM      9  C   UNL A   1      32.895  23.773  22.494  1.00  0.00     0.041 A 
ATOM     10  C   UNL A   1      33.459  21.877  23.898  1.00  0.00     0.060 A 
ATOM     11  C   UNL A   1      34.266  22.724  24.663  1.00  0.00     0.029 A 
ATOM     12  C   UNL A   1      34.412  24.079  24.330  1.00  0.00     0.016 A 
BRANCH   8  13
ATOM     13  N   UNL A   1      31.892  21.643  22.031  1.00  0.00    -0.397 N 
ATOM     14  H   UNL A   1      31.858  21.734  21.051  1.00  0.00     0.156 HD
ATOM     15  H   UNL A   1      31.288  21.015  22.488  1.00  0.00     0.156 HD
ENDBRANCH   8  13
BRANCH  10  16
ATOM     16  N   UNL A   1      33.285  20.536  24.262  1.00  0.00    -0.369 N 
ATOM     17  C   UNL A   1      34.221  19.540  24.663  1.00  0.00     0.125 C 
ATOM     18  C   UNL A   1      32.146  19.803  24.702  1.00  0.00     0.125 C 
ATOM     19  C   UNL A   1      33.037  18.538  24.559  1.00  0.00     0.010 C 
ATOM     20  C   UNL A   1      32.920  17.498  25.669  1.00  0.00     0.039 C 
ATOM     21  C   UNL A   1      32.919  17.852  23.186  1.00  0.00     0.039 C 
ATOM     22  C   UNL A   1      33.967  16.413  25.437  1.00  0.00     0.161 C 
ATOM     23  C   UNL A   1      33.974  16.757  23.092  1.00  0.00     0.161 C 
ATOM     24  O   UNL A   1      33.797  15.813  24.149  1.00  0.00    -0.381 OA
ENDBRANCH  10  16
ENDBRANCH   4   7
ENDBRANCH   2   3
ENDBRANCH   1   2
BRANCH   1  25
ATOM     25  C   UNL A   1      33.635  28.523  27.242  1.00  0.00     0.118 C 
BRANCH  25  26
ATOM     26  N   UNL A   1      33.594  29.936  27.593  1.00  0.00    -0.352 N 
ATOM     27  C   UNL A   1      34.509  30.708  28.261  1.00  0.00     0.251 C 
ATOM     28  H   UNL A   1      32.782  30.411  27.305  1.00  0.00     0.163 HD
ATOM     29  O   UNL A   1      34.180  31.818  28.672  1.00  0.00    -0.269 OA
BRANCH  27  30
ATOM     30  C   UNL A   1      35.886  30.221  28.495  1.00  0.00     0.039 A 
ATOM     31  C   UNL A   1      36.803  30.269  27.441  1.00  0.00     0.014 A 
ATOM     32  C   UNL A   1      36.257  29.659  29.720  1.00  0.00     0.014 A 
ATOM     33  C   UNL A   1      38.103  29.795  27.627  1.00  0.00     0.010 A 
ATOM     34  C   UNL A   1      37.571  29.243  29.924  1.00  0.00     0.010 A 
ATOM     35  C   UNL A   1      38.505  29.301  28.878  1.00  0.00    -0.014 A 
BRANCH  35  36
ATOM     36  C   UNL A   1      39.893  28.833  29.110  1.00  0.00     0.031 A 
ATOM     37  C   UNL A   1      40.914  29.755  29.717  1.00  0.00     0.074 A 
ATOM     38  C   UNL A   1      40.252  27.595  28.718  1.00  0.00     0.049 A 
ATOM     39  N   UNL A   1      42.189  29.550  29.931  1.00  0.00    -0.248 NA
ATOM     40  C   UNL A   1      40.445  31.091  30.117  1.00  0.00     0.031 C 
ATOM     41  C   UNL A   1      39.363  26.614  28.090  1.00  0.00     0.029 A 
ATOM     42  N   UNL A   1      41.462  26.952  28.784  1.00  0.00    -0.354 N 
ATOM     43  C   UNL A   1      42.677  30.733  30.468  1.00  0.00     0.074 A 
ATOM     44  C   UNL A   1      41.572  31.666  30.511  1.00  0.00     0.031 C 
ATOM     45  C   UNL A   1      40.053  25.487  27.850  1.00  0.00     0.029 A 
ATOM     46  C   UNL A   1      41.437  25.679  28.269  1.00  0.00     0.049 A 
ATOM     47  H   UNL A   1      42.271  27.365  29.164  1.00  0.00     0.167 HD
ATOM     48  C   UNL A   1      43.930  31.016  30.901  1.00  0.00     0.031 A 
ATOM     49  C   UNL A   1      42.422  24.771  28.141  1.00  0.00     0.031 A 
ATOM     50  C   UNL A   1      45.026  30.085  30.872  1.00  0.00     0.049 A 
ATOM     51  C   UNL A   1      43.805  25.112  28.619  1.00  0.00     0.074 A 
ATOM     52  C   UNL A   1      46.318  30.260  31.335  1.00  0.00     0.029 A 
ATOM     53  N   UNL A   1      44.957  28.803  30.349  1.00  0.00    -0.354 N 
ATOM     54  N   UNL A   1      44.237  26.217  29.175  1.00  0.00    -0.248 NA
ATOM     55  C   UNL A   1      44.832  24.073  28.462  1.00  0.00     0.031 C 
ATOM     56  C   UNL A   1      47.044  29.097  31.054  1.00  0.00     0.029 A 
ATOM     57  C   UNL A   1      46.189  28.181  30.460  1.00  0.00     0.049 A 
ATOM     58  H   UNL A   1      44.152  28.396  29.956  1.00  0.00     0.167 HD
ATOM     59  C   UNL A   1      45.578  25.999  29.457  1.00  0.00     0.074 A 
ATOM     60  C   UNL A   1      45.885  24.651  29.024  1.00  0.00     0.031 C 
ATOM     61  C   UNL A   1      46.476  26.840  30.025  1.00  0.00     0.031 A 
BRANCH  48  62
ATOM     62  C   UNL A   1      44.179  32.397  31.440  1.00  0.00    -0.014 A 
ATOM     63  C   UNL A   1      44.042  32.680  32.809  1.00  0.00     0.009 A 
ATOM     64  C   UNL A   1      44.588  33.422  30.574  1.00  0.00     0.009 A 
ATOM     65  C   UNL A   1      44.273  33.969  33.292  1.00  0.00     0.001 A 
ATOM     66  C   UNL A   1      44.845  34.705  31.064  1.00  0.00     0.001 A 
ATOM     67  C   UNL A   1      44.678  34.979  32.421  1.00  0.00     0.000 A 
ENDBRANCH  48  62
BRANCH  49  68
ATOM     68  C   UNL A   1      42.131  23.439  27.550  1.00  0.00    -0.014 A 
ATOM     69  C   UNL A   1      41.567  22.422  28.335  1.00  0.00     0.009 A 
ATOM     70  C   UNL A   1      42.414  23.179  26.200  1.00  0.00     0.009 A 
ATOM     71  C   UNL A   1      41.315  21.163  27.787  1.00  0.00     0.001 A 
ATOM     72  C   UNL A   1      42.137  21.926  25.649  1.00  0.00     0.001 A 
ATOM     73  C   UNL A   1      41.596  20.917  26.444  1.00  0.00     0.000 A 
ENDBRANCH  49  68
BRANCH  61  74
ATOM     74  C   UNL A   1      47.866  26.313  30.241  1.00  0.00    -0.014 A 
ATOM     75  C   UNL A   1      48.833  26.372  29.225  1.00  0.00     0.009 A 
ATOM     76  C   UNL A   1      48.220  25.783  31.491  1.00  0.00     0.009 A 
ATOM     77  C   UNL A   1      50.121  25.883  29.452  1.00  0.00     0.001 A 
ATOM     78  C   UNL A   1      49.516  25.319  31.722  1.00  0.00     0.001 A 
ATOM     79  C   UNL A   1      50.462  25.361  30.699  1.00  0.00     0.000 A 
ENDBRANCH  61  74
ENDBRANCH  35  36
ENDBRANCH  27  30
ENDBRANCH  25  26
ENDBRANCH   1  25
TORSDOF 12
ENDMDL
MODEL 2
REMARK VINA RESULT:     -12.0      3.439      8.818
REMARK SMILES Nc1cc(C(=O)NCCCNC(=O)c2ccc(-c3c4nc(c(-c5ccccc5)c5ccc([nH]5)c(-c5ccccc5)c5nc(c(-c6ccccc6)c6ccc3[nH]6)C=C5)C=C4)cc2)ccc1N1CC2(CCOCC2)C1
REMARK SMILES IDX 9 1 8 2 7 3 5 4 6 5 4 7 2 8 3 9 64 10 63 11 62 12 1 13 65 16
REMARK SMILES IDX 66 17 73 18 67 19 68 20 72 21 69 22 71 23 70 24 10 25 11 26
REMARK SMILES IDX 12 27 13 29 14 30 15 31 61 32 16 33 60 34 17 35 18 36 19 37
REMARK SMILES IDX 54 38 20 39 59 40 53 41 55 42 21 43 58 44 52 45 51 46 22 48
REMARK SMILES IDX 44 49 29 50 43 51 30 52 33 53 42 54 56 55 31 56 32 57 41 59
REMARK SMILES IDX 57 60 34 61 23 62 24 63 28 64 25 65 27 66 26 67 45 68 46 69
REMARK SMILES IDX 50 70 47 71 49 72 48 73 35 74 36 75 40 76 37 77 39 78 38 79
REMARK H PARENT 7 6 1 14 1 15 11 28 55 47 33 58
REMARK Flexibility Score: inf
ROOT
ATOM      1  C   UNL A   1      35.410  23.270  25.294  1.00  0.00     0.042 C 
ENDROOT
BRANCH   1   2
ATOM      2  C   UNL A   1      34.384  24.400  25.351  1.00  0.00     0.118 C 
BRANCH   2   3
ATOM      3  N   UNL A   1      33.325  24.085  26.288  1.00  0.00    -0.352 N 
ATOM      4  C   UNL A   1      32.040  24.529  26.438  1.00  0.00     0.251 C 
ATOM      5  O   UNL A   1      31.408  24.056  27.386  1.00  0.00    -0.269 OA
ATOM      6  H   UNL A   1      33.585  23.410  26.956  1.00  0.00     0.163 HD
BRANCH   4   7
ATOM      7  C   UNL A   1      31.358  25.489  25.521  1.00  0.00     0.041 A 
ATOM      8  C   UNL A   1      31.074  27.857  24.961  1.00  0.00     0.056 A 
ATOM      9  C   UNL A   1      31.655  26.845  25.732  1.00  0.00     0.041 A 
ATOM     10  C   UNL A   1      30.116  27.519  23.982  1.00  0.00     0.060 A 
ATOM     11  C   UNL A   1      29.833  26.169  23.756  1.00  0.00     0.029 A 
ATOM     12  C   UNL A   1      30.476  25.161  24.490  1.00  0.00     0.016 A 
BRANCH   8  13
ATOM     13  N   UNL A   1      31.325  29.184  25.311  1.00  0.00    -0.397 N 
ATOM     14  H   UNL A   1      31.232  29.896  24.638  1.00  0.00     0.156 HD
ATOM     15  H   UNL A   1      31.594  29.407  26.231  1.00  0.00     0.156 HD
ENDBRANCH   8  13
BRANCH  10  16
ATOM     16  N   UNL A   1      29.438  28.519  23.275  1.00  0.00    -0.369 N 
ATOM     17  C   UNL A   1      29.914  29.586  22.462  1.00  0.00     0.125 C 
ATOM     18  C   UNL A   1      28.091  28.626  22.822  1.00  0.00     0.125 C 
ATOM     19  C   UNL A   1      28.446  30.093  22.451  1.00  0.00     0.010 C 
ATOM     20  C   UNL A   1      27.905  30.604  21.119  1.00  0.00     0.039 C 
ATOM     21  C   UNL A   1      28.126  31.106  23.567  1.00  0.00     0.039 C 
ATOM     22  C   UNL A   1      28.475  31.996  20.861  1.00  0.00     0.161 C 
ATOM     23  C   UNL A   1      28.694  32.463  23.175  1.00  0.00     0.161 C 
ATOM     24  O   UNL A   1      28.138  32.886  21.929  1.00  0.00    -0.381 OA
ENDBRANCH  10  16
ENDBRANCH   4   7
ENDBRANCH   2   3
ENDBRANCH   1   2
BRANCH   1  25
ATOM     25  C   UNL A   1      36.844  23.769  25.109  1.00  0.00     0.118 C 
BRANCH  25  26
ATOM     26  N   UNL A   1      37.821  22.757  25.485  1.00  0.00    -0.352 N 
ATOM     27  C   UNL A   1      39.041  22.889  26.098  1.00  0.00     0.251 C 
ATOM     28  H   UNL A   1      37.566  21.832  25.265  1.00  0.00     0.163 HD
ATOM     29  O   UNL A   1      39.820  21.941  26.105  1.00  0.00    -0.269 OA
BRANCH  27  30
ATOM     30  C   UNL A   1      39.429  24.160  26.747  1.00  0.00     0.039 A 
ATOM     31  C   UNL A   1      40.170  25.090  26.012  1.00  0.00     0.014 A 
ATOM     32  C   UNL A   1      39.128  24.410  28.089  1.00  0.00     0.014 A 
ATOM     33  C   UNL A   1      40.570  26.289  26.607  1.00  0.00     0.010 A 
ATOM     34  C   UNL A   1      39.473  25.632  28.663  1.00  0.00     0.010 A 
ATOM     35  C   UNL A   1      40.204  26.580  27.930  1.00  0.00    -0.014 A 
BRANCH  35  36
ATOM     36  C   UNL A   1      40.581  27.865  28.567  1.00  0.00     0.031 A 
ATOM     37  C   UNL A   1      41.969  28.066  29.109  1.00  0.00     0.074 A 
ATOM     38  C   UNL A   1      39.654  28.832  28.712  1.00  0.00     0.049 A 
ATOM     39  N   UNL A   1      42.462  29.090  29.760  1.00  0.00    -0.248 NA
ATOM     40  C   UNL A   1      42.923  26.963  28.912  1.00  0.00     0.031 C 
ATOM     41  C   UNL A   1      38.264  28.749  28.257  1.00  0.00     0.029 A 
ATOM     42  N   UNL A   1      39.740  30.072  29.293  1.00  0.00    -0.354 N 
ATOM     43  C   UNL A   1      43.772  28.747  30.067  1.00  0.00     0.074 A 
ATOM     44  C   UNL A   1      43.985  27.405  29.569  1.00  0.00     0.031 C 
ATOM     45  C   UNL A   1      37.636  29.898  28.554  1.00  0.00     0.029 A 
ATOM     46  C   UNL A   1      38.563  30.779  29.254  1.00  0.00     0.049 A 
ATOM     47  H   UNL A   1      40.566  30.421  29.698  1.00  0.00     0.167 HD
ATOM     48  C   UNL A   1      44.717  29.486  30.696  1.00  0.00     0.031 A 
ATOM     49  C   UNL A   1      38.263  32.000  29.737  1.00  0.00     0.031 A 
ATOM     50  C   UNL A   1      44.510  30.824  31.180  1.00  0.00     0.049 A 
ATOM     51  C   UNL A   1      39.326  32.795  30.440  1.00  0.00     0.074 A 
ATOM     52  C   UNL A   1      45.420  31.674  31.784  1.00  0.00     0.029 A 
ATOM     53  N   UNL A   1      43.305  31.507  31.115  1.00  0.00    -0.354 N 
ATOM     54  N   UNL A   1      40.575  32.477  30.675  1.00  0.00    -0.248 NA
ATOM     55  C   UNL A   1      38.938  34.124  30.934  1.00  0.00     0.031 C 
ATOM     56  C   UNL A   1      44.754  32.857  32.123  1.00  0.00     0.029 A 
ATOM     57  C   UNL A   1      43.443  32.761  31.685  1.00  0.00     0.049 A 
ATOM     58  H   UNL A   1      42.475  31.153  30.723  1.00  0.00     0.167 HD
ATOM     59  C   UNL A   1      41.130  33.574  31.320  1.00  0.00     0.074 A 
ATOM     60  C   UNL A   1      40.085  34.571  31.427  1.00  0.00     0.031 C 
ATOM     61  C   UNL A   1      42.393  33.741  31.782  1.00  0.00     0.031 A 
BRANCH  48  62
ATOM     62  C   UNL A   1      46.066  28.853  30.900  1.00  0.00    -0.014 A 
ATOM     63  C   UNL A   1      46.353  28.109  32.056  1.00  0.00     0.009 A 
ATOM     64  C   UNL A   1      47.053  28.975  29.910  1.00  0.00     0.009 A 
ATOM     65  C   UNL A   1      47.612  27.533  32.232  1.00  0.00     0.001 A 
ATOM     66  C   UNL A   1      48.302  28.375  30.076  1.00  0.00     0.001 A 
ATOM     67  C   UNL A   1      48.584  27.662  31.241  1.00  0.00     0.000 A 
ENDBRANCH  48  62
BRANCH  49  68
ATOM     68  C   UNL A   1      36.897  32.554  29.556  1.00  0.00    -0.014 A 
ATOM     69  C   UNL A   1      35.923  32.382  30.551  1.00  0.00     0.009 A 
ATOM     70  C   UNL A   1      36.560  33.258  28.389  1.00  0.00     0.009 A 
ATOM     71  C   UNL A   1      34.631  32.881  30.371  1.00  0.00     0.001 A 
ATOM     72  C   UNL A   1      35.275  33.780  28.224  1.00  0.00     0.001 A 
ATOM     73  C   UNL A   1      34.309  33.584  29.211  1.00  0.00     0.000 A 
ENDBRANCH  49  68
BRANCH  61  74
ATOM     74  C   UNL A   1      42.721  35.063  32.415  1.00  0.00    -0.014 A 
ATOM     75  C   UNL A   1      42.372  35.341  33.746  1.00  0.00     0.009 A 
ATOM     76  C   UNL A   1      43.422  36.030  31.676  1.00  0.00     0.009 A 
ATOM     77  C   UNL A   1      42.694  36.574  34.314  1.00  0.00     0.001 A 
ATOM     78  C   UNL A   1      43.765  37.251  32.257  1.00  0.00     0.001 A 
ATOM     79  C   UNL A   1      43.393  37.526  33.572  1.00  0.00     0.000 A 
ENDBRANCH  61  74
ENDBRANCH  35  36
ENDBRANCH  27  30
ENDBRANCH  25  26
ENDBRANCH   1  25
TORSDOF 12
ENDMDL
MODEL 3
REMARK VINA RESULT:     -11.9      0.870      1.418
REMARK SMILES Nc1cc(C(=O)NCCCNC(=O)c2ccc(-c3c4nc(c(-c5ccccc5)c5ccc([nH]5)c(-c5ccccc5)c5nc(c(-c6ccccc6)c6ccc3[nH]6)C=C5)C=C4)cc2)ccc1N1CC2(CCOCC2)C1
REMARK SMILES IDX 9 1 8 2 7 3 5 4 6 5 4 7 2 8 3 9 64 10 63 11 62 12 1 13 65 16
REMARK SMILES IDX 66 17 73 18 67 19 68 20 72 21 69 22 71 23 70 24 10 25 11 26
REMARK SMILES IDX 12 27 13 29 14 30 15 31 61 32 16 33 60 34 17 35 18 36 19 37
REMARK SMILES IDX 54 38 20 39 59 40 53 41 55 42 21 43 58 44 52 45 51 46 22 48
REMARK SMILES IDX 44 49 29 50 43 51 30 52 33 53 42 54 56 55 31 56 32 57 41 59
REMARK SMILES IDX 57 60 34 61 23 62 24 63 28 64 25 65 27 66 26 67 45 68 46 69
REMARK SMILES IDX 50 70 47 71 49 72 48 73 35 74 36 75 40 76 37 77 39 78 38 79
REMARK H PARENT 7 6 1 14 1 15 11 28 55 47 33 58
REMARK Flexibility Score: inf
ROOT
ATOM      1  C   UNL A   1      34.043  28.487  25.582  1.00  0.00     0.042 C 
ENDROOT
BRANCH   1   2
ATOM      2  C   UNL A   1      33.574  27.109  25.121  1.00  0.00     0.118 C 
BRANCH   2   3
ATOM      3  N   UNL A   1      33.639  27.002  23.677  1.00  0.00    -0.352 N 
ATOM      4  C   UNL A   1      33.747  25.944  22.817  1.00  0.00     0.251 C 
ATOM      5  O   UNL A   1      33.806  26.221  21.617  1.00  0.00    -0.269 OA
ATOM      6  H   UNL A   1      33.598  27.872  23.220  1.00  0.00     0.163 HD
BRANCH   4   7
ATOM      7  C   UNL A   1      33.749  24.509  23.229  1.00  0.00     0.041 A 
ATOM      8  C   UNL A   1      32.848  22.286  22.727  1.00  0.00     0.056 A 
ATOM      9  C   UNL A   1      32.959  23.652  22.447  1.00  0.00     0.041 A 
ATOM     10  C   UNL A   1      33.499  21.758  23.862  1.00  0.00     0.060 A 
ATOM     11  C   UNL A   1      34.302  22.604  24.633  1.00  0.00     0.029 A 
ATOM     12  C   UNL A   1      34.458  23.957  24.297  1.00  0.00     0.016 A 
BRANCH   8  13
ATOM     13  N   UNL A   1      31.950  21.526  21.980  1.00  0.00    -0.397 N 
ATOM     14  H   UNL A   1      31.001  21.787  21.936  1.00  0.00     0.156 HD
ATOM     15  H   UNL A   1      32.263  20.727  21.497  1.00  0.00     0.156 HD
ENDBRANCH   8  13
BRANCH  10  16
ATOM     16  N   UNL A   1      33.315  20.419  24.229  1.00  0.00    -0.369 N 
ATOM     17  C   UNL A   1      34.239  19.423  24.656  1.00  0.00     0.125 C 
ATOM     18  C   UNL A   1      32.165  19.690  24.648  1.00  0.00     0.125 C 
ATOM     19  C   UNL A   1      33.057  18.423  24.531  1.00  0.00     0.010 C 
ATOM     20  C   UNL A   1      32.913  17.388  25.642  1.00  0.00     0.039 C 
ATOM     21  C   UNL A   1      32.967  17.730  23.158  1.00  0.00     0.039 C 
ATOM     22  C   UNL A   1      33.963  16.301  25.440  1.00  0.00     0.161 C 
ATOM     23  C   UNL A   1      34.023  16.634  23.093  1.00  0.00     0.161 C 
ATOM     24  O   UNL A   1      33.821  15.695  24.151  1.00  0.00    -0.381 OA
ENDBRANCH  10  16
ENDBRANCH   4   7
ENDBRANCH   2   3
ENDBRANCH   1   2
BRANCH   1  25
ATOM     25  C   UNL A   1      33.524  28.864  26.970  1.00  0.00     0.118 C 
BRANCH  25  26
ATOM     26  N   UNL A   1      33.551  30.305  27.185  1.00  0.00    -0.352 N 
ATOM     27  C   UNL A   1      34.446  31.079  27.876  1.00  0.00     0.251 C 
ATOM     28  H   UNL A   1      32.810  30.800  26.768  1.00  0.00     0.163 HD
ATOM     29  O   UNL A   1      34.159  32.242  28.146  1.00  0.00    -0.269 OA
BRANCH  27  30
ATOM     30  C   UNL A   1      35.753  30.531  28.303  1.00  0.00     0.039 A 
ATOM     31  C   UNL A   1      36.832  30.601  27.417  1.00  0.00     0.014 A 
ATOM     32  C   UNL A   1      35.902  29.892  29.536  1.00  0.00     0.014 A 
ATOM     33  C   UNL A   1      38.070  30.072  27.784  1.00  0.00     0.010 A 
ATOM     34  C   UNL A   1      37.153  29.419  29.927  1.00  0.00     0.010 A 
ATOM     35  C   UNL A   1      38.247  29.498  29.052  1.00  0.00    -0.014 A 
BRANCH  35  36
ATOM     36  C   UNL A   1      39.566  28.969  29.480  1.00  0.00     0.031 A 
ATOM     37  C   UNL A   1      40.463  29.790  30.365  1.00  0.00     0.074 A 
ATOM     38  C   UNL A   1      39.982  27.773  29.022  1.00  0.00     0.049 A 
ATOM     39  N   UNL A   1      41.675  29.527  30.784  1.00  0.00    -0.248 NA
ATOM     40  C   UNL A   1      39.937  31.086  30.822  1.00  0.00     0.031 C 
ATOM     41  C   UNL A   1      39.219  26.893  28.134  1.00  0.00     0.029 A 
ATOM     42  N   UNL A   1      41.155  27.094  29.234  1.00  0.00    -0.354 N 
ATOM     43  C   UNL A   1      42.063  30.629  31.533  1.00  0.00     0.074 A 
ATOM     44  C   UNL A   1      40.975  31.582  31.478  1.00  0.00     0.031 C 
ATOM     45  C   UNL A   1      39.933  25.781  27.897  1.00  0.00     0.029 A 
ATOM     46  C   UNL A   1      41.217  25.887  28.581  1.00  0.00     0.049 A 
ATOM     47  H   UNL A   1      41.882  27.439  29.800  1.00  0.00     0.167 HD
ATOM     48  C   UNL A   1      43.216  30.827  32.218  1.00  0.00     0.031 A 
ATOM     49  C   UNL A   1      42.203  24.971  28.533  1.00  0.00     0.031 A 
ATOM     50  C   UNL A   1      44.292  29.875  32.284  1.00  0.00     0.049 A 
ATOM     51  C   UNL A   1      43.475  25.218  29.293  1.00  0.00     0.074 A 
ATOM     52  C   UNL A   1      45.478  29.962  32.992  1.00  0.00     0.029 A 
ATOM     53  N   UNL A   1      44.312  28.662  31.614  1.00  0.00    -0.354 N 
ATOM     54  N   UNL A   1      43.804  26.243  30.040  1.00  0.00    -0.248 NA
ATOM     55  C   UNL A   1      44.507  24.176  29.209  1.00  0.00     0.031 C 
ATOM     56  C   UNL A   1      46.235  28.818  32.718  1.00  0.00     0.029 A 
ATOM     57  C   UNL A   1      45.498  27.998  31.877  1.00  0.00     0.049 A 
ATOM     58  H   UNL A   1      43.591  28.323  31.037  1.00  0.00     0.167 HD
ATOM     59  C   UNL A   1      45.069  25.958  30.537  1.00  0.00     0.074 A 
ATOM     60  C   UNL A   1      45.441  24.658  30.016  1.00  0.00     0.031 C 
ATOM     61  C   UNL A   1      45.852  26.706  31.351  1.00  0.00     0.031 A 
BRANCH  48  62
ATOM     62  C   UNL A   1      43.370  32.133  32.947  1.00  0.00    -0.014 A 
ATOM     63  C   UNL A   1      43.949  33.250  32.324  1.00  0.00     0.009 A 
ATOM     64  C   UNL A   1      42.903  32.257  34.265  1.00  0.00     0.009 A 
ATOM     65  C   UNL A   1      44.090  34.453  33.018  1.00  0.00     0.001 A 
ATOM     66  C   UNL A   1      43.020  33.470  34.947  1.00  0.00     0.001 A 
ATOM     67  C   UNL A   1      43.622  34.564  34.327  1.00  0.00     0.000 A 
ENDBRANCH  48  62
BRANCH  49  68
ATOM     68  C   UNL A   1      42.017  23.722  27.751  1.00  0.00    -0.014 A 
ATOM     69  C   UNL A   1      42.410  23.663  26.406  1.00  0.00     0.009 A 
ATOM     70  C   UNL A   1      41.448  22.584  28.344  1.00  0.00     0.009 A 
ATOM     71  C   UNL A   1      42.215  22.497  25.662  1.00  0.00     0.001 A 
ATOM     72  C   UNL A   1      41.279  21.412  27.605  1.00  0.00     0.001 A 
ATOM     73  C   UNL A   1      41.654  21.371  26.262  1.00  0.00     0.000 A 
ENDBRANCH  49  68
BRANCH  61  74
ATOM     74  C   UNL A   1      47.174  26.120  31.757  1.00  0.00    -0.014 A 
ATOM     75  C   UNL A   1      47.313  25.387  32.946  1.00  0.00     0.009 A 
ATOM     76  C   UNL A   1      48.289  26.276  30.917  1.00  0.00     0.009 A 
ATOM     77  C   UNL A   1      48.550  24.846  33.298  1.00  0.00     0.001 A 
ATOM     78  C   UNL A   1      49.517  25.711  31.260  1.00  0.00     0.001 A 
ATOM     79  C   UNL A   1      49.649  25.005  32.454  1.00  0.00     0.000 A 
ENDBRANCH  61  74
ENDBRANCH  35  36
ENDBRANCH  27  30
ENDBRANCH  25  26
ENDBRANCH   1  25
TORSDOF 12
ENDMDL
