MODEL 1
REMARK VINA RESULT:     -12.0      0.000      0.000
REMARK SMILES CC[NH+]1CCN(c2ccc(NC(=O)C3CCCC3)c(C(=O)NCCCNC(=O)c3ccc(-c4c5nc(c(-c6ccccc6)c6ccc([nH]6)c(-c6ccccc6)c6nc(c(-c7ccccc7)c7ccc4[nH]7)C=C6)C=C5)cc3)c2)CC1
REMARK SMILES IDX 24 1 23 2 22 3 20 4 21 5 19 7 7 8 8 9 77 10 9 11 10 12 6 13
REMARK SMILES IDX 3 14 4 15 79 16 5 18 78 19 2 20 1 21 11 22 12 23 13 25 14 26
REMARK SMILES IDX 15 27 18 28 16 29 17 30 25 31 26 32 27 33 28 35 29 36 30 37
REMARK SMILES IDX 76 38 31 39 75 40 32 41 33 42 34 43 69 44 35 45 74 46 68 47
REMARK SMILES IDX 70 48 36 49 73 50 67 51 66 52 37 54 59 55 44 56 58 57 45 58
REMARK SMILES IDX 48 59 57 60 71 61 46 62 47 63 56 65 72 66 49 67 38 68 39 69
REMARK SMILES IDX 43 70 40 71 42 72 41 73 60 74 61 75 65 76 62 77 64 78 63 79
REMARK SMILES IDX 50 80 51 81 55 82 52 83 54 84 53 85
REMARK H PARENT 22 6 3 17 11 24 26 34 70 53 48 64
REMARK Flexibility Score: inf
ROOT
ATOM      1  C   UNL A   1      31.502  30.993  26.088  1.00  0.00     0.042 C 
ENDROOT
BRANCH   1   2
ATOM      2  C   UNL A   1      31.867  29.673  25.439  1.00  0.00     0.118 C 
BRANCH   2   3
ATOM      3  N   UNL A   1      33.060  29.686  24.594  1.00  0.00    -0.352 N 
ATOM      4  C   UNL A   1      33.599  28.741  23.734  1.00  0.00     0.253 C 
ATOM      5  O   UNL A   1      34.630  29.036  23.128  1.00  0.00    -0.269 OA
ATOM      6  H   UNL A   1      33.577  30.523  24.644  1.00  0.00     0.163 HD
BRANCH   4   7
ATOM      7  C   UNL A   1      33.035  27.363  23.590  1.00  0.00     0.065 A 
ATOM      8  C   UNL A   1      33.559  25.010  23.851  1.00  0.00     0.038 A 
ATOM      9  C   UNL A   1      32.594  24.723  22.907  1.00  0.00     0.028 A 
ATOM     10  C   UNL A   1      33.613  26.315  24.323  1.00  0.00     0.042 A 
ATOM     11  C   UNL A   1      31.814  25.734  22.365  1.00  0.00     0.029 A 
ATOM     12  C   UNL A   1      32.028  27.072  22.641  1.00  0.00     0.054 A 
BRANCH   8  13
ATOM     13  N   UNL A   1      34.548  24.103  24.146  1.00  0.00    -0.360 N 
ATOM     14  N   UNL A   1      37.004  22.551  24.490  1.00  0.00    -0.332 N 
ATOM     15  C   UNL A   1      36.474  22.870  23.156  1.00  0.00     0.283 C 
ATOM     16  C   UNL A   1      36.613  23.635  25.424  1.00  0.00     0.283 C 
ATOM     17  H   UNL A   1      38.016  22.499  24.376  1.00  0.00     0.348 HD
ATOM     18  C   UNL A   1      34.964  23.167  23.089  1.00  0.00     0.178 C 
ATOM     19  C   UNL A   1      35.092  23.912  25.488  1.00  0.00     0.178 C 
BRANCH  14  20
ATOM     20  C   UNL A   1      36.695  21.223  25.038  1.00  0.00     0.258 C 
ATOM     21  C   UNL A   1      37.709  20.090  24.885  1.00  0.00     0.071 C 
ENDBRANCH  14  20
ENDBRANCH   8  13
BRANCH  12  22
ATOM     22  N   UNL A   1      31.299  28.096  21.994  1.00  0.00    -0.325 N 
ATOM     23  C   UNL A   1      30.095  28.716  22.159  1.00  0.00     0.227 C 
ATOM     24  H   UNL A   1      31.789  28.457  21.221  1.00  0.00     0.169 HD
ATOM     25  O   UNL A   1      29.824  29.591  21.318  1.00  0.00    -0.274 OA
BRANCH  23  26
ATOM     26  C   UNL A   1      29.052  28.467  23.261  1.00  0.00     0.079 C 
ATOM     27  C   UNL A   1      27.687  29.118  23.050  1.00  0.00     0.013 C 
ATOM     28  C   UNL A   1      28.833  27.009  23.659  1.00  0.00     0.013 C 
ATOM     29  C   UNL A   1      26.638  28.139  23.573  1.00  0.00     0.001 C 
ATOM     30  C   UNL A   1      27.338  26.823  23.902  1.00  0.00     0.001 C 
ENDBRANCH  23  26
ENDBRANCH  12  22
ENDBRANCH   4   7
ENDBRANCH   2   3
ENDBRANCH   1   2
BRANCH   1  31
ATOM     31  C   UNL A   1      32.540  31.558  27.036  1.00  0.00     0.118 C 
BRANCH  31  32
ATOM     32  N   UNL A   1      32.324  32.965  27.356  1.00  0.00    -0.352 N 
ATOM     33  C   UNL A   1      33.044  33.839  28.133  1.00  0.00     0.251 C 
ATOM     34  H   UNL A   1      31.521  33.358  26.942  1.00  0.00     0.163 HD
ATOM     35  O   UNL A   1      32.565  34.943  28.402  1.00  0.00    -0.269 OA
BRANCH  33  36
ATOM     36  C   UNL A   1      34.368  33.468  28.678  1.00  0.00     0.039 A 
ATOM     37  C   UNL A   1      34.442  32.788  29.899  1.00  0.00     0.014 A 
ATOM     38  C   UNL A   1      35.543  33.801  28.006  1.00  0.00     0.014 A 
ATOM     39  C   UNL A   1      35.682  32.370  30.390  1.00  0.00     0.010 A 
ATOM     40  C   UNL A   1      36.758  33.274  28.427  1.00  0.00     0.010 A 
ATOM     41  C   UNL A   1      36.847  32.566  29.632  1.00  0.00    -0.014 A 
BRANCH  41  42
ATOM     42  C   UNL A   1      38.171  32.064  30.081  1.00  0.00     0.031 A 
ATOM     43  C   UNL A   1      38.690  30.746  29.569  1.00  0.00     0.074 A 
ATOM     44  C   UNL A   1      38.867  32.749  31.008  1.00  0.00     0.049 A 
ATOM     45  N   UNL A   1      39.774  30.096  29.908  1.00  0.00    -0.248 NA
ATOM     46  C   UNL A   1      37.864  30.048  28.568  1.00  0.00     0.031 C 
ATOM     47  C   UNL A   1      38.451  34.010  31.625  1.00  0.00     0.029 A 
ATOM     48  N   UNL A   1      40.073  32.473  31.603  1.00  0.00    -0.354 N 
ATOM     49  C   UNL A   1      39.745  28.911  29.183  1.00  0.00     0.074 A 
ATOM     50  C   UNL A   1      38.507  28.898  28.439  1.00  0.00     0.031 C 
ATOM     51  C   UNL A   1      39.400  34.416  32.483  1.00  0.00     0.029 A 
ATOM     52  C   UNL A   1      40.467  33.422  32.516  1.00  0.00     0.049 A 
ATOM     53  H   UNL A   1      40.605  31.672  31.395  1.00  0.00     0.167 HD
ATOM     54  C   UNL A   1      40.678  27.930  29.119  1.00  0.00     0.031 A 
ATOM     55  C   UNL A   1      41.561  33.481  33.299  1.00  0.00     0.031 A 
ATOM     56  C   UNL A   1      41.916  27.949  29.849  1.00  0.00     0.049 A 
ATOM     57  C   UNL A   1      42.578  32.378  33.217  1.00  0.00     0.074 A 
ATOM     58  C   UNL A   1      42.952  27.034  29.813  1.00  0.00     0.029 A 
ATOM     59  N   UNL A   1      42.284  28.938  30.749  1.00  0.00    -0.354 N 
ATOM     60  N   UNL A   1      42.568  31.297  32.475  1.00  0.00    -0.248 NA
ATOM     61  C   UNL A   1      43.766  32.510  34.071  1.00  0.00     0.031 C 
ATOM     62  C   UNL A   1      43.924  27.441  30.733  1.00  0.00     0.029 A 
ATOM     63  C   UNL A   1      43.522  28.643  31.293  1.00  0.00     0.049 A 
ATOM     64  H   UNL A   1      41.744  29.732  30.968  1.00  0.00     0.167 HD
ATOM     65  C   UNL A   1      43.756  30.635  32.752  1.00  0.00     0.074 A 
ATOM     66  C   UNL A   1      44.472  31.446  33.716  1.00  0.00     0.031 C 
ATOM     67  C   UNL A   1      44.216  29.461  32.254  1.00  0.00     0.031 A 
BRANCH  54  68
ATOM     68  C   UNL A   1      40.385  26.756  28.224  1.00  0.00    -0.014 A 
ATOM     69  C   UNL A   1      39.623  25.666  28.678  1.00  0.00     0.009 A 
ATOM     70  C   UNL A   1      40.861  26.745  26.904  1.00  0.00     0.009 A 
ATOM     71  C   UNL A   1      39.383  24.571  27.844  1.00  0.00     0.001 A 
ATOM     72  C   UNL A   1      40.590  25.665  26.061  1.00  0.00     0.001 A 
ATOM     73  C   UNL A   1      39.862  24.574  26.535  1.00  0.00     0.000 A 
ENDBRANCH  54  68
BRANCH  55  74
ATOM     74  C   UNL A   1      41.757  34.634  34.218  1.00  0.00    -0.014 A 
ATOM     75  C   UNL A   1      41.264  34.593  35.531  1.00  0.00     0.009 A 
ATOM     76  C   UNL A   1      42.443  35.781  33.788  1.00  0.00     0.009 A 
ATOM     77  C   UNL A   1      41.429  35.686  36.384  1.00  0.00     0.001 A 
ATOM     78  C   UNL A   1      42.634  36.860  34.654  1.00  0.00     0.001 A 
ATOM     79  C   UNL A   1      42.118  36.816  35.948  1.00  0.00     0.000 A 
ENDBRANCH  55  74
BRANCH  67  80
ATOM     80  C   UNL A   1      45.571  29.001  32.716  1.00  0.00    -0.014 A 
ATOM     81  C   UNL A   1      45.711  28.066  33.752  1.00  0.00     0.009 A 
ATOM     82  C   UNL A   1      46.722  29.483  32.072  1.00  0.00     0.009 A 
ATOM     83  C   UNL A   1      46.981  27.649  34.157  1.00  0.00     0.001 A 
ATOM     84  C   UNL A   1      47.987  29.041  32.458  1.00  0.00     0.001 A 
ATOM     85  C   UNL A   1      48.116  28.132  33.507  1.00  0.00     0.000 A 
ENDBRANCH  67  80
ENDBRANCH  41  42
ENDBRANCH  33  36
ENDBRANCH  31  32
ENDBRANCH   1  31
TORSDOF 14
ENDMDL
MODEL 2
REMARK VINA RESULT:     -12.0      3.593      9.003
REMARK SMILES CC[NH+]1CCN(c2ccc(NC(=O)C3CCCC3)c(C(=O)NCCCNC(=O)c3ccc(-c4c5nc(c(-c6ccccc6)c6ccc([nH]6)c(-c6ccccc6)c6nc(c(-c7ccccc7)c7ccc4[nH]7)C=C6)C=C5)cc3)c2)CC1
REMARK SMILES IDX 24 1 23 2 22 3 20 4 21 5 19 7 7 8 8 9 77 10 9 11 10 12 6 13
REMARK SMILES IDX 3 14 4 15 79 16 5 18 78 19 2 20 1 21 11 22 12 23 13 25 14 26
REMARK SMILES IDX 15 27 18 28 16 29 17 30 25 31 26 32 27 33 28 35 29 36 30 37
REMARK SMILES IDX 76 38 31 39 75 40 32 41 33 42 34 43 69 44 35 45 74 46 68 47
REMARK SMILES IDX 70 48 36 49 73 50 67 51 66 52 37 54 59 55 44 56 58 57 45 58
REMARK SMILES IDX 48 59 57 60 71 61 46 62 47 63 56 65 72 66 49 67 38 68 39 69
REMARK SMILES IDX 43 70 40 71 42 72 41 73 60 74 61 75 65 76 62 77 64 78 63 79
REMARK SMILES IDX 50 80 51 81 55 82 52 83 54 84 53 85
REMARK H PARENT 22 6 3 17 11 24 26 34 70 53 48 64
REMARK Flexibility Score: inf
ROOT
ATOM      1  C   UNL A   1      37.379  20.158  24.879  1.00  0.00     0.042 C 
ENDROOT
BRANCH   1   2
ATOM      2  C   UNL A   1      36.182  21.088  24.911  1.00  0.00     0.118 C 
BRANCH   2   3
ATOM      3  N   UNL A   1      35.857  21.664  26.214  1.00  0.00    -0.352 N 
ATOM      4  C   UNL A   1      34.751  22.365  26.669  1.00  0.00     0.253 C 
ATOM      5  O   UNL A   1      34.743  22.728  27.847  1.00  0.00    -0.269 OA
ATOM      6  H   UNL A   1      36.554  21.531  26.896  1.00  0.00     0.163 HD
BRANCH   4   7
ATOM      7  C   UNL A   1      33.625  22.773  25.772  1.00  0.00     0.065 A 
ATOM      8  C   UNL A   1      32.496  24.696  24.820  1.00  0.00     0.038 A 
ATOM      9  C   UNL A   1      31.355  23.927  24.702  1.00  0.00     0.028 A 
ATOM     10  C   UNL A   1      33.669  24.036  25.162  1.00  0.00     0.042 A 
ATOM     11  C   UNL A   1      31.370  22.585  25.048  1.00  0.00     0.029 A 
ATOM     12  C   UNL A   1      32.466  21.975  25.630  1.00  0.00     0.054 A 
BRANCH   8  13
ATOM     13  N   UNL A   1      32.425  26.068  24.807  1.00  0.00    -0.360 N 
ATOM     14  N   UNL A   1      32.805  28.955  24.523  1.00  0.00    -0.332 N 
ATOM     15  C   UNL A   1      33.726  28.130  25.319  1.00  0.00     0.283 C 
ATOM     16  C   UNL A   1      32.244  28.118  23.435  1.00  0.00     0.283 C 
ATOM     17  H   UNL A   1      33.372  29.719  24.156  1.00  0.00     0.348 HD
ATOM     18  C   UNL A   1      33.148  26.806  25.854  1.00  0.00     0.178 C 
ATOM     19  C   UNL A   1      31.548  26.821  23.914  1.00  0.00     0.178 C 
BRANCH  14  20
ATOM     20  C   UNL A   1      31.754  29.681  25.249  1.00  0.00     0.258 C 
ATOM     21  C   UNL A   1      32.013  30.154  26.677  1.00  0.00     0.071 C 
ENDBRANCH  14  20
ENDBRANCH   8  13
BRANCH  12  22
ATOM     22  N   UNL A   1      32.427  20.636  26.081  1.00  0.00    -0.325 N 
ATOM     23  C   UNL A   1      32.711  19.404  25.566  1.00  0.00     0.227 C 
ATOM     24  H   UNL A   1      32.113  20.576  27.011  1.00  0.00     0.169 HD
ATOM     25  O   UNL A   1      32.511  18.445  26.332  1.00  0.00    -0.274 OA
BRANCH  23  26
ATOM     26  C   UNL A   1      33.253  19.072  24.167  1.00  0.00     0.079 C 
ATOM     27  C   UNL A   1      34.079  17.793  24.055  1.00  0.00     0.013 C 
ATOM     28  C   UNL A   1      32.231  19.086  23.032  1.00  0.00     0.013 C 
ATOM     29  C   UNL A   1      33.742  17.157  22.708  1.00  0.00     0.001 C 
ATOM     30  C   UNL A   1      32.570  17.925  22.100  1.00  0.00     0.001 C 
ENDBRANCH  23  26
ENDBRANCH  12  22
ENDBRANCH   4   7
ENDBRANCH   2   3
ENDBRANCH   1   2
BRANCH   1  31
ATOM     31  C   UNL A   1      38.604  20.654  25.619  1.00  0.00     0.118 C 
BRANCH  31  32
ATOM     32  N   UNL A   1      39.673  19.665  25.694  1.00  0.00    -0.352 N 
ATOM     33  C   UNL A   1      40.995  19.783  26.047  1.00  0.00     0.251 C 
ATOM     34  H   UNL A   1      39.398  18.751  25.451  1.00  0.00     0.163 HD
ATOM     35  O   UNL A   1      41.756  18.831  25.863  1.00  0.00    -0.269 OA
BRANCH  33  36
ATOM     36  C   UNL A   1      41.528  21.042  26.613  1.00  0.00     0.039 A 
ATOM     37  C   UNL A   1      42.021  22.027  25.750  1.00  0.00     0.014 A 
ATOM     38  C   UNL A   1      41.563  21.254  27.990  1.00  0.00     0.014 A 
ATOM     39  C   UNL A   1      42.462  23.249  26.268  1.00  0.00     0.010 A 
ATOM     40  C   UNL A   1      41.878  22.511  28.492  1.00  0.00     0.010 A 
ATOM     41  C   UNL A   1      42.347  23.519  27.640  1.00  0.00    -0.014 A 
BRANCH  41  42
ATOM     42  C   UNL A   1      42.728  24.835  28.216  1.00  0.00     0.031 A 
ATOM     43  C   UNL A   1      41.683  25.901  28.414  1.00  0.00     0.074 A 
ATOM     44  C   UNL A   1      44.021  25.099  28.484  1.00  0.00     0.049 A 
ATOM     45  N   UNL A   1      41.830  27.138  28.816  1.00  0.00    -0.248 NA
ATOM     46  C   UNL A   1      40.293  25.542  28.084  1.00  0.00     0.031 C 
ATOM     47  C   UNL A   1      45.138  24.172  28.287  1.00  0.00     0.029 A 
ATOM     48  N   UNL A   1      44.618  26.235  28.973  1.00  0.00    -0.354 N 
ATOM     49  C   UNL A   1      40.562  27.705  28.763  1.00  0.00     0.074 A 
ATOM     50  C   UNL A   1      39.671  26.701  28.227  1.00  0.00     0.031 C 
ATOM     51  C   UNL A   1      46.277  24.763  28.682  1.00  0.00     0.029 A 
ATOM     52  C   UNL A   1      45.980  26.124  29.114  1.00  0.00     0.049 A 
ATOM     53  H   UNL A   1      44.117  27.051  29.200  1.00  0.00     0.167 HD
ATOM     54  C   UNL A   1      40.166  28.941  29.151  1.00  0.00     0.031 A 
ATOM     55  C   UNL A   1      46.891  27.022  29.536  1.00  0.00     0.031 A 
ATOM     56  C   UNL A   1      41.049  29.934  29.696  1.00  0.00     0.049 A 
ATOM     57  C   UNL A   1      46.430  28.390  29.953  1.00  0.00     0.074 A 
ATOM     58  C   UNL A   1      40.741  31.196  30.171  1.00  0.00     0.029 A 
ATOM     59  N   UNL A   1      42.420  29.775  29.839  1.00  0.00    -0.354 N 
ATOM     60  N   UNL A   1      45.216  28.886  29.962  1.00  0.00    -0.248 NA
ATOM     61  C   UNL A   1      47.463  29.317  30.434  1.00  0.00     0.031 C 
ATOM     62  C   UNL A   1      41.933  31.822  30.551  1.00  0.00     0.029 A 
ATOM     63  C   UNL A   1      42.974  30.925  30.373  1.00  0.00     0.049 A 
ATOM     64  H   UNL A   1      42.923  28.964  29.596  1.00  0.00     0.167 HD
ATOM     65  C   UNL A   1      45.336  30.172  30.471  1.00  0.00     0.074 A 
ATOM     66  C   UNL A   1      46.738  30.372  30.779  1.00  0.00     0.031 C 
ATOM     67  C   UNL A   1      44.373  31.106  30.668  1.00  0.00     0.031 A 
BRANCH  54  68
ATOM     68  C   UNL A   1      38.707  29.279  28.995  1.00  0.00    -0.014 A 
ATOM     69  C   UNL A   1      38.195  29.746  27.773  1.00  0.00     0.009 A 
ATOM     70  C   UNL A   1      37.830  29.113  30.077  1.00  0.00     0.009 A 
ATOM     71  C   UNL A   1      36.844  30.082  27.652  1.00  0.00     0.001 A 
ATOM     72  C   UNL A   1      36.473  29.416  29.943  1.00  0.00     0.001 A 
ATOM     73  C   UNL A   1      35.984  29.912  28.735  1.00  0.00     0.000 A 
ENDBRANCH  54  68
BRANCH  55  74
ATOM     74  C   UNL A   1      48.330  26.649  29.598  1.00  0.00    -0.014 A 
ATOM     75  C   UNL A   1      49.187  26.929  28.523  1.00  0.00     0.009 A 
ATOM     76  C   UNL A   1      48.855  26.015  30.735  1.00  0.00     0.009 A 
ATOM     77  C   UNL A   1      50.532  26.557  28.574  1.00  0.00     0.001 A 
ATOM     78  C   UNL A   1      50.207  25.673  30.796  1.00  0.00     0.001 A 
ATOM     79  C   UNL A   1      51.043  25.935  29.711  1.00  0.00     0.000 A 
ENDBRANCH  55  74
BRANCH  67  80
ATOM     80  C   UNL A   1      44.797  32.414  31.276  1.00  0.00    -0.014 A 
ATOM     81  C   UNL A   1      44.840  32.595  32.666  1.00  0.00     0.009 A 
ATOM     82  C   UNL A   1      45.202  33.466  30.438  1.00  0.00     0.009 A 
ATOM     83  C   UNL A   1      45.246  33.817  33.205  1.00  0.00     0.001 A 
ATOM     84  C   UNL A   1      45.638  34.675  30.980  1.00  0.00     0.001 A 
ATOM     85  C   UNL A   1      45.650  34.853  32.363  1.00  0.00     0.000 A 
ENDBRANCH  67  80
ENDBRANCH  41  42
ENDBRANCH  33  36
ENDBRANCH  31  32
ENDBRANCH   1  31
TORSDOF 14
ENDMDL
MODEL 3
REMARK VINA RESULT:     -11.8      3.464      8.273
REMARK SMILES CC[NH+]1CCN(c2ccc(NC(=O)C3CCCC3)c(C(=O)NCCCNC(=O)c3ccc(-c4c5nc(c(-c6ccccc6)c6ccc([nH]6)c(-c6ccccc6)c6nc(c(-c7ccccc7)c7ccc4[nH]7)C=C6)C=C5)cc3)c2)CC1
REMARK SMILES IDX 24 1 23 2 22 3 20 4 21 5 19 7 7 8 8 9 77 10 9 11 10 12 6 13
REMARK SMILES IDX 3 14 4 15 79 16 5 18 78 19 2 20 1 21 11 22 12 23 13 25 14 26
REMARK SMILES IDX 15 27 18 28 16 29 17 30 25 31 26 32 27 33 28 35 29 36 30 37
REMARK SMILES IDX 76 38 31 39 75 40 32 41 33 42 34 43 69 44 35 45 74 46 68 47
REMARK SMILES IDX 70 48 36 49 73 50 67 51 66 52 37 54 59 55 44 56 58 57 45 58
REMARK SMILES IDX 48 59 57 60 71 61 46 62 47 63 56 65 72 66 49 67 38 68 39 69
REMARK SMILES IDX 43 70 40 71 42 72 41 73 60 74 61 75 65 76 62 77 64 78 63 79
REMARK SMILES IDX 50 80 51 81 55 82 52 83 54 84 53 85
REMARK H PARENT 22 6 3 17 11 24 26 34 70 53 48 64
REMARK Flexibility Score: inf
ROOT
ATOM      1  C   UNL A   1      38.608  21.646  26.257  1.00  0.00     0.042 C 
ENDROOT
BRANCH   1   2
ATOM      2  C   UNL A   1      37.785  22.853  25.851  1.00  0.00     0.118 C 
BRANCH   2   3
ATOM      3  N   UNL A   1      37.562  23.019  24.416  1.00  0.00    -0.352 N 
ATOM      4  C   UNL A   1      36.415  22.942  23.641  1.00  0.00     0.253 C 
ATOM      5  O   UNL A   1      36.524  23.143  22.430  1.00  0.00    -0.269 OA
ATOM      6  H   UNL A   1      38.378  23.223  23.905  1.00  0.00     0.163 HD
BRANCH   4   7
ATOM      7  C   UNL A   1      35.086  22.538  24.198  1.00  0.00     0.065 A 
ATOM      8  C   UNL A   1      33.719  20.618  24.764  1.00  0.00     0.038 A 
ATOM      9  C   UNL A   1      32.598  21.407  24.597  1.00  0.00     0.028 A 
ATOM     10  C   UNL A   1      34.950  21.260  24.762  1.00  0.00     0.042 A 
ATOM     11  C   UNL A   1      32.723  22.756  24.305  1.00  0.00     0.029 A 
ATOM     12  C   UNL A   1      33.943  23.356  24.050  1.00  0.00     0.054 A 
BRANCH   8  13
ATOM     13  N   UNL A   1      33.628  19.248  24.720  1.00  0.00    -0.360 N 
ATOM     14  N   UNL A   1      33.185  16.423  24.100  1.00  0.00    -0.332 N 
ATOM     15  C   UNL A   1      32.068  17.374  24.203  1.00  0.00     0.283 C 
ATOM     16  C   UNL A   1      34.388  17.157  23.639  1.00  0.00     0.283 C 
ATOM     17  H   UNL A   1      32.885  15.724  23.420  1.00  0.00     0.348 HD
ATOM     18  C   UNL A   1      32.335  18.630  25.055  1.00  0.00     0.178 C 
ATOM     19  C   UNL A   1      34.778  18.370  24.517  1.00  0.00     0.178 C 
BRANCH  14  20
ATOM     20  C   UNL A   1      33.472  15.591  25.278  1.00  0.00     0.258 C 
ATOM     21  C   UNL A   1      32.487  14.498  25.686  1.00  0.00     0.071 C 
ENDBRANCH  14  20
ENDBRANCH   8  13
BRANCH  12  22
ATOM     22  N   UNL A   1      34.043  24.705  23.642  1.00  0.00    -0.325 N 
ATOM     23  C   UNL A   1      33.852  25.933  24.208  1.00  0.00     0.227 C 
ATOM     24  H   UNL A   1      34.326  24.780  22.703  1.00  0.00     0.169 HD
ATOM     25  O   UNL A   1      34.044  26.904  23.456  1.00  0.00    -0.274 OA
BRANCH  23  26
ATOM     26  C   UNL A   1      33.443  26.248  25.655  1.00  0.00     0.079 C 
ATOM     27  C   UNL A   1      33.930  27.582  26.214  1.00  0.00     0.013 C 
ATOM     28  C   UNL A   1      31.956  26.106  25.977  1.00  0.00     0.013 C 
ATOM     29  C   UNL A   1      32.815  28.132  27.101  1.00  0.00     0.001 C 
ATOM     30  C   UNL A   1      31.583  27.249  26.916  1.00  0.00     0.001 C 
ENDBRANCH  23  26
ENDBRANCH  12  22
ENDBRANCH   4   7
ENDBRANCH   2   3
ENDBRANCH   1   2
BRANCH   1  31
ATOM     31  C   UNL A   1      38.683  20.538  25.226  1.00  0.00     0.118 C 
BRANCH  31  32
ATOM     32  N   UNL A   1      39.730  19.560  25.506  1.00  0.00    -0.352 N 
ATOM     33  C   UNL A   1      40.997  19.709  26.013  1.00  0.00     0.251 C 
ATOM     34  H   UNL A   1      39.484  18.631  25.295  1.00  0.00     0.163 HD
ATOM     35  O   UNL A   1      41.771  18.750  25.995  1.00  0.00    -0.269 OA
BRANCH  33  36
ATOM     36  C   UNL A   1      41.460  21.006  26.553  1.00  0.00     0.039 A 
ATOM     37  C   UNL A   1      42.000  21.958  25.681  1.00  0.00     0.014 A 
ATOM     38  C   UNL A   1      41.384  21.289  27.916  1.00  0.00     0.014 A 
ATOM     39  C   UNL A   1      42.375  23.214  26.166  1.00  0.00     0.010 A 
ATOM     40  C   UNL A   1      41.634  22.577  28.374  1.00  0.00     0.010 A 
ATOM     41  C   UNL A   1      42.148  23.551  27.509  1.00  0.00    -0.014 A 
BRANCH  41  42
ATOM     42  C   UNL A   1      42.458  24.902  28.044  1.00  0.00     0.031 A 
ATOM     43  C   UNL A   1      43.858  25.231  28.493  1.00  0.00     0.074 A 
ATOM     44  C   UNL A   1      41.470  25.803  28.203  1.00  0.00     0.049 A 
ATOM     45  N   UNL A   1      44.308  26.317  29.069  1.00  0.00    -0.248 NA
ATOM     46  C   UNL A   1      44.882  24.189  28.302  1.00  0.00     0.031 C 
ATOM     47  C   UNL A   1      40.062  25.591  27.859  1.00  0.00     0.029 A 
ATOM     48  N   UNL A   1      41.497  27.080  28.707  1.00  0.00    -0.354 N 
ATOM     49  C   UNL A   1      45.652  26.077  29.327  1.00  0.00     0.074 A 
ATOM     50  C   UNL A   1      45.930  24.723  28.909  1.00  0.00     0.031 C 
ATOM     51  C   UNL A   1      39.369  26.708  28.128  1.00  0.00     0.029 A 
ATOM     52  C   UNL A   1      40.270  27.697  28.709  1.00  0.00     0.049 A 
ATOM     53  H   UNL A   1      42.319  27.511  29.035  1.00  0.00     0.167 HD
ATOM     54  C   UNL A   1      46.583  26.917  29.840  1.00  0.00     0.031 A 
ATOM     55  C   UNL A   1      39.908  28.921  29.139  1.00  0.00     0.031 A 
ATOM     56  C   UNL A   1      46.310  28.269  30.244  1.00  0.00     0.049 A 
ATOM     57  C   UNL A   1      40.956  29.833  29.713  1.00  0.00     0.074 A 
ATOM     58  C   UNL A   1      47.191  29.221  30.725  1.00  0.00     0.029 A 
ATOM     59  N   UNL A   1      45.056  28.862  30.213  1.00  0.00    -0.354 N 
ATOM     60  N   UNL A   1      42.237  29.615  29.887  1.00  0.00    -0.248 NA
ATOM     61  C   UNL A   1      40.509  31.167  30.138  1.00  0.00     0.031 C 
ATOM     62  C   UNL A   1      46.461  30.373  31.037  1.00  0.00     0.029 A 
ATOM     63  C   UNL A   1      45.137  30.159  30.689  1.00  0.00     0.049 A 
ATOM     64  H   UNL A   1      44.232  28.424  29.900  1.00  0.00     0.167 HD
ATOM     65  C   UNL A   1      42.754  30.790  30.415  1.00  0.00     0.074 A 
ATOM     66  C   UNL A   1      41.651  31.725  30.515  1.00  0.00     0.031 C 
ATOM     67  C   UNL A   1      44.028  31.073  30.784  1.00  0.00     0.031 A 
BRANCH  54  68
ATOM     68  C   UNL A   1      47.984  26.387  29.992  1.00  0.00    -0.014 A 
ATOM     69  C   UNL A   1      48.914  26.479  28.943  1.00  0.00     0.009 A 
ATOM     70  C   UNL A   1      48.385  25.803  31.203  1.00  0.00     0.009 A 
ATOM     71  C   UNL A   1      50.203  25.957  29.090  1.00  0.00     0.001 A 
ATOM     72  C   UNL A   1      49.684  25.314  31.359  1.00  0.00     0.001 A 
ATOM     73  C   UNL A   1      50.587  25.380  30.298  1.00  0.00     0.000 A 
ENDBRANCH  54  68
BRANCH  55  74
ATOM     74  C   UNL A   1      38.491  29.360  29.030  1.00  0.00    -0.014 A 
ATOM     75  C   UNL A   1      37.635  29.291  30.139  1.00  0.00     0.009 A 
ATOM     76  C   UNL A   1      37.988  29.853  27.816  1.00  0.00     0.009 A 
ATOM     77  C   UNL A   1      36.298  29.681  30.028  1.00  0.00     0.001 A 
ATOM     78  C   UNL A   1      36.659  30.272  27.715  1.00  0.00     0.001 A 
ATOM     79  C   UNL A   1      35.813  30.177  28.819  1.00  0.00     0.000 A 
ENDBRANCH  55  74
BRANCH  67  80
ATOM     80  C   UNL A   1      44.303  32.458  31.297  1.00  0.00    -0.014 A 
ATOM     81  C   UNL A   1      44.241  32.757  32.667  1.00  0.00     0.009 A 
ATOM     82  C   UNL A   1      44.673  33.469  30.395  1.00  0.00     0.009 A 
ATOM     83  C   UNL A   1      44.509  34.051  33.119  1.00  0.00     0.001 A 
ATOM     84  C   UNL A   1      44.972  34.753  30.853  1.00  0.00     0.001 A 
ATOM     85  C   UNL A   1      44.880  35.045  32.213  1.00  0.00     0.000 A 
ENDBRANCH  67  80
ENDBRANCH  41  42
ENDBRANCH  33  36
ENDBRANCH  31  32
ENDBRANCH   1  31
TORSDOF 14
ENDMDL
