MODEL 1
REMARK VINA RESULT:     -12.0      0.000      0.000
REMARK SMILES O=C(NCCCNC(=O)c1ccc(-c2c3nc(c(-c4ccccc4)c4ccc([nH]4)c(-c4ccccc4)c4nc(c(-c5ccccc5)c5ccc2[nH]5)C=C4)C=C3)cc1)C1=Cc2cc(OC(F)(F)F)ccc2O[C@@H]1C(F)(F)F
REMARK SMILES IDX 5 1 4 2 3 3 1 4 2 5 58 7 59 8 72 9 60 10 71 11 61 12 70 13
REMARK SMILES IDX 62 14 69 15 68 16 73 17 74 18 75 19 76 20 63 21 64 22 65 23
REMARK SMILES IDX 66 24 67 25 6 26 7 27 8 28 9 30 10 31 11 32 57 33 12 34
REMARK SMILES IDX 56 35 13 36 14 37 15 38 50 39 16 40 55 41 49 42 51 43 17 44
REMARK SMILES IDX 54 45 48 46 47 47 18 49 40 50 25 51 39 52 26 53 29 54 38 55
REMARK SMILES IDX 52 56 27 57 28 58 37 60 53 61 30 62 19 63 20 64 24 65 21 66
REMARK SMILES IDX 23 67 22 68 41 69 42 70 46 71 43 72 45 73 44 74 31 75 32 76
REMARK SMILES IDX 36 77 33 78 35 79 34 80
REMARK H PARENT 3 6 7 29 51 48 29 59
REMARK Flexibility Score: inf
ROOT
ATOM      1  C   UNL A   1      32.880  28.503  25.983  1.00  0.00     0.042 C 
ENDROOT
BRANCH   1   2
ATOM      2  C   UNL A   1      31.397  28.275  26.255  1.00  0.00     0.118 C 
BRANCH   2   3
ATOM      3  N   UNL A   1      31.121  26.985  26.891  1.00  0.00    -0.352 N 
ATOM      4  O   UNL A   1      30.807  24.742  27.001  1.00  0.00    -0.270 OA
ATOM      5  C   UNL A   1      30.817  25.766  26.334  1.00  0.00     0.251 C 
ATOM      6  H   UNL A   1      31.160  26.992  27.874  1.00  0.00     0.163 HD
BRANCH   5   7
ATOM      7  C   UNL A   1      30.558  25.743  24.884  1.00  0.00     0.067 C 
ATOM      8  C   UNL A   1      29.415  26.306  24.472  1.00  0.00     0.025 C 
ATOM      9  C   UNL A   1      31.726  25.494  23.982  1.00  0.00     0.314 C 
ATOM     10  C   UNL A   1      29.606  27.232  23.352  1.00  0.00     0.021 A 
ATOM     11  O   UNL A   1      31.953  26.585  23.054  1.00  0.00    -0.475 OA
ATOM     12  C   UNL A   1      28.624  28.207  23.149  1.00  0.00     0.058 A 
ATOM     13  C   UNL A   1      30.889  27.419  22.813  1.00  0.00     0.128 A 
ATOM     14  C   UNL A   1      28.950  29.426  22.544  1.00  0.00     0.130 A 
ATOM     15  C   UNL A   1      31.201  28.611  22.166  1.00  0.00     0.051 A 
ATOM     16  C   UNL A   1      30.247  29.629  22.070  1.00  0.00     0.050 A 
BRANCH   9  17
ATOM     17  C   UNL A   1      31.578  24.159  23.235  1.00  0.00     0.429 C 
ATOM     18  F   UNL A   1      32.294  24.166  22.083  1.00  0.00    -0.167 F 
ATOM     19  F   UNL A   1      32.031  23.117  23.970  1.00  0.00    -0.167 F 
ATOM     20  F   UNL A   1      30.292  23.893  22.905  1.00  0.00    -0.167 F 
ENDBRANCH   9  17
BRANCH  14  21
ATOM     21  O   UNL A   1      27.926  30.327  22.529  1.00  0.00    -0.406 OA
BRANCH  21  22
ATOM     22  C   UNL A   1      27.997  31.425  23.424  1.00  0.00     0.573 C 
ATOM     23  F   UNL A   1      26.899  31.478  24.208  1.00  0.00    -0.132 F 
ATOM     24  F   UNL A   1      29.105  31.364  24.190  1.00  0.00    -0.132 F 
ATOM     25  F   UNL A   1      28.052  32.563  22.699  1.00  0.00    -0.132 F 
ENDBRANCH  21  22
ENDBRANCH  14  21
ENDBRANCH   5   7
ENDBRANCH   2   3
ENDBRANCH   1   2
BRANCH   1  26
ATOM     26  C   UNL A   1      33.690  28.652  27.264  1.00  0.00     0.118 C 
BRANCH  26  27
ATOM     27  N   UNL A   1      33.723  30.007  27.804  1.00  0.00    -0.352 N 
ATOM     28  C   UNL A   1      34.765  30.700  28.382  1.00  0.00     0.251 C 
ATOM     29  H   UNL A   1      32.873  30.501  27.746  1.00  0.00     0.163 HD
ATOM     30  O   UNL A   1      34.570  31.830  28.829  1.00  0.00    -0.269 OA
BRANCH  28  31
ATOM     31  C   UNL A   1      36.105  30.081  28.507  1.00  0.00     0.039 A 
ATOM     32  C   UNL A   1      37.013  30.195  27.449  1.00  0.00     0.014 A 
ATOM     33  C   UNL A   1      36.488  29.415  29.671  1.00  0.00     0.014 A 
ATOM     34  C   UNL A   1      38.320  29.720  27.598  1.00  0.00     0.010 A 
ATOM     35  C   UNL A   1      37.818  29.069  29.868  1.00  0.00     0.010 A 
ATOM     36  C   UNL A   1      38.749  29.197  28.828  1.00  0.00    -0.014 A 
BRANCH  36  37
ATOM     37  C   UNL A   1      40.149  28.748  29.051  1.00  0.00     0.031 A 
ATOM     38  C   UNL A   1      41.154  29.695  29.659  1.00  0.00     0.074 A 
ATOM     39  C   UNL A   1      40.543  27.531  28.628  1.00  0.00     0.049 A 
ATOM     40  N   UNL A   1      42.439  29.533  29.842  1.00  0.00    -0.248 NA
ATOM     41  C   UNL A   1      40.656  31.019  30.069  1.00  0.00     0.031 C 
ATOM     42  C   UNL A   1      39.693  26.544  27.956  1.00  0.00     0.029 A 
ATOM     43  N   UNL A   1      41.769  26.916  28.698  1.00  0.00    -0.354 N 
ATOM     44  C   UNL A   1      42.904  30.745  30.340  1.00  0.00     0.074 A 
ATOM     45  C   UNL A   1      41.779  31.652  30.367  1.00  0.00     0.031 C 
ATOM     46  C   UNL A   1      40.411  25.434  27.717  1.00  0.00     0.029 A 
ATOM     47  C   UNL A   1      41.777  25.643  28.180  1.00  0.00     0.049 A 
ATOM     48  H   UNL A   1      42.566  27.346  29.082  1.00  0.00     0.167 HD
ATOM     49  C   UNL A   1      44.146  31.070  30.769  1.00  0.00     0.031 A 
ATOM     50  C   UNL A   1      42.775  24.743  28.092  1.00  0.00     0.031 A 
ATOM     51  C   UNL A   1      45.250  30.150  30.795  1.00  0.00     0.049 A 
ATOM     52  C   UNL A   1      44.132  25.102  28.630  1.00  0.00     0.074 A 
ATOM     53  C   UNL A   1      46.525  30.347  31.295  1.00  0.00     0.029 A 
ATOM     54  N   UNL A   1      45.201  28.852  30.312  1.00  0.00    -0.354 N 
ATOM     55  N   UNL A   1      44.534  26.226  29.172  1.00  0.00    -0.248 NA
ATOM     56  C   UNL A   1      45.166  24.060  28.563  1.00  0.00     0.031 C 
ATOM     57  C   UNL A   1      47.261  29.177  31.076  1.00  0.00     0.029 A 
ATOM     58  C   UNL A   1      46.428  28.238  30.488  1.00  0.00     0.049 A 
ATOM     59  H   UNL A   1      44.410  28.431  29.903  1.00  0.00     0.167 HD
ATOM     60  C   UNL A   1      45.859  26.019  29.533  1.00  0.00     0.074 A 
ATOM     61  C   UNL A   1      46.185  24.657  29.166  1.00  0.00     0.031 C 
ATOM     62  C   UNL A   1      46.729  26.880  30.115  1.00  0.00     0.031 A 
BRANCH  49  63
ATOM     63  C   UNL A   1      44.365  32.477  31.252  1.00  0.00    -0.014 A 
ATOM     64  C   UNL A   1      44.173  32.827  32.599  1.00  0.00     0.009 A 
ATOM     65  C   UNL A   1      44.779  33.470  30.349  1.00  0.00     0.009 A 
ATOM     66  C   UNL A   1      44.340  34.148  33.020  1.00  0.00     0.001 A 
ATOM     67  C   UNL A   1      44.977  34.783  30.781  1.00  0.00     0.001 A 
ATOM     68  C   UNL A   1      44.745  35.124  32.112  1.00  0.00     0.000 A 
ENDBRANCH  49  63
BRANCH  50  69
ATOM     69  C   UNL A   1      42.517  23.400  27.510  1.00  0.00    -0.014 A 
ATOM     70  C   UNL A   1      42.827  23.139  26.165  1.00  0.00     0.009 A 
ATOM     71  C   UNL A   1      41.967  22.371  28.288  1.00  0.00     0.009 A 
ATOM     72  C   UNL A   1      42.567  21.884  25.607  1.00  0.00     0.001 A 
ATOM     73  C   UNL A   1      41.735  21.109  27.736  1.00  0.00     0.001 A 
ATOM     74  C   UNL A   1      42.025  20.870  26.394  1.00  0.00     0.000 A 
ENDBRANCH  50  69
BRANCH  62  75
ATOM     75  C   UNL A   1      48.104  26.361  30.422  1.00  0.00    -0.014 A 
ATOM     76  C   UNL A   1      49.142  26.449  29.483  1.00  0.00     0.009 A 
ATOM     77  C   UNL A   1      48.370  25.811  31.686  1.00  0.00     0.009 A 
ATOM     78  C   UNL A   1      50.414  25.963  29.793  1.00  0.00     0.001 A 
ATOM     79  C   UNL A   1      49.650  25.353  32.002  1.00  0.00     0.001 A 
ATOM     80  C   UNL A   1      50.668  25.421  31.052  1.00  0.00     0.000 A 
ENDBRANCH  62  75
ENDBRANCH  36  37
ENDBRANCH  28  31
ENDBRANCH  26  27
ENDBRANCH   1  26
TORSDOF 13
ENDMDL
MODEL 2
REMARK VINA RESULT:     -11.9      2.051      4.417
REMARK SMILES O=C(NCCCNC(=O)c1ccc(-c2c3nc(c(-c4ccccc4)c4ccc([nH]4)c(-c4ccccc4)c4nc(c(-c5ccccc5)c5ccc2[nH]5)C=C4)C=C3)cc1)C1=Cc2cc(OC(F)(F)F)ccc2O[C@@H]1C(F)(F)F
REMARK SMILES IDX 5 1 4 2 3 3 1 4 2 5 58 7 59 8 72 9 60 10 71 11 61 12 70 13
REMARK SMILES IDX 62 14 69 15 68 16 73 17 74 18 75 19 76 20 63 21 64 22 65 23
REMARK SMILES IDX 66 24 67 25 6 26 7 27 8 28 9 30 10 31 11 32 57 33 12 34
REMARK SMILES IDX 56 35 13 36 14 37 15 38 50 39 16 40 55 41 49 42 51 43 17 44
REMARK SMILES IDX 54 45 48 46 47 47 18 49 40 50 25 51 39 52 26 53 29 54 38 55
REMARK SMILES IDX 52 56 27 57 28 58 37 60 53 61 30 62 19 63 20 64 24 65 21 66
REMARK SMILES IDX 23 67 22 68 41 69 42 70 46 71 43 72 45 73 44 74 31 75 32 76
REMARK SMILES IDX 36 77 33 78 35 79 34 80
REMARK H PARENT 3 6 7 29 51 48 29 59
REMARK Flexibility Score: inf
ROOT
ATOM      1  C   UNL A   1      33.304  29.375  25.559  1.00  0.00     0.042 C 
ENDROOT
BRANCH   1   2
ATOM      2  C   UNL A   1      31.939  28.864  25.109  1.00  0.00     0.118 C 
BRANCH   2   3
ATOM      3  N   UNL A   1      31.428  27.778  25.947  1.00  0.00    -0.352 N 
ATOM      4  O   UNL A   1      31.346  25.691  26.831  1.00  0.00    -0.270 OA
ATOM      5  C   UNL A   1      31.715  26.434  25.933  1.00  0.00     0.251 C 
ATOM      6  H   UNL A   1      30.774  28.054  26.629  1.00  0.00     0.163 HD
BRANCH   5   7
ATOM      7  C   UNL A   1      32.534  25.941  24.814  1.00  0.00     0.067 C 
ATOM      8  C   UNL A   1      33.811  25.649  25.091  1.00  0.00     0.025 C 
ATOM      9  C   UNL A   1      31.812  25.417  23.612  1.00  0.00     0.314 C 
ATOM     10  C   UNL A   1      34.221  24.336  24.582  1.00  0.00     0.021 A 
ATOM     11  O   UNL A   1      32.133  24.031  23.333  1.00  0.00    -0.475 OA
ATOM     12  C   UNL A   1      35.323  23.726  25.189  1.00  0.00     0.058 A 
ATOM     13  C   UNL A   1      33.305  23.552  23.862  1.00  0.00     0.128 A 
ATOM     14  C   UNL A   1      35.441  22.333  25.208  1.00  0.00     0.130 A 
ATOM     15  C   UNL A   1      33.450  22.167  23.837  1.00  0.00     0.051 A 
ATOM     16  C   UNL A   1      34.490  21.556  24.544  1.00  0.00     0.050 A 
BRANCH   9  17
ATOM     17  C   UNL A   1      32.067  26.299  22.380  1.00  0.00     0.429 C 
ATOM     18  F   UNL A   1      33.155  27.086  22.563  1.00  0.00    -0.167 F 
ATOM     19  F   UNL A   1      32.302  25.560  21.271  1.00  0.00    -0.167 F 
ATOM     20  F   UNL A   1      31.023  27.117  22.107  1.00  0.00    -0.167 F 
ENDBRANCH   9  17
BRANCH  14  21
ATOM     21  O   UNL A   1      36.496  21.877  25.944  1.00  0.00    -0.406 OA
BRANCH  21  22
ATOM     22  C   UNL A   1      37.771  21.846  25.324  1.00  0.00     0.573 C 
ATOM     23  F   UNL A   1      38.588  22.778  25.859  1.00  0.00    -0.132 F 
ATOM     24  F   UNL A   1      38.339  20.627  25.426  1.00  0.00    -0.132 F 
ATOM     25  F   UNL A   1      37.615  22.127  24.012  1.00  0.00    -0.132 F 
ENDBRANCH  21  22
ENDBRANCH  14  21
ENDBRANCH   5   7
ENDBRANCH   2   3
ENDBRANCH   1   2
BRANCH   1  26
ATOM     26  C   UNL A   1      33.522  29.207  27.057  1.00  0.00     0.118 C 
BRANCH  26  27
ATOM     27  N   UNL A   1      33.553  30.458  27.808  1.00  0.00    -0.352 N 
ATOM     28  C   UNL A   1      34.573  31.018  28.546  1.00  0.00     0.251 C 
ATOM     29  H   UNL A   1      32.718  30.980  27.783  1.00  0.00     0.163 HD
ATOM     30  O   UNL A   1      34.376  32.068  29.156  1.00  0.00    -0.269 OA
BRANCH  28  31
ATOM     31  C   UNL A   1      35.890  30.346  28.644  1.00  0.00     0.039 A 
ATOM     32  C   UNL A   1      36.762  30.387  27.550  1.00  0.00     0.014 A 
ATOM     33  C   UNL A   1      36.287  29.703  29.816  1.00  0.00     0.014 A 
ATOM     34  C   UNL A   1      38.053  29.861  27.668  1.00  0.00     0.010 A 
ATOM     35  C   UNL A   1      37.609  29.306  29.976  1.00  0.00     0.010 A 
ATOM     36  C   UNL A   1      38.505  29.361  28.900  1.00  0.00    -0.014 A 
BRANCH  36  37
ATOM     37  C   UNL A   1      39.892  28.859  29.088  1.00  0.00     0.031 A 
ATOM     38  C   UNL A   1      40.951  29.773  29.652  1.00  0.00     0.074 A 
ATOM     39  C   UNL A   1      40.224  27.622  28.671  1.00  0.00     0.049 A 
ATOM     40  N   UNL A   1      42.234  29.563  29.798  1.00  0.00    -0.248 NA
ATOM     41  C   UNL A   1      40.519  31.122  30.057  1.00  0.00     0.031 C 
ATOM     42  C   UNL A   1      39.317  26.660  28.039  1.00  0.00     0.029 A 
ATOM     43  N   UNL A   1      41.427  26.960  28.713  1.00  0.00    -0.354 N 
ATOM     44  C   UNL A   1      42.761  30.762  30.264  1.00  0.00     0.074 A 
ATOM     45  C   UNL A   1      41.675  31.714  30.312  1.00  0.00     0.031 C 
ATOM     46  C   UNL A   1      39.983  25.520  27.795  1.00  0.00     0.029 A 
ATOM     47  C   UNL A   1      41.370  25.681  28.213  1.00  0.00     0.049 A 
ATOM     48  H   UNL A   1      42.252  27.363  29.067  1.00  0.00     0.167 HD
ATOM     49  C   UNL A   1      44.028  31.043  30.651  1.00  0.00     0.031 A 
ATOM     50  C   UNL A   1      42.328  24.740  28.110  1.00  0.00     0.031 A 
ATOM     51  C   UNL A   1      45.095  30.081  30.658  1.00  0.00     0.049 A 
ATOM     52  C   UNL A   1      43.714  25.052  28.602  1.00  0.00     0.074 A 
ATOM     53  C   UNL A   1      46.391  30.233  31.117  1.00  0.00     0.029 A 
ATOM     54  N   UNL A   1      44.980  28.780  30.196  1.00  0.00    -0.354 N 
ATOM     55  N   UNL A   1      44.176  26.167  29.115  1.00  0.00    -0.248 NA
ATOM     56  C   UNL A   1      44.704  23.970  28.519  1.00  0.00     0.031 C 
ATOM     57  C   UNL A   1      47.073  29.032  30.894  1.00  0.00     0.029 A 
ATOM     58  C   UNL A   1      46.187  28.119  30.344  1.00  0.00     0.049 A 
ATOM     59  H   UNL A   1      44.161  28.384  29.817  1.00  0.00     0.167 HD
ATOM     60  C   UNL A   1      45.503  25.913  29.439  1.00  0.00     0.074 A 
ATOM     61  C   UNL A   1      45.763  24.533  29.082  1.00  0.00     0.031 C 
ATOM     62  C   UNL A   1      46.423  26.746  29.983  1.00  0.00     0.031 A 
BRANCH  49  63
ATOM     63  C   UNL A   1      44.316  32.447  31.107  1.00  0.00    -0.014 A 
ATOM     64  C   UNL A   1      44.730  33.440  30.203  1.00  0.00     0.009 A 
ATOM     65  C   UNL A   1      44.163  32.789  32.460  1.00  0.00     0.009 A 
ATOM     66  C   UNL A   1      45.034  34.727  30.652  1.00  0.00     0.001 A 
ATOM     67  C   UNL A   1      44.434  34.086  32.900  1.00  0.00     0.001 A 
ATOM     68  C   UNL A   1      44.882  35.050  31.999  1.00  0.00     0.000 A 
ENDBRANCH  49  63
BRANCH  50  69
ATOM     69  C   UNL A   1      42.000  23.401  27.555  1.00  0.00    -0.014 A 
ATOM     70  C   UNL A   1      41.507  22.388  28.392  1.00  0.00     0.009 A 
ATOM     71  C   UNL A   1      42.173  23.125  26.190  1.00  0.00     0.009 A 
ATOM     72  C   UNL A   1      41.217  21.121  27.880  1.00  0.00     0.001 A 
ATOM     73  C   UNL A   1      41.856  21.866  25.675  1.00  0.00     0.001 A 
ATOM     74  C   UNL A   1      41.388  20.863  26.521  1.00  0.00     0.000 A 
ENDBRANCH  50  69
BRANCH  62  75
ATOM     75  C   UNL A   1      47.785  26.176  30.256  1.00  0.00    -0.014 A 
ATOM     76  C   UNL A   1      48.180  25.821  31.554  1.00  0.00     0.009 A 
ATOM     77  C   UNL A   1      48.670  25.956  29.188  1.00  0.00     0.009 A 
ATOM     78  C   UNL A   1      49.450  25.289  31.782  1.00  0.00     0.001 A 
ATOM     79  C   UNL A   1      49.928  25.396  29.416  1.00  0.00     0.001 A 
ATOM     80  C   UNL A   1      50.320  25.072  30.714  1.00  0.00     0.000 A 
ENDBRANCH  62  75
ENDBRANCH  36  37
ENDBRANCH  28  31
ENDBRANCH  26  27
ENDBRANCH   1  26
TORSDOF 13
ENDMDL
MODEL 3
REMARK VINA RESULT:     -11.9      2.791      7.388
REMARK SMILES O=C(NCCCNC(=O)c1ccc(-c2c3nc(c(-c4ccccc4)c4ccc([nH]4)c(-c4ccccc4)c4nc(c(-c5ccccc5)c5ccc2[nH]5)C=C4)C=C3)cc1)C1=Cc2cc(OC(F)(F)F)ccc2O[C@@H]1C(F)(F)F
REMARK SMILES IDX 5 1 4 2 3 3 1 4 2 5 58 7 59 8 72 9 60 10 71 11 61 12 70 13
REMARK SMILES IDX 62 14 69 15 68 16 73 17 74 18 75 19 76 20 63 21 64 22 65 23
REMARK SMILES IDX 66 24 67 25 6 26 7 27 8 28 9 30 10 31 11 32 57 33 12 34
REMARK SMILES IDX 56 35 13 36 14 37 15 38 50 39 16 40 55 41 49 42 51 43 17 44
REMARK SMILES IDX 54 45 48 46 47 47 18 49 40 50 25 51 39 52 26 53 29 54 38 55
REMARK SMILES IDX 52 56 27 57 28 58 37 60 53 61 30 62 19 63 20 64 24 65 21 66
REMARK SMILES IDX 23 67 22 68 41 69 42 70 46 71 43 72 45 73 44 74 31 75 32 76
REMARK SMILES IDX 36 77 33 78 35 79 34 80
REMARK H PARENT 3 6 7 29 51 48 29 59
REMARK Flexibility Score: inf
ROOT
ATOM      1  C   UNL A   1      37.571  19.901  24.950  1.00  0.00     0.042 C 
ENDROOT
BRANCH   1   2
ATOM      2  C   UNL A   1      36.395  20.853  25.138  1.00  0.00     0.118 C 
BRANCH   2   3
ATOM      3  N   UNL A   1      36.341  21.907  24.123  1.00  0.00    -0.352 N 
ATOM      4  O   UNL A   1      35.485  23.691  23.015  1.00  0.00    -0.270 OA
ATOM      5  C   UNL A   1      35.306  22.729  23.749  1.00  0.00     0.251 C 
ATOM      6  H   UNL A   1      37.181  22.049  23.629  1.00  0.00     0.163 HD
BRANCH   5   7
ATOM      7  C   UNL A   1      33.981  22.431  24.316  1.00  0.00     0.067 C 
ATOM      8  C   UNL A   1      33.675  23.035  25.471  1.00  0.00     0.025 C 
ATOM      9  C   UNL A   1      32.955  21.847  23.396  1.00  0.00     0.314 C 
ATOM     10  C   UNL A   1      32.353  23.668  25.453  1.00  0.00     0.021 A 
ATOM     11  O   UNL A   1      31.771  22.676  23.287  1.00  0.00    -0.475 OA
ATOM     12  C   UNL A   1      32.119  24.696  26.373  1.00  0.00     0.058 A 
ATOM     13  C   UNL A   1      31.550  23.570  24.306  1.00  0.00     0.128 A 
ATOM     14  C   UNL A   1      31.194  25.705  26.087  1.00  0.00     0.130 A 
ATOM     15  C   UNL A   1      30.592  24.546  24.045  1.00  0.00     0.051 A 
ATOM     16  C   UNL A   1      30.444  25.634  24.912  1.00  0.00     0.050 A 
BRANCH   9  17
ATOM     17  C   UNL A   1      32.586  20.414  23.811  1.00  0.00     0.429 C 
ATOM     18  F   UNL A   1      31.977  19.756  22.794  1.00  0.00    -0.167 F 
ATOM     19  F   UNL A   1      33.679  19.689  24.145  1.00  0.00    -0.167 F 
ATOM     20  F   UNL A   1      31.743  20.385  24.869  1.00  0.00    -0.167 F 
ENDBRANCH   9  17
BRANCH  14  21
ATOM     21  O   UNL A   1      31.164  26.707  27.013  1.00  0.00    -0.406 OA
BRANCH  21  22
ATOM     22  C   UNL A   1      31.937  27.868  26.757  1.00  0.00     0.573 C 
ATOM     23  F   UNL A   1      32.073  28.072  25.430  1.00  0.00    -0.132 F 
ATOM     24  F   UNL A   1      31.393  28.958  27.335  1.00  0.00    -0.132 F 
ATOM     25  F   UNL A   1      33.168  27.685  27.283  1.00  0.00    -0.132 F 
ENDBRANCH  21  22
ENDBRANCH  14  21
ENDBRANCH   5   7
ENDBRANCH   2   3
ENDBRANCH   1   2
BRANCH   1  26
ATOM     26  C   UNL A   1      38.827  20.380  25.666  1.00  0.00     0.118 C 
BRANCH  26  27
ATOM     27  N   UNL A   1      39.918  19.412  25.685  1.00  0.00    -0.352 N 
ATOM     28  C   UNL A   1      41.229  19.569  26.081  1.00  0.00     0.251 C 
ATOM     29  H   UNL A   1      39.682  18.510  25.366  1.00  0.00     0.163 HD
ATOM     30  O   UNL A   1      42.015  18.630  25.965  1.00  0.00    -0.269 OA
BRANCH  28  31
ATOM     31  C   UNL A   1      41.708  20.870  26.604  1.00  0.00     0.039 A 
ATOM     32  C   UNL A   1      42.162  21.843  25.707  1.00  0.00     0.014 A 
ATOM     33  C   UNL A   1      41.685  21.151  27.970  1.00  0.00     0.014 A 
ATOM     34  C   UNL A   1      42.506  23.115  26.175  1.00  0.00     0.010 A 
ATOM     35  C   UNL A   1      41.893  22.451  28.414  1.00  0.00     0.010 A 
ATOM     36  C   UNL A   1      42.325  23.446  27.528  1.00  0.00    -0.014 A 
BRANCH  36  37
ATOM     37  C   UNL A   1      42.609  24.808  28.053  1.00  0.00     0.031 A 
ATOM     38  C   UNL A   1      44.012  25.175  28.470  1.00  0.00     0.074 A 
ATOM     39  C   UNL A   1      41.601  25.682  28.241  1.00  0.00     0.049 A 
ATOM     40  N   UNL A   1      44.446  26.269  29.043  1.00  0.00    -0.248 NA
ATOM     41  C   UNL A   1      45.056  24.157  28.262  1.00  0.00     0.031 C 
ATOM     42  C   UNL A   1      40.187  25.431  27.952  1.00  0.00     0.029 A 
ATOM     43  N   UNL A   1      41.614  26.966  28.730  1.00  0.00    -0.354 N 
ATOM     44  C   UNL A   1      45.793  26.048  29.303  1.00  0.00     0.074 A 
ATOM     45  C   UNL A   1      46.090  24.695  28.888  1.00  0.00     0.031 C 
ATOM     46  C   UNL A   1      39.477  26.538  28.226  1.00  0.00     0.029 A 
ATOM     47  C   UNL A   1      40.375  27.561  28.746  1.00  0.00     0.049 A 
ATOM     48  H   UNL A   1      42.432  27.417  29.039  1.00  0.00     0.167 HD
ATOM     49  C   UNL A   1      46.715  26.900  29.810  1.00  0.00     0.031 A 
ATOM     50  C   UNL A   1      40.005  28.797  29.133  1.00  0.00     0.031 A 
ATOM     51  C   UNL A   1      46.433  28.263  30.168  1.00  0.00     0.049 A 
ATOM     52  C   UNL A   1      41.054  29.749  29.636  1.00  0.00     0.074 A 
ATOM     53  C   UNL A   1      47.310  29.240  30.603  1.00  0.00     0.029 A 
ATOM     54  N   UNL A   1      45.176  28.843  30.117  1.00  0.00    -0.354 N 
ATOM     55  N   UNL A   1      42.340  29.549  29.800  1.00  0.00    -0.248 NA
ATOM     56  C   UNL A   1      40.604  31.103  29.987  1.00  0.00     0.031 C 
ATOM     57  C   UNL A   1      46.574  30.403  30.854  1.00  0.00     0.029 A 
ATOM     58  C   UNL A   1      45.249  30.163  30.527  1.00  0.00     0.049 A 
ATOM     59  H   UNL A   1      44.352  28.384  29.832  1.00  0.00     0.167 HD
ATOM     60  C   UNL A   1      42.856  30.758  30.249  1.00  0.00     0.074 A 
ATOM     61  C   UNL A   1      41.748  31.688  30.312  1.00  0.00     0.031 C 
ATOM     62  C   UNL A   1      44.132  31.070  30.580  1.00  0.00     0.031 A 
BRANCH  49  63
ATOM     63  C   UNL A   1      48.113  26.378  29.994  1.00  0.00    -0.014 A 
ATOM     64  C   UNL A   1      48.520  25.786  31.202  1.00  0.00     0.009 A 
ATOM     65  C   UNL A   1      49.037  26.468  28.941  1.00  0.00     0.009 A 
ATOM     66  C   UNL A   1      49.835  25.345  31.368  1.00  0.00     0.001 A 
ATOM     67  C   UNL A   1      50.342  25.996  29.099  1.00  0.00     0.001 A 
ATOM     68  C   UNL A   1      50.744  25.446  30.316  1.00  0.00     0.000 A 
ENDBRANCH  49  63
BRANCH  50  69
ATOM     69  C   UNL A   1      38.584  29.219  29.020  1.00  0.00    -0.014 A 
ATOM     70  C   UNL A   1      38.083  29.699  27.799  1.00  0.00     0.009 A 
ATOM     71  C   UNL A   1      37.721  29.144  30.123  1.00  0.00     0.009 A 
ATOM     72  C   UNL A   1      36.753  30.117  27.693  1.00  0.00     0.001 A 
ATOM     73  C   UNL A   1      36.385  29.535  30.006  1.00  0.00     0.001 A 
ATOM     74  C   UNL A   1      35.906  30.030  28.795  1.00  0.00     0.000 A 
ENDBRANCH  50  69
BRANCH  62  75
ATOM     75  C   UNL A   1      44.402  32.484  31.007  1.00  0.00    -0.014 A 
ATOM     76  C   UNL A   1      44.717  33.480  30.071  1.00  0.00     0.009 A 
ATOM     77  C   UNL A   1      44.301  32.829  32.364  1.00  0.00     0.009 A 
ATOM     78  C   UNL A   1      44.959  34.790  30.491  1.00  0.00     0.001 A 
ATOM     79  C   UNL A   1      44.515  34.145  32.777  1.00  0.00     0.001 A 
ATOM     80  C   UNL A   1      44.853  35.122  31.841  1.00  0.00     0.000 A 
ENDBRANCH  62  75
ENDBRANCH  36  37
ENDBRANCH  28  31
ENDBRANCH  26  27
ENDBRANCH   1  26
TORSDOF 13
ENDMDL
