MODEL 1
REMARK VINA RESULT:     -11.0      0.000      0.000
REMARK SMILES C[NH2+][C@]1(C(=O)NCCCNC(=O)c2ccc(-c3c4nc(c(-c5ccccc5)c5ccc([nH]5)c(-c5ccccc5)c5nc(c(-c6ccccc6)c6ccc3[nH]6)C=C5)C=C4)cc2)CCC[C@H]1CCOC1C[C@@H](C)C[C@H](C)C1
REMARK SMILES IDX 7 1 6 2 4 3 5 4 3 6 61 7 64 8 62 9 63 10 2 11 1 12 65 15
REMARK SMILES IDX 66 16 67 17 68 18 69 19 75 20 70 21 73 22 71 23 72 24 74 25
REMARK SMILES IDX 8 26 9 27 10 28 11 29 12 31 13 32 14 33 60 34 15 35 59 36
REMARK SMILES IDX 16 37 17 38 18 39 53 40 19 41 58 42 52 43 54 44 20 45 57 46
REMARK SMILES IDX 51 47 50 48 21 50 43 51 28 52 42 53 29 54 32 55 41 56 55 57
REMARK SMILES IDX 30 58 31 59 40 61 56 62 33 63 22 64 23 65 27 66 24 67 26 68
REMARK SMILES IDX 25 69 44 70 45 71 49 72 46 73 48 74 47 75 34 76 35 77 39 78
REMARK SMILES IDX 36 79 38 80 37 81
REMARK H PARENT 6 5 2 13 2 14 10 30 54 49 32 60
REMARK Flexibility Score: inf
ROOT
ATOM      1  C   UNL A   1      36.583  20.991  25.194  1.00  0.00     0.118 C 
ENDROOT
BRANCH   1   2
ATOM      2  N   UNL A   1      35.519  20.052  25.007  1.00  0.00    -0.351 N 
ATOM      3  C   UNL A   1      34.195  20.234  25.150  1.00  0.00     0.281 C 
ATOM      4  O   UNL A   1      33.499  19.254  24.837  1.00  0.00    -0.268 OA
ATOM      5  H   UNL A   1      35.795  19.147  24.736  1.00  0.00     0.163 HD
BRANCH   3   6
ATOM      6  C   UNL A   1      33.536  21.501  25.801  1.00  0.00     0.178 C 
ATOM      7  C   UNL A   1      34.141  21.591  27.226  1.00  0.00     0.079 C 
ATOM      8  C   UNL A   1      33.663  22.981  25.206  1.00  0.00     0.063 C 
ATOM      9  C   UNL A   1      33.960  23.029  27.659  1.00  0.00     0.008 C 
ATOM     10  C   UNL A   1      34.249  23.805  26.393  1.00  0.00     0.011 C 
BRANCH   6  11
ATOM     11  N   UNL A   1      32.081  21.122  25.845  1.00  0.00    -0.336 N 
ATOM     12  C   UNL A   1      31.034  22.080  25.570  1.00  0.00     0.331 C 
ATOM     13  H   UNL A   1      31.961  20.366  25.170  1.00  0.00     0.346 HD
ATOM     14  H   UNL A   1      31.938  20.927  26.836  1.00  0.00     0.346 HD
ENDBRANCH   6  11
BRANCH   8  15
ATOM     15  C   UNL A   1      34.354  23.562  23.891  1.00  0.00     0.039 C 
BRANCH  15  16
ATOM     16  C   UNL A   1      33.707  24.335  22.687  1.00  0.00     0.161 C 
BRANCH  16  17
ATOM     17  O   UNL A   1      32.570  25.154  22.960  1.00  0.00    -0.378 OA
BRANCH  17  18
ATOM     18  C   UNL A   1      32.447  26.564  22.743  1.00  0.00     0.118 C 
ATOM     19  C   UNL A   1      31.095  27.266  22.603  1.00  0.00     0.035 C 
ATOM     20  C   UNL A   1      33.289  27.299  23.783  1.00  0.00     0.035 C 
ATOM     21  C   UNL A   1      30.308  27.485  23.899  1.00  0.00    -0.011 C 
ATOM     22  C   UNL A   1      32.610  27.116  25.125  1.00  0.00    -0.011 C 
ATOM     23  C   UNL A   1      29.248  26.396  24.024  1.00  0.00     0.008 C 
ATOM     24  C   UNL A   1      31.207  27.753  25.143  1.00  0.00     0.006 C 
ATOM     25  C   UNL A   1      33.521  27.474  26.294  1.00  0.00     0.008 C 
ENDBRANCH  17  18
ENDBRANCH  16  17
ENDBRANCH  15  16
ENDBRANCH   8  15
ENDBRANCH   3   6
ENDBRANCH   1   2
BRANCH   1  26
ATOM     26  C   UNL A   1      37.907  20.440  24.735  1.00  0.00     0.042 C 
BRANCH  26  27
ATOM     27  C   UNL A   1      38.937  20.622  25.844  1.00  0.00     0.118 C 
BRANCH  27  28
ATOM     28  N   UNL A   1      39.917  19.540  25.877  1.00  0.00    -0.352 N 
ATOM     29  C   UNL A   1      41.279  19.577  26.122  1.00  0.00     0.251 C 
ATOM     30  H   UNL A   1      39.552  18.642  25.700  1.00  0.00     0.163 HD
ATOM     31  O   UNL A   1      41.978  18.612  25.916  1.00  0.00    -0.269 OA
BRANCH  29  32
ATOM     32  C   UNL A   1      41.867  20.853  26.587  1.00  0.00     0.039 A 
ATOM     33  C   UNL A   1      42.217  21.836  25.662  1.00  0.00     0.014 A 
ATOM     34  C   UNL A   1      41.976  21.101  27.950  1.00  0.00     0.014 A 
ATOM     35  C   UNL A   1      42.561  23.110  26.122  1.00  0.00     0.010 A 
ATOM     36  C   UNL A   1      42.124  22.403  28.390  1.00  0.00     0.010 A 
ATOM     37  C   UNL A   1      42.447  23.423  27.487  1.00  0.00    -0.014 A 
BRANCH  37  38
ATOM     38  C   UNL A   1      42.692  24.789  28.019  1.00  0.00     0.031 A 
ATOM     39  C   UNL A   1      44.082  25.176  28.464  1.00  0.00     0.074 A 
ATOM     40  C   UNL A   1      41.664  25.642  28.198  1.00  0.00     0.049 A 
ATOM     41  N   UNL A   1      44.483  26.261  29.076  1.00  0.00    -0.248 NA
ATOM     42  C   UNL A   1      45.153  24.186  28.246  1.00  0.00     0.031 C 
ATOM     43  C   UNL A   1      40.258  25.372  27.880  1.00  0.00     0.029 A 
ATOM     44  N   UNL A   1      41.645  26.921  28.699  1.00  0.00    -0.354 N 
ATOM     45  C   UNL A   1      45.829  26.056  29.355  1.00  0.00     0.074 A 
ATOM     46  C   UNL A   1      46.157  24.717  28.924  1.00  0.00     0.031 C 
ATOM     47  C   UNL A   1      39.527  26.468  28.139  1.00  0.00     0.029 A 
ATOM     48  C   UNL A   1      40.398  27.499  28.691  1.00  0.00     0.049 A 
ATOM     49  H   UNL A   1      42.449  27.379  29.034  1.00  0.00     0.167 HD
ATOM     50  C   UNL A   1      46.730  26.916  29.883  1.00  0.00     0.031 A 
ATOM     51  C   UNL A   1      40.004  28.725  29.083  1.00  0.00     0.031 A 
ATOM     52  C   UNL A   1      46.419  28.268  30.252  1.00  0.00     0.049 A 
ATOM     53  C   UNL A   1      41.028  29.679  29.633  1.00  0.00     0.074 A 
ATOM     54  C   UNL A   1      47.273  29.253  30.714  1.00  0.00     0.029 A 
ATOM     55  N   UNL A   1      45.152  28.826  30.188  1.00  0.00    -0.354 N 
ATOM     56  N   UNL A   1      42.314  29.497  29.818  1.00  0.00    -0.248 NA
ATOM     57  C   UNL A   1      40.547  31.014  30.016  1.00  0.00     0.031 C 
ATOM     58  C   UNL A   1      46.512  30.397  30.973  1.00  0.00     0.029 A 
ATOM     59  C   UNL A   1      45.197  30.139  30.617  1.00  0.00     0.049 A 
ATOM     60  H   UNL A   1      44.343  28.358  29.881  1.00  0.00     0.167 HD
ATOM     61  C   UNL A   1      42.801  30.702  30.307  1.00  0.00     0.074 A 
ATOM     62  C   UNL A   1      41.675  31.612  30.374  1.00  0.00     0.031 C 
ATOM     63  C   UNL A   1      44.065  31.029  30.667  1.00  0.00     0.031 A 
BRANCH  50  64
ATOM     64  C   UNL A   1      48.136  26.415  30.073  1.00  0.00    -0.014 A 
ATOM     65  C   UNL A   1      49.103  26.547  29.061  1.00  0.00     0.009 A 
ATOM     66  C   UNL A   1      48.503  25.808  31.284  1.00  0.00     0.009 A 
ATOM     67  C   UNL A   1      50.390  26.036  29.239  1.00  0.00     0.001 A 
ATOM     68  C   UNL A   1      49.802  25.331  31.472  1.00  0.00     0.001 A 
ATOM     69  C   UNL A   1      50.739  25.433  30.446  1.00  0.00     0.000 A 
ENDBRANCH  50  64
BRANCH  51  70
ATOM     70  C   UNL A   1      38.582  29.139  28.936  1.00  0.00    -0.014 A 
ATOM     71  C   UNL A   1      37.707  29.067  30.032  1.00  0.00     0.009 A 
ATOM     72  C   UNL A   1      38.088  29.598  27.706  1.00  0.00     0.009 A 
ATOM     73  C   UNL A   1      36.361  29.412  29.890  1.00  0.00     0.001 A 
ATOM     74  C   UNL A   1      36.748  29.972  27.575  1.00  0.00     0.001 A 
ATOM     75  C   UNL A   1      35.884  29.868  28.662  1.00  0.00     0.000 A 
ENDBRANCH  51  70
BRANCH  63  76
ATOM     76  C   UNL A   1      44.309  32.439  31.121  1.00  0.00    -0.014 A 
ATOM     77  C   UNL A   1      44.608  33.460  30.206  1.00  0.00     0.009 A 
ATOM     78  C   UNL A   1      44.185  32.757  32.482  1.00  0.00     0.009 A 
ATOM     79  C   UNL A   1      44.811  34.767  30.653  1.00  0.00     0.001 A 
ATOM     80  C   UNL A   1      44.357  34.070  32.922  1.00  0.00     0.001 A 
ATOM     81  C   UNL A   1      44.679  35.071  32.007  1.00  0.00     0.000 A 
ENDBRANCH  63  76
ENDBRANCH  37  38
ENDBRANCH  29  32
ENDBRANCH  27  28
ENDBRANCH  26  27
ENDBRANCH   1  26
TORSDOF 15
ENDMDL
MODEL 2
REMARK VINA RESULT:     -10.8      3.520      8.742
REMARK SMILES C[NH2+][C@]1(C(=O)NCCCNC(=O)c2ccc(-c3c4nc(c(-c5ccccc5)c5ccc([nH]5)c(-c5ccccc5)c5nc(c(-c6ccccc6)c6ccc3[nH]6)C=C5)C=C4)cc2)CCC[C@H]1CCOC1C[C@@H](C)C[C@H](C)C1
REMARK SMILES IDX 7 1 6 2 4 3 5 4 3 6 61 7 64 8 62 9 63 10 2 11 1 12 65 15
REMARK SMILES IDX 66 16 67 17 68 18 69 19 75 20 70 21 73 22 71 23 72 24 74 25
REMARK SMILES IDX 8 26 9 27 10 28 11 29 12 31 13 32 14 33 60 34 15 35 59 36
REMARK SMILES IDX 16 37 17 38 18 39 53 40 19 41 58 42 52 43 54 44 20 45 57 46
REMARK SMILES IDX 51 47 50 48 21 50 43 51 28 52 42 53 29 54 32 55 41 56 55 57
REMARK SMILES IDX 30 58 31 59 40 61 56 62 33 63 22 64 23 65 27 66 24 67 26 68
REMARK SMILES IDX 25 69 44 70 45 71 49 72 46 73 48 74 47 75 34 76 35 77 39 78
REMARK SMILES IDX 36 79 38 80 37 81
REMARK H PARENT 6 5 2 13 2 14 10 30 54 49 32 60
REMARK Flexibility Score: inf
ROOT
ATOM      1  C   UNL A   1      32.053  29.809  26.480  1.00  0.00     0.118 C 
ENDROOT
BRANCH   1   2
ATOM      2  N   UNL A   1      33.153  29.459  25.633  1.00  0.00    -0.351 N 
ATOM      3  C   UNL A   1      33.136  28.924  24.401  1.00  0.00     0.281 C 
ATOM      4  O   UNL A   1      34.253  28.804  23.870  1.00  0.00    -0.268 OA
ATOM      5  H   UNL A   1      34.048  29.633  26.006  1.00  0.00     0.163 HD
BRANCH   3   6
ATOM      6  C   UNL A   1      31.858  28.339  23.703  1.00  0.00     0.178 C 
ATOM      7  C   UNL A   1      32.373  27.646  22.416  1.00  0.00     0.079 C 
ATOM      8  C   UNL A   1      30.878  27.271  24.381  1.00  0.00     0.063 C 
ATOM      9  C   UNL A   1      31.302  26.652  22.026  1.00  0.00     0.008 C 
ATOM     10  C   UNL A   1      30.854  26.093  23.360  1.00  0.00     0.011 C 
BRANCH   6  11
ATOM     11  N   UNL A   1      31.069  29.579  23.381  1.00  0.00    -0.336 N 
ATOM     12  C   UNL A   1      29.624  29.597  23.425  1.00  0.00     0.331 C 
ATOM     13  H   UNL A   1      31.383  30.297  24.036  1.00  0.00     0.346 HD
ATOM     14  H   UNL A   1      31.255  29.702  22.386  1.00  0.00     0.346 HD
ENDBRANCH   6  11
BRANCH   8  15
ATOM     15  C   UNL A   1      30.849  26.593  25.825  1.00  0.00     0.039 C 
BRANCH  15  16
ATOM     16  C   UNL A   1      32.045  26.086  26.708  1.00  0.00     0.161 C 
BRANCH  16  17
ATOM     17  O   UNL A   1      33.163  25.504  26.038  1.00  0.00    -0.378 OA
BRANCH  17  18
ATOM     18  C   UNL A   1      33.705  24.193  26.235  1.00  0.00     0.118 C 
ATOM     19  C   UNL A   1      32.908  23.055  26.875  1.00  0.00     0.035 C 
ATOM     20  C   UNL A   1      34.309  23.706  24.921  1.00  0.00     0.035 C 
ATOM     21  C   UNL A   1      31.849  22.389  25.991  1.00  0.00    -0.011 C 
ATOM     22  C   UNL A   1      33.162  23.444  23.966  1.00  0.00    -0.011 C 
ATOM     23  C   UNL A   1      30.481  22.969  26.336  1.00  0.00     0.008 C 
ATOM     24  C   UNL A   1      32.238  22.326  24.483  1.00  0.00     0.006 C 
ATOM     25  C   UNL A   1      33.626  23.312  22.520  1.00  0.00     0.008 C 
ENDBRANCH  17  18
ENDBRANCH  16  17
ENDBRANCH  15  16
ENDBRANCH   8  15
ENDBRANCH   3   6
ENDBRANCH   1   2
BRANCH   1  26
ATOM     26  C   UNL A   1      31.787  31.292  26.472  1.00  0.00     0.042 C 
BRANCH  26  27
ATOM     27  C   UNL A   1      32.896  32.003  27.238  1.00  0.00     0.118 C 
BRANCH  27  28
ATOM     28  N   UNL A   1      32.553  33.386  27.561  1.00  0.00    -0.352 N 
ATOM     29  C   UNL A   1      33.153  34.272  28.439  1.00  0.00     0.251 C 
ATOM     30  H   UNL A   1      31.774  33.745  27.078  1.00  0.00     0.163 HD
ATOM     31  O   UNL A   1      32.621  35.317  28.733  1.00  0.00    -0.269 OA
BRANCH  29  32
ATOM     32  C   UNL A   1      34.439  33.877  29.054  1.00  0.00     0.039 A 
ATOM     33  C   UNL A   1      34.448  33.117  30.223  1.00  0.00     0.014 A 
ATOM     34  C   UNL A   1      35.631  34.185  28.409  1.00  0.00     0.014 A 
ATOM     35  C   UNL A   1      35.653  32.567  30.669  1.00  0.00     0.010 A 
ATOM     36  C   UNL A   1      36.778  33.485  28.738  1.00  0.00     0.010 A 
ATOM     37  C   UNL A   1      36.815  32.688  29.888  1.00  0.00    -0.014 A 
BRANCH  37  38
ATOM     38  C   UNL A   1      38.097  32.032  30.255  1.00  0.00     0.031 A 
ATOM     39  C   UNL A   1      39.048  32.732  31.196  1.00  0.00     0.074 A 
ATOM     40  C   UNL A   1      38.456  30.870  29.674  1.00  0.00     0.049 A 
ATOM     41  N   UNL A   1      40.267  32.400  31.539  1.00  0.00    -0.248 NA
ATOM     42  C   UNL A   1      38.591  34.004  31.784  1.00  0.00     0.031 C 
ATOM     43  C   UNL A   1      37.665  30.121  28.692  1.00  0.00     0.029 A 
ATOM     44  N   UNL A   1      39.589  30.111  29.827  1.00  0.00    -0.354 N 
ATOM     45  C   UNL A   1      40.728  33.444  32.333  1.00  0.00     0.074 A 
ATOM     46  C   UNL A   1      39.697  34.454  32.354  1.00  0.00     0.031 C 
ATOM     47  C   UNL A   1      38.311  28.987  28.376  1.00  0.00     0.029 A 
ATOM     48  C   UNL A   1      39.583  28.952  29.088  1.00  0.00     0.049 A 
ATOM     49  H   UNL A   1      40.338  30.372  30.411  1.00  0.00     0.167 HD
ATOM     50  C   UNL A   1      41.888  33.541  33.022  1.00  0.00     0.031 A 
ATOM     51  C   UNL A   1      40.499  27.969  28.999  1.00  0.00     0.031 A 
ATOM     52  C   UNL A   1      42.885  32.509  33.053  1.00  0.00     0.049 A 
ATOM     53  C   UNL A   1      41.765  28.079  29.803  1.00  0.00     0.074 A 
ATOM     54  C   UNL A   1      44.056  32.464  33.787  1.00  0.00     0.029 A 
ATOM     55  N   UNL A   1      42.818  31.332  32.323  1.00  0.00    -0.354 N 
ATOM     56  N   UNL A   1      42.152  29.037  30.611  1.00  0.00    -0.248 NA
ATOM     57  C   UNL A   1      42.716  26.964  29.691  1.00  0.00     0.031 C 
ATOM     58  C   UNL A   1      44.722  31.277  33.465  1.00  0.00     0.029 A 
ATOM     59  C   UNL A   1      43.936  30.560  32.576  1.00  0.00     0.049 A 
ATOM     60  H   UNL A   1      42.084  31.084  31.717  1.00  0.00     0.167 HD
ATOM     61  C   UNL A   1      43.373  28.626  31.128  1.00  0.00     0.074 A 
ATOM     62  C   UNL A   1      43.655  27.325  30.555  1.00  0.00     0.031 C 
ATOM     63  C   UNL A   1      44.190  29.264  32.001  1.00  0.00     0.031 A 
BRANCH  50  64
ATOM     64  C   UNL A   1      42.123  34.802  33.808  1.00  0.00    -0.014 A 
ATOM     65  C   UNL A   1      42.780  35.907  33.240  1.00  0.00     0.009 A 
ATOM     66  C   UNL A   1      41.676  34.891  35.136  1.00  0.00     0.009 A 
ATOM     67  C   UNL A   1      43.029  37.051  33.999  1.00  0.00     0.001 A 
ATOM     68  C   UNL A   1      41.894  36.051  35.881  1.00  0.00     0.001 A 
ATOM     69  C   UNL A   1      42.582  37.124  35.317  1.00  0.00     0.000 A 
ENDBRANCH  50  64
BRANCH  51  70
ATOM     70  C   UNL A   1      40.241  26.777  28.148  1.00  0.00    -0.014 A 
ATOM     71  C   UNL A   1      40.752  26.716  26.841  1.00  0.00     0.009 A 
ATOM     72  C   UNL A   1      39.479  25.700  28.626  1.00  0.00     0.009 A 
ATOM     73  C   UNL A   1      40.476  25.620  26.021  1.00  0.00     0.001 A 
ATOM     74  C   UNL A   1      39.231  24.591  27.814  1.00  0.00     0.001 A 
ATOM     75  C   UNL A   1      39.720  24.556  26.510  1.00  0.00     0.000 A 
ENDBRANCH  51  70
BRANCH  63  76
ATOM     76  C   UNL A   1      45.440  28.548  32.425  1.00  0.00    -0.014 A 
ATOM     77  C   UNL A   1      46.651  28.722  31.738  1.00  0.00     0.009 A 
ATOM     78  C   UNL A   1      45.412  27.728  33.564  1.00  0.00     0.009 A 
ATOM     79  C   UNL A   1      47.803  28.060  32.166  1.00  0.00     0.001 A 
ATOM     80  C   UNL A   1      46.573  27.094  34.008  1.00  0.00     0.001 A 
ATOM     81  C   UNL A   1      47.764  27.253  33.302  1.00  0.00     0.000 A 
ENDBRANCH  63  76
ENDBRANCH  37  38
ENDBRANCH  29  32
ENDBRANCH  27  28
ENDBRANCH  26  27
ENDBRANCH   1  26
TORSDOF 15
ENDMDL
MODEL 3
REMARK VINA RESULT:     -10.8      4.075      8.846
REMARK SMILES C[NH2+][C@]1(C(=O)NCCCNC(=O)c2ccc(-c3c4nc(c(-c5ccccc5)c5ccc([nH]5)c(-c5ccccc5)c5nc(c(-c6ccccc6)c6ccc3[nH]6)C=C5)C=C4)cc2)CCC[C@H]1CCOC1C[C@@H](C)C[C@H](C)C1
REMARK SMILES IDX 7 1 6 2 4 3 5 4 3 6 61 7 64 8 62 9 63 10 2 11 1 12 65 15
REMARK SMILES IDX 66 16 67 17 68 18 69 19 75 20 70 21 73 22 71 23 72 24 74 25
REMARK SMILES IDX 8 26 9 27 10 28 11 29 12 31 13 32 14 33 60 34 15 35 59 36
REMARK SMILES IDX 16 37 17 38 18 39 53 40 19 41 58 42 52 43 54 44 20 45 57 46
REMARK SMILES IDX 51 47 50 48 21 50 43 51 28 52 42 53 29 54 32 55 41 56 55 57
REMARK SMILES IDX 30 58 31 59 40 61 56 62 33 63 22 64 23 65 27 66 24 67 26 68
REMARK SMILES IDX 25 69 44 70 45 71 49 72 46 73 48 74 47 75 34 76 35 77 39 78
REMARK SMILES IDX 36 79 38 80 37 81
REMARK H PARENT 6 5 2 13 2 14 10 30 54 49 32 60
REMARK Flexibility Score: inf
ROOT
ATOM      1  C   UNL A   1      31.204  30.459  25.548  1.00  0.00     0.118 C 
ENDROOT
BRANCH   1   2
ATOM      2  N   UNL A   1      30.622  30.395  24.241  1.00  0.00    -0.351 N 
ATOM      3  C   UNL A   1      30.740  29.435  23.309  1.00  0.00     0.281 C 
ATOM      4  O   UNL A   1      30.048  29.609  22.292  1.00  0.00    -0.268 OA
ATOM      5  H   UNL A   1      30.056  31.161  23.991  1.00  0.00     0.163 HD
BRANCH   3   6
ATOM      6  C   UNL A   1      31.767  28.250  23.377  1.00  0.00     0.178 C 
ATOM      7  C   UNL A   1      33.146  28.916  23.618  1.00  0.00     0.079 C 
ATOM      8  C   UNL A   1      31.692  27.061  24.445  1.00  0.00     0.063 C 
ATOM      9  C   UNL A   1      34.027  27.837  24.208  1.00  0.00     0.008 C 
ATOM     10  C   UNL A   1      33.087  27.103  25.140  1.00  0.00     0.011 C 
BRANCH   6  11
ATOM     11  N   UNL A   1      31.675  27.662  21.995  1.00  0.00    -0.336 N 
ATOM     12  C   UNL A   1      32.015  26.283  21.728  1.00  0.00     0.331 C 
ATOM     13  H   UNL A   1      30.706  27.780  21.698  1.00  0.00     0.346 HD
ATOM     14  H   UNL A   1      32.409  28.164  21.497  1.00  0.00     0.346 HD
ENDBRANCH   6  11
BRANCH   8  15
ATOM     15  C   UNL A   1      30.646  26.705  25.596  1.00  0.00     0.039 C 
BRANCH  15  16
ATOM     16  C   UNL A   1      30.350  25.322  26.276  1.00  0.00     0.161 C 
BRANCH  16  17
ATOM     17  O   UNL A   1      31.431  24.661  26.933  1.00  0.00    -0.378 OA
BRANCH  17  18
ATOM     18  C   UNL A   1      31.775  23.273  26.853  1.00  0.00     0.118 C 
ATOM     19  C   UNL A   1      31.248  22.351  25.752  1.00  0.00     0.035 C 
ATOM     20  C   UNL A   1      33.293  23.135  26.939  1.00  0.00     0.035 C 
ATOM     21  C   UNL A   1      31.898  22.501  24.373  1.00  0.00    -0.011 C 
ATOM     22  C   UNL A   1      33.872  23.688  25.653  1.00  0.00    -0.011 C 
ATOM     23  C   UNL A   1      30.998  23.361  23.493  1.00  0.00     0.008 C 
ATOM     24  C   UNL A   1      33.410  22.875  24.428  1.00  0.00     0.006 C 
ATOM     25  C   UNL A   1      35.370  23.952  25.753  1.00  0.00     0.008 C 
ENDBRANCH  17  18
ENDBRANCH  16  17
ENDBRANCH  15  16
ENDBRANCH   8  15
ENDBRANCH   3   6
ENDBRANCH   1   2
BRANCH   1  26
ATOM     26  C   UNL A   1      30.962  31.792  26.207  1.00  0.00     0.042 C 
BRANCH  26  27
ATOM     27  C   UNL A   1      32.303  32.435  26.541  1.00  0.00     0.118 C 
BRANCH  27  28
ATOM     28  N   UNL A   1      32.152  33.705  27.247  1.00  0.00    -0.352 N 
ATOM     29  C   UNL A   1      32.909  34.254  28.268  1.00  0.00     0.251 C 
ATOM     30  H   UNL A   1      31.394  34.258  26.949  1.00  0.00     0.163 HD
ATOM     31  O   UNL A   1      32.528  35.228  28.874  1.00  0.00    -0.269 OA
BRANCH  29  32
ATOM     32  C   UNL A   1      34.174  33.579  28.635  1.00  0.00     0.039 A 
ATOM     33  C   UNL A   1      35.394  34.115  28.224  1.00  0.00     0.014 A 
ATOM     34  C   UNL A   1      34.140  32.468  29.470  1.00  0.00     0.014 A 
ATOM     35  C   UNL A   1      36.577  33.598  28.758  1.00  0.00     0.010 A 
ATOM     36  C   UNL A   1      35.290  32.092  30.140  1.00  0.00     0.010 A 
ATOM     37  C   UNL A   1      36.530  32.630  29.775  1.00  0.00    -0.014 A 
BRANCH  37  38
ATOM     38  C   UNL A   1      37.750  32.125  30.457  1.00  0.00     0.031 A 
ATOM     39  C   UNL A   1      38.469  30.921  29.900  1.00  0.00     0.074 A 
ATOM     40  C   UNL A   1      38.153  32.674  31.621  1.00  0.00     0.049 A 
ATOM     41  N   UNL A   1      39.465  30.242  30.410  1.00  0.00    -0.248 NA
ATOM     42  C   UNL A   1      37.963  30.369  28.630  1.00  0.00     0.031 C 
ATOM     43  C   UNL A   1      37.509  33.795  32.311  1.00  0.00     0.029 A 
ATOM     44  N   UNL A   1      39.212  32.355  32.436  1.00  0.00    -0.354 N 
ATOM     45  C   UNL A   1      39.663  29.167  29.550  1.00  0.00     0.074 A 
ATOM     46  C   UNL A   1      38.636  29.234  28.538  1.00  0.00     0.031 C 
ATOM     47  C   UNL A   1      38.216  34.106  33.409  1.00  0.00     0.029 A 
ATOM     48  C   UNL A   1      39.332  33.174  33.533  1.00  0.00     0.049 A 
ATOM     49  H   UNL A   1      39.827  31.609  32.251  1.00  0.00     0.167 HD
ATOM     50  C   UNL A   1      40.636  28.228  29.572  1.00  0.00     0.031 A 
ATOM     51  C   UNL A   1      40.242  33.175  34.525  1.00  0.00     0.031 A 
ATOM     52  C   UNL A   1      41.694  28.199  30.542  1.00  0.00     0.049 A 
ATOM     53  C   UNL A   1      41.338  32.145  34.509  1.00  0.00     0.074 A 
ATOM     54  C   UNL A   1      42.782  27.347  30.606  1.00  0.00     0.029 A 
ATOM     55  N   UNL A   1      41.801  29.074  31.612  1.00  0.00    -0.354 N 
ATOM     56  N   UNL A   1      41.556  31.182  33.646  1.00  0.00    -0.248 NA
ATOM     57  C   UNL A   1      42.320  32.211  35.600  1.00  0.00     0.031 C 
ATOM     58  C   UNL A   1      43.524  27.678  31.743  1.00  0.00     0.029 A 
ATOM     59  C   UNL A   1      42.928  28.772  32.353  1.00  0.00     0.049 A 
ATOM     60  H   UNL A   1      41.169  29.801  31.812  1.00  0.00     0.167 HD
ATOM     61  C   UNL A   1      42.718  30.550  34.070  1.00  0.00     0.074 A 
ATOM     62  C   UNL A   1      43.165  31.249  35.258  1.00  0.00     0.031 C 
ATOM     63  C   UNL A   1      43.359  29.488  33.526  1.00  0.00     0.031 A 
BRANCH  50  64
ATOM     64  C   UNL A   1      40.602  27.171  28.502  1.00  0.00    -0.014 A 
ATOM     65  C   UNL A   1      39.919  25.957  28.694  1.00  0.00     0.009 A 
ATOM     66  C   UNL A   1      41.256  27.392  27.280  1.00  0.00     0.009 A 
ATOM     67  C   UNL A   1      39.937  24.970  27.708  1.00  0.00     0.001 A 
ATOM     68  C   UNL A   1      41.240  26.417  26.281  1.00  0.00     0.001 A 
ATOM     69  C   UNL A   1      40.594  25.202  26.501  1.00  0.00     0.000 A 
ENDBRANCH  50  64
BRANCH  51  70
ATOM     70  C   UNL A   1      40.182  34.204  35.597  1.00  0.00    -0.014 A 
ATOM     71  C   UNL A   1      39.456  33.960  36.775  1.00  0.00     0.009 A 
ATOM     72  C   UNL A   1      40.838  35.436  35.452  1.00  0.00     0.009 A 
ATOM     73  C   UNL A   1      39.359  34.939  37.766  1.00  0.00     0.001 A 
ATOM     74  C   UNL A   1      40.765  36.402  36.459  1.00  0.00     0.001 A 
ATOM     75  C   UNL A   1      40.018  36.157  37.609  1.00  0.00     0.000 A 
ENDBRANCH  51  70
BRANCH  63  76
ATOM     76  C   UNL A   1      44.636  29.045  34.180  1.00  0.00    -0.014 A 
ATOM     77  C   UNL A   1      44.643  28.058  35.177  1.00  0.00     0.009 A 
ATOM     78  C   UNL A   1      45.856  29.591  33.750  1.00  0.00     0.009 A 
ATOM     79  C   UNL A   1      45.847  27.650  35.754  1.00  0.00     0.001 A 
ATOM     80  C   UNL A   1      47.060  29.158  34.307  1.00  0.00     0.001 A 
ATOM     81  C   UNL A   1      47.053  28.195  35.315  1.00  0.00     0.000 A 
ENDBRANCH  63  76
ENDBRANCH  37  38
ENDBRANCH  29  32
ENDBRANCH  27  28
ENDBRANCH  26  27
ENDBRANCH   1  26
TORSDOF 15
ENDMDL
