MODEL 1
REMARK VINA RESULT:     -10.9      0.000      0.000
REMARK SMILES O=C(C[C@H]1C(=O)Nc2ccccc21)NCCCNC(=O)c1ccc(-c2c3nc(c(-c4ccccc4)c4ccc([nH]4)c(-c4ccccc4)c4nc(c(-c5ccccc5)c5ccc2[nH]5)C=C4)C=C3)cc1
REMARK SMILES IDX 16 1 15 2 14 3 1 4 2 5 3 7 4 8 5 9 13 10 6 11 7 12 8 13
REMARK SMILES IDX 12 14 9 16 11 17 10 18 17 19 18 20 19 21 20 23 21 24 22 25
REMARK SMILES IDX 68 26 23 27 67 28 24 29 25 30 26 31 61 32 27 33 66 34 60 35
REMARK SMILES IDX 62 36 28 37 65 38 59 39 58 40 29 42 51 43 36 44 50 45 37 46
REMARK SMILES IDX 40 47 49 48 63 49 38 50 39 51 48 53 64 54 41 55 30 56 31 57
REMARK SMILES IDX 35 58 32 59 34 60 33 61 52 62 53 63 57 64 54 65 56 66 55 67
REMARK SMILES IDX 42 68 43 69 47 70 44 71 46 72 45 73
REMARK H PARENT 14 6 7 15 18 22 62 41 40 52
REMARK Flexibility Score: inf
ROOT
ATOM      1  C   UNL A   1      32.133  28.114  27.171  1.00  0.00     0.042 C 
ENDROOT
BRANCH   1   2
ATOM      2  C   UNL A   1      31.733  27.569  25.804  1.00  0.00     0.117 C 
BRANCH   2   3
ATOM      3  N   UNL A   1      32.358  26.291  25.531  1.00  0.00    -0.356 N 
ATOM      4  O   UNL A   1      30.811  25.026  26.669  1.00  0.00    -0.275 OA
ATOM      5  C   UNL A   1      31.815  25.104  25.969  1.00  0.00     0.221 C 
ATOM      6  H   UNL A   1      33.196  26.270  25.015  1.00  0.00     0.163 HD
BRANCH   5   7
ATOM      7  C   UNL A   1      32.635  23.883  25.625  1.00  0.00     0.118 C 
BRANCH   7   8
ATOM      8  C   UNL A   1      33.870  23.601  26.478  1.00  0.00     0.120 C 
ATOM      9  C   UNL A   1      33.772  22.447  27.499  1.00  0.00     0.232 C 
ATOM     10  C   UNL A   1      35.034  23.151  25.625  1.00  0.00    -0.011 A 
ATOM     11  O   UNL A   1      32.994  22.345  28.433  1.00  0.00    -0.274 OA
ATOM     12  N   UNL A   1      34.743  21.508  27.167  1.00  0.00    -0.325 N 
ATOM     13  C   UNL A   1      35.490  21.915  26.075  1.00  0.00     0.045 A 
ATOM     14  C   UNL A   1      35.630  23.770  24.539  1.00  0.00     0.007 A 
ATOM     15  H   UNL A   1      34.881  20.661  27.649  1.00  0.00     0.169 HD
ATOM     16  C   UNL A   1      36.533  21.245  25.473  1.00  0.00     0.026 A 
ATOM     17  C   UNL A   1      36.684  23.107  23.905  1.00  0.00     0.000 A 
ATOM     18  C   UNL A   1      37.132  21.856  24.366  1.00  0.00     0.002 A 
ENDBRANCH   7   8
ENDBRANCH   5   7
ENDBRANCH   2   3
ENDBRANCH   1   2
BRANCH   1  19
ATOM     19  C   UNL A   1      33.550  28.675  27.242  1.00  0.00     0.118 C 
BRANCH  19  20
ATOM     20  N   UNL A   1      33.597  30.066  27.668  1.00  0.00    -0.352 N 
ATOM     21  C   UNL A   1      34.600  30.776  28.279  1.00  0.00     0.251 C 
ATOM     22  H   UNL A   1      32.778  30.580  27.488  1.00  0.00     0.163 HD
ATOM     23  O   UNL A   1      34.375  31.916  28.675  1.00  0.00    -0.269 OA
BRANCH  21  24
ATOM     24  C   UNL A   1      35.940  30.182  28.492  1.00  0.00     0.039 A 
ATOM     25  C   UNL A   1      36.862  30.238  27.443  1.00  0.00     0.014 A 
ATOM     26  C   UNL A   1      36.291  29.546  29.687  1.00  0.00     0.014 A 
ATOM     27  C   UNL A   1      38.145  29.711  27.612  1.00  0.00     0.010 A 
ATOM     28  C   UNL A   1      37.596  29.096  29.883  1.00  0.00     0.010 A 
ATOM     29  C   UNL A   1      38.538  29.170  28.847  1.00  0.00    -0.014 A 
BRANCH  29  30
ATOM     30  C   UNL A   1      39.938  28.711  29.056  1.00  0.00     0.031 A 
ATOM     31  C   UNL A   1      40.370  27.323  28.665  1.00  0.00     0.074 A 
ATOM     32  C   UNL A   1      40.826  29.550  29.626  1.00  0.00     0.049 A 
ATOM     33  N   UNL A   1      41.561  26.781  28.735  1.00  0.00    -0.248 NA
ATOM     34  C   UNL A   1      39.330  26.419  28.150  1.00  0.00     0.031 C 
ATOM     35  C   UNL A   1      40.527  30.904  30.102  1.00  0.00     0.029 A 
ATOM     36  N   UNL A   1      42.164  29.394  29.892  1.00  0.00    -0.354 N 
ATOM     37  C   UNL A   1      41.412  25.476  28.278  1.00  0.00     0.074 A 
ATOM     38  C   UNL A   1      40.006  25.291  27.991  1.00  0.00     0.031 C 
ATOM     39  C   UNL A   1      41.657  31.470  30.554  1.00  0.00     0.029 A 
ATOM     40  C   UNL A   1      42.749  30.510  30.439  1.00  0.00     0.049 A 
ATOM     41  H   UNL A   1      42.657  28.562  29.709  1.00  0.00     0.167 HD
ATOM     42  C   UNL A   1      42.360  24.526  28.095  1.00  0.00     0.031 A 
ATOM     43  C   UNL A   1      44.025  30.743  30.803  1.00  0.00     0.031 A 
ATOM     44  C   UNL A   1      43.759  24.705  28.388  1.00  0.00     0.049 A 
ATOM     45  C   UNL A   1      45.055  29.669  30.596  1.00  0.00     0.074 A 
ATOM     46  C   UNL A   1      44.803  23.817  28.189  1.00  0.00     0.029 A 
ATOM     47  N   UNL A   1      44.310  25.847  28.949  1.00  0.00    -0.354 N 
ATOM     48  N   UNL A   1      44.909  28.469  30.089  1.00  0.00    -0.248 NA
ATOM     49  C   UNL A   1      46.431  29.992  30.996  1.00  0.00     0.031 C 
ATOM     50  C   UNL A   1      45.974  24.397  28.687  1.00  0.00     0.029 A 
ATOM     51  C   UNL A   1      45.674  25.676  29.128  1.00  0.00     0.049 A 
ATOM     52  H   UNL A   1      43.806  26.659  29.186  1.00  0.00     0.167 HD
ATOM     53  C   UNL A   1      46.180  27.906  30.079  1.00  0.00     0.074 A 
ATOM     54  C   UNL A   1      47.083  28.907  30.607  1.00  0.00     0.031 C 
ATOM     55  C   UNL A   1      46.563  26.673  29.667  1.00  0.00     0.031 A 
BRANCH  42  56
ATOM     56  C   UNL A   1      41.909  23.191  27.558  1.00  0.00    -0.014 A 
ATOM     57  C   UNL A   1      41.893  22.927  26.178  1.00  0.00     0.009 A 
ATOM     58  C   UNL A   1      41.535  22.170  28.446  1.00  0.00     0.009 A 
ATOM     59  C   UNL A   1      41.475  21.684  25.699  1.00  0.00     0.001 A 
ATOM     60  C   UNL A   1      41.149  20.916  27.965  1.00  0.00     0.001 A 
ATOM     61  C   UNL A   1      41.110  20.678  26.592  1.00  0.00     0.000 A 
ENDBRANCH  42  56
BRANCH  43  62
ATOM     62  C   UNL A   1      44.408  32.060  31.378  1.00  0.00    -0.014 A 
ATOM     63  C   UNL A   1      44.357  32.278  32.764  1.00  0.00     0.009 A 
ATOM     64  C   UNL A   1      44.815  33.111  30.543  1.00  0.00     0.009 A 
ATOM     65  C   UNL A   1      44.672  33.529  33.297  1.00  0.00     0.001 A 
ATOM     66  C   UNL A   1      45.164  34.352  31.081  1.00  0.00     0.001 A 
ATOM     67  C   UNL A   1      45.081  34.563  32.457  1.00  0.00     0.000 A 
ENDBRANCH  43  62
BRANCH  55  68
ATOM     68  C   UNL A   1      48.033  26.356  29.740  1.00  0.00    -0.014 A 
ATOM     69  C   UNL A   1      48.900  26.628  28.669  1.00  0.00     0.009 A 
ATOM     70  C   UNL A   1      48.558  25.769  30.902  1.00  0.00     0.009 A 
ATOM     71  C   UNL A   1      50.247  26.265  28.738  1.00  0.00     0.001 A 
ATOM     72  C   UNL A   1      49.912  25.442  30.984  1.00  0.00     0.001 A 
ATOM     73  C   UNL A   1      50.752  25.674  29.896  1.00  0.00     0.000 A 
ENDBRANCH  55  68
ENDBRANCH  29  30
ENDBRANCH  21  24
ENDBRANCH  19  20
ENDBRANCH   1  19
TORSDOF 11
ENDMDL
MODEL 2
REMARK VINA RESULT:     -10.8      2.761      8.081
REMARK SMILES O=C(C[C@H]1C(=O)Nc2ccccc21)NCCCNC(=O)c1ccc(-c2c3nc(c(-c4ccccc4)c4ccc([nH]4)c(-c4ccccc4)c4nc(c(-c5ccccc5)c5ccc2[nH]5)C=C4)C=C3)cc1
REMARK SMILES IDX 16 1 15 2 14 3 1 4 2 5 3 7 4 8 5 9 13 10 6 11 7 12 8 13
REMARK SMILES IDX 12 14 9 16 11 17 10 18 17 19 18 20 19 21 20 23 21 24 22 25
REMARK SMILES IDX 68 26 23 27 67 28 24 29 25 30 26 31 61 32 27 33 66 34 60 35
REMARK SMILES IDX 62 36 28 37 65 38 59 39 58 40 29 42 51 43 36 44 50 45 37 46
REMARK SMILES IDX 40 47 49 48 63 49 38 50 39 51 48 53 64 54 41 55 30 56 31 57
REMARK SMILES IDX 35 58 32 59 34 60 33 61 52 62 53 63 57 64 54 65 56 66 55 67
REMARK SMILES IDX 42 68 43 69 47 70 44 71 46 72 45 73
REMARK H PARENT 14 6 7 15 18 22 62 41 40 52
REMARK Flexibility Score: inf
ROOT
ATOM      1  C   UNL A   1      36.662  23.280  23.650  1.00  0.00     0.042 C 
ENDROOT
BRANCH   1   2
ATOM      2  C   UNL A   1      35.148  23.132  23.542  1.00  0.00     0.117 C 
BRANCH   2   3
ATOM      3  N   UNL A   1      34.452  24.191  24.243  1.00  0.00    -0.356 N 
ATOM      4  O   UNL A   1      33.874  25.378  22.359  1.00  0.00    -0.275 OA
ATOM      5  C   UNL A   1      33.836  25.227  23.576  1.00  0.00     0.221 C 
ATOM      6  H   UNL A   1      34.418  24.170  25.227  1.00  0.00     0.163 HD
BRANCH   5   7
ATOM      7  C   UNL A   1      33.204  26.257  24.482  1.00  0.00     0.118 C 
BRANCH   7   8
ATOM      8  C   UNL A   1      33.362  27.726  24.095  1.00  0.00     0.120 C 
ATOM      9  C   UNL A   1      32.179  28.392  23.359  1.00  0.00     0.232 C 
ATOM     10  C   UNL A   1      33.488  28.604  25.318  1.00  0.00    -0.011 A 
ATOM     11  O   UNL A   1      31.694  28.069  22.286  1.00  0.00    -0.274 OA
ATOM     12  N   UNL A   1      31.736  29.450  24.145  1.00  0.00    -0.325 N 
ATOM     13  C   UNL A   1      32.501  29.585  25.291  1.00  0.00     0.045 A 
ATOM     14  C   UNL A   1      34.386  28.536  26.370  1.00  0.00     0.007 A 
ATOM     15  H   UNL A   1      30.976  30.030  23.915  1.00  0.00     0.169 HD
ATOM     16  C   UNL A   1      32.357  30.520  26.293  1.00  0.00     0.026 A 
ATOM     17  C   UNL A   1      34.255  29.467  27.404  1.00  0.00     0.000 A 
ATOM     18  C   UNL A   1      33.250  30.450  27.367  1.00  0.00     0.002 A 
ENDBRANCH   7   8
ENDBRANCH   5   7
ENDBRANCH   2   3
ENDBRANCH   1   2
BRANCH   1  19
ATOM     19  C   UNL A   1      37.174  23.563  25.059  1.00  0.00     0.118 C 
BRANCH  19  20
ATOM     20  N   UNL A   1      38.228  22.653  25.482  1.00  0.00    -0.352 N 
ATOM     21  C   UNL A   1      39.372  22.889  26.203  1.00  0.00     0.251 C 
ATOM     22  H   UNL A   1      38.100  21.717  25.205  1.00  0.00     0.163 HD
ATOM     23  O   UNL A   1      40.199  21.990  26.331  1.00  0.00    -0.269 OA
BRANCH  21  24
ATOM     24  C   UNL A   1      39.638  24.215  26.806  1.00  0.00     0.039 A 
ATOM     25  C   UNL A   1      39.162  24.462  28.097  1.00  0.00     0.014 A 
ATOM     26  C   UNL A   1      40.315  25.224  26.115  1.00  0.00     0.014 A 
ATOM     27  C   UNL A   1      39.413  25.691  28.711  1.00  0.00     0.010 A 
ATOM     28  C   UNL A   1      40.636  26.419  26.759  1.00  0.00     0.010 A 
ATOM     29  C   UNL A   1      40.186  26.669  28.063  1.00  0.00    -0.014 A 
BRANCH  29  30
ATOM     30  C   UNL A   1      40.544  27.932  28.764  1.00  0.00     0.031 A 
ATOM     31  C   UNL A   1      39.548  29.050  28.909  1.00  0.00     0.074 A 
ATOM     32  C   UNL A   1      41.790  28.080  29.256  1.00  0.00     0.049 A 
ATOM     33  N   UNL A   1      39.681  30.196  29.531  1.00  0.00    -0.248 NA
ATOM     34  C   UNL A   1      38.242  28.873  28.256  1.00  0.00     0.031 C 
ATOM     35  C   UNL A   1      42.870  27.096  29.137  1.00  0.00     0.029 A 
ATOM     36  N   UNL A   1      42.357  29.109  29.966  1.00  0.00    -0.354 N 
ATOM     37  C   UNL A   1      38.483  30.874  29.341  1.00  0.00     0.074 A 
ATOM     38  C   UNL A   1      37.658  30.037  28.497  1.00  0.00     0.031 C 
ATOM     39  C   UNL A   1      43.949  27.547  29.795  1.00  0.00     0.029 A 
ATOM     40  C   UNL A   1      43.655  28.865  30.346  1.00  0.00     0.049 A 
ATOM     41  H   UNL A   1      41.880  29.942  30.183  1.00  0.00     0.167 HD
ATOM     42  C   UNL A   1      38.095  32.073  29.839  1.00  0.00     0.031 A 
ATOM     43  C   UNL A   1      44.515  29.614  31.063  1.00  0.00     0.031 A 
ATOM     44  C   UNL A   1      38.918  32.912  30.673  1.00  0.00     0.049 A 
ATOM     45  C   UNL A   1      44.062  30.943  31.597  1.00  0.00     0.074 A 
ATOM     46  C   UNL A   1      38.595  34.121  31.266  1.00  0.00     0.029 A 
ATOM     47  N   UNL A   1      40.228  32.633  31.027  1.00  0.00    -0.354 N 
ATOM     48  N   UNL A   1      42.897  31.531  31.472  1.00  0.00    -0.248 NA
ATOM     49  C   UNL A   1      45.040  31.701  32.387  1.00  0.00     0.031 C 
ATOM     50  C   UNL A   1      39.729  34.603  31.926  1.00  0.00     0.029 A 
ATOM     51  C   UNL A   1      40.737  33.660  31.807  1.00  0.00     0.049 A 
ATOM     52  H   UNL A   1      40.726  31.826  30.761  1.00  0.00     0.167 HD
ATOM     53  C   UNL A   1      42.993  32.714  32.196  1.00  0.00     0.074 A 
ATOM     54  C   UNL A   1      44.320  32.743  32.775  1.00  0.00     0.031 C 
ATOM     55  C   UNL A   1      42.064  33.687  32.367  1.00  0.00     0.031 A 
BRANCH  42  56
ATOM     56  C   UNL A   1      36.713  32.558  29.482  1.00  0.00    -0.014 A 
ATOM     57  C   UNL A   1      35.618  32.333  30.333  1.00  0.00     0.009 A 
ATOM     58  C   UNL A   1      36.511  33.287  28.299  1.00  0.00     0.009 A 
ATOM     59  C   UNL A   1      34.345  32.792  29.988  1.00  0.00     0.001 A 
ATOM     60  C   UNL A   1      35.243  33.774  27.972  1.00  0.00     0.001 A 
ATOM     61  C   UNL A   1      34.159  33.517  28.812  1.00  0.00     0.000 A 
ENDBRANCH  42  56
BRANCH  43  62
ATOM     62  C   UNL A   1      45.887  29.112  31.342  1.00  0.00    -0.014 A 
ATOM     63  C   UNL A   1      46.153  28.362  32.499  1.00  0.00     0.009 A 
ATOM     64  C   UNL A   1      46.941  29.392  30.460  1.00  0.00     0.009 A 
ATOM     65  C   UNL A   1      47.451  27.932  32.782  1.00  0.00     0.001 A 
ATOM     66  C   UNL A   1      48.233  28.931  30.728  1.00  0.00     0.001 A 
ATOM     67  C   UNL A   1      48.489  28.212  31.895  1.00  0.00     0.000 A 
ENDBRANCH  43  62
BRANCH  55  68
ATOM     68  C   UNL A   1      42.446  34.846  33.248  1.00  0.00    -0.014 A 
ATOM     69  C   UNL A   1      43.105  35.976  32.737  1.00  0.00     0.009 A 
ATOM     70  C   UNL A   1      42.145  34.802  34.619  1.00  0.00     0.009 A 
ATOM     71  C   UNL A   1      43.505  37.008  33.589  1.00  0.00     0.001 A 
ATOM     72  C   UNL A   1      42.511  35.852  35.462  1.00  0.00     0.001 A 
ATOM     73  C   UNL A   1      43.206  36.946  34.949  1.00  0.00     0.000 A 
ENDBRANCH  55  68
ENDBRANCH  29  30
ENDBRANCH  21  24
ENDBRANCH  19  20
ENDBRANCH   1  19
TORSDOF 11
ENDMDL
MODEL 3
REMARK VINA RESULT:     -10.6      2.619      7.777
REMARK SMILES O=C(C[C@H]1C(=O)Nc2ccccc21)NCCCNC(=O)c1ccc(-c2c3nc(c(-c4ccccc4)c4ccc([nH]4)c(-c4ccccc4)c4nc(c(-c5ccccc5)c5ccc2[nH]5)C=C4)C=C3)cc1
REMARK SMILES IDX 16 1 15 2 14 3 1 4 2 5 3 7 4 8 5 9 13 10 6 11 7 12 8 13
REMARK SMILES IDX 12 14 9 16 11 17 10 18 17 19 18 20 19 21 20 23 21 24 22 25
REMARK SMILES IDX 68 26 23 27 67 28 24 29 25 30 26 31 61 32 27 33 66 34 60 35
REMARK SMILES IDX 62 36 28 37 65 38 59 39 58 40 29 42 51 43 36 44 50 45 37 46
REMARK SMILES IDX 40 47 49 48 63 49 38 50 39 51 48 53 64 54 41 55 30 56 31 57
REMARK SMILES IDX 35 58 32 59 34 60 33 61 52 62 53 63 57 64 54 65 56 66 55 67
REMARK SMILES IDX 42 68 43 69 47 70 44 71 46 72 45 73
REMARK H PARENT 14 6 7 15 18 22 62 41 40 52
REMARK Flexibility Score: inf
ROOT
ATOM      1  C   UNL A   1      35.432  23.054  26.262  1.00  0.00     0.042 C 
ENDROOT
BRANCH   1   2
ATOM      2  C   UNL A   1      34.238  22.849  25.338  1.00  0.00     0.117 C 
BRANCH   2   3
ATOM      3  N   UNL A   1      33.619  24.106  24.972  1.00  0.00    -0.356 N 
ATOM      4  O   UNL A   1      34.343  24.098  22.789  1.00  0.00    -0.275 OA
ATOM      5  C   UNL A   1      33.700  24.616  23.696  1.00  0.00     0.221 C 
ATOM      6  H   UNL A   1      33.123  24.611  25.657  1.00  0.00     0.163 HD
BRANCH   5   7
ATOM      7  C   UNL A   1      33.029  25.959  23.522  1.00  0.00     0.118 C 
BRANCH   7   8
ATOM      8  C   UNL A   1      33.822  27.199  23.927  1.00  0.00     0.120 C 
ATOM      9  C   UNL A   1      33.870  28.366  22.918  1.00  0.00     0.232 C 
ATOM     10  C   UNL A   1      33.209  27.870  25.135  1.00  0.00    -0.011 A 
ATOM     11  O   UNL A   1      34.311  28.347  21.780  1.00  0.00    -0.274 OA
ATOM     12  N   UNL A   1      33.305  29.478  23.532  1.00  0.00    -0.325 N 
ATOM     13  C   UNL A   1      32.921  29.198  24.833  1.00  0.00     0.045 A 
ATOM     14  C   UNL A   1      32.919  27.353  26.386  1.00  0.00     0.007 A 
ATOM     15  H   UNL A   1      33.193  30.354  23.098  1.00  0.00     0.169 HD
ATOM     16  C   UNL A   1      32.333  30.054  25.739  1.00  0.00     0.026 A 
ATOM     17  C   UNL A   1      32.314  28.198  27.320  1.00  0.00     0.000 A 
ATOM     18  C   UNL A   1      32.023  29.536  27.000  1.00  0.00     0.002 A 
ENDBRANCH   7   8
ENDBRANCH   5   7
ENDBRANCH   2   3
ENDBRANCH   1   2
BRANCH   1  19
ATOM     19  C   UNL A   1      36.732  23.422  25.551  1.00  0.00     0.118 C 
BRANCH  19  20
ATOM     20  N   UNL A   1      37.831  22.520  25.858  1.00  0.00    -0.352 N 
ATOM     21  C   UNL A   1      39.063  22.774  26.407  1.00  0.00     0.251 C 
ATOM     22  H   UNL A   1      37.665  21.576  25.635  1.00  0.00     0.163 HD
ATOM     23  O   UNL A   1      39.898  21.874  26.454  1.00  0.00    -0.269 OA
BRANCH  21  24
ATOM     24  C   UNL A   1      39.413  24.118  26.920  1.00  0.00     0.039 A 
ATOM     25  C   UNL A   1      39.047  24.441  28.230  1.00  0.00     0.014 A 
ATOM     26  C   UNL A   1      40.059  25.072  26.129  1.00  0.00     0.014 A 
ATOM     27  C   UNL A   1      39.378  25.691  28.760  1.00  0.00     0.010 A 
ATOM     28  C   UNL A   1      40.463  26.285  26.684  1.00  0.00     0.010 A 
ATOM     29  C   UNL A   1      40.125  26.611  28.005  1.00  0.00    -0.014 A 
BRANCH  29  30
ATOM     30  C   UNL A   1      40.570  27.895  28.612  1.00  0.00     0.031 A 
ATOM     31  C   UNL A   1      42.005  28.112  29.010  1.00  0.00     0.074 A 
ATOM     32  C   UNL A   1      39.664  28.870  28.825  1.00  0.00     0.049 A 
ATOM     33  N   UNL A   1      42.569  29.186  29.507  1.00  0.00    -0.248 NA
ATOM     34  C   UNL A   1      42.923  26.973  28.853  1.00  0.00     0.031 C 
ATOM     35  C   UNL A   1      38.231  28.772  28.536  1.00  0.00     0.029 A 
ATOM     36  N   UNL A   1      39.814  30.140  29.325  1.00  0.00    -0.354 N 
ATOM     37  C   UNL A   1      43.900  28.852  29.723  1.00  0.00     0.074 A 
ATOM     38  C   UNL A   1      44.046  27.458  29.360  1.00  0.00     0.031 C 
ATOM     39  C   UNL A   1      37.644  29.946  28.815  1.00  0.00     0.029 A 
ATOM     40  C   UNL A   1      38.648  30.866  29.340  1.00  0.00     0.049 A 
ATOM     41  H   UNL A   1      40.675  30.497  29.641  1.00  0.00     0.167 HD
ATOM     42  C   UNL A   1      44.914  29.635  30.164  1.00  0.00     0.031 A 
ATOM     43  C   UNL A   1      38.408  32.134  29.727  1.00  0.00     0.031 A 
ATOM     44  C   UNL A   1      44.770  31.020  30.532  1.00  0.00     0.049 A 
ATOM     45  C   UNL A   1      39.549  32.979  30.219  1.00  0.00     0.074 A 
ATOM     46  C   UNL A   1      45.748  31.910  30.943  1.00  0.00     0.029 A 
ATOM     47  N   UNL A   1      43.571  31.715  30.543  1.00  0.00    -0.354 N 
ATOM     48  N   UNL A   1      40.817  32.668  30.342  1.00  0.00    -0.248 NA
ATOM     49  C   UNL A   1      39.225  34.358  30.606  1.00  0.00     0.031 C 
ATOM     50  C   UNL A   1      45.132  33.124  31.262  1.00  0.00     0.029 A 
ATOM     51  C   UNL A   1      43.780  33.014  30.978  1.00  0.00     0.049 A 
ATOM     52  H   UNL A   1      42.699  31.341  30.280  1.00  0.00     0.167 HD
ATOM     53  C   UNL A   1      41.446  33.823  30.791  1.00  0.00     0.074 A 
ATOM     54  C   UNL A   1      40.424  34.843  30.892  1.00  0.00     0.031 C 
ATOM     55  C   UNL A   1      42.754  34.020  31.090  1.00  0.00     0.031 A 
BRANCH  42  56
ATOM     56  C   UNL A   1      46.278  29.004  30.282  1.00  0.00    -0.014 A 
ATOM     57  C   UNL A   1      47.186  29.020  29.210  1.00  0.00     0.009 A 
ATOM     58  C   UNL A   1      46.677  28.421  31.496  1.00  0.00     0.009 A 
ATOM     59  C   UNL A   1      48.446  28.432  29.338  1.00  0.00     0.001 A 
ATOM     60  C   UNL A   1      47.950  27.864  31.632  1.00  0.00     0.001 A 
ATOM     61  C   UNL A   1      48.830  27.861  30.550  1.00  0.00     0.000 A 
ENDBRANCH  42  56
BRANCH  43  62
ATOM     62  C   UNL A   1      37.033  32.693  29.640  1.00  0.00    -0.014 A 
ATOM     63  C   UNL A   1      36.135  32.555  30.710  1.00  0.00     0.009 A 
ATOM     64  C   UNL A   1      36.605  33.357  28.481  1.00  0.00     0.009 A 
ATOM     65  C   UNL A   1      34.830  33.039  30.608  1.00  0.00     0.001 A 
ATOM     66  C   UNL A   1      35.310  33.872  28.393  1.00  0.00     0.001 A 
ATOM     67  C   UNL A   1      34.420  33.703  29.453  1.00  0.00     0.000 A 
ENDBRANCH  43  62
BRANCH  55  68
ATOM     68  C   UNL A   1      43.154  35.406  31.519  1.00  0.00    -0.014 A 
ATOM     69  C   UNL A   1      43.593  36.367  30.594  1.00  0.00     0.009 A 
ATOM     70  C   UNL A   1      43.095  35.754  32.878  1.00  0.00     0.009 A 
ATOM     71  C   UNL A   1      44.019  37.624  31.028  1.00  0.00     0.001 A 
ATOM     72  C   UNL A   1      43.484  37.024  33.305  1.00  0.00     0.001 A 
ATOM     73  C   UNL A   1      43.963  37.952  32.382  1.00  0.00     0.000 A 
ENDBRANCH  55  68
ENDBRANCH  29  30
ENDBRANCH  21  24
ENDBRANCH  19  20
ENDBRANCH   1  19
TORSDOF 11
ENDMDL
