MODEL 1
REMARK VINA RESULT:     -11.7      0.000      0.000
REMARK SMILES CCOc1ccc2[nH]c(C)c/c(=N\c3cccc(C(=O)NCCCNC(=O)c4ccc(-c5c6nc(c(-c7ccccc7)c7ccc([nH]7)c(-c7ccccc7)c7nc(c(-c8ccccc8)c8ccc5[nH]8)C=C7)C=C6)cc4)c3)c2c1
REMARK SMILES IDX 22 1 21 2 19 3 20 4 18 6 14 7 15 8 76 9 16 10 17 11 13 12
REMARK SMILES IDX 4 13 5 14 78 15 6 16 77 17 7 18 12 19 8 20 11 21 9 22 10 24
REMARK SMILES IDX 3 25 2 26 1 27 23 28 24 29 25 30 26 31 27 33 28 34 29 35
REMARK SMILES IDX 75 36 30 37 74 38 31 39 32 40 33 41 68 42 34 43 73 44 67 45
REMARK SMILES IDX 69 46 35 47 72 48 66 49 65 50 36 52 58 53 43 54 57 55 44 56
REMARK SMILES IDX 47 57 56 58 70 59 45 60 46 61 55 63 71 64 48 65 37 66 38 67
REMARK SMILES IDX 42 68 39 69 41 70 40 71 59 72 60 73 64 74 61 75 63 76 62 77
REMARK SMILES IDX 49 78 50 79 54 80 51 81 53 82 52 83
REMARK H PARENT 21 5 8 23 25 32 69 51 47 62
REMARK Flexibility Score: inf
ROOT
ATOM      1  C   UNL A   1      35.229  21.803  25.901  1.00  0.00     0.118 C 
ENDROOT
BRANCH   1   2
ATOM      2  N   UNL A   1      33.801  21.849  26.178  1.00  0.00    -0.352 N 
ATOM      3  C   UNL A   1      32.704  22.484  25.654  1.00  0.00     0.251 C 
ATOM      4  O   UNL A   1      31.633  22.246  26.219  1.00  0.00    -0.269 OA
ATOM      5  H   UNL A   1      33.559  21.272  26.939  1.00  0.00     0.163 HD
BRANCH   3   6
ATOM      6  C   UNL A   1      32.703  23.447  24.514  1.00  0.00     0.041 A 
ATOM      7  C   UNL A   1      32.054  25.502  23.387  1.00  0.00     0.064 A 
ATOM      8  C   UNL A   1      32.692  25.087  22.219  1.00  0.00     0.028 A 
ATOM      9  C   UNL A   1      32.165  24.727  24.543  1.00  0.00     0.042 A 
ATOM     10  C   UNL A   1      33.309  23.839  22.177  1.00  0.00     0.003 A 
ATOM     11  C   UNL A   1      33.283  23.014  23.307  1.00  0.00     0.014 A 
BRANCH   7  12
ATOM     12  N   UNL A   1      31.212  26.626  23.448  1.00  0.00    -0.248 NA
ATOM     13  C   UNL A   1      28.989  30.270  23.129  1.00  0.00     0.120 A 
ATOM     14  C   UNL A   1      29.277  31.285  24.038  1.00  0.00     0.048 A 
ATOM     15  C   UNL A   1      29.721  29.081  23.141  1.00  0.00     0.059 A 
ATOM     16  C   UNL A   1      30.354  31.157  24.913  1.00  0.00     0.030 A 
ATOM     17  C   UNL A   1      30.796  28.945  24.032  1.00  0.00     0.027 A 
ATOM     18  C   UNL A   1      31.130  29.996  24.908  1.00  0.00     0.048 A 
ATOM     19  C   UNL A   1      31.630  27.697  24.065  1.00  0.00     0.075 A 
ATOM     20  N   UNL A   1      32.247  29.900  25.745  1.00  0.00    -0.359 N 
ATOM     21  C   UNL A   1      32.918  27.811  24.836  1.00  0.00     0.050 A 
ATOM     22  C   UNL A   1      33.128  28.852  25.655  1.00  0.00     0.014 A 
ATOM     23  H   UNL A   1      32.405  30.603  26.415  1.00  0.00     0.166 HD
ATOM     24  C   UNL A   1      34.349  28.906  26.531  1.00  0.00     0.064 C 
BRANCH  13  25
ATOM     25  O   UNL A   1      27.910  30.375  22.294  1.00  0.00    -0.494 OA
BRANCH  25  26
ATOM     26  C   UNL A   1      28.243  30.886  20.995  1.00  0.00     0.226 C 
ATOM     27  C   UNL A   1      27.864  32.352  20.837  1.00  0.00     0.049 C 
ENDBRANCH  25  26
ENDBRANCH  13  25
ENDBRANCH   7  12
ENDBRANCH   3   6
ENDBRANCH   1   2
BRANCH   1  28
ATOM     28  C   UNL A   1      35.913  23.153  26.070  1.00  0.00     0.042 C 
BRANCH  28  29
ATOM     29  C   UNL A   1      37.096  23.354  25.135  1.00  0.00     0.118 C 
BRANCH  29  30
ATOM     30  N   UNL A   1      38.263  22.566  25.517  1.00  0.00    -0.352 N 
ATOM     31  C   UNL A   1      39.432  22.904  26.160  1.00  0.00     0.251 C 
ATOM     32  H   UNL A   1      38.203  21.615  25.269  1.00  0.00     0.163 HD
ATOM     33  O   UNL A   1      40.353  22.096  26.194  1.00  0.00    -0.269 OA
BRANCH  31  34
ATOM     34  C   UNL A   1      39.610  24.239  26.777  1.00  0.00     0.039 A 
ATOM     35  C   UNL A   1      40.211  25.284  26.081  1.00  0.00     0.014 A 
ATOM     36  C   UNL A   1      39.135  24.460  28.074  1.00  0.00     0.014 A 
ATOM     37  C   UNL A   1      40.537  26.461  26.743  1.00  0.00     0.010 A 
ATOM     38  C   UNL A   1      39.354  25.692  28.701  1.00  0.00     0.010 A 
ATOM     39  C   UNL A   1      40.113  26.684  28.062  1.00  0.00    -0.014 A 
BRANCH  39  40
ATOM     40  C   UNL A   1      40.475  27.959  28.738  1.00  0.00     0.031 A 
ATOM     41  C   UNL A   1      39.462  29.063  28.896  1.00  0.00     0.074 A 
ATOM     42  C   UNL A   1      41.704  28.094  29.278  1.00  0.00     0.049 A 
ATOM     43  N   UNL A   1      39.600  30.225  29.485  1.00  0.00    -0.248 NA
ATOM     44  C   UNL A   1      38.125  28.845  28.320  1.00  0.00     0.031 C 
ATOM     45  C   UNL A   1      42.769  27.091  29.210  1.00  0.00     0.029 A 
ATOM     46  N   UNL A   1      42.255  29.110  30.020  1.00  0.00    -0.354 N 
ATOM     47  C   UNL A   1      38.384  30.878  29.330  1.00  0.00     0.074 A 
ATOM     48  C   UNL A   1      37.524  30.000  28.571  1.00  0.00     0.031 C 
ATOM     49  C   UNL A   1      43.813  27.507  29.940  1.00  0.00     0.029 A 
ATOM     50  C   UNL A   1      43.529  28.839  30.460  1.00  0.00     0.049 A 
ATOM     51  H   UNL A   1      41.782  29.951  30.218  1.00  0.00     0.167 HD
ATOM     52  C   UNL A   1      38.014  32.097  29.792  1.00  0.00     0.031 A 
ATOM     53  C   UNL A   1      44.386  29.580  31.189  1.00  0.00     0.031 A 
ATOM     54  C   UNL A   1      38.860  32.960  30.570  1.00  0.00     0.049 A 
ATOM     55  C   UNL A   1      43.961  30.943  31.655  1.00  0.00     0.074 A 
ATOM     56  C   UNL A   1      38.561  34.205  31.096  1.00  0.00     0.029 A 
ATOM     57  N   UNL A   1      40.164  32.671  30.941  1.00  0.00    -0.354 N 
ATOM     58  N   UNL A   1      42.804  31.540  31.500  1.00  0.00    -0.248 NA
ATOM     59  C   UNL A   1      44.955  31.736  32.391  1.00  0.00     0.031 C 
ATOM     60  C   UNL A   1      39.700  34.694  31.737  1.00  0.00     0.029 A 
ATOM     61  C   UNL A   1      40.688  33.725  31.669  1.00  0.00     0.049 A 
ATOM     62  H   UNL A   1      40.644  31.840  30.721  1.00  0.00     0.167 HD
ATOM     63  C   UNL A   1      42.929  32.773  32.127  1.00  0.00     0.074 A 
ATOM     64  C   UNL A   1      44.263  32.828  32.686  1.00  0.00     0.031 C 
ATOM     65  C   UNL A   1      42.016  33.769  32.223  1.00  0.00     0.031 A 
BRANCH  52  66
ATOM     66  C   UNL A   1      36.630  32.591  29.471  1.00  0.00    -0.014 A 
ATOM     67  C   UNL A   1      36.392  33.246  28.252  1.00  0.00     0.009 A 
ATOM     68  C   UNL A   1      35.596  32.522  30.418  1.00  0.00     0.009 A 
ATOM     69  C   UNL A   1      35.155  33.839  27.994  1.00  0.00     0.001 A 
ATOM     70  C   UNL A   1      34.351  33.093  30.146  1.00  0.00     0.001 A 
ATOM     71  C   UNL A   1      34.135  33.762  28.941  1.00  0.00     0.000 A 
ENDBRANCH  52  66
BRANCH  53  72
ATOM     72  C   UNL A   1      45.734  29.039  31.506  1.00  0.00    -0.014 A 
ATOM     73  C   UNL A   1      46.806  29.234  30.619  1.00  0.00     0.009 A 
ATOM     74  C   UNL A   1      45.948  28.287  32.671  1.00  0.00     0.009 A 
ATOM     75  C   UNL A   1      48.053  28.662  30.873  1.00  0.00     0.001 A 
ATOM     76  C   UNL A   1      47.208  27.745  32.941  1.00  0.00     0.001 A 
ATOM     77  C   UNL A   1      48.256  27.923  32.037  1.00  0.00     0.000 A 
ENDBRANCH  53  72
BRANCH  65  78
ATOM     78  C   UNL A   1      42.409  35.011  32.971  1.00  0.00    -0.014 A 
ATOM     79  C   UNL A   1      43.164  36.003  32.324  1.00  0.00     0.009 A 
ATOM     80  C   UNL A   1      42.131  35.149  34.338  1.00  0.00     0.009 A 
ATOM     81  C   UNL A   1      43.649  37.101  33.036  1.00  0.00     0.001 A 
ATOM     82  C   UNL A   1      42.592  36.263  35.042  1.00  0.00     0.001 A 
ATOM     83  C   UNL A   1      43.360  37.231  34.394  1.00  0.00     0.000 A 
ENDBRANCH  65  78
ENDBRANCH  39  40
ENDBRANCH  31  34
ENDBRANCH  29  30
ENDBRANCH  28  29
ENDBRANCH   1  28
TORSDOF 13
ENDMDL
MODEL 2
REMARK VINA RESULT:     -11.6      2.559      3.374
REMARK SMILES CCOc1ccc2[nH]c(C)c/c(=N\c3cccc(C(=O)NCCCNC(=O)c4ccc(-c5c6nc(c(-c7ccccc7)c7ccc([nH]7)c(-c7ccccc7)c7nc(c(-c8ccccc8)c8ccc5[nH]8)C=C7)C=C6)cc4)c3)c2c1
REMARK SMILES IDX 22 1 21 2 19 3 20 4 18 6 14 7 15 8 76 9 16 10 17 11 13 12
REMARK SMILES IDX 4 13 5 14 78 15 6 16 77 17 7 18 12 19 8 20 11 21 9 22 10 24
REMARK SMILES IDX 3 25 2 26 1 27 23 28 24 29 25 30 26 31 27 33 28 34 29 35
REMARK SMILES IDX 75 36 30 37 74 38 31 39 32 40 33 41 68 42 34 43 73 44 67 45
REMARK SMILES IDX 69 46 35 47 72 48 66 49 65 50 36 52 58 53 43 54 57 55 44 56
REMARK SMILES IDX 47 57 56 58 70 59 45 60 46 61 55 63 71 64 48 65 37 66 38 67
REMARK SMILES IDX 42 68 39 69 41 70 40 71 59 72 60 73 64 74 61 75 63 76 62 77
REMARK SMILES IDX 49 78 50 79 54 80 51 81 53 82 52 83
REMARK H PARENT 21 5 8 23 25 32 69 51 47 62
REMARK Flexibility Score: inf
ROOT
ATOM      1  C   UNL A   1      38.319  23.725  26.065  1.00  0.00     0.118 C 
ENDROOT
BRANCH   1   2
ATOM      2  N   UNL A   1      37.735  23.509  24.749  1.00  0.00    -0.352 N 
ATOM      3  C   UNL A   1      36.474  23.478  24.211  1.00  0.00     0.251 C 
ATOM      4  O   UNL A   1      36.418  23.238  23.002  1.00  0.00    -0.269 OA
ATOM      5  H   UNL A   1      38.426  23.343  24.067  1.00  0.00     0.163 HD
BRANCH   3   6
ATOM      6  C   UNL A   1      35.193  23.664  24.955  1.00  0.00     0.041 A 
ATOM      7  C   UNL A   1      33.022  24.686  25.350  1.00  0.00     0.064 A 
ATOM      8  C   UNL A   1      32.893  23.994  26.555  1.00  0.00     0.028 A 
ATOM      9  C   UNL A   1      34.115  24.425  24.523  1.00  0.00     0.042 A 
ATOM     10  C   UNL A   1      33.923  23.161  26.984  1.00  0.00     0.003 A 
ATOM     11  C   UNL A   1      35.077  23.026  26.205  1.00  0.00     0.014 A 
BRANCH   7  12
ATOM     12  N   UNL A   1      32.152  25.717  24.957  1.00  0.00    -0.248 NA
ATOM     13  C   UNL A   1      29.903  28.938  23.258  1.00  0.00     0.120 A 
ATOM     14  C   UNL A   1      30.041  30.199  23.834  1.00  0.00     0.048 A 
ATOM     15  C   UNL A   1      30.656  27.860  23.727  1.00  0.00     0.059 A 
ATOM     16  C   UNL A   1      30.994  30.413  24.828  1.00  0.00     0.030 A 
ATOM     17  C   UNL A   1      31.604  28.072  24.738  1.00  0.00     0.027 A 
ATOM     18  C   UNL A   1      31.792  29.359  25.277  1.00  0.00     0.048 A 
ATOM     19  C   UNL A   1      32.457  26.951  25.257  1.00  0.00     0.075 A 
ATOM     20  N   UNL A   1      32.790  29.595  26.230  1.00  0.00    -0.359 N 
ATOM     21  C   UNL A   1      33.627  27.377  26.102  1.00  0.00     0.050 A 
ATOM     22  C   UNL A   1      33.700  28.629  26.577  1.00  0.00     0.014 A 
ATOM     23  H   UNL A   1      32.839  30.478  26.662  1.00  0.00     0.166 HD
ATOM     24  C   UNL A   1      34.791  29.027  27.531  1.00  0.00     0.064 C 
BRANCH  13  25
ATOM     25  O   UNL A   1      28.943  28.714  22.308  1.00  0.00    -0.494 OA
BRANCH  25  26
ATOM     26  C   UNL A   1      27.679  29.315  22.624  1.00  0.00     0.226 C 
ATOM     27  C   UNL A   1      26.806  28.409  23.479  1.00  0.00     0.049 C 
ENDBRANCH  25  26
ENDBRANCH  13  25
ENDBRANCH   7  12
ENDBRANCH   3   6
ENDBRANCH   1   2
BRANCH   1  28
ATOM     28  C   UNL A   1      39.200  22.571  26.523  1.00  0.00     0.042 C 
BRANCH  28  29
ATOM     29  C   UNL A   1      40.571  23.012  27.013  1.00  0.00     0.118 C 
BRANCH  29  30
ATOM     30  N   UNL A   1      41.321  23.756  26.007  1.00  0.00    -0.352 N 
ATOM     31  C   UNL A   1      41.750  25.064  25.958  1.00  0.00     0.251 C 
ATOM     32  H   UNL A   1      41.569  23.224  25.216  1.00  0.00     0.163 HD
ATOM     33  O   UNL A   1      42.201  25.508  24.908  1.00  0.00    -0.269 OA
BRANCH  31  34
ATOM     34  C   UNL A   1      41.641  25.951  27.138  1.00  0.00     0.039 A 
ATOM     35  C   UNL A   1      40.689  25.726  28.128  1.00  0.00     0.014 A 
ATOM     36  C   UNL A   1      42.535  27.019  27.274  1.00  0.00     0.014 A 
ATOM     37  C   UNL A   1      40.481  26.676  29.120  1.00  0.00     0.010 A 
ATOM     38  C   UNL A   1      42.405  27.911  28.346  1.00  0.00     0.010 A 
ATOM     39  C   UNL A   1      41.337  27.782  29.246  1.00  0.00    -0.014 A 
BRANCH  39  40
ATOM     40  C   UNL A   1      41.088  28.776  30.324  1.00  0.00     0.031 A 
ATOM     41  C   UNL A   1      39.936  29.742  30.232  1.00  0.00     0.074 A 
ATOM     42  C   UNL A   1      41.863  28.759  31.429  1.00  0.00     0.049 A 
ATOM     43  N   UNL A   1      39.557  30.651  31.095  1.00  0.00    -0.248 NA
ATOM     44  C   UNL A   1      39.101  29.688  29.021  1.00  0.00     0.031 C 
ATOM     45  C   UNL A   1      42.999  27.861  31.648  1.00  0.00     0.029 A 
ATOM     46  N   UNL A   1      41.794  29.492  32.588  1.00  0.00    -0.354 N 
ATOM     47  C   UNL A   1      38.462  31.288  30.524  1.00  0.00     0.074 A 
ATOM     48  C   UNL A   1      38.248  30.682  29.229  1.00  0.00     0.031 C 
ATOM     49  C   UNL A   1      43.472  28.044  32.888  1.00  0.00     0.029 A 
ATOM     50  C   UNL A   1      42.731  29.126  33.525  1.00  0.00     0.049 A 
ATOM     51  H   UNL A   1      41.136  30.210  32.734  1.00  0.00     0.167 HD
ATOM     52  C   UNL A   1      37.696  32.279  31.039  1.00  0.00     0.031 A 
ATOM     53  C   UNL A   1      42.983  29.611  34.756  1.00  0.00     0.031 A 
ATOM     54  C   UNL A   1      37.893  32.864  32.337  1.00  0.00     0.049 A 
ATOM     55  C   UNL A   1      42.141  30.736  35.285  1.00  0.00     0.074 A 
ATOM     56  C   UNL A   1      37.152  33.861  32.948  1.00  0.00     0.029 A 
ATOM     57  N   UNL A   1      38.891  32.503  33.228  1.00  0.00    -0.354 N 
ATOM     58  N   UNL A   1      41.108  31.321  34.729  1.00  0.00    -0.248 NA
ATOM     59  C   UNL A   1      42.497  31.271  36.607  1.00  0.00     0.031 C 
ATOM     60  C   UNL A   1      37.736  34.143  34.184  1.00  0.00     0.029 A 
ATOM     61  C   UNL A   1      38.799  33.276  34.373  1.00  0.00     0.049 A 
ATOM     62  H   UNL A   1      39.564  31.802  33.070  1.00  0.00     0.167 HD
ATOM     63  C   UNL A   1      40.686  32.285  35.635  1.00  0.00     0.074 A 
ATOM     64  C   UNL A   1      41.557  32.190  36.788  1.00  0.00     0.031 C 
ATOM     65  C   UNL A   1      39.669  33.171  35.514  1.00  0.00     0.031 A 
BRANCH  52  66
ATOM     66  C   UNL A   1      36.566  32.815  30.203  1.00  0.00    -0.014 A 
ATOM     67  C   UNL A   1      36.794  33.901  29.343  1.00  0.00     0.009 A 
ATOM     68  C   UNL A   1      35.257  32.331  30.355  1.00  0.00     0.009 A 
ATOM     69  C   UNL A   1      35.732  34.506  28.667  1.00  0.00     0.001 A 
ATOM     70  C   UNL A   1      34.201  32.922  29.657  1.00  0.00     0.001 A 
ATOM     71  C   UNL A   1      34.437  34.017  28.825  1.00  0.00     0.000 A 
ENDBRANCH  52  66
BRANCH  53  72
ATOM     72  C   UNL A   1      44.092  29.031  35.559  1.00  0.00    -0.014 A 
ATOM     73  C   UNL A   1      45.404  29.514  35.412  1.00  0.00     0.009 A 
ATOM     74  C   UNL A   1      43.859  27.965  36.439  1.00  0.00     0.009 A 
ATOM     75  C   UNL A   1      46.462  28.921  36.104  1.00  0.00     0.001 A 
ATOM     76  C   UNL A   1      44.915  27.397  37.157  1.00  0.00     0.001 A 
ATOM     77  C   UNL A   1      46.216  27.867  36.980  1.00  0.00     0.000 A 
ENDBRANCH  53  72
BRANCH  65  78
ATOM     78  C   UNL A   1      39.419  34.112  36.659  1.00  0.00    -0.014 A 
ATOM     79  C   UNL A   1      39.971  35.403  36.632  1.00  0.00     0.009 A 
ATOM     80  C   UNL A   1      38.735  33.687  37.807  1.00  0.00     0.009 A 
ATOM     81  C   UNL A   1      39.860  36.244  37.740  1.00  0.00     0.001 A 
ATOM     82  C   UNL A   1      38.601  34.540  38.903  1.00  0.00     0.001 A 
ATOM     83  C   UNL A   1      39.172  35.813  38.873  1.00  0.00     0.000 A 
ENDBRANCH  65  78
ENDBRANCH  39  40
ENDBRANCH  31  34
ENDBRANCH  29  30
ENDBRANCH  28  29
ENDBRANCH   1  28
TORSDOF 13
ENDMDL
MODEL 3
REMARK VINA RESULT:     -11.3      4.119      8.344
REMARK SMILES CCOc1ccc2[nH]c(C)c/c(=N\c3cccc(C(=O)NCCCNC(=O)c4ccc(-c5c6nc(c(-c7ccccc7)c7ccc([nH]7)c(-c7ccccc7)c7nc(c(-c8ccccc8)c8ccc5[nH]8)C=C7)C=C6)cc4)c3)c2c1
REMARK SMILES IDX 22 1 21 2 19 3 20 4 18 6 14 7 15 8 76 9 16 10 17 11 13 12
REMARK SMILES IDX 4 13 5 14 78 15 6 16 77 17 7 18 12 19 8 20 11 21 9 22 10 24
REMARK SMILES IDX 3 25 2 26 1 27 23 28 24 29 25 30 26 31 27 33 28 34 29 35
REMARK SMILES IDX 75 36 30 37 74 38 31 39 32 40 33 41 68 42 34 43 73 44 67 45
REMARK SMILES IDX 69 46 35 47 72 48 66 49 65 50 36 52 58 53 43 54 57 55 44 56
REMARK SMILES IDX 47 57 56 58 70 59 45 60 46 61 55 63 71 64 48 65 37 66 38 67
REMARK SMILES IDX 42 68 39 69 41 70 40 71 59 72 60 73 64 74 61 75 63 76 62 77
REMARK SMILES IDX 49 78 50 79 54 80 51 81 53 82 52 83
REMARK H PARENT 21 5 8 23 25 32 69 51 47 62
REMARK Flexibility Score: inf
ROOT
ATOM      1  C   UNL A   1      40.797  20.565  27.030  1.00  0.00     0.118 C 
ENDROOT
BRANCH   1   2
ATOM      2  N   UNL A   1      40.509  21.945  27.392  1.00  0.00    -0.352 N 
ATOM      3  C   UNL A   1      39.575  22.890  27.053  1.00  0.00     0.251 C 
ATOM      4  O   UNL A   1      39.704  23.986  27.606  1.00  0.00    -0.269 OA
ATOM      5  H   UNL A   1      41.153  22.289  28.053  1.00  0.00     0.163 HD
BRANCH   3   6
ATOM      6  C   UNL A   1      38.468  22.722  26.067  1.00  0.00     0.041 A 
ATOM      7  C   UNL A   1      36.475  23.440  24.872  1.00  0.00     0.064 A 
ATOM      8  C   UNL A   1      36.358  22.186  24.272  1.00  0.00     0.028 A 
ATOM      9  C   UNL A   1      37.586  23.719  25.670  1.00  0.00     0.042 A 
ATOM     10  C   UNL A   1      37.271  21.184  24.589  1.00  0.00     0.003 A 
ATOM     11  C   UNL A   1      38.296  21.442  25.505  1.00  0.00     0.014 A 
BRANCH   7  12
ATOM     12  N   UNL A   1      35.476  24.426  24.798  1.00  0.00    -0.248 NA
ATOM     13  C   UNL A   1      32.740  27.706  25.070  1.00  0.00     0.120 A 
ATOM     14  C   UNL A   1      31.511  27.475  25.685  1.00  0.00     0.048 A 
ATOM     15  C   UNL A   1      33.699  26.694  25.005  1.00  0.00     0.059 A 
ATOM     16  C   UNL A   1      31.263  26.258  26.316  1.00  0.00     0.030 A 
ATOM     17  C   UNL A   1      33.443  25.463  25.626  1.00  0.00     0.027 A 
ATOM     18  C   UNL A   1      32.228  25.249  26.305  1.00  0.00     0.048 A 
ATOM     19  C   UNL A   1      34.454  24.354  25.607  1.00  0.00     0.075 A 
ATOM     20  N   UNL A   1      31.997  24.053  26.994  1.00  0.00    -0.359 N 
ATOM     21  C   UNL A   1      34.179  23.224  26.563  1.00  0.00     0.050 A 
ATOM     22  C   UNL A   1      32.978  23.107  27.147  1.00  0.00     0.014 A 
ATOM     23  H   UNL A   1      31.106  23.888  27.379  1.00  0.00     0.166 HD
ATOM     24  C   UNL A   1      32.648  21.910  27.995  1.00  0.00     0.064 C 
BRANCH  13  25
ATOM     25  O   UNL A   1      32.974  28.886  24.417  1.00  0.00    -0.494 OA
BRANCH  25  26
ATOM     26  C   UNL A   1      32.744  28.809  23.003  1.00  0.00     0.226 C 
ATOM     27  C   UNL A   1      34.028  28.569  22.221  1.00  0.00     0.049 C 
ENDBRANCH  25  26
ENDBRANCH  13  25
ENDBRANCH   7  12
ENDBRANCH   3   6
ENDBRANCH   1   2
BRANCH   1  28
ATOM     28  C   UNL A   1      41.886  20.439  25.973  1.00  0.00     0.042 C 
BRANCH  28  29
ATOM     29  C   UNL A   1      42.783  19.227  26.168  1.00  0.00     0.118 C 
BRANCH  29  30
ATOM     30  N   UNL A   1      43.607  18.936  24.999  1.00  0.00    -0.352 N 
ATOM     31  C   UNL A   1      44.455  19.721  24.252  1.00  0.00     0.251 C 
ATOM     32  H   UNL A   1      43.545  18.004  24.687  1.00  0.00     0.163 HD
ATOM     33  O   UNL A   1      44.890  19.292  23.189  1.00  0.00    -0.269 OA
BRANCH  31  34
ATOM     34  C   UNL A   1      44.821  21.088  24.690  1.00  0.00     0.039 A 
ATOM     35  C   UNL A   1      45.479  21.309  25.896  1.00  0.00     0.014 A 
ATOM     36  C   UNL A   1      44.527  22.174  23.858  1.00  0.00     0.014 A 
ATOM     37  C   UNL A   1      45.638  22.605  26.372  1.00  0.00     0.010 A 
ATOM     38  C   UNL A   1      44.801  23.479  24.284  1.00  0.00     0.010 A 
ATOM     39  C   UNL A   1      45.304  23.709  25.573  1.00  0.00    -0.014 A 
BRANCH  39  40
ATOM     40  C   UNL A   1      45.494  25.083  26.112  1.00  0.00     0.031 A 
ATOM     41  C   UNL A   1      46.834  25.766  26.029  1.00  0.00     0.074 A 
ATOM     42  C   UNL A   1      44.433  25.747  26.615  1.00  0.00     0.049 A 
ATOM     43  N   UNL A   1      47.167  26.971  26.420  1.00  0.00    -0.248 NA
ATOM     44  C   UNL A   1      47.947  25.006  25.435  1.00  0.00     0.031 C 
ATOM     45  C   UNL A   1      43.078  25.204  26.736  1.00  0.00     0.029 A 
ATOM     46  N   UNL A   1      44.315  27.032  27.086  1.00  0.00    -0.354 N 
ATOM     47  C   UNL A   1      48.522  27.102  26.142  1.00  0.00     0.074 A 
ATOM     48  C   UNL A   1      48.961  25.849  25.573  1.00  0.00     0.031 C 
ATOM     49  C   UNL A   1      42.255  26.166  27.175  1.00  0.00     0.029 A 
ATOM     50  C   UNL A   1      43.033  27.369  27.447  1.00  0.00     0.049 A 
ATOM     51  H   UNL A   1      45.077  27.652  27.157  1.00  0.00     0.167 HD
ATOM     52  C   UNL A   1      49.324  28.177  26.333  1.00  0.00     0.031 A 
ATOM     53  C   UNL A   1      42.531  28.511  27.956  1.00  0.00     0.031 A 
ATOM     54  C   UNL A   1      48.881  29.432  26.876  1.00  0.00     0.049 A 
ATOM     55  C   UNL A   1      43.453  29.673  28.192  1.00  0.00     0.074 A 
ATOM     56  C   UNL A   1      49.622  30.582  27.087  1.00  0.00     0.029 A 
ATOM     57  N   UNL A   1      47.586  29.709  27.284  1.00  0.00    -0.354 N 
ATOM     58  N   UNL A   1      44.730  29.777  27.919  1.00  0.00    -0.248 NA
ATOM     59  C   UNL A   1      42.868  30.873  28.807  1.00  0.00     0.031 C 
ATOM     60  C   UNL A   1      48.790  31.536  27.675  1.00  0.00     0.029 A 
ATOM     61  C   UNL A   1      47.515  31.004  27.768  1.00  0.00     0.049 A 
ATOM     62  H   UNL A   1      46.831  29.079  27.236  1.00  0.00     0.167 HD
ATOM     63  C   UNL A   1      45.100  31.054  28.320  1.00  0.00     0.074 A 
ATOM     64  C   UNL A   1      43.908  31.697  28.831  1.00  0.00     0.031 C 
ATOM     65  C   UNL A   1      46.323  31.634  28.272  1.00  0.00     0.031 A 
BRANCH  52  66
ATOM     66  C   UNL A   1      50.777  28.058  25.962  1.00  0.00    -0.014 A 
ATOM     67  C   UNL A   1      51.175  28.290  24.636  1.00  0.00     0.009 A 
ATOM     68  C   UNL A   1      51.728  27.600  26.887  1.00  0.00     0.009 A 
ATOM     69  C   UNL A   1      52.491  28.047  24.236  1.00  0.00     0.001 A 
ATOM     70  C   UNL A   1      53.050  27.383  26.490  1.00  0.00     0.001 A 
ATOM     71  C   UNL A   1      53.427  27.593  25.164  1.00  0.00     0.000 A 
ENDBRANCH  52  66
BRANCH  53  72
ATOM     72  C   UNL A   1      41.083  28.593  28.282  1.00  0.00    -0.014 A 
ATOM     73  C   UNL A   1      40.611  28.172  29.536  1.00  0.00     0.009 A 
ATOM     74  C   UNL A   1      40.158  29.047  27.329  1.00  0.00     0.009 A 
ATOM     75  C   UNL A   1      39.244  28.173  29.820  1.00  0.00     0.001 A 
ATOM     76  C   UNL A   1      38.793  29.080  27.629  1.00  0.00     0.001 A 
ATOM     77  C   UNL A   1      38.337  28.633  28.868  1.00  0.00     0.000 A 
ENDBRANCH  53  72
BRANCH  65  78
ATOM     78  C   UNL A   1      46.449  33.046  28.770  1.00  0.00    -0.014 A 
ATOM     79  C   UNL A   1      46.306  34.116  27.872  1.00  0.00     0.009 A 
ATOM     80  C   UNL A   1      46.819  33.314  30.096  1.00  0.00     0.009 A 
ATOM     81  C   UNL A   1      46.548  35.426  28.287  1.00  0.00     0.001 A 
ATOM     82  C   UNL A   1      47.033  34.628  30.516  1.00  0.00     0.001 A 
ATOM     83  C   UNL A   1      46.908  35.681  29.609  1.00  0.00     0.000 A 
ENDBRANCH  65  78
ENDBRANCH  39  40
ENDBRANCH  31  34
ENDBRANCH  29  30
ENDBRANCH  28  29
ENDBRANCH   1  28
TORSDOF 13
ENDMDL
