MODEL 1
REMARK VINA RESULT:     -10.5      0.000      0.000
REMARK SMILES CCCCCCNC(=O)Oc1cccc(-c2ccc([C@H](C)C(=O)NCCCNC(=O)c3ccc(-c4c5nc(c(-c6ccccc6)c6ccc([nH]6)c(-c6ccccc6)c6nc(c(-c7ccccc7)c7ccc4[nH]7)C=C6)C=C5)cc3)cc2F)c1
REMARK SMILES IDX 16 1 17 2 18 3 19 4 79 5 80 6 81 7 15 8 11 9 12 10 82 11
REMARK SMILES IDX 13 12 14 13 10 14 8 15 7 16 9 18 6 19 5 20 4 21 3 22 2 23
REMARK SMILES IDX 1 24 20 25 21 26 22 27 23 28 24 29 25 31 26 32 27 33 28 34
REMARK SMILES IDX 29 35 30 37 31 38 32 39 78 40 33 41 77 42 34 43 35 44 36 45
REMARK SMILES IDX 71 46 37 47 76 48 70 49 72 50 38 51 75 52 69 53 68 54 39 56
REMARK SMILES IDX 61 57 46 58 60 59 47 60 50 61 59 62 73 63 48 64 49 65 58 67
REMARK SMILES IDX 74 68 51 69 40 70 41 71 45 72 42 73 44 74 43 75 62 76 63 77
REMARK SMILES IDX 67 78 64 79 66 80 65 81 52 82 53 83 57 84 54 85 56 86 55 87
REMARK H PARENT 7 17 24 30 28 36 72 55 50 66
REMARK Flexibility Score: inf
ROOT
ATOM      1  C   UNL A   1      34.769  23.786  24.291  1.00  0.00     0.018 A 
ATOM      2  C   UNL A   1      34.792  24.848  25.207  1.00  0.00     0.012 A 
ATOM      3  C   UNL A   1      34.068  26.024  24.974  1.00  0.00     0.005 A 
ATOM      4  C   UNL A   1      33.270  26.163  23.829  1.00  0.00    -0.033 A 
ATOM      5  C   UNL A   1      33.285  25.117  22.889  1.00  0.00     0.044 A 
ATOM      6  C   UNL A   1      34.014  23.953  23.126  1.00  0.00     0.131 A 
ATOM      7  F   UNL A   1      33.960  22.977  22.206  1.00  0.00    -0.206 F 
ENDROOT
BRANCH   1   8
ATOM      8  C   UNL A   1      35.552  22.570  24.537  1.00  0.00    -0.012 A 
ATOM      9  C   UNL A   1      35.640  20.194  25.010  1.00  0.00     0.133 A 
ATOM     10  C   UNL A   1      37.029  20.200  24.925  1.00  0.00     0.047 A 
ATOM     11  C   UNL A   1      34.904  21.367  24.848  1.00  0.00     0.056 A 
ATOM     12  C   UNL A   1      37.689  21.393  24.635  1.00  0.00     0.004 A 
ATOM     13  C   UNL A   1      36.954  22.567  24.437  1.00  0.00     0.009 A 
BRANCH   9  14
ATOM     14  O   UNL A   1      35.019  18.984  25.352  1.00  0.00    -0.410 OA
BRANCH  14  15
ATOM     15  C   UNL A   1      34.287  18.345  24.365  1.00  0.00     0.412 C 
ATOM     16  N   UNL A   1      32.948  18.598  24.434  1.00  0.00    -0.321 N 
ATOM     17  H   UNL A   1      32.382  18.170  23.752  1.00  0.00     0.167 HD
ATOM     18  O   UNL A   1      34.737  17.600  23.493  1.00  0.00    -0.224 OA
BRANCH  16  19
ATOM     19  C   UNL A   1      32.274  19.432  25.408  1.00  0.00     0.119 C 
BRANCH  19  20
ATOM     20  C   UNL A   1      31.774  20.739  24.793  1.00  0.00     0.021 C 
BRANCH  20  21
ATOM     21  C   UNL A   1      31.654  21.909  25.777  1.00  0.00     0.002 C 
BRANCH  21  22
ATOM     22  C   UNL A   1      31.030  23.189  25.209  1.00  0.00    -0.000 C 
BRANCH  22  23
ATOM     23  C   UNL A   1      30.895  24.349  26.199  1.00  0.00    -0.003 C 
ATOM     24  C   UNL A   1      30.129  25.535  25.634  1.00  0.00     0.004 C 
ENDBRANCH  22  23
ENDBRANCH  21  22
ENDBRANCH  20  21
ENDBRANCH  19  20
ENDBRANCH  16  19
ENDBRANCH  14  15
ENDBRANCH   9  14
ENDBRANCH   1   8
BRANCH   4  25
ATOM     25  C   UNL A   1      32.382  27.378  23.579  1.00  0.00     0.105 C 
ATOM     26  C   UNL A   1      31.449  27.322  22.364  1.00  0.00     0.023 C 
BRANCH  25  27
ATOM     27  C   UNL A   1      33.167  28.695  23.543  1.00  0.00     0.227 C 
ATOM     28  O   UNL A   1      34.058  28.876  22.710  1.00  0.00    -0.274 OA
ATOM     29  N   UNL A   1      32.922  29.697  24.433  1.00  0.00    -0.356 N 
ATOM     30  H   UNL A   1      33.511  30.480  24.346  1.00  0.00     0.163 HD
BRANCH  29  31
ATOM     31  C   UNL A   1      31.933  29.791  25.490  1.00  0.00     0.117 C 
BRANCH  31  32
ATOM     32  C   UNL A   1      32.257  28.881  26.666  1.00  0.00     0.042 C 
BRANCH  32  33
ATOM     33  C   UNL A   1      33.598  29.178  27.324  1.00  0.00     0.118 C 
BRANCH  33  34
ATOM     34  N   UNL A   1      33.650  30.504  27.925  1.00  0.00    -0.352 N 
ATOM     35  C   UNL A   1      34.648  31.117  28.639  1.00  0.00     0.251 C 
ATOM     36  H   UNL A   1      32.840  31.048  27.796  1.00  0.00     0.163 HD
ATOM     37  O   UNL A   1      34.422  32.179  29.211  1.00  0.00    -0.269 OA
BRANCH  35  38
ATOM     38  C   UNL A   1      35.987  30.497  28.746  1.00  0.00     0.039 A 
ATOM     39  C   UNL A   1      36.848  30.563  27.646  1.00  0.00     0.014 A 
ATOM     40  C   UNL A   1      36.390  29.834  29.908  1.00  0.00     0.014 A 
ATOM     41  C   UNL A   1      38.135  30.027  27.738  1.00  0.00     0.010 A 
ATOM     42  C   UNL A   1      37.699  29.379  30.029  1.00  0.00     0.010 A 
ATOM     43  C   UNL A   1      38.584  29.466  28.943  1.00  0.00    -0.014 A 
BRANCH  43  44
ATOM     44  C   UNL A   1      39.974  28.963  29.090  1.00  0.00     0.031 A 
ATOM     45  C   UNL A   1      41.064  29.876  29.579  1.00  0.00     0.074 A 
ATOM     46  C   UNL A   1      40.268  27.702  28.718  1.00  0.00     0.049 A 
ATOM     47  N   UNL A   1      42.344  29.637  29.709  1.00  0.00    -0.248 NA
ATOM     48  C   UNL A   1      40.669  31.246  29.946  1.00  0.00     0.031 C 
ATOM     49  C   UNL A   1      39.311  26.727  28.188  1.00  0.00     0.029 A 
ATOM     50  N   UNL A   1      41.462  27.025  28.723  1.00  0.00    -0.354 N 
ATOM     51  C   UNL A   1      42.908  30.827  30.151  1.00  0.00     0.074 A 
ATOM     52  C   UNL A   1      41.841  31.800  30.221  1.00  0.00     0.031 C 
ATOM     53  C   UNL A   1      39.950  25.572  27.944  1.00  0.00     0.029 A 
ATOM     54  C   UNL A   1      41.366  25.735  28.259  1.00  0.00     0.049 A 
ATOM     55  H   UNL A   1      42.307  27.426  29.029  1.00  0.00     0.167 HD
ATOM     56  C   UNL A   1      44.195  31.083  30.487  1.00  0.00     0.031 A 
ATOM     57  C   UNL A   1      42.311  24.790  28.100  1.00  0.00     0.031 A 
ATOM     58  C   UNL A   1      45.255  30.113  30.433  1.00  0.00     0.049 A 
ATOM     59  C   UNL A   1      43.734  25.103  28.473  1.00  0.00     0.074 A 
ATOM     60  C   UNL A   1      46.577  30.261  30.811  1.00  0.00     0.029 A 
ATOM     61  N   UNL A   1      45.112  28.814  29.970  1.00  0.00    -0.354 N 
ATOM     62  N   UNL A   1      44.236  26.213  28.954  1.00  0.00    -0.248 NA
ATOM     63  C   UNL A   1      44.716  24.026  28.290  1.00  0.00     0.031 C 
ATOM     64  C   UNL A   1      47.249  29.066  30.529  1.00  0.00     0.029 A 
ATOM     65  C   UNL A   1      46.329  28.157  30.029  1.00  0.00     0.049 A 
ATOM     66  H   UNL A   1      44.270  28.419  29.647  1.00  0.00     0.167 HD
ATOM     67  C   UNL A   1      45.586  25.960  29.159  1.00  0.00     0.074 A 
ATOM     68  C   UNL A   1      45.820  24.586  28.764  1.00  0.00     0.031 C 
ATOM     69  C   UNL A   1      46.546  26.790  29.633  1.00  0.00     0.031 A 
BRANCH  56  70
ATOM     70  C   UNL A   1      44.528  32.479  30.938  1.00  0.00    -0.014 A 
ATOM     71  C   UNL A   1      44.747  32.774  32.295  1.00  0.00     0.009 A 
ATOM     72  C   UNL A   1      44.664  33.506  29.992  1.00  0.00     0.009 A 
ATOM     73  C   UNL A   1      45.057  34.075  32.695  1.00  0.00     0.001 A 
ATOM     74  C   UNL A   1      45.004  34.799  30.392  1.00  0.00     0.001 A 
ATOM     75  C   UNL A   1      45.190  35.085  31.744  1.00  0.00     0.000 A 
ENDBRANCH  56  70
BRANCH  57  76
ATOM     76  C   UNL A   1      41.944  23.450  27.571  1.00  0.00    -0.014 A 
ATOM     77  C   UNL A   1      42.116  23.151  26.211  1.00  0.00     0.009 A 
ATOM     78  C   UNL A   1      41.414  22.467  28.420  1.00  0.00     0.009 A 
ATOM     79  C   UNL A   1      41.736  21.905  25.707  1.00  0.00     0.001 A 
ATOM     80  C   UNL A   1      41.063  21.212  27.919  1.00  0.00     0.001 A 
ATOM     81  C   UNL A   1      41.214  20.936  26.561  1.00  0.00     0.000 A 
ENDBRANCH  57  76
BRANCH  69  82
ATOM     82  C   UNL A   1      47.930  26.224  29.786  1.00  0.00    -0.014 A 
ATOM     83  C   UNL A   1      48.408  25.788  31.031  1.00  0.00     0.009 A 
ATOM     84  C   UNL A   1      48.752  26.090  28.656  1.00  0.00     0.009 A 
ATOM     85  C   UNL A   1      49.696  25.262  31.147  1.00  0.00     0.001 A 
ATOM     86  C   UNL A   1      50.027  25.536  28.770  1.00  0.00     0.001 A 
ATOM     87  C   UNL A   1      50.502  25.131  30.017  1.00  0.00     0.000 A 
ENDBRANCH  69  82
ENDBRANCH  43  44
ENDBRANCH  35  38
ENDBRANCH  33  34
ENDBRANCH  32  33
ENDBRANCH  31  32
ENDBRANCH  29  31
ENDBRANCH  25  27
ENDBRANCH   4  25
TORSDOF 19
ENDMDL
MODEL 2
REMARK VINA RESULT:     -10.5      5.058      9.895
REMARK SMILES CCCCCCNC(=O)Oc1cccc(-c2ccc([C@H](C)C(=O)NCCCNC(=O)c3ccc(-c4c5nc(c(-c6ccccc6)c6ccc([nH]6)c(-c6ccccc6)c6nc(c(-c7ccccc7)c7ccc4[nH]7)C=C6)C=C5)cc3)cc2F)c1
REMARK SMILES IDX 16 1 17 2 18 3 19 4 79 5 80 6 81 7 15 8 11 9 12 10 82 11
REMARK SMILES IDX 13 12 14 13 10 14 8 15 7 16 9 18 6 19 5 20 4 21 3 22 2 23
REMARK SMILES IDX 1 24 20 25 21 26 22 27 23 28 24 29 25 31 26 32 27 33 28 34
REMARK SMILES IDX 29 35 30 37 31 38 32 39 78 40 33 41 77 42 34 43 35 44 36 45
REMARK SMILES IDX 71 46 37 47 76 48 70 49 72 50 38 51 75 52 69 53 68 54 39 56
REMARK SMILES IDX 61 57 46 58 60 59 47 60 50 61 59 62 73 63 48 64 49 65 58 67
REMARK SMILES IDX 74 68 51 69 40 70 41 71 45 72 42 73 44 74 43 75 62 76 63 77
REMARK SMILES IDX 67 78 64 79 66 80 65 81 52 82 53 83 57 84 54 85 56 86 55 87
REMARK H PARENT 7 17 24 30 28 36 72 55 50 66
REMARK Flexibility Score: inf
ROOT
ATOM      1  C   UNL A   1      40.134  25.878  28.111  1.00  0.00     0.018 A 
ATOM      2  C   UNL A   1      39.104  25.414  27.278  1.00  0.00     0.012 A 
ATOM      3  C   UNL A   1      39.194  24.174  26.634  1.00  0.00     0.005 A 
ATOM      4  C   UNL A   1      40.306  23.340  26.829  1.00  0.00    -0.033 A 
ATOM      5  C   UNL A   1      41.358  23.826  27.626  1.00  0.00     0.044 A 
ATOM      6  C   UNL A   1      41.263  25.065  28.257  1.00  0.00     0.131 A 
ATOM      7  F   UNL A   1      42.286  25.459  29.032  1.00  0.00    -0.206 F 
ENDROOT
BRANCH   1   8
ATOM      8  C   UNL A   1      40.037  27.190  28.758  1.00  0.00    -0.012 A 
ATOM      9  C   UNL A   1      39.962  28.530  30.777  1.00  0.00     0.133 A 
ATOM     10  C   UNL A   1      39.941  29.705  30.030  1.00  0.00     0.047 A 
ATOM     11  C   UNL A   1      39.980  27.283  30.155  1.00  0.00     0.056 A 
ATOM     12  C   UNL A   1      39.977  29.628  28.640  1.00  0.00     0.004 A 
ATOM     13  C   UNL A   1      40.031  28.380  28.009  1.00  0.00     0.009 A 
BRANCH   9  14
ATOM     14  O   UNL A   1      39.875  28.650  32.171  1.00  0.00    -0.410 OA
BRANCH  14  15
ATOM     15  C   UNL A   1      38.677  28.291  32.767  1.00  0.00     0.412 C 
ATOM     16  N   UNL A   1      38.085  29.313  33.450  1.00  0.00    -0.321 N 
ATOM     17  H   UNL A   1      37.227  29.112  33.890  1.00  0.00     0.167 HD
ATOM     18  O   UNL A   1      38.151  27.178  32.731  1.00  0.00    -0.224 OA
BRANCH  16  19
ATOM     19  C   UNL A   1      38.588  30.664  33.597  1.00  0.00     0.119 C 
BRANCH  19  20
ATOM     20  C   UNL A   1      38.040  31.598  32.518  1.00  0.00     0.021 C 
BRANCH  20  21
ATOM     21  C   UNL A   1      37.862  33.056  32.959  1.00  0.00     0.002 C 
BRANCH  21  22
ATOM     22  C   UNL A   1      38.212  34.113  31.905  1.00  0.00    -0.000 C 
BRANCH  22  23
ATOM     23  C   UNL A   1      38.257  33.609  30.460  1.00  0.00    -0.003 C 
ATOM     24  C   UNL A   1      38.900  34.597  29.499  1.00  0.00     0.004 C 
ENDBRANCH  22  23
ENDBRANCH  21  22
ENDBRANCH  20  21
ENDBRANCH  19  20
ENDBRANCH  16  19
ENDBRANCH  14  15
ENDBRANCH   9  14
ENDBRANCH   1   8
BRANCH   4  25
ATOM     25  C   UNL A   1      40.406  21.938  26.236  1.00  0.00     0.105 C 
ATOM     26  C   UNL A   1      39.090  21.238  25.877  1.00  0.00     0.023 C 
BRANCH  25  27
ATOM     27  C   UNL A   1      41.259  20.988  27.084  1.00  0.00     0.227 C 
ATOM     28  O   UNL A   1      40.778  20.411  28.063  1.00  0.00    -0.274 OA
ATOM     29  N   UNL A   1      42.572  20.763  26.802  1.00  0.00    -0.356 N 
ATOM     30  H   UNL A   1      43.035  20.168  27.435  1.00  0.00     0.163 HD
BRANCH  29  31
ATOM     31  C   UNL A   1      43.397  21.260  25.717  1.00  0.00     0.117 C 
BRANCH  31  32
ATOM     32  C   UNL A   1      44.367  22.337  26.179  1.00  0.00     0.042 C 
BRANCH  32  33
ATOM     33  C   UNL A   1      44.110  23.706  25.563  1.00  0.00     0.118 C 
BRANCH  33  34
ATOM     34  N   UNL A   1      45.297  24.279  24.945  1.00  0.00    -0.352 N 
ATOM     35  C   UNL A   1      45.870  25.516  25.099  1.00  0.00     0.251 C 
ATOM     36  H   UNL A   1      45.765  23.682  24.317  1.00  0.00     0.163 HD
ATOM     37  O   UNL A   1      46.775  25.865  24.348  1.00  0.00    -0.269 OA
BRANCH  35  38
ATOM     38  C   UNL A   1      45.390  26.442  26.147  1.00  0.00     0.039 A 
ATOM     39  C   UNL A   1      44.060  26.873  26.106  1.00  0.00     0.014 A 
ATOM     40  C   UNL A   1      46.242  26.907  27.152  1.00  0.00     0.014 A 
ATOM     41  C   UNL A   1      43.570  27.711  27.111  1.00  0.00     0.010 A 
ATOM     42  C   UNL A   1      45.732  27.669  28.199  1.00  0.00     0.010 A 
ATOM     43  C   UNL A   1      44.391  28.084  28.187  1.00  0.00    -0.014 A 
BRANCH  43  44
ATOM     44  C   UNL A   1      43.870  28.907  29.307  1.00  0.00     0.031 A 
ATOM     45  C   UNL A   1      43.662  30.386  29.129  1.00  0.00     0.074 A 
ATOM     46  C   UNL A   1      43.646  28.335  30.506  1.00  0.00     0.049 A 
ATOM     47  N   UNL A   1      43.278  31.277  30.008  1.00  0.00    -0.248 NA
ATOM     48  C   UNL A   1      43.949  30.942  27.797  1.00  0.00     0.031 C 
ATOM     49  C   UNL A   1      43.846  26.918  30.823  1.00  0.00     0.029 A 
ATOM     50  N   UNL A   1      43.205  28.879  31.686  1.00  0.00    -0.354 N 
ATOM     51  C   UNL A   1      43.298  32.497  29.343  1.00  0.00     0.074 A 
ATOM     52  C   UNL A   1      43.776  32.240  28.003  1.00  0.00     0.031 C 
ATOM     53  C   UNL A   1      43.505  26.702  32.103  1.00  0.00     0.029 A 
ATOM     54  C   UNL A   1      43.102  27.967  32.709  1.00  0.00     0.049 A 
ATOM     55  H   UNL A   1      42.984  29.832  31.791  1.00  0.00     0.167 HD
ATOM     56  C   UNL A   1      42.932  33.718  29.800  1.00  0.00     0.031 A 
ATOM     57  C   UNL A   1      42.732  28.129  33.992  1.00  0.00     0.031 A 
ATOM     58  C   UNL A   1      42.441  33.973  31.127  1.00  0.00     0.049 A 
ATOM     59  C   UNL A   1      42.338  29.498  34.476  1.00  0.00     0.074 A 
ATOM     60  C   UNL A   1      41.987  35.165  31.663  1.00  0.00     0.029 A 
ATOM     61  N   UNL A   1      42.340  33.019  32.127  1.00  0.00    -0.354 N 
ATOM     62  N   UNL A   1      42.296  30.627  33.814  1.00  0.00    -0.248 NA
ATOM     63  C   UNL A   1      41.929  29.608  35.883  1.00  0.00     0.031 C 
ATOM     64  C   UNL A   1      41.660  34.944  33.005  1.00  0.00     0.029 A 
ATOM     65  C   UNL A   1      41.856  33.601  33.286  1.00  0.00     0.049 A 
ATOM     66  H   UNL A   1      42.578  32.069  32.028  1.00  0.00     0.167 HD
ATOM     67  C   UNL A   1      41.830  31.576  34.714  1.00  0.00     0.074 A 
ATOM     68  C   UNL A   1      41.588  30.886  35.964  1.00  0.00     0.031 C 
ATOM     69  C   UNL A   1      41.620  32.901  34.522  1.00  0.00     0.031 A 
BRANCH  56  70
ATOM     70  C   UNL A   1      43.057  34.879  28.851  1.00  0.00    -0.014 A 
ATOM     71  C   UNL A   1      44.293  35.511  28.633  1.00  0.00     0.009 A 
ATOM     72  C   UNL A   1      41.935  35.322  28.137  1.00  0.00     0.009 A 
ATOM     73  C   UNL A   1      44.391  36.586  27.747  1.00  0.00     0.001 A 
ATOM     74  C   UNL A   1      42.042  36.377  27.228  1.00  0.00     0.001 A 
ATOM     75  C   UNL A   1      43.268  37.015  27.042  1.00  0.00     0.000 A 
ENDBRANCH  56  70
BRANCH  57  76
ATOM     76  C   UNL A   1      42.704  26.963  34.914  1.00  0.00    -0.014 A 
ATOM     77  C   UNL A   1      43.856  26.587  35.621  1.00  0.00     0.009 A 
ATOM     78  C   UNL A   1      41.528  26.217  35.086  1.00  0.00     0.009 A 
ATOM     79  C   UNL A   1      43.840  25.469  36.458  1.00  0.00     0.001 A 
ATOM     80  C   UNL A   1      41.507  25.117  35.946  1.00  0.00     0.001 A 
ATOM     81  C   UNL A   1      42.665  24.738  36.623  1.00  0.00     0.000 A 
ENDBRANCH  57  76
BRANCH  69  82
ATOM     82  C   UNL A   1      41.067  33.683  35.680  1.00  0.00    -0.014 A 
ATOM     83  C   UNL A   1      41.912  34.327  36.597  1.00  0.00     0.009 A 
ATOM     84  C   UNL A   1      39.677  33.809  35.830  1.00  0.00     0.009 A 
ATOM     85  C   UNL A   1      41.375  35.051  37.663  1.00  0.00     0.001 A 
ATOM     86  C   UNL A   1      39.144  34.559  36.879  1.00  0.00     0.001 A 
ATOM     87  C   UNL A   1      39.992  35.171  37.800  1.00  0.00     0.000 A 
ENDBRANCH  69  82
ENDBRANCH  43  44
ENDBRANCH  35  38
ENDBRANCH  33  34
ENDBRANCH  32  33
ENDBRANCH  31  32
ENDBRANCH  29  31
ENDBRANCH  25  27
ENDBRANCH   4  25
TORSDOF 19
ENDMDL
MODEL 3
REMARK VINA RESULT:     -10.4      4.986     11.437
REMARK SMILES CCCCCCNC(=O)Oc1cccc(-c2ccc([C@H](C)C(=O)NCCCNC(=O)c3ccc(-c4c5nc(c(-c6ccccc6)c6ccc([nH]6)c(-c6ccccc6)c6nc(c(-c7ccccc7)c7ccc4[nH]7)C=C6)C=C5)cc3)cc2F)c1
REMARK SMILES IDX 16 1 17 2 18 3 19 4 79 5 80 6 81 7 15 8 11 9 12 10 82 11
REMARK SMILES IDX 13 12 14 13 10 14 8 15 7 16 9 18 6 19 5 20 4 21 3 22 2 23
REMARK SMILES IDX 1 24 20 25 21 26 22 27 23 28 24 29 25 31 26 32 27 33 28 34
REMARK SMILES IDX 29 35 30 37 31 38 32 39 78 40 33 41 77 42 34 43 35 44 36 45
REMARK SMILES IDX 71 46 37 47 76 48 70 49 72 50 38 51 75 52 69 53 68 54 39 56
REMARK SMILES IDX 61 57 46 58 60 59 47 60 50 61 59 62 73 63 48 64 49 65 58 67
REMARK SMILES IDX 74 68 51 69 40 70 41 71 45 72 42 73 44 74 43 75 62 76 63 77
REMARK SMILES IDX 67 78 64 79 66 80 65 81 52 82 53 83 57 84 54 85 56 86 55 87
REMARK H PARENT 7 17 24 30 28 36 72 55 50 66
REMARK Flexibility Score: inf
ROOT
ATOM      1  C   UNL A   1      45.424  27.229  25.779  1.00  0.00     0.018 A 
ATOM      2  C   UNL A   1      44.285  26.544  25.330  1.00  0.00     0.012 A 
ATOM      3  C   UNL A   1      44.366  25.225  24.866  1.00  0.00     0.005 A 
ATOM      4  C   UNL A   1      45.589  24.536  24.867  1.00  0.00    -0.033 A 
ATOM      5  C   UNL A   1      46.737  25.238  25.273  1.00  0.00     0.044 A 
ATOM      6  C   UNL A   1      46.647  26.553  25.726  1.00  0.00     0.131 A 
ATOM      7  F   UNL A   1      47.775  27.159  26.131  1.00  0.00    -0.206 F 
ENDROOT
BRANCH   1   8
ATOM      8  C   UNL A   1      45.328  28.618  26.238  1.00  0.00    -0.012 A 
ATOM      9  C   UNL A   1      46.294  30.833  26.429  1.00  0.00     0.133 A 
ATOM     10  C   UNL A   1      45.136  31.318  27.030  1.00  0.00     0.047 A 
ATOM     11  C   UNL A   1      46.408  29.494  26.060  1.00  0.00     0.056 A 
ATOM     12  C   UNL A   1      44.061  30.454  27.231  1.00  0.00     0.004 A 
ATOM     13  C   UNL A   1      44.155  29.117  26.832  1.00  0.00     0.009 A 
BRANCH   9  14
ATOM     14  O   UNL A   1      47.369  31.723  26.289  1.00  0.00    -0.410 OA
BRANCH  14  15
ATOM     15  C   UNL A   1      47.902  32.263  27.448  1.00  0.00     0.412 C 
ATOM     16  N   UNL A   1      47.832  33.625  27.492  1.00  0.00    -0.321 N 
ATOM     17  H   UNL A   1      48.194  34.060  28.298  1.00  0.00     0.167 HD
ATOM     18  O   UNL A   1      48.413  31.634  28.375  1.00  0.00    -0.224 OA
BRANCH  16  19
ATOM     19  C   UNL A   1      47.280  34.497  26.475  1.00  0.00     0.119 C 
BRANCH  19  20
ATOM     20  C   UNL A   1      46.059  35.265  26.982  1.00  0.00     0.021 C 
BRANCH  20  21
ATOM     21  C   UNL A   1      44.753  34.959  26.240  1.00  0.00     0.002 C 
BRANCH  21  22
ATOM     22  C   UNL A   1      43.571  34.547  27.125  1.00  0.00    -0.000 C 
BRANCH  22  23
ATOM     23  C   UNL A   1      42.714  35.700  27.655  1.00  0.00    -0.003 C 
ATOM     24  C   UNL A   1      42.676  36.899  26.721  1.00  0.00     0.004 C 
ENDBRANCH  22  23
ENDBRANCH  21  22
ENDBRANCH  20  21
ENDBRANCH  19  20
ENDBRANCH  16  19
ENDBRANCH  14  15
ENDBRANCH   9  14
ENDBRANCH   1   8
BRANCH   4  25
ATOM     25  C   UNL A   1      45.712  23.068  24.471  1.00  0.00     0.105 C 
ATOM     26  C   UNL A   1      44.684  22.526  23.472  1.00  0.00     0.023 C 
BRANCH  25  27
ATOM     27  C   UNL A   1      45.775  22.125  25.679  1.00  0.00     0.227 C 
ATOM     28  O   UNL A   1      46.105  22.545  26.791  1.00  0.00    -0.274 OA
ATOM     29  N   UNL A   1      45.489  20.798  25.565  1.00  0.00    -0.356 N 
ATOM     30  H   UNL A   1      45.601  20.278  26.393  1.00  0.00     0.163 HD
BRANCH  29  31
ATOM     31  C   UNL A   1      45.047  20.029  24.417  1.00  0.00     0.117 C 
BRANCH  31  32
ATOM     32  C   UNL A   1      44.385  18.720  24.821  1.00  0.00     0.042 C 
BRANCH  32  33
ATOM     33  C   UNL A   1      43.558  18.815  26.096  1.00  0.00     0.118 C 
BRANCH  33  34
ATOM     34  N   UNL A   1      42.124  18.834  25.838  1.00  0.00    -0.352 N 
ATOM     35  C   UNL A   1      41.179  19.777  26.151  1.00  0.00     0.251 C 
ATOM     36  H   UNL A   1      41.780  18.044  25.364  1.00  0.00     0.163 HD
ATOM     37  O   UNL A   1      39.989  19.518  25.999  1.00  0.00    -0.269 OA
BRANCH  35  38
ATOM     38  C   UNL A   1      41.578  21.094  26.691  1.00  0.00     0.039 A 
ATOM     39  C   UNL A   1      41.926  22.111  25.796  1.00  0.00     0.014 A 
ATOM     40  C   UNL A   1      41.636  21.328  28.068  1.00  0.00     0.014 A 
ATOM     41  C   UNL A   1      42.261  23.377  26.280  1.00  0.00     0.010 A 
ATOM     42  C   UNL A   1      41.885  22.612  28.544  1.00  0.00     0.010 A 
ATOM     43  C   UNL A   1      42.205  23.649  27.656  1.00  0.00    -0.014 A 
BRANCH  43  44
ATOM     44  C   UNL A   1      42.479  25.009  28.186  1.00  0.00     0.031 A 
ATOM     45  C   UNL A   1      43.862  25.378  28.651  1.00  0.00     0.074 A 
ATOM     46  C   UNL A   1      41.469  25.890  28.312  1.00  0.00     0.049 A 
ATOM     47  N   UNL A   1      44.277  26.490  29.202  1.00  0.00    -0.248 NA
ATOM     48  C   UNL A   1      44.909  24.354  28.501  1.00  0.00     0.031 C 
ATOM     49  C   UNL A   1      40.074  25.644  27.938  1.00  0.00     0.029 A 
ATOM     50  N   UNL A   1      41.459  27.174  28.798  1.00  0.00    -0.354 N 
ATOM     51  C   UNL A   1      45.624  26.292  29.483  1.00  0.00     0.074 A 
ATOM     52  C   UNL A   1      45.944  24.939  29.086  1.00  0.00     0.031 C 
ATOM     53  C   UNL A   1      39.351  26.748  28.184  1.00  0.00     0.029 A 
ATOM     54  C   UNL A   1      40.219  27.765  28.770  1.00  0.00     0.049 A 
ATOM     55  H   UNL A   1      42.264  27.628  29.136  1.00  0.00     0.167 HD
ATOM     56  C   UNL A   1      46.519  27.164  30.005  1.00  0.00     0.031 A 
ATOM     57  C   UNL A   1      39.821  28.984  29.176  1.00  0.00     0.031 A 
ATOM     58  C   UNL A   1      46.206  28.515  30.386  1.00  0.00     0.049 A 
ATOM     59  C   UNL A   1      40.834  29.931  29.761  1.00  0.00     0.074 A 
ATOM     60  C   UNL A   1      47.058  29.493  30.867  1.00  0.00     0.029 A 
ATOM     61  N   UNL A   1      44.940  29.077  30.329  1.00  0.00    -0.354 N 
ATOM     62  N   UNL A   1      42.117  29.751  29.955  1.00  0.00    -0.248 NA
ATOM     63  C   UNL A   1      40.341  31.253  30.172  1.00  0.00     0.031 C 
ATOM     64  C   UNL A   1      46.298  30.633  31.151  1.00  0.00     0.029 A 
ATOM     65  C   UNL A   1      44.984  30.381  30.791  1.00  0.00     0.049 A 
ATOM     66  H   UNL A   1      44.131  28.617  30.009  1.00  0.00     0.167 HD
ATOM     67  C   UNL A   1      42.590  30.944  30.482  1.00  0.00     0.074 A 
ATOM     68  C   UNL A   1      41.460  31.846  30.563  1.00  0.00     0.031 C 
ATOM     69  C   UNL A   1      43.850  31.266  30.865  1.00  0.00     0.031 A 
BRANCH  56  70
ATOM     70  C   UNL A   1      47.928  26.675  30.204  1.00  0.00    -0.014 A 
ATOM     71  C   UNL A   1      48.313  26.023  31.387  1.00  0.00     0.009 A 
ATOM     72  C   UNL A   1      48.872  26.834  29.179  1.00  0.00     0.009 A 
ATOM     73  C   UNL A   1      49.625  25.575  31.553  1.00  0.00     0.001 A 
ATOM     74  C   UNL A   1      50.176  26.358  29.335  1.00  0.00     0.001 A 
ATOM     75  C   UNL A   1      50.553  25.738  30.526  1.00  0.00     0.000 A 
ENDBRANCH  56  70
BRANCH  57  76
ATOM     76  C   UNL A   1      38.398  29.391  29.036  1.00  0.00    -0.014 A 
ATOM     77  C   UNL A   1      37.917  29.885  27.814  1.00  0.00     0.009 A 
ATOM     78  C   UNL A   1      37.517  29.295  30.123  1.00  0.00     0.009 A 
ATOM     79  C   UNL A   1      36.590  30.303  27.693  1.00  0.00     0.001 A 
ATOM     80  C   UNL A   1      36.183  29.685  29.991  1.00  0.00     0.001 A 
ATOM     81  C   UNL A   1      35.723  30.199  28.779  1.00  0.00     0.000 A 
ENDBRANCH  57  76
BRANCH  69  82
ATOM     82  C   UNL A   1      44.079  32.663  31.370  1.00  0.00    -0.014 A 
ATOM     83  C   UNL A   1      44.423  33.708  30.499  1.00  0.00     0.009 A 
ATOM     84  C   UNL A   1      43.909  32.942  32.736  1.00  0.00     0.009 A 
ATOM     85  C   UNL A   1      44.627  34.999  30.992  1.00  0.00     0.001 A 
ATOM     86  C   UNL A   1      44.084  34.239  33.219  1.00  0.00     0.001 A 
ATOM     87  C   UNL A   1      44.452  35.264  32.350  1.00  0.00     0.000 A 
ENDBRANCH  69  82
ENDBRANCH  43  44
ENDBRANCH  35  38
ENDBRANCH  33  34
ENDBRANCH  32  33
ENDBRANCH  31  32
ENDBRANCH  29  31
ENDBRANCH  25  27
ENDBRANCH   4  25
TORSDOF 19
ENDMDL
