MODEL 1
REMARK VINA RESULT:     -10.9      0.000      0.000
REMARK SMILES COCc1cccc(O[C@@H](C)c2ccc(C(=O)NCCCNC(=O)c3ccc(-c4c5nc(c(-c6ccccc6)c6ccc([nH]6)c(-c6ccccc6)c6nc(c(-c7ccccc7)c7ccc4[nH]7)C=C6)C=C5)cc3)o2)c1
REMARK SMILES IDX 16 1 17 2 18 3 15 5 12 6 13 7 73 8 14 9 10 10 11 11 9 12
REMARK SMILES IDX 8 13 4 14 5 15 74 16 6 17 7 18 3 19 2 20 1 21 19 22 20 23
REMARK SMILES IDX 21 24 22 25 23 26 24 28 25 29 26 30 72 31 27 32 71 33 28 34
REMARK SMILES IDX 29 35 30 36 65 37 31 38 70 39 64 40 66 41 32 42 69 43 63 44
REMARK SMILES IDX 62 45 33 47 55 48 40 49 54 50 41 51 44 52 53 53 67 54 42 55
REMARK SMILES IDX 43 56 52 58 68 59 45 60 34 61 35 62 39 63 36 64 38 65 37 66
REMARK SMILES IDX 56 67 57 68 61 69 58 70 60 71 59 72 46 73 47 74 51 75 48 76
REMARK SMILES IDX 50 77 49 78
REMARK H PARENT 18 4 22 27 66 46 44 57
REMARK Flexibility Score: inf
ROOT
ATOM      1  C   UNL A   1      36.822  22.947  24.892  1.00  0.00     0.286 C 
ATOM      2  O   UNL A   1      37.295  23.948  25.430  1.00  0.00    -0.266 OA
ATOM      3  N   UNL A   1      37.624  21.820  24.884  1.00  0.00    -0.349 N 
ATOM      4  H   UNL A   1      38.579  21.983  25.067  1.00  0.00     0.163 HD
ENDROOT
BRANCH   1   5
ATOM      5  C   UNL A   1      35.511  22.924  24.265  1.00  0.00     0.191 A 
ATOM      6  C   UNL A   1      33.341  22.396  24.167  1.00  0.00     0.145 A 
ATOM      7  C   UNL A   1      33.604  23.274  23.137  1.00  0.00     0.050 A 
ATOM      8  O   UNL A   1      34.510  22.196  24.868  1.00  0.00    -0.452 OA
ATOM      9  C   UNL A   1      34.980  23.566  23.169  1.00  0.00     0.057 A 
BRANCH   6  10
ATOM     10  C   UNL A   1      32.132  21.668  24.698  1.00  0.00     0.236 C 
ATOM     11  C   UNL A   1      31.104  22.570  25.371  1.00  0.00     0.062 C 
BRANCH  10  12
ATOM     12  O   UNL A   1      32.414  20.480  25.480  1.00  0.00    -0.483 OA
BRANCH  12  13
ATOM     13  C   UNL A   1      32.496  19.240  24.920  1.00  0.00     0.120 A 
ATOM     14  C   UNL A   1      33.013  16.866  24.964  1.00  0.00    -0.019 A 
ATOM     15  C   UNL A   1      33.073  16.873  23.560  1.00  0.00     0.006 A 
ATOM     16  C   UNL A   1      32.645  18.047  25.625  1.00  0.00     0.052 A 
ATOM     17  C   UNL A   1      32.791  18.037  22.843  1.00  0.00     0.004 A 
ATOM     18  C   UNL A   1      32.515  19.219  23.526  1.00  0.00     0.046 A 
BRANCH  14  19
ATOM     19  C   UNL A   1      33.505  15.643  25.710  1.00  0.00     0.195 C 
BRANCH  19  20
ATOM     20  O   UNL A   1      34.698  15.062  25.183  1.00  0.00    -0.380 OA
ATOM     21  C   UNL A   1      35.882  15.785  25.496  1.00  0.00     0.195 C 
ENDBRANCH  19  20
ENDBRANCH  14  19
ENDBRANCH  12  13
ENDBRANCH  10  12
ENDBRANCH   6  10
ENDBRANCH   1   5
BRANCH   3  22
ATOM     22  C   UNL A   1      37.264  20.435  24.647  1.00  0.00     0.118 C 
BRANCH  22  23
ATOM     23  C   UNL A   1      38.380  19.446  24.984  1.00  0.00     0.042 C 
BRANCH  23  24
ATOM     24  C   UNL A   1      39.395  19.933  26.010  1.00  0.00     0.118 C 
BRANCH  24  25
ATOM     25  N   UNL A   1      40.664  19.231  25.925  1.00  0.00    -0.352 N 
ATOM     26  C   UNL A   1      41.952  19.672  26.096  1.00  0.00     0.251 C 
ATOM     27  H   UNL A   1      40.586  18.274  25.707  1.00  0.00     0.163 HD
ATOM     28  O   UNL A   1      42.873  18.906  25.817  1.00  0.00    -0.269 OA
BRANCH  26  29
ATOM     29  C   UNL A   1      42.269  21.035  26.592  1.00  0.00     0.039 A 
ATOM     30  C   UNL A   1      42.191  21.266  27.972  1.00  0.00     0.014 A 
ATOM     31  C   UNL A   1      42.553  22.104  25.737  1.00  0.00     0.014 A 
ATOM     32  C   UNL A   1      42.418  22.545  28.491  1.00  0.00     0.010 A 
ATOM     33  C   UNL A   1      42.850  23.366  26.261  1.00  0.00     0.010 A 
ATOM     34  C   UNL A   1      42.764  23.604  27.641  1.00  0.00    -0.014 A 
BRANCH  34  35
ATOM     35  C   UNL A   1      42.988  24.972  28.176  1.00  0.00     0.031 A 
ATOM     36  C   UNL A   1      44.373  25.413  28.568  1.00  0.00     0.074 A 
ATOM     37  C   UNL A   1      41.947  25.811  28.338  1.00  0.00     0.049 A 
ATOM     38  N   UNL A   1      44.762  26.553  29.084  1.00  0.00    -0.248 NA
ATOM     39  C   UNL A   1      45.460  24.442  28.374  1.00  0.00     0.031 C 
ATOM     40  C   UNL A   1      40.551  25.501  28.023  1.00  0.00     0.029 A 
ATOM     41  N   UNL A   1      41.905  27.098  28.810  1.00  0.00    -0.354 N 
ATOM     42  C   UNL A   1      46.129  26.426  29.296  1.00  0.00     0.074 A 
ATOM     43  C   UNL A   1      46.497  25.086  28.890  1.00  0.00     0.031 C 
ATOM     44  C   UNL A   1      39.794  26.579  28.287  1.00  0.00     0.029 A 
ATOM     45  C   UNL A   1      40.644  27.643  28.815  1.00  0.00     0.049 A 
ATOM     46  H   UNL A   1      42.703  27.586  29.118  1.00  0.00     0.167 HD
ATOM     47  C   UNL A   1      47.006  27.343  29.771  1.00  0.00     0.031 A 
ATOM     48  C   UNL A   1      40.219  28.862  29.196  1.00  0.00     0.031 A 
ATOM     49  C   UNL A   1      46.654  28.683  30.157  1.00  0.00     0.049 A 
ATOM     50  C   UNL A   1      41.215  29.868  29.701  1.00  0.00     0.074 A 
ATOM     51  C   UNL A   1      47.480  29.696  30.612  1.00  0.00     0.029 A 
ATOM     52  N   UNL A   1      45.369  29.199  30.122  1.00  0.00    -0.354 N 
ATOM     53  N   UNL A   1      42.510  29.742  29.856  1.00  0.00    -0.248 NA
ATOM     54  C   UNL A   1      40.687  31.190  30.069  1.00  0.00     0.031 C 
ATOM     55  C   UNL A   1      46.689  30.818  30.880  1.00  0.00     0.029 A 
ATOM     56  C   UNL A   1      45.378  30.515  30.553  1.00  0.00     0.049 A 
ATOM     57  H   UNL A   1      44.569  28.704  29.834  1.00  0.00     0.167 HD
ATOM     58  C   UNL A   1      42.957  30.976  30.310  1.00  0.00     0.074 A 
ATOM     59  C   UNL A   1      41.796  31.839  30.396  1.00  0.00     0.031 C 
ATOM     60  C   UNL A   1      44.217  31.361  30.626  1.00  0.00     0.031 A 
BRANCH  47  61
ATOM     61  C   UNL A   1      48.441  26.916  29.904  1.00  0.00    -0.014 A 
ATOM     62  C   UNL A   1      49.343  27.064  28.838  1.00  0.00     0.009 A 
ATOM     63  C   UNL A   1      48.903  26.383  31.117  1.00  0.00     0.009 A 
ATOM     64  C   UNL A   1      50.671  26.651  28.974  1.00  0.00     0.001 A 
ATOM     65  C   UNL A   1      50.237  25.995  31.257  1.00  0.00     0.001 A 
ATOM     66  C   UNL A   1      51.116  26.121  30.183  1.00  0.00     0.000 A 
ENDBRANCH  47  61
BRANCH  48  67
ATOM     67  C   UNL A   1      38.782  29.214  29.083  1.00  0.00    -0.014 A 
ATOM     68  C   UNL A   1      37.925  29.055  30.183  1.00  0.00     0.009 A 
ATOM     69  C   UNL A   1      38.259  29.706  27.877  1.00  0.00     0.009 A 
ATOM     70  C   UNL A   1      36.567  29.358  30.071  1.00  0.00     0.001 A 
ATOM     71  C   UNL A   1      36.905  30.029  27.775  1.00  0.00     0.001 A 
ATOM     72  C   UNL A   1      36.058  29.848  28.869  1.00  0.00     0.000 A 
ENDBRANCH  48  67
BRANCH  60  73
ATOM     73  C   UNL A   1      44.408  32.787  31.051  1.00  0.00    -0.014 A 
ATOM     74  C   UNL A   1      44.384  33.153  32.406  1.00  0.00     0.009 A 
ATOM     75  C   UNL A   1      44.644  33.774  30.081  1.00  0.00     0.009 A 
ATOM     76  C   UNL A   1      44.559  34.488  32.778  1.00  0.00     0.001 A 
ATOM     77  C   UNL A   1      44.840  35.103  30.458  1.00  0.00     0.001 A 
ATOM     78  C   UNL A   1      44.788  35.460  31.804  1.00  0.00     0.000 A 
ENDBRANCH  60  73
ENDBRANCH  34  35
ENDBRANCH  26  29
ENDBRANCH  24  25
ENDBRANCH  23  24
ENDBRANCH  22  23
ENDBRANCH   3  22
TORSDOF 15
ENDMDL
MODEL 2
REMARK VINA RESULT:     -10.8      0.763      6.004
REMARK SMILES COCc1cccc(O[C@@H](C)c2ccc(C(=O)NCCCNC(=O)c3ccc(-c4c5nc(c(-c6ccccc6)c6ccc([nH]6)c(-c6ccccc6)c6nc(c(-c7ccccc7)c7ccc4[nH]7)C=C6)C=C5)cc3)o2)c1
REMARK SMILES IDX 16 1 17 2 18 3 15 5 12 6 13 7 73 8 14 9 10 10 11 11 9 12
REMARK SMILES IDX 8 13 4 14 5 15 74 16 6 17 7 18 3 19 2 20 1 21 19 22 20 23
REMARK SMILES IDX 21 24 22 25 23 26 24 28 25 29 26 30 72 31 27 32 71 33 28 34
REMARK SMILES IDX 29 35 30 36 65 37 31 38 70 39 64 40 66 41 32 42 69 43 63 44
REMARK SMILES IDX 62 45 33 47 55 48 40 49 54 50 41 51 44 52 53 53 67 54 42 55
REMARK SMILES IDX 43 56 52 58 68 59 45 60 34 61 35 62 39 63 36 64 38 65 37 66
REMARK SMILES IDX 56 67 57 68 61 69 58 70 60 71 59 72 46 73 47 74 51 75 48 76
REMARK SMILES IDX 50 77 49 78
REMARK H PARENT 18 4 22 27 66 46 44 57
REMARK Flexibility Score: inf
ROOT
ATOM      1  C   UNL A   1      37.302  23.301  25.623  1.00  0.00     0.286 C 
ATOM      2  O   UNL A   1      37.982  24.067  26.305  1.00  0.00    -0.266 OA
ATOM      3  N   UNL A   1      37.951  22.187  25.121  1.00  0.00    -0.349 N 
ATOM      4  H   UNL A   1      38.935  22.236  25.128  1.00  0.00     0.163 HD
ENDROOT
BRANCH   1   5
ATOM      5  C   UNL A   1      35.901  23.538  25.318  1.00  0.00     0.191 A 
ATOM      6  C   UNL A   1      33.714  23.098  25.458  1.00  0.00     0.145 A 
ATOM      7  C   UNL A   1      33.855  24.321  24.836  1.00  0.00     0.050 A 
ATOM      8  O   UNL A   1      34.970  22.628  25.768  1.00  0.00    -0.452 OA
ATOM      9  C   UNL A   1      35.232  24.574  24.704  1.00  0.00     0.057 A 
BRANCH   6  10
ATOM     10  C   UNL A   1      32.566  22.218  25.884  1.00  0.00     0.236 C 
ATOM     11  C   UNL A   1      31.693  22.816  26.981  1.00  0.00     0.062 C 
BRANCH  10  12
ATOM     12  O   UNL A   1      32.908  20.834  26.151  1.00  0.00    -0.483 OA
BRANCH  12  13
ATOM     13  C   UNL A   1      32.679  19.839  25.247  1.00  0.00     0.120 A 
ATOM     14  C   UNL A   1      32.690  17.521  24.518  1.00  0.00    -0.019 A 
ATOM     15  C   UNL A   1      32.623  17.961  23.185  1.00  0.00     0.006 A 
ATOM     16  C   UNL A   1      32.638  18.478  25.543  1.00  0.00     0.052 A 
ATOM     17  C   UNL A   1      32.527  19.321  22.890  1.00  0.00     0.004 A 
ATOM     18  C   UNL A   1      32.567  20.257  23.921  1.00  0.00     0.046 A 
BRANCH  14  19
ATOM     19  C   UNL A   1      32.980  16.060  24.792  1.00  0.00     0.195 C 
BRANCH  19  20
ATOM     20  O   UNL A   1      34.286  15.629  24.409  1.00  0.00    -0.380 OA
ATOM     21  C   UNL A   1      35.317  16.042  25.299  1.00  0.00     0.195 C 
ENDBRANCH  19  20
ENDBRANCH  14  19
ENDBRANCH  12  13
ENDBRANCH  10  12
ENDBRANCH   6  10
ENDBRANCH   1   5
BRANCH   3  22
ATOM     22  C   UNL A   1      37.394  20.959  24.586  1.00  0.00     0.118 C 
BRANCH  22  23
ATOM     23  C   UNL A   1      38.297  19.741  24.781  1.00  0.00     0.042 C 
BRANCH  23  24
ATOM     24  C   UNL A   1      39.185  19.779  26.019  1.00  0.00     0.118 C 
BRANCH  24  25
ATOM     25  N   UNL A   1      40.476  19.151  25.805  1.00  0.00    -0.352 N 
ATOM     26  C   UNL A   1      41.751  19.645  25.922  1.00  0.00     0.251 C 
ATOM     27  H   UNL A   1      40.429  18.207  25.529  1.00  0.00     0.163 HD
ATOM     28  O   UNL A   1      42.686  18.947  25.534  1.00  0.00    -0.269 OA
BRANCH  26  29
ATOM     29  C   UNL A   1      42.037  20.989  26.487  1.00  0.00     0.039 A 
ATOM     30  C   UNL A   1      42.318  22.031  25.593  1.00  0.00     0.014 A 
ATOM     31  C   UNL A   1      42.123  21.229  27.862  1.00  0.00     0.014 A 
ATOM     32  C   UNL A   1      42.655  23.301  26.069  1.00  0.00     0.010 A 
ATOM     33  C   UNL A   1      42.390  22.515  28.337  1.00  0.00     0.010 A 
ATOM     34  C   UNL A   1      42.681  23.559  27.447  1.00  0.00    -0.014 A 
BRANCH  34  35
ATOM     35  C   UNL A   1      43.058  24.899  27.966  1.00  0.00     0.031 A 
ATOM     36  C   UNL A   1      41.996  25.932  28.237  1.00  0.00     0.074 A 
ATOM     37  C   UNL A   1      44.354  25.203  28.170  1.00  0.00     0.049 A 
ATOM     38  N   UNL A   1      42.131  27.165  28.660  1.00  0.00    -0.248 NA
ATOM     39  C   UNL A   1      40.603  25.535  27.982  1.00  0.00     0.031 C 
ATOM     40  C   UNL A   1      45.484  24.305  27.923  1.00  0.00     0.029 A 
ATOM     41  N   UNL A   1      44.938  26.355  28.632  1.00  0.00    -0.354 N 
ATOM     42  C   UNL A   1      40.848  27.695  28.698  1.00  0.00     0.074 A 
ATOM     43  C   UNL A   1      39.951  26.664  28.220  1.00  0.00     0.031 C 
ATOM     44  C   UNL A   1      46.623  24.933  28.262  1.00  0.00     0.029 A 
ATOM     45  C   UNL A   1      46.306  26.282  28.720  1.00  0.00     0.049 A 
ATOM     46  H   UNL A   1      44.425  27.159  28.876  1.00  0.00     0.167 HD
ATOM     47  C   UNL A   1      40.444  28.922  29.107  1.00  0.00     0.031 A 
ATOM     48  C   UNL A   1      47.206  27.196  29.128  1.00  0.00     0.031 A 
ATOM     49  C   UNL A   1      41.325  29.944  29.604  1.00  0.00     0.049 A 
ATOM     50  C   UNL A   1      46.733  28.544  29.596  1.00  0.00     0.074 A 
ATOM     51  C   UNL A   1      41.005  31.204  30.080  1.00  0.00     0.029 A 
ATOM     52  N   UNL A   1      42.701  29.818  29.698  1.00  0.00    -0.354 N 
ATOM     53  N   UNL A   1      45.510  29.011  29.663  1.00  0.00    -0.248 NA
ATOM     54  C   UNL A   1      47.765  29.482  30.059  1.00  0.00     0.031 C 
ATOM     55  C   UNL A   1      42.193  31.852  30.435  1.00  0.00     0.029 A 
ATOM     56  C   UNL A   1      43.246  30.980  30.219  1.00  0.00     0.049 A 
ATOM     57  H   UNL A   1      43.216  29.021  29.435  1.00  0.00     0.167 HD
ATOM     58  C   UNL A   1      45.624  30.286  30.203  1.00  0.00     0.074 A 
ATOM     59  C   UNL A   1      47.032  30.513  30.455  1.00  0.00     0.031 C 
ATOM     60  C   UNL A   1      44.648  31.187  30.469  1.00  0.00     0.031 A 
BRANCH  47  61
ATOM     61  C   UNL A   1      38.974  29.224  29.027  1.00  0.00    -0.014 A 
ATOM     62  C   UNL A   1      38.392  29.683  27.835  1.00  0.00     0.009 A 
ATOM     63  C   UNL A   1      38.157  29.022  30.150  1.00  0.00     0.009 A 
ATOM     64  C   UNL A   1      37.026  29.971  27.780  1.00  0.00     0.001 A 
ATOM     65  C   UNL A   1      36.787  29.287  30.085  1.00  0.00     0.001 A 
ATOM     66  C   UNL A   1      36.226  29.769  28.904  1.00  0.00     0.000 A 
ENDBRANCH  47  61
BRANCH  48  67
ATOM     67  C   UNL A   1      48.652  26.858  29.146  1.00  0.00    -0.014 A 
ATOM     68  C   UNL A   1      49.450  27.104  28.018  1.00  0.00     0.009 A 
ATOM     69  C   UNL A   1      49.237  26.283  30.284  1.00  0.00     0.009 A 
ATOM     70  C   UNL A   1      50.803  26.759  28.022  1.00  0.00     0.001 A 
ATOM     71  C   UNL A   1      50.596  25.961  30.292  1.00  0.00     0.001 A 
ATOM     72  C   UNL A   1      51.376  26.191  29.159  1.00  0.00     0.000 A 
ENDBRANCH  48  67
BRANCH  60  73
ATOM     73  C   UNL A   1      45.068  32.482  31.102  1.00  0.00    -0.014 A 
ATOM     74  C   UNL A   1      45.154  32.616  32.496  1.00  0.00     0.009 A 
ATOM     75  C   UNL A   1      45.408  33.573  30.287  1.00  0.00     0.009 A 
ATOM     76  C   UNL A   1      45.541  33.833  33.062  1.00  0.00     0.001 A 
ATOM     77  C   UNL A   1      45.816  34.780  30.856  1.00  0.00     0.001 A 
ATOM     78  C   UNL A   1      45.873  34.911  32.243  1.00  0.00     0.000 A 
ENDBRANCH  60  73
ENDBRANCH  34  35
ENDBRANCH  26  29
ENDBRANCH  24  25
ENDBRANCH  23  24
ENDBRANCH  22  23
ENDBRANCH   3  22
TORSDOF 15
ENDMDL
MODEL 3
REMARK VINA RESULT:     -10.7      2.129      4.158
REMARK SMILES COCc1cccc(O[C@@H](C)c2ccc(C(=O)NCCCNC(=O)c3ccc(-c4c5nc(c(-c6ccccc6)c6ccc([nH]6)c(-c6ccccc6)c6nc(c(-c7ccccc7)c7ccc4[nH]7)C=C6)C=C5)cc3)o2)c1
REMARK SMILES IDX 16 1 17 2 18 3 15 5 12 6 13 7 73 8 14 9 10 10 11 11 9 12
REMARK SMILES IDX 8 13 4 14 5 15 74 16 6 17 7 18 3 19 2 20 1 21 19 22 20 23
REMARK SMILES IDX 21 24 22 25 23 26 24 28 25 29 26 30 72 31 27 32 71 33 28 34
REMARK SMILES IDX 29 35 30 36 65 37 31 38 70 39 64 40 66 41 32 42 69 43 63 44
REMARK SMILES IDX 62 45 33 47 55 48 40 49 54 50 41 51 44 52 53 53 67 54 42 55
REMARK SMILES IDX 43 56 52 58 68 59 45 60 34 61 35 62 39 63 36 64 38 65 37 66
REMARK SMILES IDX 56 67 57 68 61 69 58 70 60 71 59 72 46 73 47 74 51 75 48 76
REMARK SMILES IDX 50 77 49 78
REMARK H PARENT 18 4 22 27 66 46 44 57
REMARK Flexibility Score: inf
ROOT
ATOM      1  C   UNL A   1      37.140  23.232  25.597  1.00  0.00     0.286 C 
ATOM      2  O   UNL A   1      37.879  24.079  26.099  1.00  0.00    -0.266 OA
ATOM      3  N   UNL A   1      37.765  22.171  24.966  1.00  0.00    -0.349 N 
ATOM      4  H   UNL A   1      38.715  22.314  24.746  1.00  0.00     0.163 HD
ENDROOT
BRANCH   1   5
ATOM      5  C   UNL A   1      35.691  23.325  25.623  1.00  0.00     0.191 A 
ATOM      6  C   UNL A   1      33.670  23.462  24.677  1.00  0.00     0.145 A 
ATOM      7  C   UNL A   1      33.485  23.228  26.024  1.00  0.00     0.050 A 
ATOM      8  O   UNL A   1      35.024  23.503  24.432  1.00  0.00    -0.452 OA
ATOM      9  C   UNL A   1      34.756  23.193  26.627  1.00  0.00     0.057 A 
BRANCH   6  10
ATOM     10  C   UNL A   1      32.784  23.639  23.470  1.00  0.00     0.236 C 
ATOM     11  C   UNL A   1      33.393  23.131  22.168  1.00  0.00     0.062 C 
BRANCH  10  12
ATOM     12  O   UNL A   1      32.191  24.954  23.320  1.00  0.00    -0.483 OA
BRANCH  12  13
ATOM     13  C   UNL A   1      32.914  26.101  23.455  1.00  0.00     0.120 A 
ATOM     14  C   UNL A   1      33.744  28.013  24.705  1.00  0.00    -0.019 A 
ATOM     15  C   UNL A   1      34.024  28.660  23.490  1.00  0.00     0.006 A 
ATOM     16  C   UNL A   1      33.259  26.696  24.667  1.00  0.00     0.052 A 
ATOM     17  C   UNL A   1      33.806  28.013  22.274  1.00  0.00     0.004 A 
ATOM     18  C   UNL A   1      33.241  26.740  22.259  1.00  0.00     0.046 A 
BRANCH  14  19
ATOM     19  C   UNL A   1      33.816  28.808  25.992  1.00  0.00     0.195 C 
BRANCH  19  20
ATOM     20  O   UNL A   1      33.212  30.101  25.928  1.00  0.00    -0.380 OA
ATOM     21  C   UNL A   1      32.215  30.324  26.919  1.00  0.00     0.195 C 
ENDBRANCH  19  20
ENDBRANCH  14  19
ENDBRANCH  12  13
ENDBRANCH  10  12
ENDBRANCH   6  10
ENDBRANCH   1   5
BRANCH   3  22
ATOM     22  C   UNL A   1      37.226  20.881  24.582  1.00  0.00     0.118 C 
BRANCH  22  23
ATOM     23  C   UNL A   1      38.182  19.716  24.839  1.00  0.00     0.042 C 
BRANCH  23  24
ATOM     24  C   UNL A   1      39.124  19.894  26.023  1.00  0.00     0.118 C 
BRANCH  24  25
ATOM     25  N   UNL A   1      40.383  19.192  25.852  1.00  0.00    -0.352 N 
ATOM     26  C   UNL A   1      41.680  19.624  25.965  1.00  0.00     0.251 C 
ATOM     27  H   UNL A   1      40.290  18.241  25.615  1.00  0.00     0.163 HD
ATOM     28  O   UNL A   1      42.582  18.863  25.618  1.00  0.00    -0.269 OA
BRANCH  26  29
ATOM     29  C   UNL A   1      42.030  20.974  26.478  1.00  0.00     0.039 A 
ATOM     30  C   UNL A   1      42.008  21.175  27.864  1.00  0.00     0.014 A 
ATOM     31  C   UNL A   1      42.289  22.059  25.636  1.00  0.00     0.014 A 
ATOM     32  C   UNL A   1      42.266  22.440  28.401  1.00  0.00     0.010 A 
ATOM     33  C   UNL A   1      42.618  23.306  26.174  1.00  0.00     0.010 A 
ATOM     34  C   UNL A   1      42.588  23.515  27.561  1.00  0.00    -0.014 A 
BRANCH  34  35
ATOM     35  C   UNL A   1      42.846  24.869  28.117  1.00  0.00     0.031 A 
ATOM     36  C   UNL A   1      44.240  25.268  28.521  1.00  0.00     0.074 A 
ATOM     37  C   UNL A   1      41.827  25.733  28.286  1.00  0.00     0.049 A 
ATOM     38  N   UNL A   1      44.656  26.390  29.055  1.00  0.00    -0.248 NA
ATOM     39  C   UNL A   1      45.302  24.271  28.319  1.00  0.00     0.031 C 
ATOM     40  C   UNL A   1      40.425  25.465  27.960  1.00  0.00     0.029 A 
ATOM     41  N   UNL A   1      41.817  27.014  28.776  1.00  0.00    -0.354 N 
ATOM     42  C   UNL A   1      46.019  26.224  29.272  1.00  0.00     0.074 A 
ATOM     43  C   UNL A   1      46.353  24.880  28.849  1.00  0.00     0.031 C 
ATOM     44  C   UNL A   1      39.695  26.559  28.236  1.00  0.00     0.029 A 
ATOM     45  C   UNL A   1      40.570  27.591  28.782  1.00  0.00     0.049 A 
ATOM     46  H   UNL A   1      42.625  27.476  29.094  1.00  0.00     0.167 HD
ATOM     47  C   UNL A   1      46.917  27.110  29.764  1.00  0.00     0.031 A 
ATOM     48  C   UNL A   1      40.176  28.816  29.178  1.00  0.00     0.031 A 
ATOM     49  C   UNL A   1      46.599  28.454  30.166  1.00  0.00     0.049 A 
ATOM     50  C   UNL A   1      41.195  29.789  29.702  1.00  0.00     0.074 A 
ATOM     51  C   UNL A   1      47.449  29.438  30.639  1.00  0.00     0.029 A 
ATOM     52  N   UNL A   1      45.328  29.004  30.133  1.00  0.00    -0.354 N 
ATOM     53  N   UNL A   1      42.485  29.626  29.861  1.00  0.00    -0.248 NA
ATOM     54  C   UNL A   1      40.701  31.119  30.086  1.00  0.00     0.031 C 
ATOM     55  C   UNL A   1      46.686  30.577  30.920  1.00  0.00     0.029 A 
ATOM     56  C   UNL A   1      45.369  30.313  30.583  1.00  0.00     0.049 A 
ATOM     57  H   UNL A   1      44.516  28.534  29.834  1.00  0.00     0.167 HD
ATOM     58  C   UNL A   1      42.962  30.842  30.335  1.00  0.00     0.074 A 
ATOM     59  C   UNL A   1      41.825  31.734  30.427  1.00  0.00     0.031 C 
ATOM     60  C   UNL A   1      44.230  31.188  30.662  1.00  0.00     0.031 A 
BRANCH  47  61
ATOM     61  C   UNL A   1      48.340  26.644  29.897  1.00  0.00    -0.014 A 
ATOM     62  C   UNL A   1      48.776  25.966  31.047  1.00  0.00     0.009 A 
ATOM     63  C   UNL A   1      49.248  26.862  28.850  1.00  0.00     0.009 A 
ATOM     64  C   UNL A   1      50.105  25.550  31.161  1.00  0.00     0.001 A 
ATOM     65  C   UNL A   1      50.569  26.422  28.956  1.00  0.00     0.001 A 
ATOM     66  C   UNL A   1      50.998  25.776  30.115  1.00  0.00     0.000 A 
ENDBRANCH  47  61
BRANCH  48  67
ATOM     67  C   UNL A   1      38.748  29.208  29.064  1.00  0.00    -0.014 A 
ATOM     68  C   UNL A   1      37.894  29.101  30.171  1.00  0.00     0.009 A 
ATOM     69  C   UNL A   1      38.234  29.684  27.849  1.00  0.00     0.009 A 
ATOM     70  C   UNL A   1      36.545  29.442  30.058  1.00  0.00     0.001 A 
ATOM     71  C   UNL A   1      36.889  30.046  27.746  1.00  0.00     0.001 A 
ATOM     72  C   UNL A   1      36.043  29.917  28.848  1.00  0.00     0.000 A 
ENDBRANCH  48  67
BRANCH  60  73
ATOM     73  C   UNL A   1      44.458  32.603  31.108  1.00  0.00    -0.014 A 
ATOM     74  C   UNL A   1      44.389  32.959  32.464  1.00  0.00     0.009 A 
ATOM     75  C   UNL A   1      44.772  33.587  30.158  1.00  0.00     0.009 A 
ATOM     76  C   UNL A   1      44.597  34.283  32.855  1.00  0.00     0.001 A 
ATOM     77  C   UNL A   1      45.002  34.905  30.555  1.00  0.00     0.001 A 
ATOM     78  C   UNL A   1      44.906  35.253  31.901  1.00  0.00     0.000 A 
ENDBRANCH  60  73
ENDBRANCH  34  35
ENDBRANCH  26  29
ENDBRANCH  24  25
ENDBRANCH  23  24
ENDBRANCH  22  23
ENDBRANCH   3  22
TORSDOF 15
ENDMDL
