MODEL 1
REMARK VINA RESULT:     -11.3      0.000      0.000
REMARK SMILES O=C(NCCCNC(=O)C1CCN(C(=O)CSCc2ccccc2)CC1)c1ccc(-c2c3nc(c(-c4ccccc4)c4ccc([nH]4)c(-c4ccccc4)c4nc(c(-c5ccccc5)c5ccc2[nH]5)C=C4)C=C3)cc1
REMARK SMILES IDX 6 1 5 2 4 3 3 4 1 5 2 6 27 8 28 9 74 10 29 11 73 12 30 13
REMARK SMILES IDX 31 14 32 15 67 16 33 17 72 18 66 19 68 20 34 21 71 22 65 23
REMARK SMILES IDX 64 24 35 26 57 27 42 28 56 29 43 30 46 31 55 32 69 33 44 34
REMARK SMILES IDX 45 35 54 37 70 38 47 39 36 40 37 41 41 42 38 43 40 44 39 45
REMARK SMILES IDX 58 46 59 47 63 48 60 49 62 50 61 51 48 52 49 53 53 54 50 55
REMARK SMILES IDX 52 56 51 57 7 58 8 59 9 61 10 62 11 63 26 64 12 65 25 66
REMARK SMILES IDX 13 67 14 68 15 69 16 70 17 71 18 72 19 73 20 74 24 75 21 76
REMARK SMILES IDX 23 77 22 78
REMARK H PARENT 3 7 68 25 46 36 7 60
REMARK Flexibility Score: inf
ROOT
ATOM      1  C   UNL A   1      36.859  20.879  24.854  1.00  0.00     0.117 C 
ENDROOT
BRANCH   1   2
ATOM      2  C   UNL A   1      37.934  19.815  24.922  1.00  0.00     0.042 C 
BRANCH   2   3
ATOM      3  C   UNL A   1      39.009  20.085  25.960  1.00  0.00     0.118 C 
BRANCH   3   4
ATOM      4  N   UNL A   1      40.207  19.276  25.786  1.00  0.00    -0.352 N 
ATOM      5  O   UNL A   1      42.397  18.775  25.644  1.00  0.00    -0.269 OA
ATOM      6  C   UNL A   1      41.538  19.581  25.972  1.00  0.00     0.251 C 
ATOM      7  H   UNL A   1      40.037  18.354  25.485  1.00  0.00     0.163 HD
BRANCH   6   8
ATOM      8  C   UNL A   1      41.935  20.896  26.527  1.00  0.00     0.039 A 
ATOM      9  C   UNL A   1      41.981  21.112  27.901  1.00  0.00     0.014 A 
ATOM     10  C   UNL A   1      42.282  21.933  25.655  1.00  0.00     0.014 A 
ATOM     11  C   UNL A   1      42.140  22.396  28.397  1.00  0.00     0.010 A 
ATOM     12  C   UNL A   1      42.597  23.198  26.165  1.00  0.00     0.010 A 
ATOM     13  C   UNL A   1      42.487  23.451  27.540  1.00  0.00    -0.014 A 
BRANCH  13  14
ATOM     14  C   UNL A   1      42.810  24.773  28.138  1.00  0.00     0.031 A 
ATOM     15  C   UNL A   1      44.223  25.168  28.461  1.00  0.00     0.074 A 
ATOM     16  C   UNL A   1      41.801  25.645  28.336  1.00  0.00     0.049 A 
ATOM     17  N   UNL A   1      44.665  26.302  28.947  1.00  0.00    -0.248 NA
ATOM     18  C   UNL A   1      45.277  24.171  28.220  1.00  0.00     0.031 C 
ATOM     19  C   UNL A   1      40.385  25.374  28.066  1.00  0.00     0.029 A 
ATOM     20  N   UNL A   1      41.808  26.946  28.769  1.00  0.00    -0.354 N 
ATOM     21  C   UNL A   1      46.037  26.145  29.097  1.00  0.00     0.074 A 
ATOM     22  C   UNL A   1      46.356  24.801  28.666  1.00  0.00     0.031 C 
ATOM     23  C   UNL A   1      39.675  26.493  28.259  1.00  0.00     0.029 A 
ATOM     24  C   UNL A   1      40.567  27.534  28.752  1.00  0.00     0.049 A 
ATOM     25  H   UNL A   1      42.624  27.413  29.064  1.00  0.00     0.167 HD
ATOM     26  C   UNL A   1      46.946  27.041  29.553  1.00  0.00     0.031 A 
ATOM     27  C   UNL A   1      40.177  28.770  29.109  1.00  0.00     0.031 A 
ATOM     28  C   UNL A   1      46.626  28.380  29.972  1.00  0.00     0.049 A 
ATOM     29  C   UNL A   1      41.202  29.730  29.630  1.00  0.00     0.074 A 
ATOM     30  C   UNL A   1      47.483  29.370  30.426  1.00  0.00     0.029 A 
ATOM     31  N   UNL A   1      45.349  28.920  29.990  1.00  0.00    -0.354 N 
ATOM     32  N   UNL A   1      42.496  29.565  29.751  1.00  0.00    -0.248 NA
ATOM     33  C   UNL A   1      40.711  31.041  30.071  1.00  0.00     0.031 C 
ATOM     34  C   UNL A   1      46.718  30.492  30.762  1.00  0.00     0.029 A 
ATOM     35  C   UNL A   1      45.391  30.219  30.469  1.00  0.00     0.049 A 
ATOM     36  H   UNL A   1      44.533  28.450  29.704  1.00  0.00     0.167 HD
ATOM     37  C   UNL A   1      42.978  30.754  30.279  1.00  0.00     0.074 A 
ATOM     38  C   UNL A   1      41.839  31.640  30.426  1.00  0.00     0.031 C 
ATOM     39  C   UNL A   1      44.248  31.080  30.619  1.00  0.00     0.031 A 
BRANCH  26  40
ATOM     40  C   UNL A   1      48.378  26.591  29.654  1.00  0.00    -0.014 A 
ATOM     41  C   UNL A   1      49.307  26.875  28.641  1.00  0.00     0.009 A 
ATOM     42  C   UNL A   1      48.815  25.920  30.807  1.00  0.00     0.009 A 
ATOM     43  C   UNL A   1      50.639  26.473  28.771  1.00  0.00     0.001 A 
ATOM     44  C   UNL A   1      50.151  25.540  30.945  1.00  0.00     0.001 A 
ATOM     45  C   UNL A   1      51.061  25.809  29.924  1.00  0.00     0.000 A 
ENDBRANCH  26  40
BRANCH  27  46
ATOM     46  C   UNL A   1      38.744  29.149  29.013  1.00  0.00    -0.014 A 
ATOM     47  C   UNL A   1      37.890  29.008  30.116  1.00  0.00     0.009 A 
ATOM     48  C   UNL A   1      38.229  29.676  27.817  1.00  0.00     0.009 A 
ATOM     49  C   UNL A   1      36.545  29.373  30.019  1.00  0.00     0.001 A 
ATOM     50  C   UNL A   1      36.893  30.069  27.732  1.00  0.00     0.001 A 
ATOM     51  C   UNL A   1      36.050  29.909  28.831  1.00  0.00     0.000 A 
ENDBRANCH  27  46
BRANCH  39  52
ATOM     52  C   UNL A   1      44.464  32.460  31.166  1.00  0.00    -0.014 A 
ATOM     53  C   UNL A   1      44.752  33.539  30.317  1.00  0.00     0.009 A 
ATOM     54  C   UNL A   1      44.364  32.685  32.547  1.00  0.00     0.009 A 
ATOM     55  C   UNL A   1      44.973  34.812  30.845  1.00  0.00     0.001 A 
ATOM     56  C   UNL A   1      44.558  33.964  33.070  1.00  0.00     0.001 A 
ATOM     57  C   UNL A   1      44.874  35.023  32.220  1.00  0.00     0.000 A 
ENDBRANCH  39  52
ENDBRANCH  13  14
ENDBRANCH   6   8
ENDBRANCH   3   4
ENDBRANCH   2   3
ENDBRANCH   1   2
BRANCH   1  58
ATOM     58  N   UNL A   1      35.525  20.381  25.129  1.00  0.00    -0.356 N 
ATOM     59  C   UNL A   1      34.499  20.948  25.816  1.00  0.00     0.223 C 
ATOM     60  H   UNL A   1      35.331  19.490  24.757  1.00  0.00     0.163 HD
ATOM     61  O   UNL A   1      33.439  20.322  25.848  1.00  0.00    -0.275 OA
BRANCH  59  62
ATOM     62  C   UNL A   1      34.691  22.276  26.542  1.00  0.00     0.082 C 
ATOM     63  C   UNL A   1      33.455  22.590  27.426  1.00  0.00     0.035 C 
ATOM     64  C   UNL A   1      34.929  23.461  25.594  1.00  0.00     0.035 C 
ATOM     65  C   UNL A   1      32.242  23.051  26.599  1.00  0.00     0.120 C 
ATOM     66  C   UNL A   1      33.688  23.710  24.745  1.00  0.00     0.120 C 
ATOM     67  N   UNL A   1      32.636  24.106  25.662  1.00  0.00    -0.342 N 
ATOM     68  C   UNL A   1      32.270  25.426  25.903  1.00  0.00     0.232 C 
ATOM     69  O   UNL A   1      31.571  25.730  26.873  1.00  0.00    -0.274 OA
BRANCH  68  70
ATOM     70  C   UNL A   1      32.722  26.508  24.924  1.00  0.00     0.169 C 
BRANCH  70  71
ATOM     71  S   UNL A   1      31.510  26.881  23.603  1.00  0.00    -0.147 SA
BRANCH  71  72
ATOM     72  C   UNL A   1      31.399  28.693  23.745  1.00  0.00     0.105 C 
BRANCH  72  73
ATOM     73  C   UNL A   1      29.997  29.194  23.537  1.00  0.00    -0.038 A 
ATOM     74  C   UNL A   1      28.994  28.326  23.089  1.00  0.00     0.004 A 
ATOM     75  C   UNL A   1      29.681  30.543  23.761  1.00  0.00     0.004 A 
ATOM     76  C   UNL A   1      27.707  28.801  22.846  1.00  0.00     0.000 A 
ATOM     77  C   UNL A   1      28.394  31.017  23.515  1.00  0.00     0.000 A 
ATOM     78  C   UNL A   1      27.409  30.147  23.053  1.00  0.00     0.000 A 
ENDBRANCH  72  73
ENDBRANCH  71  72
ENDBRANCH  70  71
ENDBRANCH  68  70
ENDBRANCH  59  62
ENDBRANCH   1  58
TORSDOF 14
ENDMDL
MODEL 2
REMARK VINA RESULT:     -11.2      0.415      6.012
REMARK SMILES O=C(NCCCNC(=O)C1CCN(C(=O)CSCc2ccccc2)CC1)c1ccc(-c2c3nc(c(-c4ccccc4)c4ccc([nH]4)c(-c4ccccc4)c4nc(c(-c5ccccc5)c5ccc2[nH]5)C=C4)C=C3)cc1
REMARK SMILES IDX 6 1 5 2 4 3 3 4 1 5 2 6 27 8 28 9 74 10 29 11 73 12 30 13
REMARK SMILES IDX 31 14 32 15 67 16 33 17 72 18 66 19 68 20 34 21 71 22 65 23
REMARK SMILES IDX 64 24 35 26 57 27 42 28 56 29 43 30 46 31 55 32 69 33 44 34
REMARK SMILES IDX 45 35 54 37 70 38 47 39 36 40 37 41 41 42 38 43 40 44 39 45
REMARK SMILES IDX 58 46 59 47 63 48 60 49 62 50 61 51 48 52 49 53 53 54 50 55
REMARK SMILES IDX 52 56 51 57 7 58 8 59 9 61 10 62 11 63 26 64 12 65 25 66
REMARK SMILES IDX 13 67 14 68 15 69 16 70 17 71 18 72 19 73 20 74 24 75 21 76
REMARK SMILES IDX 23 77 22 78
REMARK H PARENT 3 7 68 25 46 36 7 60
REMARK Flexibility Score: inf
ROOT
ATOM      1  C   UNL A   1      36.989  20.664  24.754  1.00  0.00     0.117 C 
ENDROOT
BRANCH   1   2
ATOM      2  C   UNL A   1      38.059  19.616  24.978  1.00  0.00     0.042 C 
BRANCH   2   3
ATOM      3  C   UNL A   1      39.156  20.044  25.937  1.00  0.00     0.118 C 
BRANCH   3   4
ATOM      4  N   UNL A   1      40.344  19.204  25.880  1.00  0.00    -0.352 N 
ATOM      5  O   UNL A   1      42.527  18.658  25.876  1.00  0.00    -0.269 OA
ATOM      6  C   UNL A   1      41.671  19.501  26.103  1.00  0.00     0.251 C 
ATOM      7  H   UNL A   1      40.169  18.265  25.641  1.00  0.00     0.163 HD
BRANCH   6   8
ATOM      8  C   UNL A   1      42.069  20.847  26.576  1.00  0.00     0.039 A 
ATOM      9  C   UNL A   1      42.062  21.165  27.930  1.00  0.00     0.014 A 
ATOM     10  C   UNL A   1      42.472  21.810  25.645  1.00  0.00     0.014 A 
ATOM     11  C   UNL A   1      42.224  22.480  28.336  1.00  0.00     0.010 A 
ATOM     12  C   UNL A   1      42.788  23.105  26.073  1.00  0.00     0.010 A 
ATOM     13  C   UNL A   1      42.626  23.462  27.419  1.00  0.00    -0.014 A 
BRANCH  13  14
ATOM     14  C   UNL A   1      42.949  24.820  27.930  1.00  0.00     0.031 A 
ATOM     15  C   UNL A   1      41.875  25.835  28.202  1.00  0.00     0.074 A 
ATOM     16  C   UNL A   1      44.237  25.108  28.200  1.00  0.00     0.049 A 
ATOM     17  N   UNL A   1      41.999  27.046  28.687  1.00  0.00    -0.248 NA
ATOM     18  C   UNL A   1      40.489  25.457  27.885  1.00  0.00     0.031 C 
ATOM     19  C   UNL A   1      45.371  24.205  27.973  1.00  0.00     0.029 A 
ATOM     20  N   UNL A   1      44.812  26.219  28.762  1.00  0.00    -0.354 N 
ATOM     21  C   UNL A   1      40.716  27.582  28.706  1.00  0.00     0.074 A 
ATOM     22  C   UNL A   1      39.830  26.573  28.169  1.00  0.00     0.031 C 
ATOM     23  C   UNL A   1      46.486  24.761  28.464  1.00  0.00     0.029 A 
ATOM     24  C   UNL A   1      46.166  26.094  28.959  1.00  0.00     0.049 A 
ATOM     25  H   UNL A   1      44.303  27.028  29.002  1.00  0.00     0.167 HD
ATOM     26  C   UNL A   1      40.318  28.805  29.133  1.00  0.00     0.031 A 
ATOM     27  C   UNL A   1      47.063  26.958  29.464  1.00  0.00     0.031 A 
ATOM     28  C   UNL A   1      41.202  29.804  29.676  1.00  0.00     0.049 A 
ATOM     29  C   UNL A   1      46.594  28.310  29.907  1.00  0.00     0.074 A 
ATOM     30  C   UNL A   1      40.887  31.064  30.158  1.00  0.00     0.029 A 
ATOM     31  N   UNL A   1      42.574  29.658  29.808  1.00  0.00    -0.354 N 
ATOM     32  N   UNL A   1      45.376  28.792  29.929  1.00  0.00    -0.248 NA
ATOM     33  C   UNL A   1      47.625  29.239  30.385  1.00  0.00     0.031 C 
ATOM     34  C   UNL A   1      42.076  31.697  30.538  1.00  0.00     0.029 A 
ATOM     35  C   UNL A   1      43.124  30.812  30.342  1.00  0.00     0.049 A 
ATOM     36  H   UNL A   1      43.083  28.853  29.560  1.00  0.00     0.167 HD
ATOM     37  C   UNL A   1      45.491  30.081  30.427  1.00  0.00     0.074 A 
ATOM     38  C   UNL A   1      46.895  30.292  30.723  1.00  0.00     0.031 C 
ATOM     39  C   UNL A   1      44.523  31.008  30.617  1.00  0.00     0.031 A 
BRANCH  26  40
ATOM     40  C   UNL A   1      38.860  29.148  29.002  1.00  0.00    -0.014 A 
ATOM     41  C   UNL A   1      37.970  28.986  30.075  1.00  0.00     0.009 A 
ATOM     42  C   UNL A   1      38.381  29.694  27.800  1.00  0.00     0.009 A 
ATOM     43  C   UNL A   1      36.626  29.340  29.938  1.00  0.00     0.001 A 
ATOM     44  C   UNL A   1      37.042  30.068  27.673  1.00  0.00     0.001 A 
ATOM     45  C   UNL A   1      36.163  29.884  28.740  1.00  0.00     0.000 A 
ENDBRANCH  26  40
BRANCH  27  46
ATOM     46  C   UNL A   1      48.495  26.574  29.544  1.00  0.00    -0.014 A 
ATOM     47  C   UNL A   1      49.363  26.817  28.471  1.00  0.00     0.009 A 
ATOM     48  C   UNL A   1      49.005  25.979  30.710  1.00  0.00     0.009 A 
ATOM     49  C   UNL A   1      50.710  26.459  28.557  1.00  0.00     0.001 A 
ATOM     50  C   UNL A   1      50.357  25.650  30.806  1.00  0.00     0.001 A 
ATOM     51  C   UNL A   1      51.207  25.882  29.726  1.00  0.00     0.000 A 
ENDBRANCH  27  46
BRANCH  39  52
ATOM     52  C   UNL A   1      44.957  32.327  31.186  1.00  0.00    -0.014 A 
ATOM     53  C   UNL A   1      45.019  32.533  32.572  1.00  0.00     0.009 A 
ATOM     54  C   UNL A   1      45.321  33.371  30.322  1.00  0.00     0.009 A 
ATOM     55  C   UNL A   1      45.403  33.773  33.083  1.00  0.00     0.001 A 
ATOM     56  C   UNL A   1      45.730  34.602  30.836  1.00  0.00     0.001 A 
ATOM     57  C   UNL A   1      45.761  34.805  32.215  1.00  0.00     0.000 A 
ENDBRANCH  39  52
ENDBRANCH  13  14
ENDBRANCH   6   8
ENDBRANCH   3   4
ENDBRANCH   2   3
ENDBRANCH   1   2
BRANCH   1  58
ATOM     58  N   UNL A   1      35.647  20.204  25.059  1.00  0.00    -0.356 N 
ATOM     59  C   UNL A   1      34.607  20.854  25.641  1.00  0.00     0.223 C 
ATOM     60  H   UNL A   1      35.461  19.273  24.801  1.00  0.00     0.163 HD
ATOM     61  O   UNL A   1      33.544  20.236  25.728  1.00  0.00    -0.275 OA
BRANCH  59  62
ATOM     62  C   UNL A   1      34.783  22.266  26.194  1.00  0.00     0.082 C 
ATOM     63  C   UNL A   1      33.727  22.548  27.295  1.00  0.00     0.035 C 
ATOM     64  C   UNL A   1      34.676  23.359  25.119  1.00  0.00     0.035 C 
ATOM     65  C   UNL A   1      32.324  22.795  26.715  1.00  0.00     0.120 C 
ATOM     66  C   UNL A   1      33.266  23.390  24.543  1.00  0.00     0.120 C 
ATOM     67  N   UNL A   1      32.386  23.776  25.630  1.00  0.00    -0.342 N 
ATOM     68  C   UNL A   1      31.922  25.071  25.831  1.00  0.00     0.232 C 
ATOM     69  O   UNL A   1      31.406  25.408  26.901  1.00  0.00    -0.274 OA
BRANCH  68  70
ATOM     70  C   UNL A   1      32.028  26.082  24.690  1.00  0.00     0.169 C 
BRANCH  70  71
ATOM     71  S   UNL A   1      31.417  27.755  25.107  1.00  0.00    -0.147 SA
BRANCH  71  72
ATOM     72  C   UNL A   1      31.079  28.418  23.445  1.00  0.00     0.105 C 
BRANCH  72  73
ATOM     73  C   UNL A   1      29.845  29.277  23.417  1.00  0.00    -0.038 A 
ATOM     74  C   UNL A   1      28.639  28.769  22.920  1.00  0.00     0.004 A 
ATOM     75  C   UNL A   1      29.892  30.607  23.863  1.00  0.00     0.004 A 
ATOM     76  C   UNL A   1      27.509  29.580  22.844  1.00  0.00     0.000 A 
ATOM     77  C   UNL A   1      28.761  31.418  23.785  1.00  0.00     0.000 A 
ATOM     78  C   UNL A   1      27.572  30.905  23.271  1.00  0.00     0.000 A 
ENDBRANCH  72  73
ENDBRANCH  71  72
ENDBRANCH  70  71
ENDBRANCH  68  70
ENDBRANCH  59  62
ENDBRANCH   1  58
TORSDOF 14
ENDMDL
MODEL 3
REMARK VINA RESULT:     -11.2      3.613      9.411
REMARK SMILES O=C(NCCCNC(=O)C1CCN(C(=O)CSCc2ccccc2)CC1)c1ccc(-c2c3nc(c(-c4ccccc4)c4ccc([nH]4)c(-c4ccccc4)c4nc(c(-c5ccccc5)c5ccc2[nH]5)C=C4)C=C3)cc1
REMARK SMILES IDX 6 1 5 2 4 3 3 4 1 5 2 6 27 8 28 9 74 10 29 11 73 12 30 13
REMARK SMILES IDX 31 14 32 15 67 16 33 17 72 18 66 19 68 20 34 21 71 22 65 23
REMARK SMILES IDX 64 24 35 26 57 27 42 28 56 29 43 30 46 31 55 32 69 33 44 34
REMARK SMILES IDX 45 35 54 37 70 38 47 39 36 40 37 41 41 42 38 43 40 44 39 45
REMARK SMILES IDX 58 46 59 47 63 48 60 49 62 50 61 51 48 52 49 53 53 54 50 55
REMARK SMILES IDX 52 56 51 57 7 58 8 59 9 61 10 62 11 63 26 64 12 65 25 66
REMARK SMILES IDX 13 67 14 68 15 69 16 70 17 71 18 72 19 73 20 74 24 75 21 76
REMARK SMILES IDX 23 77 22 78
REMARK H PARENT 3 7 68 25 46 36 7 60
REMARK Flexibility Score: inf
ROOT
ATOM      1  C   UNL A   1      31.462  30.396  26.021  1.00  0.00     0.117 C 
ENDROOT
BRANCH   1   2
ATOM      2  C   UNL A   1      31.335  31.844  26.446  1.00  0.00     0.042 C 
BRANCH   2   3
ATOM      3  C   UNL A   1      32.597  32.420  27.065  1.00  0.00     0.118 C 
BRANCH   3   4
ATOM      4  N   UNL A   1      32.417  33.749  27.633  1.00  0.00    -0.352 N 
ATOM      5  O   UNL A   1      32.761  35.516  28.983  1.00  0.00    -0.269 OA
ATOM      6  C   UNL A   1      33.171  34.449  28.549  1.00  0.00     0.251 C 
ATOM      7  H   UNL A   1      31.622  34.229  27.305  1.00  0.00     0.163 HD
BRANCH   6   8
ATOM      8  C   UNL A   1      34.452  33.896  29.045  1.00  0.00     0.039 A 
ATOM      9  C   UNL A   1      35.654  34.183  28.405  1.00  0.00     0.014 A 
ATOM     10  C   UNL A   1      34.455  33.083  30.183  1.00  0.00     0.014 A 
ATOM     11  C   UNL A   1      36.804  33.489  28.745  1.00  0.00     0.010 A 
ATOM     12  C   UNL A   1      35.651  32.502  30.623  1.00  0.00     0.010 A 
ATOM     13  C   UNL A   1      36.829  32.667  29.882  1.00  0.00    -0.014 A 
BRANCH  13  14
ATOM     14  C   UNL A   1      38.127  32.077  30.302  1.00  0.00     0.031 A 
ATOM     15  C   UNL A   1      38.643  30.800  29.701  1.00  0.00     0.074 A 
ATOM     16  C   UNL A   1      38.868  32.748  31.206  1.00  0.00     0.049 A 
ATOM     17  N   UNL A   1      39.776  30.185  29.937  1.00  0.00    -0.248 NA
ATOM     18  C   UNL A   1      37.785  30.118  28.720  1.00  0.00     0.031 C 
ATOM     19  C   UNL A   1      38.471  33.997  31.865  1.00  0.00     0.029 A 
ATOM     20  N   UNL A   1      40.124  32.504  31.698  1.00  0.00    -0.354 N 
ATOM     21  C   UNL A   1      39.754  29.034  29.159  1.00  0.00     0.074 A 
ATOM     22  C   UNL A   1      38.490  29.025  28.455  1.00  0.00     0.031 C 
ATOM     23  C   UNL A   1      39.489  34.451  32.607  1.00  0.00     0.029 A 
ATOM     24  C   UNL A   1      40.577  33.483  32.549  1.00  0.00     0.049 A 
ATOM     25  H   UNL A   1      40.650  31.705  31.464  1.00  0.00     0.167 HD
ATOM     26  C   UNL A   1      40.703  28.073  29.044  1.00  0.00     0.031 A 
ATOM     27  C   UNL A   1      41.732  33.590  33.228  1.00  0.00     0.031 A 
ATOM     28  C   UNL A   1      41.964  28.090  29.739  1.00  0.00     0.049 A 
ATOM     29  C   UNL A   1      42.751  32.501  33.097  1.00  0.00     0.074 A 
ATOM     30  C   UNL A   1      42.999  27.172  29.667  1.00  0.00     0.029 A 
ATOM     31  N   UNL A   1      42.361  29.071  30.633  1.00  0.00    -0.354 N 
ATOM     32  N   UNL A   1      42.717  31.428  32.346  1.00  0.00    -0.248 NA
ATOM     33  C   UNL A   1      43.964  32.633  33.914  1.00  0.00     0.031 C 
ATOM     34  C   UNL A   1      44.004  27.576  30.554  1.00  0.00     0.029 A 
ATOM     35  C   UNL A   1      43.616  28.771  31.138  1.00  0.00     0.049 A 
ATOM     36  H   UNL A   1      41.831  29.865  30.873  1.00  0.00     0.167 HD
ATOM     37  C   UNL A   1      43.904  30.756  32.595  1.00  0.00     0.074 A 
ATOM     38  C   UNL A   1      44.650  31.560  33.544  1.00  0.00     0.031 C 
ATOM     39  C   UNL A   1      44.336  29.576  32.089  1.00  0.00     0.031 A 
BRANCH  26  40
ATOM     40  C   UNL A   1      40.401  26.899  28.154  1.00  0.00    -0.014 A 
ATOM     41  C   UNL A   1      40.881  26.837  26.836  1.00  0.00     0.009 A 
ATOM     42  C   UNL A   1      39.671  25.812  28.662  1.00  0.00     0.009 A 
ATOM     43  C   UNL A   1      40.613  25.722  26.038  1.00  0.00     0.001 A 
ATOM     44  C   UNL A   1      39.424  24.689  27.869  1.00  0.00     0.001 A 
ATOM     45  C   UNL A   1      39.888  24.648  26.556  1.00  0.00     0.000 A 
ENDBRANCH  26  40
BRANCH  27  46
ATOM     46  C   UNL A   1      41.963  34.760  34.114  1.00  0.00    -0.014 A 
ATOM     47  C   UNL A   1      42.528  35.939  33.610  1.00  0.00     0.009 A 
ATOM     48  C   UNL A   1      41.595  34.706  35.468  1.00  0.00     0.009 A 
ATOM     49  C   UNL A   1      42.735  37.037  34.448  1.00  0.00     0.001 A 
ATOM     50  C   UNL A   1      41.774  35.815  36.297  1.00  0.00     0.001 A 
ATOM     51  C   UNL A   1      42.352  36.976  35.788  1.00  0.00     0.000 A 
ENDBRANCH  27  46
BRANCH  39  52
ATOM     52  C   UNL A   1      45.684  29.102  32.546  1.00  0.00    -0.014 A 
ATOM     53  C   UNL A   1      46.851  29.465  31.858  1.00  0.00     0.009 A 
ATOM     54  C   UNL A   1      45.786  28.292  33.687  1.00  0.00     0.009 A 
ATOM     55  C   UNL A   1      48.095  28.995  32.283  1.00  0.00     0.001 A 
ATOM     56  C   UNL A   1      47.034  27.846  34.126  1.00  0.00     0.001 A 
ATOM     57  C   UNL A   1      48.185  28.189  33.418  1.00  0.00     0.000 A 
ENDBRANCH  39  52
ENDBRANCH  13  14
ENDBRANCH   6   8
ENDBRANCH   3   4
ENDBRANCH   2   3
ENDBRANCH   1   2
BRANCH   1  58
ATOM     58  N   UNL A   1      31.081  30.158  24.641  1.00  0.00    -0.356 N 
ATOM     59  C   UNL A   1      31.529  29.231  23.754  1.00  0.00     0.223 C 
ATOM     60  H   UNL A   1      30.388  30.763  24.293  1.00  0.00     0.163 HD
ATOM     61  O   UNL A   1      30.985  29.212  22.649  1.00  0.00    -0.275 OA
BRANCH  59  62
ATOM     62  C   UNL A   1      32.681  28.299  24.119  1.00  0.00     0.082 C 
ATOM     63  C   UNL A   1      33.435  27.850  22.839  1.00  0.00     0.035 C 
ATOM     64  C   UNL A   1      32.232  27.047  24.889  1.00  0.00     0.035 C 
ATOM     65  C   UNL A   1      32.651  26.801  22.032  1.00  0.00     0.120 C 
ATOM     66  C   UNL A   1      31.353  26.175  24.002  1.00  0.00     0.120 C 
ATOM     67  N   UNL A   1      32.192  25.721  22.909  1.00  0.00    -0.342 N 
ATOM     68  C   UNL A   1      32.810  24.477  22.867  1.00  0.00     0.232 C 
ATOM     69  O   UNL A   1      33.718  24.239  22.066  1.00  0.00    -0.274 OA
BRANCH  68  70
ATOM     70  C   UNL A   1      32.330  23.380  23.816  1.00  0.00     0.169 C 
BRANCH  70  71
ATOM     71  S   UNL A   1      33.566  22.070  24.139  1.00  0.00    -0.147 SA
BRANCH  71  72
ATOM     72  C   UNL A   1      32.480  20.683  24.600  1.00  0.00     0.105 C 
BRANCH  72  73
ATOM     73  C   UNL A   1      33.031  19.358  24.153  1.00  0.00    -0.038 A 
ATOM     74  C   UNL A   1      34.203  18.848  24.725  1.00  0.00     0.004 A 
ATOM     75  C   UNL A   1      32.395  18.627  23.138  1.00  0.00     0.004 A 
ATOM     76  C   UNL A   1      34.743  17.645  24.274  1.00  0.00     0.000 A 
ATOM     77  C   UNL A   1      32.937  17.426  22.686  1.00  0.00     0.000 A 
ATOM     78  C   UNL A   1      34.114  16.938  23.251  1.00  0.00     0.000 A 
ENDBRANCH  72  73
ENDBRANCH  71  72
ENDBRANCH  70  71
ENDBRANCH  68  70
ENDBRANCH  59  62
ENDBRANCH   1  58
TORSDOF 14
ENDMDL
