MODEL 1
REMARK VINA RESULT:     -11.7      0.000      0.000
REMARK SMILES CNC(=O)c1cc(S(=O)(=O)N2CCC(C(=O)NCCCNC(=O)c3ccc(-c4c5nc(c(-c6ccccc6)c6ccc([nH]6)c(-c6ccccc6)c6nc(c(-c7ccccc7)c7ccc4[nH]7)C=C6)C=C5)cc3)CC2)ccc1OC
REMARK SMILES IDX 18 1 17 2 15 3 16 4 14 6 11 7 12 8 73 9 13 10 72 11 8 12
REMARK SMILES IDX 9 13 10 14 7 15 5 16 6 17 76 18 75 19 74 20 3 21 1 22 2 23
REMARK SMILES IDX 4 25 77 26 78 27 19 28 20 29 21 30 22 31 23 33 24 34 25 35
REMARK SMILES IDX 71 36 26 37 70 38 27 39 28 40 29 41 64 42 30 43 69 44 63 45
REMARK SMILES IDX 65 46 31 47 68 48 62 49 61 50 32 52 54 53 39 54 53 55 40 56
REMARK SMILES IDX 43 57 52 58 66 59 41 60 42 61 51 63 67 64 44 65 33 66 34 67
REMARK SMILES IDX 38 68 35 69 37 70 36 71 55 72 56 73 60 74 57 75 59 76 58 77
REMARK SMILES IDX 45 78 46 79 50 80 47 81 49 82 48 83
REMARK H PARENT 17 5 2 24 21 32 65 51 43 62
REMARK Flexibility Score: inf
ROOT
ATOM      1  C   UNL A   1      36.924  20.180  24.910  1.00  0.00     0.117 C 
ENDROOT
BRANCH   1   2
ATOM      2  N   UNL A   1      37.135  21.336  24.050  1.00  0.00    -0.356 N 
ATOM      3  C   UNL A   1      36.412  22.474  23.879  1.00  0.00     0.223 C 
ATOM      4  O   UNL A   1      36.809  23.291  23.045  1.00  0.00    -0.275 OA
ATOM      5  H   UNL A   1      37.945  21.284  23.494  1.00  0.00     0.163 HD
BRANCH   3   6
ATOM      6  C   UNL A   1      35.156  22.752  24.683  1.00  0.00     0.081 C 
ATOM      7  N   UNL A   1      32.723  24.188  25.252  1.00  0.00    -0.198 NA
ATOM      8  C   UNL A   1      33.921  24.417  26.087  1.00  0.00     0.103 C 
ATOM      9  C   UNL A   1      32.606  22.897  24.532  1.00  0.00     0.103 C 
ATOM     10  C   UNL A   1      35.181  24.147  25.295  1.00  0.00     0.030 C 
ATOM     11  C   UNL A   1      33.897  22.445  23.875  1.00  0.00     0.030 C 
BRANCH   7  12
ATOM     12  S   UNL A   1      31.258  24.822  25.868  1.00  0.00     0.243 S 
ATOM     13  O   UNL A   1      31.191  24.459  27.272  1.00  0.00    -0.207 OA
ATOM     14  O   UNL A   1      30.201  24.474  24.948  1.00  0.00    -0.207 OA
BRANCH  12  15
ATOM     15  C   UNL A   1      31.394  26.602  25.824  1.00  0.00     0.083 A 
ATOM     16  C   UNL A   1      31.172  28.620  24.504  1.00  0.00     0.083 A 
ATOM     17  C   UNL A   1      31.113  27.224  24.604  1.00  0.00     0.039 A 
ATOM     18  C   UNL A   1      31.430  29.400  25.639  1.00  0.00     0.131 A 
ATOM     19  C   UNL A   1      31.758  28.771  26.838  1.00  0.00     0.048 A 
ATOM     20  C   UNL A   1      31.752  27.379  26.928  1.00  0.00     0.025 A 
BRANCH  16  21
ATOM     21  C   UNL A   1      30.978  29.199  23.163  1.00  0.00     0.254 C 
ATOM     22  C   UNL A   1      33.414  28.892  22.539  1.00  0.00     0.143 C 
ATOM     23  N   UNL A   1      32.048  29.308  22.313  1.00  0.00    -0.355 N 
ATOM     24  H   UNL A   1      31.863  29.724  21.440  1.00  0.00     0.163 HD
ATOM     25  O   UNL A   1      29.854  29.545  22.815  1.00  0.00    -0.269 OA
ENDBRANCH  16  21
BRANCH  18  26
ATOM     26  O   UNL A   1      31.444  30.767  25.683  1.00  0.00    -0.496 OA
ATOM     27  C   UNL A   1      32.074  31.285  26.856  1.00  0.00     0.278 C 
ENDBRANCH  18  26
ENDBRANCH  12  15
ENDBRANCH   7  12
ENDBRANCH   3   6
ENDBRANCH   1   2
BRANCH   1  28
ATOM     28  C   UNL A   1      38.163  19.305  25.011  1.00  0.00     0.042 C 
BRANCH  28  29
ATOM     29  C   UNL A   1      39.293  19.948  25.798  1.00  0.00     0.118 C 
BRANCH  29  30
ATOM     30  N   UNL A   1      40.418  19.045  25.991  1.00  0.00    -0.352 N 
ATOM     31  C   UNL A   1      41.731  19.317  26.286  1.00  0.00     0.251 C 
ATOM     32  H   UNL A   1      40.204  18.089  25.894  1.00  0.00     0.163 HD
ATOM     33  O   UNL A   1      42.573  18.428  26.199  1.00  0.00    -0.269 OA
BRANCH  31  34
ATOM     34  C   UNL A   1      42.136  20.679  26.692  1.00  0.00     0.039 A 
ATOM     35  C   UNL A   1      42.607  21.563  25.718  1.00  0.00     0.014 A 
ATOM     36  C   UNL A   1      42.069  21.079  28.028  1.00  0.00     0.014 A 
ATOM     37  C   UNL A   1      42.941  22.871  26.074  1.00  0.00     0.010 A 
ATOM     38  C   UNL A   1      42.315  22.404  28.366  1.00  0.00     0.010 A 
ATOM     39  C   UNL A   1      42.761  23.312  27.396  1.00  0.00    -0.014 A 
BRANCH  39  40
ATOM     40  C   UNL A   1      43.036  24.715  27.789  1.00  0.00     0.031 A 
ATOM     41  C   UNL A   1      44.446  25.156  28.072  1.00  0.00     0.074 A 
ATOM     42  C   UNL A   1      42.011  25.568  27.979  1.00  0.00     0.049 A 
ATOM     43  N   UNL A   1      44.877  26.306  28.521  1.00  0.00    -0.248 NA
ATOM     44  C   UNL A   1      45.510  24.162  27.848  1.00  0.00     0.031 C 
ATOM     45  C   UNL A   1      40.593  25.250  27.788  1.00  0.00     0.029 A 
ATOM     46  N   UNL A   1      42.005  26.877  28.389  1.00  0.00    -0.354 N 
ATOM     47  C   UNL A   1      46.251  26.165  28.664  1.00  0.00     0.074 A 
ATOM     48  C   UNL A   1      46.579  24.807  28.292  1.00  0.00     0.031 C 
ATOM     49  C   UNL A   1      39.858  26.341  28.060  1.00  0.00     0.029 A 
ATOM     50  C   UNL A   1      40.746  27.419  28.481  1.00  0.00     0.049 A 
ATOM     51  H   UNL A   1      42.825  27.381  28.598  1.00  0.00     0.167 HD
ATOM     52  C   UNL A   1      47.162  27.087  29.053  1.00  0.00     0.031 A 
ATOM     53  C   UNL A   1      40.349  28.645  28.872  1.00  0.00     0.031 A 
ATOM     54  C   UNL A   1      46.841  28.447  29.392  1.00  0.00     0.049 A 
ATOM     55  C   UNL A   1      41.382  29.656  29.284  1.00  0.00     0.074 A 
ATOM     56  C   UNL A   1      47.703  29.479  29.721  1.00  0.00     0.029 A 
ATOM     57  N   UNL A   1      45.557  28.964  29.445  1.00  0.00    -0.354 N 
ATOM     58  N   UNL A   1      42.684  29.527  29.342  1.00  0.00    -0.248 NA
ATOM     59  C   UNL A   1      40.888  30.984  29.674  1.00  0.00     0.031 C 
ATOM     60  C   UNL A   1      46.936  30.611  30.014  1.00  0.00     0.029 A 
ATOM     61  C   UNL A   1      45.600  30.295  29.823  1.00  0.00     0.049 A 
ATOM     62  H   UNL A   1      44.736  28.459  29.242  1.00  0.00     0.167 HD
ATOM     63  C   UNL A   1      43.168  30.761  29.753  1.00  0.00     0.074 A 
ATOM     64  C   UNL A   1      42.019  31.630  29.915  1.00  0.00     0.031 C 
ATOM     65  C   UNL A   1      44.448  31.143  29.978  1.00  0.00     0.031 A 
BRANCH  52  66
ATOM     66  C   UNL A   1      48.597  26.650  29.136  1.00  0.00    -0.014 A 
ATOM     67  C   UNL A   1      49.435  26.685  28.010  1.00  0.00     0.009 A 
ATOM     68  C   UNL A   1      49.128  26.233  30.366  1.00  0.00     0.009 A 
ATOM     69  C   UNL A   1      50.767  26.276  28.107  1.00  0.00     0.001 A 
ATOM     70  C   UNL A   1      50.468  25.851  30.466  1.00  0.00     0.001 A 
ATOM     71  C   UNL A   1      51.283  25.864  29.335  1.00  0.00     0.000 A 
ENDBRANCH  52  66
BRANCH  53  72
ATOM     72  C   UNL A   1      38.905  28.990  28.880  1.00  0.00    -0.014 A 
ATOM     73  C   UNL A   1      38.298  29.532  27.737  1.00  0.00     0.009 A 
ATOM     74  C   UNL A   1      38.127  28.782  30.030  1.00  0.00     0.009 A 
ATOM     75  C   UNL A   1      36.946  29.882  27.753  1.00  0.00     0.001 A 
ATOM     76  C   UNL A   1      36.769  29.110  30.033  1.00  0.00     0.001 A 
ATOM     77  C   UNL A   1      36.182  29.667  28.899  1.00  0.00     0.000 A 
ENDBRANCH  53  72
BRANCH  65  78
ATOM     78  C   UNL A   1      44.677  32.566  30.397  1.00  0.00    -0.014 A 
ATOM     79  C   UNL A   1      44.677  32.933  31.750  1.00  0.00     0.009 A 
ATOM     80  C   UNL A   1      44.936  33.542  29.422  1.00  0.00     0.009 A 
ATOM     81  C   UNL A   1      44.906  34.260  32.119  1.00  0.00     0.001 A 
ATOM     82  C   UNL A   1      45.189  34.863  29.796  1.00  0.00     0.001 A 
ATOM     83  C   UNL A   1      45.167  35.221  31.143  1.00  0.00     0.000 A 
ENDBRANCH  65  78
ENDBRANCH  39  40
ENDBRANCH  31  34
ENDBRANCH  29  30
ENDBRANCH  28  29
ENDBRANCH   1  28
TORSDOF 14
ENDMDL
MODEL 2
REMARK VINA RESULT:     -11.7      3.240      9.321
REMARK SMILES CNC(=O)c1cc(S(=O)(=O)N2CCC(C(=O)NCCCNC(=O)c3ccc(-c4c5nc(c(-c6ccccc6)c6ccc([nH]6)c(-c6ccccc6)c6nc(c(-c7ccccc7)c7ccc4[nH]7)C=C6)C=C5)cc3)CC2)ccc1OC
REMARK SMILES IDX 18 1 17 2 15 3 16 4 14 6 11 7 12 8 73 9 13 10 72 11 8 12
REMARK SMILES IDX 9 13 10 14 7 15 5 16 6 17 76 18 75 19 74 20 3 21 1 22 2 23
REMARK SMILES IDX 4 25 77 26 78 27 19 28 20 29 21 30 22 31 23 33 24 34 25 35
REMARK SMILES IDX 71 36 26 37 70 38 27 39 28 40 29 41 64 42 30 43 69 44 63 45
REMARK SMILES IDX 65 46 31 47 68 48 62 49 61 50 32 52 54 53 39 54 53 55 40 56
REMARK SMILES IDX 43 57 52 58 66 59 41 60 42 61 51 63 67 64 44 65 33 66 34 67
REMARK SMILES IDX 38 68 35 69 37 70 36 71 55 72 56 73 60 74 57 75 59 76 58 77
REMARK SMILES IDX 45 78 46 79 50 80 47 81 49 82 48 83
REMARK H PARENT 17 5 2 24 21 32 65 51 43 62
REMARK Flexibility Score: inf
ROOT
ATOM      1  C   UNL A   1      31.507  30.611  25.889  1.00  0.00     0.117 C 
ENDROOT
BRANCH   1   2
ATOM      2  N   UNL A   1      32.847  30.071  26.080  1.00  0.00    -0.356 N 
ATOM      3  C   UNL A   1      33.343  28.818  25.914  1.00  0.00     0.223 C 
ATOM      4  O   UNL A   1      34.531  28.627  26.183  1.00  0.00    -0.275 OA
ATOM      5  H   UNL A   1      33.509  30.733  26.383  1.00  0.00     0.163 HD
BRANCH   3   6
ATOM      6  C   UNL A   1      32.481  27.676  25.409  1.00  0.00     0.081 C 
ATOM      7  N   UNL A   1      31.803  24.891  25.114  1.00  0.00    -0.198 NA
ATOM      8  C   UNL A   1      32.390  25.627  23.973  1.00  0.00     0.103 C 
ATOM      9  C   UNL A   1      31.086  25.665  26.154  1.00  0.00     0.103 C 
ATOM     10  C   UNL A   1      33.256  26.766  24.464  1.00  0.00     0.030 C 
ATOM     11  C   UNL A   1      31.793  26.945  26.559  1.00  0.00     0.030 C 
BRANCH   7  12
ATOM     12  S   UNL A   1      31.134  23.361  24.741  1.00  0.00     0.243 S 
ATOM     13  O   UNL A   1      30.701  23.408  23.357  1.00  0.00    -0.207 OA
ATOM     14  O   UNL A   1      30.224  23.003  25.804  1.00  0.00    -0.207 OA
BRANCH  12  15
ATOM     15  C   UNL A   1      32.466  22.173  24.802  1.00  0.00     0.083 A 
ATOM     16  C   UNL A   1      33.097  19.835  24.852  1.00  0.00     0.083 A 
ATOM     17  C   UNL A   1      32.103  20.823  24.833  1.00  0.00     0.039 A 
ATOM     18  C   UNL A   1      34.448  20.191  24.756  1.00  0.00     0.131 A 
ATOM     19  C   UNL A   1      34.802  21.538  24.777  1.00  0.00     0.048 A 
ATOM     20  C   UNL A   1      33.817  22.524  24.811  1.00  0.00     0.025 A 
BRANCH  16  21
ATOM     21  C   UNL A   1      32.644  18.441  25.001  1.00  0.00     0.254 C 
ATOM     22  C   UNL A   1      32.477  18.094  22.497  1.00  0.00     0.143 C 
ATOM     23  N   UNL A   1      32.363  17.699  23.883  1.00  0.00    -0.355 N 
ATOM     24  H   UNL A   1      32.043  16.782  24.044  1.00  0.00     0.163 HD
ATOM     25  O   UNL A   1      32.556  17.954  26.123  1.00  0.00    -0.269 OA
ENDBRANCH  16  21
BRANCH  18  26
ATOM     26  O   UNL A   1      35.501  19.319  24.695  1.00  0.00    -0.496 OA
ATOM     27  C   UNL A   1      36.755  19.932  24.996  1.00  0.00     0.278 C 
ENDBRANCH  18  26
ENDBRANCH  12  15
ENDBRANCH   7  12
ENDBRANCH   3   6
ENDBRANCH   1   2
BRANCH   1  28
ATOM     28  C   UNL A   1      31.343  31.979  26.530  1.00  0.00     0.042 C 
BRANCH  28  29
ATOM     29  C   UNL A   1      32.621  32.509  27.158  1.00  0.00     0.118 C 
BRANCH  29  30
ATOM     30  N   UNL A   1      32.461  33.853  27.694  1.00  0.00    -0.352 N 
ATOM     31  C   UNL A   1      33.193  34.520  28.645  1.00  0.00     0.251 C 
ATOM     32  H   UNL A   1      31.710  34.364  27.315  1.00  0.00     0.163 HD
ATOM     33  O   UNL A   1      32.769  35.571  29.114  1.00  0.00    -0.269 OA
BRANCH  31  34
ATOM     34  C   UNL A   1      34.479  33.966  29.118  1.00  0.00     0.039 A 
ATOM     35  C   UNL A   1      34.504  33.233  30.307  1.00  0.00     0.014 A 
ATOM     36  C   UNL A   1      35.659  34.183  28.404  1.00  0.00     0.014 A 
ATOM     37  C   UNL A   1      35.699  32.657  30.740  1.00  0.00     0.010 A 
ATOM     38  C   UNL A   1      36.827  33.535  28.785  1.00  0.00     0.010 A 
ATOM     39  C   UNL A   1      36.862  32.771  29.960  1.00  0.00    -0.014 A 
BRANCH  39  40
ATOM     40  C   UNL A   1      38.129  32.108  30.355  1.00  0.00     0.031 A 
ATOM     41  C   UNL A   1      39.083  32.801  31.289  1.00  0.00     0.074 A 
ATOM     42  C   UNL A   1      38.462  30.925  29.804  1.00  0.00     0.049 A 
ATOM     43  N   UNL A   1      40.278  32.431  31.672  1.00  0.00    -0.248 NA
ATOM     44  C   UNL A   1      38.649  34.095  31.842  1.00  0.00     0.031 C 
ATOM     45  C   UNL A   1      37.647  30.173  28.846  1.00  0.00     0.029 A 
ATOM     46  N   UNL A   1      39.584  30.152  29.964  1.00  0.00    -0.354 N 
ATOM     47  C   UNL A   1      40.750  33.457  32.480  1.00  0.00     0.074 A 
ATOM     48  C   UNL A   1      39.731  34.482  32.503  1.00  0.00     0.031 C 
ATOM     49  C   UNL A   1      38.288  29.038  28.521  1.00  0.00     0.029 A 
ATOM     50  C   UNL A   1      39.571  29.001  29.214  1.00  0.00     0.049 A 
ATOM     51  H   UNL A   1      40.329  30.399  30.559  1.00  0.00     0.167 HD
ATOM     52  C   UNL A   1      41.918  33.532  33.159  1.00  0.00     0.031 A 
ATOM     53  C   UNL A   1      40.494  28.029  29.089  1.00  0.00     0.031 A 
ATOM     54  C   UNL A   1      42.918  32.499  33.164  1.00  0.00     0.049 A 
ATOM     55  C   UNL A   1      41.776  28.129  29.865  1.00  0.00     0.074 A 
ATOM     56  C   UNL A   1      44.100  32.447  33.883  1.00  0.00     0.029 A 
ATOM     57  N   UNL A   1      42.853  31.336  32.413  1.00  0.00    -0.354 N 
ATOM     58  N   UNL A   1      42.174  29.072  30.683  1.00  0.00    -0.248 NA
ATOM     59  C   UNL A   1      42.732  27.024  29.707  1.00  0.00     0.031 C 
ATOM     60  C   UNL A   1      44.770  31.270  33.535  1.00  0.00     0.029 A 
ATOM     61  C   UNL A   1      43.984  30.569  32.634  1.00  0.00     0.049 A 
ATOM     62  H   UNL A   1      42.112  31.092  31.813  1.00  0.00     0.167 HD
ATOM     63  C   UNL A   1      43.414  28.664  31.155  1.00  0.00     0.074 A 
ATOM     64  C   UNL A   1      43.696  27.382  30.542  1.00  0.00     0.031 C 
ATOM     65  C   UNL A   1      44.247  29.296  32.017  1.00  0.00     0.031 A 
BRANCH  52  66
ATOM     66  C   UNL A   1      42.179  34.781  33.952  1.00  0.00    -0.014 A 
ATOM     67  C   UNL A   1      42.842  35.880  33.383  1.00  0.00     0.009 A 
ATOM     68  C   UNL A   1      41.723  34.874  35.276  1.00  0.00     0.009 A 
ATOM     69  C   UNL A   1      43.074  37.033  34.135  1.00  0.00     0.001 A 
ATOM     70  C   UNL A   1      41.932  36.038  36.017  1.00  0.00     0.001 A 
ATOM     71  C   UNL A   1      42.615  37.113  35.450  1.00  0.00     0.000 A 
ENDBRANCH  52  66
BRANCH  53  72
ATOM     72  C   UNL A   1      40.233  26.868  28.201  1.00  0.00    -0.014 A 
ATOM     73  C   UNL A   1      39.484  25.775  28.662  1.00  0.00     0.009 A 
ATOM     74  C   UNL A   1      40.734  26.844  26.889  1.00  0.00     0.009 A 
ATOM     75  C   UNL A   1      39.261  24.671  27.837  1.00  0.00     0.001 A 
ATOM     76  C   UNL A   1      40.487  25.749  26.058  1.00  0.00     0.001 A 
ATOM     77  C   UNL A   1      39.760  24.661  26.534  1.00  0.00     0.000 A 
ENDBRANCH  53  72
BRANCH  65  78
ATOM     78  C   UNL A   1      45.527  28.597  32.370  1.00  0.00    -0.014 A 
ATOM     79  C   UNL A   1      46.704  28.830  31.643  1.00  0.00     0.009 A 
ATOM     80  C   UNL A   1      45.562  27.727  33.470  1.00  0.00     0.009 A 
ATOM     81  C   UNL A   1      47.889  28.180  31.997  1.00  0.00     0.001 A 
ATOM     82  C   UNL A   1      46.754  27.099  33.837  1.00  0.00     0.001 A 
ATOM     83  C   UNL A   1      47.914  27.321  33.095  1.00  0.00     0.000 A 
ENDBRANCH  65  78
ENDBRANCH  39  40
ENDBRANCH  31  34
ENDBRANCH  29  30
ENDBRANCH  28  29
ENDBRANCH   1  28
TORSDOF 14
ENDMDL
MODEL 3
REMARK VINA RESULT:     -11.7      0.435      5.849
REMARK SMILES CNC(=O)c1cc(S(=O)(=O)N2CCC(C(=O)NCCCNC(=O)c3ccc(-c4c5nc(c(-c6ccccc6)c6ccc([nH]6)c(-c6ccccc6)c6nc(c(-c7ccccc7)c7ccc4[nH]7)C=C6)C=C5)cc3)CC2)ccc1OC
REMARK SMILES IDX 18 1 17 2 15 3 16 4 14 6 11 7 12 8 73 9 13 10 72 11 8 12
REMARK SMILES IDX 9 13 10 14 7 15 5 16 6 17 76 18 75 19 74 20 3 21 1 22 2 23
REMARK SMILES IDX 4 25 77 26 78 27 19 28 20 29 21 30 22 31 23 33 24 34 25 35
REMARK SMILES IDX 71 36 26 37 70 38 27 39 28 40 29 41 64 42 30 43 69 44 63 45
REMARK SMILES IDX 65 46 31 47 68 48 62 49 61 50 32 52 54 53 39 54 53 55 40 56
REMARK SMILES IDX 43 57 52 58 66 59 41 60 42 61 51 63 67 64 44 65 33 66 34 67
REMARK SMILES IDX 38 68 35 69 37 70 36 71 55 72 56 73 60 74 57 75 59 76 58 77
REMARK SMILES IDX 45 78 46 79 50 80 47 81 49 82 48 83
REMARK H PARENT 17 5 2 24 21 32 65 51 43 62
REMARK Flexibility Score: inf
ROOT
ATOM      1  C   UNL A   1      37.128  20.286  24.932  1.00  0.00     0.117 C 
ENDROOT
BRANCH   1   2
ATOM      2  N   UNL A   1      37.246  21.380  23.977  1.00  0.00    -0.356 N 
ATOM      3  C   UNL A   1      36.464  22.468  23.755  1.00  0.00     0.223 C 
ATOM      4  O   UNL A   1      36.784  23.234  22.843  1.00  0.00    -0.275 OA
ATOM      5  H   UNL A   1      38.032  21.320  23.388  1.00  0.00     0.163 HD
BRANCH   3   6
ATOM      6  C   UNL A   1      35.233  22.754  24.596  1.00  0.00     0.081 C 
ATOM      7  N   UNL A   1      32.782  24.148  25.190  1.00  0.00    -0.198 NA
ATOM      8  C   UNL A   1      34.006  24.456  25.961  1.00  0.00     0.103 C 
ATOM      9  C   UNL A   1      32.676  22.818  24.545  1.00  0.00     0.103 C 
ATOM     10  C   UNL A   1      35.241  24.180  25.132  1.00  0.00     0.030 C 
ATOM     11  C   UNL A   1      33.953  22.368  23.859  1.00  0.00     0.030 C 
BRANCH   7  12
ATOM     12  S   UNL A   1      31.325  24.774  25.834  1.00  0.00     0.243 S 
ATOM     13  O   UNL A   1      31.278  24.395  27.234  1.00  0.00    -0.207 OA
ATOM     14  O   UNL A   1      30.256  24.434  24.924  1.00  0.00    -0.207 OA
BRANCH  12  15
ATOM     15  C   UNL A   1      31.458  26.554  25.808  1.00  0.00     0.083 A 
ATOM     16  C   UNL A   1      31.275  28.582  24.497  1.00  0.00     0.083 A 
ATOM     17  C   UNL A   1      31.217  27.185  24.584  1.00  0.00     0.039 A 
ATOM     18  C   UNL A   1      31.493  29.353  25.646  1.00  0.00     0.131 A 
ATOM     19  C   UNL A   1      31.782  28.716  26.850  1.00  0.00     0.048 A 
ATOM     20  C   UNL A   1      31.777  27.324  26.929  1.00  0.00     0.025 A 
BRANCH  16  21
ATOM     21  C   UNL A   1      31.125  29.170  23.155  1.00  0.00     0.254 C 
ATOM     22  C   UNL A   1      33.585  28.889  22.617  1.00  0.00     0.143 C 
ATOM     23  N   UNL A   1      32.224  29.296  22.345  1.00  0.00    -0.355 N 
ATOM     24  H   UNL A   1      32.068  29.718  21.469  1.00  0.00     0.163 HD
ATOM     25  O   UNL A   1      30.012  29.510  22.768  1.00  0.00    -0.269 OA
ENDBRANCH  16  21
BRANCH  18  26
ATOM     26  O   UNL A   1      31.502  30.720  25.701  1.00  0.00    -0.496 OA
ATOM     27  C   UNL A   1      32.140  31.231  26.872  1.00  0.00     0.278 C 
ENDBRANCH  18  26
ENDBRANCH  12  15
ENDBRANCH   7  12
ENDBRANCH   3   6
ENDBRANCH   1   2
BRANCH   1  28
ATOM     28  C   UNL A   1      38.383  19.431  24.982  1.00  0.00     0.042 C 
BRANCH  28  29
ATOM     29  C   UNL A   1      39.373  19.873  26.048  1.00  0.00     0.118 C 
BRANCH  29  30
ATOM     30  N   UNL A   1      40.668  19.224  25.906  1.00  0.00    -0.352 N 
ATOM     31  C   UNL A   1      41.934  19.738  26.031  1.00  0.00     0.251 C 
ATOM     32  H   UNL A   1      40.630  18.264  25.687  1.00  0.00     0.163 HD
ATOM     33  O   UNL A   1      42.900  19.077  25.664  1.00  0.00    -0.269 OA
BRANCH  31  34
ATOM     34  C   UNL A   1      42.136  21.093  26.587  1.00  0.00     0.039 A 
ATOM     35  C   UNL A   1      42.136  21.262  27.974  1.00  0.00     0.014 A 
ATOM     36  C   UNL A   1      42.307  22.195  25.747  1.00  0.00     0.014 A 
ATOM     37  C   UNL A   1      42.380  22.524  28.517  1.00  0.00     0.010 A 
ATOM     38  C   UNL A   1      42.639  23.431  26.287  1.00  0.00     0.010 A 
ATOM     39  C   UNL A   1      42.672  23.611  27.677  1.00  0.00    -0.014 A 
BRANCH  39  40
ATOM     40  C   UNL A   1      43.009  24.948  28.225  1.00  0.00     0.031 A 
ATOM     41  C   UNL A   1      41.923  25.962  28.458  1.00  0.00     0.074 A 
ATOM     42  C   UNL A   1      44.298  25.279  28.429  1.00  0.00     0.049 A 
ATOM     43  N   UNL A   1      42.027  27.210  28.836  1.00  0.00    -0.248 NA
ATOM     44  C   UNL A   1      40.540  25.524  28.204  1.00  0.00     0.031 C 
ATOM     45  C   UNL A   1      45.450  24.403  28.194  1.00  0.00     0.029 A 
ATOM     46  N   UNL A   1      44.858  26.452  28.870  1.00  0.00    -0.354 N 
ATOM     47  C   UNL A   1      40.732  27.714  28.834  1.00  0.00     0.074 A 
ATOM     48  C   UNL A   1      39.864  26.651  28.380  1.00  0.00     0.031 C 
ATOM     49  C   UNL A   1      46.575  25.063  28.513  1.00  0.00     0.029 A 
ATOM     50  C   UNL A   1      46.230  26.416  28.936  1.00  0.00     0.049 A 
ATOM     51  H   UNL A   1      44.327  27.244  29.115  1.00  0.00     0.167 HD
ATOM     52  C   UNL A   1      40.302  28.945  29.194  1.00  0.00     0.031 A 
ATOM     53  C   UNL A   1      47.112  27.370  29.288  1.00  0.00     0.031 A 
ATOM     54  C   UNL A   1      41.160  29.993  29.676  1.00  0.00     0.049 A 
ATOM     55  C   UNL A   1      46.607  28.723  29.699  1.00  0.00     0.074 A 
ATOM     56  C   UNL A   1      40.809  31.248  30.142  1.00  0.00     0.029 A 
ATOM     57  N   UNL A   1      42.541  29.906  29.756  1.00  0.00    -0.354 N 
ATOM     58  N   UNL A   1      45.373  29.159  29.762  1.00  0.00    -0.248 NA
ATOM     59  C   UNL A   1      47.618  29.713  30.097  1.00  0.00     0.031 C 
ATOM     60  C   UNL A   1      41.983  31.937  30.464  1.00  0.00     0.029 A 
ATOM     61  C   UNL A   1      43.060  31.094  30.242  1.00  0.00     0.049 A 
ATOM     62  H   UNL A   1      43.072  29.116  29.505  1.00  0.00     0.167 HD
ATOM     63  C   UNL A   1      45.457  30.464  30.227  1.00  0.00     0.074 A 
ATOM     64  C   UNL A   1      46.861  30.743  30.445  1.00  0.00     0.031 C 
ATOM     65  C   UNL A   1      44.459  31.353  30.452  1.00  0.00     0.031 A 
BRANCH  52  66
ATOM     66  C   UNL A   1      38.831  29.226  29.075  1.00  0.00    -0.014 A 
ATOM     67  C   UNL A   1      37.965  29.053  30.167  1.00  0.00     0.009 A 
ATOM     68  C   UNL A   1      38.309  29.706  27.864  1.00  0.00     0.009 A 
ATOM     69  C   UNL A   1      36.601  29.321  30.037  1.00  0.00     0.001 A 
ATOM     70  C   UNL A   1      36.949  29.999  27.745  1.00  0.00     0.001 A 
ATOM     71  C   UNL A   1      36.095  29.798  28.828  1.00  0.00     0.000 A 
ENDBRANCH  52  66
BRANCH  53  72
ATOM     72  C   UNL A   1      48.567  27.074  29.280  1.00  0.00    -0.014 A 
ATOM     73  C   UNL A   1      49.190  26.539  30.418  1.00  0.00     0.009 A 
ATOM     74  C   UNL A   1      49.342  27.325  28.136  1.00  0.00     0.009 A 
ATOM     75  C   UNL A   1      50.563  26.286  30.420  1.00  0.00     0.001 A 
ATOM     76  C   UNL A   1      50.710  27.047  28.133  1.00  0.00     0.001 A 
ATOM     77  C   UNL A   1      51.321  26.536  29.277  1.00  0.00     0.000 A 
ENDBRANCH  53  72
BRANCH  65  78
ATOM     78  C   UNL A   1      44.849  32.700  30.987  1.00  0.00    -0.014 A 
ATOM     79  C   UNL A   1      44.854  32.960  32.365  1.00  0.00     0.009 A 
ATOM     80  C   UNL A   1      45.258  33.707  30.099  1.00  0.00     0.009 A 
ATOM     81  C   UNL A   1      45.234  34.216  32.843  1.00  0.00     0.001 A 
ATOM     82  C   UNL A   1      45.661  34.954  30.581  1.00  0.00     0.001 A 
ATOM     83  C   UNL A   1      45.642  35.208  31.952  1.00  0.00     0.000 A 
ENDBRANCH  65  78
ENDBRANCH  39  40
ENDBRANCH  31  34
ENDBRANCH  29  30
ENDBRANCH  28  29
ENDBRANCH   1  28
TORSDOF 14
ENDMDL
