MODEL 1
REMARK VINA RESULT:     -12.2      0.000      0.000
REMARK SMILES C[NH+]1CCN(C(=O)c2ccc3c(c2)N(CC(=O)NCCCNC(=O)c2ccc(-c4c5nc(c(-c6ccccc6)c6ccc([nH]6)c(-c6ccccc6)c6nc(c(-c7ccccc7)c7ccc4[nH]7)C=C6)C=C5)cc2)C(=O)CO3)CC1
REMARK SMILES IDX 20 1 19 2 18 3 16 4 17 5 15 7 14 8 8 9 9 10 13 11 10 12
REMARK SMILES IDX 12 13 11 14 76 15 73 16 75 17 74 18 6 19 1 20 2 21 3 22
REMARK SMILES IDX 78 23 4 25 77 26 5 27 7 28 21 29 22 30 23 31 24 33 25 34
REMARK SMILES IDX 26 35 72 36 27 37 71 38 28 39 29 40 30 41 65 42 31 43 70 44
REMARK SMILES IDX 64 45 66 46 32 47 69 48 63 49 62 50 33 52 55 53 40 54 54 55
REMARK SMILES IDX 41 56 44 57 53 58 67 59 42 60 43 61 52 63 68 64 45 65 34 66
REMARK SMILES IDX 35 67 39 68 36 69 38 70 37 71 56 72 57 73 61 74 58 75 60 76
REMARK SMILES IDX 59 77 46 78 47 79 51 80 48 81 50 82 49 83
REMARK H PARENT 18 6 2 24 22 32 66 51 44 62
REMARK Flexibility Score: inf
ROOT
ATOM      1  C   UNL A   1      32.120  27.792  27.770  1.00  0.00     0.042 C 
ENDROOT
BRANCH   1   2
ATOM      2  C   UNL A   1      31.378  26.890  26.789  1.00  0.00     0.117 C 
BRANCH   2   3
ATOM      3  N   UNL A   1      31.624  25.483  27.032  1.00  0.00    -0.354 N 
ATOM      4  C   UNL A   1      31.414  24.414  26.213  1.00  0.00     0.240 C 
ATOM      5  O   UNL A   1      31.806  23.312  26.606  1.00  0.00    -0.273 OA
ATOM      6  H   UNL A   1      31.995  25.267  27.918  1.00  0.00     0.163 HD
BRANCH   4   7
ATOM      7  C   UNL A   1      30.766  24.571  24.832  1.00  0.00     0.225 C 
BRANCH   7   8
ATOM      8  N   UNL A   1      31.699  24.896  23.752  1.00  0.00    -0.296 N 
ATOM      9  C   UNL A   1      31.635  28.644  23.586  1.00  0.00     0.042 A 
ATOM     10  C   UNL A   1      32.708  28.890  22.729  1.00  0.00     0.018 A 
ATOM     11  C   UNL A   1      31.251  27.331  23.894  1.00  0.00     0.044 A 
ATOM     12  C   UNL A   1      33.429  27.818  22.209  1.00  0.00     0.049 A 
ATOM     13  C   UNL A   1      31.983  26.245  23.393  1.00  0.00     0.087 A 
ATOM     14  C   UNL A   1      33.063  26.510  22.534  1.00  0.00     0.143 A 
ATOM     15  O   UNL A   1      33.867  25.532  22.015  1.00  0.00    -0.482 OA
ATOM     16  C   UNL A   1      32.322  23.856  23.071  1.00  0.00     0.265 C 
ATOM     17  C   UNL A   1      33.208  24.285  21.909  1.00  0.00     0.330 C 
ATOM     18  O   UNL A   1      32.137  22.666  23.321  1.00  0.00    -0.270 OA
BRANCH   9  19
ATOM     19  C   UNL A   1      30.877  29.801  24.106  1.00  0.00     0.254 C 
ATOM     20  C   UNL A   1      27.670  32.823  20.654  1.00  0.00     0.332 C 
ATOM     21  N   UNL A   1      27.980  31.825  21.678  1.00  0.00    -0.334 N 
ATOM     22  C   UNL A   1      28.653  32.460  22.833  1.00  0.00     0.283 C 
ATOM     23  C   UNL A   1      28.861  30.777  21.119  1.00  0.00     0.283 C 
ATOM     24  H   UNL A   1      27.103  31.405  21.987  1.00  0.00     0.347 HD
ATOM     25  C   UNL A   1      29.056  31.439  23.915  1.00  0.00     0.181 C 
ATOM     26  C   UNL A   1      29.216  29.712  22.173  1.00  0.00     0.181 C 
ATOM     27  N   UNL A   1      29.822  30.318  23.364  1.00  0.00    -0.327 N 
ATOM     28  O   UNL A   1      31.219  30.239  25.203  1.00  0.00    -0.269 OA
ENDBRANCH   9  19
ENDBRANCH   7   8
ENDBRANCH   4   7
ENDBRANCH   2   3
ENDBRANCH   1   2
BRANCH   1  29
ATOM     29  C   UNL A   1      33.347  28.491  27.184  1.00  0.00     0.118 C 
BRANCH  29  30
ATOM     30  N   UNL A   1      33.364  29.923  27.450  1.00  0.00    -0.352 N 
ATOM     31  C   UNL A   1      34.324  30.713  28.027  1.00  0.00     0.251 C 
ATOM     32  H   UNL A   1      32.551  30.401  27.169  1.00  0.00     0.163 HD
ATOM     33  O   UNL A   1      34.051  31.881  28.305  1.00  0.00    -0.269 OA
BRANCH  31  34
ATOM     34  C   UNL A   1      35.672  30.191  28.334  1.00  0.00     0.039 A 
ATOM     35  C   UNL A   1      36.644  30.216  27.326  1.00  0.00     0.014 A 
ATOM     36  C   UNL A   1      35.976  29.627  29.576  1.00  0.00     0.014 A 
ATOM     37  C   UNL A   1      37.931  29.734  27.583  1.00  0.00     0.010 A 
ATOM     38  C   UNL A   1      37.276  29.202  29.851  1.00  0.00     0.010 A 
ATOM     39  C   UNL A   1      38.267  29.252  28.857  1.00  0.00    -0.014 A 
BRANCH  39  40
ATOM     40  C   UNL A   1      39.649  28.809  29.171  1.00  0.00     0.031 A 
ATOM     41  C   UNL A   1      40.610  29.738  29.861  1.00  0.00     0.074 A 
ATOM     42  C   UNL A   1      40.062  27.590  28.776  1.00  0.00     0.049 A 
ATOM     43  N   UNL A   1      41.875  29.553  30.146  1.00  0.00    -0.248 NA
ATOM     44  C   UNL A   1      40.089  31.053  30.264  1.00  0.00     0.031 C 
ATOM     45  C   UNL A   1      39.241  26.603  28.069  1.00  0.00     0.029 A 
ATOM     46  N   UNL A   1      41.283  26.975  28.901  1.00  0.00    -0.354 N 
ATOM     47  C   UNL A   1      42.305  30.732  30.740  1.00  0.00     0.074 A 
ATOM     48  C   UNL A   1      41.177  31.639  30.743  1.00  0.00     0.031 C 
ATOM     49  C   UNL A   1      39.976  25.502  27.842  1.00  0.00     0.029 A 
ATOM     50  C   UNL A   1      41.327  25.719  28.348  1.00  0.00     0.049 A 
ATOM     51  H   UNL A   1      42.054  27.396  29.346  1.00  0.00     0.167 HD
ATOM     52  C   UNL A   1      43.525  31.030  31.249  1.00  0.00     0.031 A 
ATOM     53  C   UNL A   1      42.342  24.840  28.251  1.00  0.00     0.031 A 
ATOM     54  C   UNL A   1      44.644  30.127  31.263  1.00  0.00     0.049 A 
ATOM     55  C   UNL A   1      43.686  25.198  28.819  1.00  0.00     0.074 A 
ATOM     56  C   UNL A   1      45.901  30.321  31.809  1.00  0.00     0.029 A 
ATOM     57  N   UNL A   1      44.642  28.859  30.706  1.00  0.00    -0.354 N 
ATOM     58  N   UNL A   1      44.058  26.297  29.430  1.00  0.00    -0.248 NA
ATOM     59  C   UNL A   1      44.747  24.188  28.692  1.00  0.00     0.031 C 
ATOM     60  C   UNL A   1      46.673  29.185  31.547  1.00  0.00     0.029 A 
ATOM     61  C   UNL A   1      45.881  28.266  30.877  1.00  0.00     0.049 A 
ATOM     62  H   UNL A   1      43.873  28.441  30.256  1.00  0.00     0.167 HD
ATOM     63  C   UNL A   1      45.387  26.101  29.781  1.00  0.00     0.074 A 
ATOM     64  C   UNL A   1      45.752  24.774  29.330  1.00  0.00     0.031 C 
ATOM     65  C   UNL A   1      46.229  26.945  30.423  1.00  0.00     0.031 A 
BRANCH  52  66
ATOM     66  C   UNL A   1      43.715  32.404  31.829  1.00  0.00    -0.014 A 
ATOM     67  C   UNL A   1      44.112  33.483  31.023  1.00  0.00     0.009 A 
ATOM     68  C   UNL A   1      43.453  32.630  33.189  1.00  0.00     0.009 A 
ATOM     69  C   UNL A   1      44.274  34.755  31.576  1.00  0.00     0.001 A 
ATOM     70  C   UNL A   1      43.592  33.908  33.733  1.00  0.00     0.001 A 
ATOM     71  C   UNL A   1      44.011  34.968  32.929  1.00  0.00     0.000 A 
ENDBRANCH  52  66
BRANCH  53  72
ATOM     72  C   UNL A   1      42.127  23.526  27.595  1.00  0.00    -0.014 A 
ATOM     73  C   UNL A   1      41.610  22.443  28.323  1.00  0.00     0.009 A 
ATOM     74  C   UNL A   1      42.442  23.345  26.239  1.00  0.00     0.009 A 
ATOM     75  C   UNL A   1      41.438  21.199  27.715  1.00  0.00     0.001 A 
ATOM     76  C   UNL A   1      42.244  22.105  25.626  1.00  0.00     0.001 A 
ATOM     77  C   UNL A   1      41.751  21.032  26.366  1.00  0.00     0.000 A 
ENDBRANCH  53  72
BRANCH  65  78
ATOM     78  C   UNL A   1      47.618  26.447  30.704  1.00  0.00    -0.014 A 
ATOM     79  C   UNL A   1      47.938  25.839  31.927  1.00  0.00     0.009 A 
ATOM     80  C   UNL A   1      48.608  26.558  29.716  1.00  0.00     0.009 A 
ATOM     81  C   UNL A   1      49.234  25.376  32.165  1.00  0.00     0.001 A 
ATOM     82  C   UNL A   1      49.896  26.072  29.948  1.00  0.00     0.001 A 
ATOM     83  C   UNL A   1      50.210  25.490  31.175  1.00  0.00     0.000 A 
ENDBRANCH  65  78
ENDBRANCH  39  40
ENDBRANCH  31  34
ENDBRANCH  29  30
ENDBRANCH   1  29
TORSDOF 12
ENDMDL
MODEL 2
REMARK VINA RESULT:     -12.1      3.398      8.773
REMARK SMILES C[NH+]1CCN(C(=O)c2ccc3c(c2)N(CC(=O)NCCCNC(=O)c2ccc(-c4c5nc(c(-c6ccccc6)c6ccc([nH]6)c(-c6ccccc6)c6nc(c(-c7ccccc7)c7ccc4[nH]7)C=C6)C=C5)cc2)C(=O)CO3)CC1
REMARK SMILES IDX 20 1 19 2 18 3 16 4 17 5 15 7 14 8 8 9 9 10 13 11 10 12
REMARK SMILES IDX 12 13 11 14 76 15 73 16 75 17 74 18 6 19 1 20 2 21 3 22
REMARK SMILES IDX 78 23 4 25 77 26 5 27 7 28 21 29 22 30 23 31 24 33 25 34
REMARK SMILES IDX 26 35 72 36 27 37 71 38 28 39 29 40 30 41 65 42 31 43 70 44
REMARK SMILES IDX 64 45 66 46 32 47 69 48 63 49 62 50 33 52 55 53 40 54 54 55
REMARK SMILES IDX 41 56 44 57 53 58 67 59 42 60 43 61 52 63 68 64 45 65 34 66
REMARK SMILES IDX 35 67 39 68 36 69 38 70 37 71 56 72 57 73 61 74 58 75 60 76
REMARK SMILES IDX 59 77 46 78 47 79 51 80 48 81 50 82 49 83
REMARK H PARENT 18 6 2 24 22 32 66 51 44 62
REMARK Flexibility Score: inf
ROOT
ATOM      1  C   UNL A   1      36.612  23.344  23.441  1.00  0.00     0.042 C 
ENDROOT
BRANCH   1   2
ATOM      2  C   UNL A   1      35.123  23.312  23.110  1.00  0.00     0.117 C 
BRANCH   2   3
ATOM      3  N   UNL A   1      34.601  24.623  22.777  1.00  0.00    -0.354 N 
ATOM      4  C   UNL A   1      33.311  25.063  22.772  1.00  0.00     0.240 C 
ATOM      5  O   UNL A   1      33.122  26.263  22.555  1.00  0.00    -0.273 OA
ATOM      6  H   UNL A   1      35.275  25.291  22.516  1.00  0.00     0.163 HD
BRANCH   4   7
ATOM      7  C   UNL A   1      32.136  24.125  23.075  1.00  0.00     0.225 C 
BRANCH   7   8
ATOM      8  N   UNL A   1      31.792  24.015  24.494  1.00  0.00    -0.296 N 
ATOM      9  C   UNL A   1      33.800  21.083  25.697  1.00  0.00     0.042 A 
ATOM     10  C   UNL A   1      33.623  21.188  27.077  1.00  0.00     0.018 A 
ATOM     11  C   UNL A   1      33.161  21.973  24.823  1.00  0.00     0.044 A 
ATOM     12  C   UNL A   1      32.835  22.215  27.589  1.00  0.00     0.049 A 
ATOM     13  C   UNL A   1      32.383  23.024  25.329  1.00  0.00     0.087 A 
ATOM     14  C   UNL A   1      32.216  23.118  26.722  1.00  0.00     0.143 A 
ATOM     15  O   UNL A   1      31.509  24.120  27.328  1.00  0.00    -0.482 OA
ATOM     16  C   UNL A   1      30.871  24.907  25.029  1.00  0.00     0.265 C 
ATOM     17  C   UNL A   1      30.509  24.664  26.488  1.00  0.00     0.330 C 
ATOM     18  O   UNL A   1      30.319  25.795  24.379  1.00  0.00    -0.270 OA
BRANCH   9  19
ATOM     19  C   UNL A   1      34.627  19.970  25.182  1.00  0.00     0.254 C 
ATOM     20  C   UNL A   1      32.686  14.724  25.377  1.00  0.00     0.332 C 
ATOM     21  N   UNL A   1      33.016  16.017  24.778  1.00  0.00    -0.334 N 
ATOM     22  C   UNL A   1      34.465  16.292  24.905  1.00  0.00     0.283 C 
ATOM     23  C   UNL A   1      32.257  17.097  25.445  1.00  0.00     0.283 C 
ATOM     24  H   UNL A   1      32.765  15.983  23.790  1.00  0.00     0.347 HD
ATOM     25  C   UNL A   1      34.855  17.673  24.343  1.00  0.00     0.181 C 
ATOM     26  C   UNL A   1      32.587  18.476  24.846  1.00  0.00     0.181 C 
ATOM     27  N   UNL A   1      34.028  18.751  24.892  1.00  0.00    -0.327 N 
ATOM     28  O   UNL A   1      35.823  20.200  25.016  1.00  0.00    -0.269 OA
ENDBRANCH   9  19
ENDBRANCH   7   8
ENDBRANCH   4   7
ENDBRANCH   2   3
ENDBRANCH   1   2
BRANCH   1  29
ATOM     29  C   UNL A   1      36.927  23.497  24.929  1.00  0.00     0.118 C 
BRANCH  29  30
ATOM     30  N   UNL A   1      37.912  22.533  25.401  1.00  0.00    -0.352 N 
ATOM     31  C   UNL A   1      39.065  22.715  26.121  1.00  0.00     0.251 C 
ATOM     32  H   UNL A   1      37.718  21.598  25.164  1.00  0.00     0.163 HD
ATOM     33  O   UNL A   1      39.837  21.767  26.264  1.00  0.00    -0.269 OA
BRANCH  31  34
ATOM     34  C   UNL A   1      39.407  24.024  26.716  1.00  0.00     0.039 A 
ATOM     35  C   UNL A   1      38.962  24.305  28.013  1.00  0.00     0.014 A 
ATOM     36  C   UNL A   1      40.107  24.997  25.997  1.00  0.00     0.014 A 
ATOM     37  C   UNL A   1      39.271  25.532  28.609  1.00  0.00     0.010 A 
ATOM     38  C   UNL A   1      40.466  26.196  26.612  1.00  0.00     0.010 A 
ATOM     39  C   UNL A   1      40.052  26.475  27.924  1.00  0.00    -0.014 A 
BRANCH  39  40
ATOM     40  C   UNL A   1      40.455  27.751  28.569  1.00  0.00     0.031 A 
ATOM     41  C   UNL A   1      41.836  27.913  29.144  1.00  0.00     0.074 A 
ATOM     42  C   UNL A   1      39.555  28.745  28.697  1.00  0.00     0.049 A 
ATOM     43  N   UNL A   1      42.339  28.922  29.809  1.00  0.00    -0.248 NA
ATOM     44  C   UNL A   1      42.764  26.786  28.966  1.00  0.00     0.031 C 
ATOM     45  C   UNL A   1      38.173  28.705  28.213  1.00  0.00     0.029 A 
ATOM     46  N   UNL A   1      39.665  29.980  29.284  1.00  0.00    -0.354 N 
ATOM     47  C   UNL A   1      43.632  28.545  30.148  1.00  0.00     0.074 A 
ATOM     48  C   UNL A   1      43.825  27.202  29.646  1.00  0.00     0.031 C 
ATOM     49  C   UNL A   1      37.571  29.870  28.508  1.00  0.00     0.029 A 
ATOM     50  C   UNL A   1      38.509  30.720  29.233  1.00  0.00     0.049 A 
ATOM     51  H   UNL A   1      40.496  30.306  29.703  1.00  0.00     0.167 HD
ATOM     52  C   UNL A   1      44.579  29.256  30.806  1.00  0.00     0.031 A 
ATOM     53  C   UNL A   1      38.229  31.942  29.723  1.00  0.00     0.031 A 
ATOM     54  C   UNL A   1      44.398  30.598  31.293  1.00  0.00     0.049 A 
ATOM     55  C   UNL A   1      39.296  32.707  30.453  1.00  0.00     0.074 A 
ATOM     56  C   UNL A   1      45.319  31.419  31.920  1.00  0.00     0.029 A 
ATOM     57  N   UNL A   1      43.216  31.316  31.206  1.00  0.00    -0.354 N 
ATOM     58  N   UNL A   1      40.532  32.357  30.713  1.00  0.00    -0.248 NA
ATOM     59  C   UNL A   1      38.929  34.043  30.949  1.00  0.00     0.031 C 
ATOM     60  C   UNL A   1      44.683  32.619  32.250  1.00  0.00     0.029 A 
ATOM     61  C   UNL A   1      43.379  32.562  31.787  1.00  0.00     0.049 A 
ATOM     62  H   UNL A   1      42.385  30.988  30.794  1.00  0.00     0.167 HD
ATOM     63  C   UNL A   1      41.097  33.436  31.380  1.00  0.00     0.074 A 
ATOM     64  C   UNL A   1      40.075  34.458  31.471  1.00  0.00     0.031 C 
ATOM     65  C   UNL A   1      42.353  33.568  31.870  1.00  0.00     0.031 A 
BRANCH  52  66
ATOM     66  C   UNL A   1      45.903  28.587  31.047  1.00  0.00    -0.014 A 
ATOM     67  C   UNL A   1      46.956  28.709  30.125  1.00  0.00     0.009 A 
ATOM     68  C   UNL A   1      46.115  27.862  32.230  1.00  0.00     0.009 A 
ATOM     69  C   UNL A   1      48.184  28.090  30.370  1.00  0.00     0.001 A 
ATOM     70  C   UNL A   1      47.351  27.265  32.482  1.00  0.00     0.001 A 
ATOM     71  C   UNL A   1      48.382  27.372  31.549  1.00  0.00     0.000 A 
ENDBRANCH  52  66
BRANCH  53  72
ATOM     72  C   UNL A   1      36.879  32.529  29.530  1.00  0.00    -0.014 A 
ATOM     73  C   UNL A   1      36.580  33.261  28.371  1.00  0.00     0.009 A 
ATOM     74  C   UNL A   1      35.884  32.363  30.506  1.00  0.00     0.009 A 
ATOM     75  C   UNL A   1      35.321  33.840  28.206  1.00  0.00     0.001 A 
ATOM     76  C   UNL A   1      34.616  32.922  30.325  1.00  0.00     0.001 A 
ATOM     77  C   UNL A   1      34.339  33.666  29.180  1.00  0.00     0.000 A 
ENDBRANCH  53  72
BRANCH  65  78
ATOM     78  C   UNL A   1      42.701  34.876  32.521  1.00  0.00    -0.014 A 
ATOM     79  C   UNL A   1      42.421  35.111  33.876  1.00  0.00     0.009 A 
ATOM     80  C   UNL A   1      43.349  35.872  31.775  1.00  0.00     0.009 A 
ATOM     81  C   UNL A   1      42.759  36.332  34.464  1.00  0.00     0.001 A 
ATOM     82  C   UNL A   1      43.708  37.082  32.371  1.00  0.00     0.001 A 
ATOM     83  C   UNL A   1      43.405  37.314  33.712  1.00  0.00     0.000 A 
ENDBRANCH  65  78
ENDBRANCH  39  40
ENDBRANCH  31  34
ENDBRANCH  29  30
ENDBRANCH   1  29
TORSDOF 12
ENDMDL
MODEL 3
REMARK VINA RESULT:     -12.0      1.910      4.655
REMARK SMILES C[NH+]1CCN(C(=O)c2ccc3c(c2)N(CC(=O)NCCCNC(=O)c2ccc(-c4c5nc(c(-c6ccccc6)c6ccc([nH]6)c(-c6ccccc6)c6nc(c(-c7ccccc7)c7ccc4[nH]7)C=C6)C=C5)cc2)C(=O)CO3)CC1
REMARK SMILES IDX 20 1 19 2 18 3 16 4 17 5 15 7 14 8 8 9 9 10 13 11 10 12
REMARK SMILES IDX 12 13 11 14 76 15 73 16 75 17 74 18 6 19 1 20 2 21 3 22
REMARK SMILES IDX 78 23 4 25 77 26 5 27 7 28 21 29 22 30 23 31 24 33 25 34
REMARK SMILES IDX 26 35 72 36 27 37 71 38 28 39 29 40 30 41 65 42 31 43 70 44
REMARK SMILES IDX 64 45 66 46 32 47 69 48 63 49 62 50 33 52 55 53 40 54 54 55
REMARK SMILES IDX 41 56 44 57 53 58 67 59 42 60 43 61 52 63 68 64 45 65 34 66
REMARK SMILES IDX 35 67 39 68 36 69 38 70 37 71 56 72 57 73 61 74 58 75 60 76
REMARK SMILES IDX 59 77 46 78 47 79 51 80 48 81 50 82 49 83
REMARK H PARENT 18 6 2 24 22 32 66 51 44 62
REMARK Flexibility Score: inf
ROOT
ATOM      1  C   UNL A   1      32.850  28.172  25.869  1.00  0.00     0.042 C 
ENDROOT
BRANCH   1   2
ATOM      2  C   UNL A   1      33.673  27.241  24.985  1.00  0.00     0.117 C 
BRANCH   2   3
ATOM      3  N   UNL A   1      34.049  27.857  23.728  1.00  0.00    -0.354 N 
ATOM      4  C   UNL A   1      33.667  27.536  22.460  1.00  0.00     0.240 C 
ATOM      5  O   UNL A   1      34.038  28.281  21.549  1.00  0.00    -0.273 OA
ATOM      6  H   UNL A   1      34.671  28.616  23.800  1.00  0.00     0.163 HD
BRANCH   4   7
ATOM      7  C   UNL A   1      32.766  26.330  22.169  1.00  0.00     0.225 C 
BRANCH   7   8
ATOM      8  N   UNL A   1      31.560  26.253  22.996  1.00  0.00    -0.296 N 
ATOM      9  C   UNL A   1      32.043  23.136  25.028  1.00  0.00     0.042 A 
ATOM     10  C   UNL A   1      31.003  23.258  25.951  1.00  0.00     0.018 A 
ATOM     11  C   UNL A   1      32.212  24.086  24.011  1.00  0.00     0.044 A 
ATOM     12  C   UNL A   1      30.152  24.357  25.882  1.00  0.00     0.049 A 
ATOM     13  C   UNL A   1      31.373  25.208  23.945  1.00  0.00     0.087 A 
ATOM     14  C   UNL A   1      30.333  25.317  24.884  1.00  0.00     0.143 A 
ATOM     15  O   UNL A   1      29.477  26.384  24.936  1.00  0.00    -0.482 OA
ATOM     16  C   UNL A   1      30.585  27.232  22.847  1.00  0.00     0.265 C 
ATOM     17  C   UNL A   1      29.329  27.024  23.684  1.00  0.00     0.330 C 
ATOM     18  O   UNL A   1      30.670  28.170  22.055  1.00  0.00    -0.270 OA
BRANCH   9  19
ATOM     19  C   UNL A   1      32.918  21.948  25.115  1.00  0.00     0.254 C 
ATOM     20  C   UNL A   1      38.430  22.583  25.852  1.00  0.00     0.332 C 
ATOM     21  N   UNL A   1      37.043  22.310  26.228  1.00  0.00    -0.334 N 
ATOM     22  C   UNL A   1      36.511  21.167  25.452  1.00  0.00     0.283 C 
ATOM     23  C   UNL A   1      36.203  23.501  25.976  1.00  0.00     0.283 C 
ATOM     24  H   UNL A   1      37.022  22.082  27.222  1.00  0.00     0.347 HD
ATOM     25  C   UNL A   1      35.030  20.878  25.768  1.00  0.00     0.181 C 
ATOM     26  C   UNL A   1      34.731  23.247  26.352  1.00  0.00     0.181 C 
ATOM     27  N   UNL A   1      34.193  22.075  25.651  1.00  0.00    -0.327 N 
ATOM     28  O   UNL A   1      32.448  20.884  24.715  1.00  0.00    -0.269 OA
ENDBRANCH   9  19
ENDBRANCH   7   8
ENDBRANCH   4   7
ENDBRANCH   2   3
ENDBRANCH   1   2
BRANCH   1  29
ATOM     29  C   UNL A   1      33.471  28.461  27.236  1.00  0.00     0.118 C 
BRANCH  29  30
ATOM     30  N   UNL A   1      33.490  29.882  27.559  1.00  0.00    -0.352 N 
ATOM     31  C   UNL A   1      34.462  30.651  28.147  1.00  0.00     0.251 C 
ATOM     32  H   UNL A   1      32.671  30.369  27.316  1.00  0.00     0.163 HD
ATOM     33  O   UNL A   1      34.193  31.805  28.478  1.00  0.00    -0.269 OA
BRANCH  31  34
ATOM     34  C   UNL A   1      35.818  30.120  28.402  1.00  0.00     0.039 A 
ATOM     35  C   UNL A   1      36.750  30.137  27.357  1.00  0.00     0.014 A 
ATOM     36  C   UNL A   1      36.166  29.557  29.633  1.00  0.00     0.014 A 
ATOM     37  C   UNL A   1      38.042  29.648  27.565  1.00  0.00     0.010 A 
ATOM     38  C   UNL A   1      37.473  29.125  29.857  1.00  0.00     0.010 A 
ATOM     39  C   UNL A   1      38.424  29.166  28.826  1.00  0.00    -0.014 A 
BRANCH  39  40
ATOM     40  C   UNL A   1      39.815  28.714  29.087  1.00  0.00     0.031 A 
ATOM     41  C   UNL A   1      40.819  29.650  29.703  1.00  0.00     0.074 A 
ATOM     42  C   UNL A   1      40.195  27.479  28.707  1.00  0.00     0.049 A 
ATOM     43  N   UNL A   1      42.093  29.457  29.934  1.00  0.00    -0.248 NA
ATOM     44  C   UNL A   1      40.332  30.982  30.092  1.00  0.00     0.031 C 
ATOM     45  C   UNL A   1      39.330  26.484  28.069  1.00  0.00     0.029 A 
ATOM     46  N   UNL A   1      41.413  26.853  28.793  1.00  0.00    -0.354 N 
ATOM     47  C   UNL A   1      42.564  30.647  30.473  1.00  0.00     0.074 A 
ATOM     48  C   UNL A   1      41.448  31.568  30.503  1.00  0.00     0.031 C 
ATOM     49  C   UNL A   1      40.041  25.368  27.839  1.00  0.00     0.029 A 
ATOM     50  C   UNL A   1      41.417  25.581  28.275  1.00  0.00     0.049 A 
ATOM     51  H   UNL A   1      42.210  27.277  29.189  1.00  0.00     0.167 HD
ATOM     52  C   UNL A   1      43.810  30.944  30.914  1.00  0.00     0.031 A 
ATOM     53  C   UNL A   1      42.417  24.688  28.154  1.00  0.00     0.031 A 
ATOM     54  C   UNL A   1      44.919  30.028  30.902  1.00  0.00     0.049 A 
ATOM     55  C   UNL A   1      43.790  25.045  28.648  1.00  0.00     0.074 A 
ATOM     56  C   UNL A   1      46.203  30.221  31.382  1.00  0.00     0.029 A 
ATOM     57  N   UNL A   1      44.875  28.744  30.382  1.00  0.00    -0.354 N 
ATOM     58  N   UNL A   1      44.203  26.155  29.209  1.00  0.00    -0.248 NA
ATOM     59  C   UNL A   1      44.832  24.018  28.501  1.00  0.00     0.031 C 
ATOM     60  C   UNL A   1      46.948  29.068  31.116  1.00  0.00     0.029 A 
ATOM     61  C   UNL A   1      46.115  28.141  30.511  1.00  0.00     0.049 A 
ATOM     62  H   UNL A   1      44.081  28.324  29.981  1.00  0.00     0.167 HD
ATOM     63  C   UNL A   1      45.545  25.952  29.502  1.00  0.00     0.074 A 
ATOM     64  C   UNL A   1      45.873  24.609  29.073  1.00  0.00     0.031 C 
ATOM     65  C   UNL A   1      46.426  26.804  30.079  1.00  0.00     0.031 A 
BRANCH  52  66
ATOM     66  C   UNL A   1      44.043  32.331  31.445  1.00  0.00    -0.014 A 
ATOM     67  C   UNL A   1      43.846  32.631  32.803  1.00  0.00     0.009 A 
ATOM     68  C   UNL A   1      44.506  33.339  30.586  1.00  0.00     0.009 A 
ATOM     69  C   UNL A   1      44.077  33.922  33.282  1.00  0.00     0.001 A 
ATOM     70  C   UNL A   1      44.760  34.623  31.074  1.00  0.00     0.001 A 
ATOM     71  C   UNL A   1      44.537  34.916  32.419  1.00  0.00     0.000 A 
ENDBRANCH  52  66
BRANCH  53  72
ATOM     72  C   UNL A   1      42.155  23.358  27.547  1.00  0.00    -0.014 A 
ATOM     73  C   UNL A   1      41.553  22.338  28.300  1.00  0.00     0.009 A 
ATOM     74  C   UNL A   1      42.512  23.100  26.215  1.00  0.00     0.009 A 
ATOM     75  C   UNL A   1      41.337  21.079  27.739  1.00  0.00     0.001 A 
ATOM     76  C   UNL A   1      42.271  21.846  25.648  1.00  0.00     0.001 A 
ATOM     77  C   UNL A   1      41.693  20.835  26.413  1.00  0.00     0.000 A 
ENDBRANCH  53  72
BRANCH  65  78
ATOM     78  C   UNL A   1      47.821  26.296  30.308  1.00  0.00    -0.014 A 
ATOM     79  C   UNL A   1      48.786  26.340  29.291  1.00  0.00     0.009 A 
ATOM     80  C   UNL A   1      48.181  25.801  31.571  1.00  0.00     0.009 A 
ATOM     81  C   UNL A   1      50.080  25.869  29.528  1.00  0.00     0.001 A 
ATOM     82  C   UNL A   1      49.480  25.354  31.812  1.00  0.00     0.001 A 
ATOM     83  C   UNL A   1      50.426  25.380  30.788  1.00  0.00     0.000 A 
ENDBRANCH  65  78
ENDBRANCH  39  40
ENDBRANCH  31  34
ENDBRANCH  29  30
ENDBRANCH   1  29
TORSDOF 12
ENDMDL
