MODEL 1
REMARK VINA RESULT:     -11.8      0.000      0.000
REMARK SMILES CC[C@@H](C(=O)Nc1ccc(OC(C)=O)cc1C(=O)NCCCNC(=O)c1ccc(-c2c3nc(c(-c4ccccc4)c4ccc([nH]4)c(-c4ccccc4)c4nc(c(-c5ccccc5)c5ccc2[nH]5)C=C4)C=C3)cc1)c1ccccc1
REMARK SMILES IDX 20 1 19 2 17 3 18 4 16 6 7 7 8 8 9 9 15 10 10 11 6 12 4 13
REMARK SMILES IDX 5 14 3 16 2 17 1 18 74 19 75 20 79 21 76 22 78 23 77 24
REMARK SMILES IDX 11 25 12 26 13 27 14 28 21 29 22 30 23 31 24 32 25 34 26 35
REMARK SMILES IDX 27 36 73 37 28 38 72 39 29 40 30 41 31 42 66 43 32 44 71 45
REMARK SMILES IDX 65 46 67 47 33 48 70 49 64 50 63 51 34 53 56 54 41 55 55 56
REMARK SMILES IDX 42 57 45 58 54 59 68 60 43 61 44 62 53 64 69 65 46 66 35 67
REMARK SMILES IDX 36 68 40 69 37 70 39 71 38 72 57 73 58 74 62 75 59 76 61 77
REMARK SMILES IDX 60 78 47 79 48 80 52 81 49 82 51 83 50 84
REMARK H PARENT 19 5 6 15 23 33 67 52 45 63
REMARK Flexibility Score: inf
ROOT
ATOM      1  C   UNL A   1      36.932  21.971  25.092  1.00  0.00     0.118 C 
ENDROOT
BRANCH   1   2
ATOM      2  N   UNL A   1      35.953  21.766  26.142  1.00  0.00    -0.352 N 
ATOM      3  C   UNL A   1      34.640  21.408  26.122  1.00  0.00     0.253 C 
ATOM      4  O   UNL A   1      34.085  21.285  27.217  1.00  0.00    -0.269 OA
ATOM      5  H   UNL A   1      36.309  21.916  27.048  1.00  0.00     0.163 HD
BRANCH   3   6
ATOM      6  C   UNL A   1      33.825  21.218  24.895  1.00  0.00     0.067 A 
ATOM      7  C   UNL A   1      33.411  22.165  23.944  1.00  0.00     0.054 A 
ATOM      8  C   UNL A   1      32.468  21.781  22.965  1.00  0.00     0.031 A 
ATOM      9  C   UNL A   1      32.094  20.451  22.793  1.00  0.00     0.049 A 
ATOM     10  C   UNL A   1      33.419  19.874  24.722  1.00  0.00     0.063 A 
ATOM     11  C   UNL A   1      32.628  19.499  23.643  1.00  0.00     0.131 A 
BRANCH   7  12
ATOM     12  N   UNL A   1      33.767  23.510  23.839  1.00  0.00    -0.325 N 
ATOM     13  C   UNL A   1      33.230  24.721  24.124  1.00  0.00     0.231 C 
ATOM     14  O   UNL A   1      33.968  25.640  23.724  1.00  0.00    -0.274 OA
ATOM     15  H   UNL A   1      34.664  23.607  23.446  1.00  0.00     0.169 HD
BRANCH  13  16
ATOM     16  C   UNL A   1      31.987  25.065  24.990  1.00  0.00     0.108 C 
BRANCH  16  17
ATOM     17  C   UNL A   1      30.908  24.013  25.274  1.00  0.00     0.015 C 
ATOM     18  C   UNL A   1      31.046  23.310  26.614  1.00  0.00     0.005 C 
ENDBRANCH  16  17
BRANCH  16  19
ATOM     19  C   UNL A   1      31.368  26.412  24.542  1.00  0.00    -0.036 A 
ATOM     20  C   UNL A   1      30.427  26.416  23.492  1.00  0.00     0.004 A 
ATOM     21  C   UNL A   1      31.718  27.653  25.102  1.00  0.00     0.004 A 
ATOM     22  C   UNL A   1      29.867  27.603  23.017  1.00  0.00     0.000 A 
ATOM     23  C   UNL A   1      31.185  28.846  24.599  1.00  0.00     0.000 A 
ATOM     24  C   UNL A   1      30.260  28.820  23.559  1.00  0.00     0.000 A 
ENDBRANCH  16  19
ENDBRANCH  13  16
ENDBRANCH   7  12
BRANCH  11  25
ATOM     25  O   UNL A   1      32.294  18.157  23.424  1.00  0.00    -0.427 OA
BRANCH  25  26
ATOM     26  C   UNL A   1      33.282  17.181  23.546  1.00  0.00     0.308 C 
ATOM     27  C   UNL A   1      33.344  16.446  24.857  1.00  0.00     0.139 C 
ATOM     28  O   UNL A   1      34.008  16.892  22.598  1.00  0.00    -0.252 OA
ENDBRANCH  25  26
ENDBRANCH  11  25
ENDBRANCH   3   6
ENDBRANCH   1   2
BRANCH   1  29
ATOM     29  C   UNL A   1      37.856  20.779  24.923  1.00  0.00     0.042 C 
BRANCH  29  30
ATOM     30  C   UNL A   1      38.933  20.733  26.008  1.00  0.00     0.118 C 
BRANCH  30  31
ATOM     31  N   UNL A   1      39.945  19.697  25.815  1.00  0.00    -0.352 N 
ATOM     32  C   UNL A   1      41.311  19.720  26.019  1.00  0.00     0.251 C 
ATOM     33  H   UNL A   1      39.594  18.839  25.484  1.00  0.00     0.163 HD
ATOM     34  O   UNL A   1      42.010  18.766  25.733  1.00  0.00    -0.269 OA
BRANCH  32  35
ATOM     35  C   UNL A   1      41.941  20.953  26.536  1.00  0.00     0.039 A 
ATOM     36  C   UNL A   1      42.393  21.913  25.629  1.00  0.00     0.014 A 
ATOM     37  C   UNL A   1      42.024  21.190  27.905  1.00  0.00     0.014 A 
ATOM     38  C   UNL A   1      42.797  23.165  26.097  1.00  0.00     0.010 A 
ATOM     39  C   UNL A   1      42.281  22.476  28.356  1.00  0.00     0.010 A 
ATOM     40  C   UNL A   1      42.667  23.483  27.459  1.00  0.00    -0.014 A 
BRANCH  40  41
ATOM     41  C   UNL A   1      42.916  24.852  27.979  1.00  0.00     0.031 A 
ATOM     42  C   UNL A   1      44.306  25.259  28.390  1.00  0.00     0.074 A 
ATOM     43  C   UNL A   1      41.880  25.689  28.194  1.00  0.00     0.049 A 
ATOM     44  N   UNL A   1      44.701  26.334  29.021  1.00  0.00    -0.248 NA
ATOM     45  C   UNL A   1      45.387  24.299  28.105  1.00  0.00     0.031 C 
ATOM     46  C   UNL A   1      40.473  25.403  27.907  1.00  0.00     0.029 A 
ATOM     47  N   UNL A   1      41.858  26.960  28.715  1.00  0.00    -0.354 N 
ATOM     48  C   UNL A   1      46.058  26.150  29.260  1.00  0.00     0.074 A 
ATOM     49  C   UNL A   1      46.404  24.840  28.756  1.00  0.00     0.031 C 
ATOM     50  C   UNL A   1      39.732  26.484  28.204  1.00  0.00     0.029 A 
ATOM     51  C   UNL A   1      40.602  27.518  28.749  1.00  0.00     0.049 A 
ATOM     52  H   UNL A   1      42.663  27.426  29.033  1.00  0.00     0.167 HD
ATOM     53  C   UNL A   1      46.945  27.003  29.823  1.00  0.00     0.031 A 
ATOM     54  C   UNL A   1      40.197  28.731  29.172  1.00  0.00     0.031 A 
ATOM     55  C   UNL A   1      46.619  28.331  30.259  1.00  0.00     0.049 A 
ATOM     56  C   UNL A   1      41.210  29.689  29.728  1.00  0.00     0.074 A 
ATOM     57  C   UNL A   1      47.461  29.309  30.759  1.00  0.00     0.029 A 
ATOM     58  N   UNL A   1      45.345  28.877  30.224  1.00  0.00    -0.354 N 
ATOM     59  N   UNL A   1      42.498  29.518  29.902  1.00  0.00    -0.248 NA
ATOM     60  C   UNL A   1      40.713  31.009  30.140  1.00  0.00     0.031 C 
ATOM     61  C   UNL A   1      46.690  30.440  31.048  1.00  0.00     0.029 A 
ATOM     62  C   UNL A   1      45.376  30.177  30.695  1.00  0.00     0.049 A 
ATOM     63  H   UNL A   1      44.538  28.408  29.910  1.00  0.00     0.167 HD
ATOM     64  C   UNL A   1      42.971  30.716  30.421  1.00  0.00     0.074 A 
ATOM     65  C   UNL A   1      41.833  31.608  30.523  1.00  0.00     0.031 C 
ATOM     66  C   UNL A   1      44.234  31.048  30.782  1.00  0.00     0.031 A 
BRANCH  53  67
ATOM     67  C   UNL A   1      48.358  26.511  29.983  1.00  0.00    -0.014 A 
ATOM     68  C   UNL A   1      48.758  25.804  31.129  1.00  0.00     0.009 A 
ATOM     69  C   UNL A   1      49.304  26.772  28.981  1.00  0.00     0.009 A 
ATOM     70  C   UNL A   1      50.089  25.419  31.294  1.00  0.00     0.001 A 
ATOM     71  C   UNL A   1      50.629  26.357  29.135  1.00  0.00     0.001 A 
ATOM     72  C   UNL A   1      51.023  25.694  30.296  1.00  0.00     0.000 A 
ENDBRANCH  53  67
BRANCH  54  73
ATOM     73  C   UNL A   1      38.772  29.125  29.037  1.00  0.00    -0.014 A 
ATOM     74  C   UNL A   1      38.297  29.629  27.817  1.00  0.00     0.009 A 
ATOM     75  C   UNL A   1      37.880  28.994  30.113  1.00  0.00     0.009 A 
ATOM     76  C   UNL A   1      36.962  30.014  27.681  1.00  0.00     0.001 A 
ATOM     77  C   UNL A   1      36.540  29.359  29.967  1.00  0.00     0.001 A 
ATOM     78  C   UNL A   1      36.084  29.875  28.754  1.00  0.00     0.000 A 
ENDBRANCH  54  73
BRANCH  66  79
ATOM     79  C   UNL A   1      44.457  32.443  31.283  1.00  0.00    -0.014 A 
ATOM     80  C   UNL A   1      44.751  33.493  30.400  1.00  0.00     0.009 A 
ATOM     81  C   UNL A   1      44.323  32.718  32.653  1.00  0.00     0.009 A 
ATOM     82  C   UNL A   1      44.931  34.789  30.884  1.00  0.00     0.001 A 
ATOM     83  C   UNL A   1      44.481  34.018  33.131  1.00  0.00     0.001 A 
ATOM     84  C   UNL A   1      44.792  35.051  32.247  1.00  0.00     0.000 A 
ENDBRANCH  66  79
ENDBRANCH  40  41
ENDBRANCH  32  35
ENDBRANCH  30  31
ENDBRANCH  29  30
ENDBRANCH   1  29
TORSDOF 16
ENDMDL
MODEL 2
REMARK VINA RESULT:     -11.7      1.331      4.493
REMARK SMILES CC[C@@H](C(=O)Nc1ccc(OC(C)=O)cc1C(=O)NCCCNC(=O)c1ccc(-c2c3nc(c(-c4ccccc4)c4ccc([nH]4)c(-c4ccccc4)c4nc(c(-c5ccccc5)c5ccc2[nH]5)C=C4)C=C3)cc1)c1ccccc1
REMARK SMILES IDX 20 1 19 2 17 3 18 4 16 6 7 7 8 8 9 9 15 10 10 11 6 12 4 13
REMARK SMILES IDX 5 14 3 16 2 17 1 18 74 19 75 20 79 21 76 22 78 23 77 24
REMARK SMILES IDX 11 25 12 26 13 27 14 28 21 29 22 30 23 31 24 32 25 34 26 35
REMARK SMILES IDX 27 36 73 37 28 38 72 39 29 40 30 41 31 42 66 43 32 44 71 45
REMARK SMILES IDX 65 46 67 47 33 48 70 49 64 50 63 51 34 53 56 54 41 55 55 56
REMARK SMILES IDX 42 57 45 58 54 59 68 60 43 61 44 62 53 64 69 65 46 66 35 67
REMARK SMILES IDX 36 68 40 69 37 70 39 71 38 72 57 73 58 74 62 75 59 76 61 77
REMARK SMILES IDX 60 78 47 79 48 80 52 81 49 82 51 83 50 84
REMARK H PARENT 19 5 6 15 23 33 67 52 45 63
REMARK Flexibility Score: inf
ROOT
ATOM      1  C   UNL A   1      37.005  22.671  24.361  1.00  0.00     0.118 C 
ENDROOT
BRANCH   1   2
ATOM      2  N   UNL A   1      36.031  22.759  23.289  1.00  0.00    -0.352 N 
ATOM      3  C   UNL A   1      34.882  23.474  23.145  1.00  0.00     0.253 C 
ATOM      4  O   UNL A   1      34.285  23.346  22.072  1.00  0.00    -0.269 OA
ATOM      5  H   UNL A   1      36.244  22.190  22.515  1.00  0.00     0.163 HD
BRANCH   3   6
ATOM      6  C   UNL A   1      34.272  24.333  24.192  1.00  0.00     0.067 A 
ATOM      7  C   UNL A   1      33.866  23.999  25.494  1.00  0.00     0.054 A 
ATOM      8  C   UNL A   1      33.123  24.941  26.239  1.00  0.00     0.031 A 
ATOM      9  C   UNL A   1      32.958  26.252  25.801  1.00  0.00     0.049 A 
ATOM     10  C   UNL A   1      34.077  25.662  23.749  1.00  0.00     0.063 A 
ATOM     11  C   UNL A   1      33.496  26.614  24.579  1.00  0.00     0.131 A 
BRANCH   7  12
ATOM     12  N   UNL A   1      34.049  22.801  26.186  1.00  0.00    -0.325 N 
ATOM     13  C   UNL A   1      33.807  21.481  25.999  1.00  0.00     0.231 C 
ATOM     14  O   UNL A   1      34.096  20.827  27.018  1.00  0.00    -0.274 OA
ATOM     15  H   UNL A   1      34.476  22.960  27.058  1.00  0.00     0.169 HD
BRANCH  13  16
ATOM     16  C   UNL A   1      33.415  20.729  24.697  1.00  0.00     0.108 C 
BRANCH  16  17
ATOM     17  C   UNL A   1      32.136  21.090  23.932  1.00  0.00     0.015 C 
ATOM     18  C   UNL A   1      32.105  20.612  22.490  1.00  0.00     0.005 C 
ENDBRANCH  16  17
BRANCH  16  19
ATOM     19  C   UNL A   1      33.552  19.198  24.892  1.00  0.00    -0.036 A 
ATOM     20  C   UNL A   1      34.711  18.550  24.420  1.00  0.00     0.004 A 
ATOM     21  C   UNL A   1      32.561  18.399  25.488  1.00  0.00     0.004 A 
ATOM     22  C   UNL A   1      34.871  17.168  24.529  1.00  0.00     0.000 A 
ATOM     23  C   UNL A   1      32.705  17.008  25.561  1.00  0.00     0.000 A 
ATOM     24  C   UNL A   1      33.861  16.394  25.084  1.00  0.00     0.000 A 
ENDBRANCH  16  19
ENDBRANCH  13  16
ENDBRANCH   7  12
BRANCH  11  25
ATOM     25  O   UNL A   1      33.377  27.949  24.173  1.00  0.00    -0.427 OA
BRANCH  25  26
ATOM     26  C   UNL A   1      32.130  28.433  23.782  1.00  0.00     0.308 C 
ATOM     27  C   UNL A   1      31.469  29.415  24.710  1.00  0.00     0.139 C 
ATOM     28  O   UNL A   1      31.642  28.126  22.697  1.00  0.00    -0.252 OA
ENDBRANCH  25  26
ENDBRANCH  11  25
ENDBRANCH   3   6
ENDBRANCH   1   2
BRANCH   1  29
ATOM     29  C   UNL A   1      37.434  21.241  24.636  1.00  0.00     0.042 C 
BRANCH  29  30
ATOM     30  C   UNL A   1      38.447  21.158  25.779  1.00  0.00     0.118 C 
BRANCH  30  31
ATOM     31  N   UNL A   1      39.395  20.052  25.670  1.00  0.00    -0.352 N 
ATOM     32  C   UNL A   1      40.735  19.978  25.994  1.00  0.00     0.251 C 
ATOM     33  H   UNL A   1      39.014  19.221  25.305  1.00  0.00     0.163 HD
ATOM     34  O   UNL A   1      41.387  18.976  25.766  1.00  0.00    -0.269 OA
BRANCH  32  35
ATOM     35  C   UNL A   1      41.404  21.163  26.572  1.00  0.00     0.039 A 
ATOM     36  C   UNL A   1      42.028  22.071  25.715  1.00  0.00     0.014 A 
ATOM     37  C   UNL A   1      41.357  21.410  27.941  1.00  0.00     0.014 A 
ATOM     38  C   UNL A   1      42.479  23.293  26.220  1.00  0.00     0.010 A 
ATOM     39  C   UNL A   1      41.667  22.676  28.412  1.00  0.00     0.010 A 
ATOM     40  C   UNL A   1      42.229  23.637  27.558  1.00  0.00    -0.014 A 
BRANCH  40  41
ATOM     41  C   UNL A   1      42.529  24.989  28.097  1.00  0.00     0.031 A 
ATOM     42  C   UNL A   1      43.932  25.333  28.522  1.00  0.00     0.074 A 
ATOM     43  C   UNL A   1      41.528  25.866  28.315  1.00  0.00     0.049 A 
ATOM     44  N   UNL A   1      44.367  26.384  29.170  1.00  0.00    -0.248 NA
ATOM     45  C   UNL A   1      44.975  24.332  28.233  1.00  0.00     0.031 C 
ATOM     46  C   UNL A   1      40.112  25.642  28.015  1.00  0.00     0.029 A 
ATOM     47  N   UNL A   1      41.554  27.130  28.851  1.00  0.00    -0.354 N 
ATOM     48  C   UNL A   1      45.713  26.140  29.415  1.00  0.00     0.074 A 
ATOM     49  C   UNL A   1      46.008  24.823  28.898  1.00  0.00     0.031 C 
ATOM     50  C   UNL A   1      39.414  26.748  28.319  1.00  0.00     0.029 A 
ATOM     51  C   UNL A   1      40.322  27.739  28.883  1.00  0.00     0.049 A 
ATOM     52  H   UNL A   1      42.375  27.559  29.181  1.00  0.00     0.167 HD
ATOM     53  C   UNL A   1      46.631  26.949  29.995  1.00  0.00     0.031 A 
ATOM     54  C   UNL A   1      39.965  28.962  29.318  1.00  0.00     0.031 A 
ATOM     55  C   UNL A   1      46.356  28.284  30.445  1.00  0.00     0.049 A 
ATOM     56  C   UNL A   1      41.012  29.871  29.893  1.00  0.00     0.074 A 
ATOM     57  C   UNL A   1      47.234  29.221  30.963  1.00  0.00     0.029 A 
ATOM     58  N   UNL A   1      45.106  28.883  30.408  1.00  0.00    -0.354 N 
ATOM     59  N   UNL A   1      42.291  29.645  30.074  1.00  0.00    -0.248 NA
ATOM     60  C   UNL A   1      40.567  31.206  30.318  1.00  0.00     0.031 C 
ATOM     61  C   UNL A   1      46.508  30.379  31.260  1.00  0.00     0.029 A 
ATOM     62  C   UNL A   1      45.187  30.174  30.895  1.00  0.00     0.049 A 
ATOM     63  H   UNL A   1      44.282  28.452  30.083  1.00  0.00     0.167 HD
ATOM     64  C   UNL A   1      42.808  30.816  30.611  1.00  0.00     0.074 A 
ATOM     65  C   UNL A   1      41.708  31.753  30.716  1.00  0.00     0.031 C 
ATOM     66  C   UNL A   1      44.082  31.091  30.984  1.00  0.00     0.031 A 
BRANCH  53  67
ATOM     67  C   UNL A   1      48.021  26.397  30.159  1.00  0.00    -0.014 A 
ATOM     68  C   UNL A   1      48.960  26.469  29.118  1.00  0.00     0.009 A 
ATOM     69  C   UNL A   1      48.390  25.786  31.367  1.00  0.00     0.009 A 
ATOM     70  C   UNL A   1      50.221  25.889  29.262  1.00  0.00     0.001 A 
ATOM     71  C   UNL A   1      49.664  25.234  31.519  1.00  0.00     0.001 A 
ATOM     72  C   UNL A   1      50.573  25.273  30.462  1.00  0.00     0.000 A 
ENDBRANCH  53  67
BRANCH  54  73
ATOM     73  C   UNL A   1      38.558  29.417  29.178  1.00  0.00    -0.014 A 
ATOM     74  C   UNL A   1      38.113  29.952  27.960  1.00  0.00     0.009 A 
ATOM     75  C   UNL A   1      37.654  29.313  30.247  1.00  0.00     0.009 A 
ATOM     76  C   UNL A   1      36.795  30.393  27.819  1.00  0.00     0.001 A 
ATOM     77  C   UNL A   1      36.331  29.735  30.096  1.00  0.00     0.001 A 
ATOM     78  C   UNL A   1      35.905  30.281  28.885  1.00  0.00     0.000 A 
ENDBRANCH  54  73
BRANCH  66  79
ATOM     79  C   UNL A   1      44.358  32.470  31.505  1.00  0.00    -0.014 A 
ATOM     80  C   UNL A   1      44.291  32.754  32.877  1.00  0.00     0.009 A 
ATOM     81  C   UNL A   1      44.737  33.484  30.613  1.00  0.00     0.009 A 
ATOM     82  C   UNL A   1      44.574  34.038  33.344  1.00  0.00     0.001 A 
ATOM     83  C   UNL A   1      45.042  34.761  31.084  1.00  0.00     0.001 A 
ATOM     84  C   UNL A   1      44.954  35.038  32.448  1.00  0.00     0.000 A 
ENDBRANCH  66  79
ENDBRANCH  40  41
ENDBRANCH  32  35
ENDBRANCH  30  31
ENDBRANCH  29  30
ENDBRANCH   1  29
TORSDOF 16
ENDMDL
MODEL 3
REMARK VINA RESULT:     -11.6      1.320      7.244
REMARK SMILES CC[C@@H](C(=O)Nc1ccc(OC(C)=O)cc1C(=O)NCCCNC(=O)c1ccc(-c2c3nc(c(-c4ccccc4)c4ccc([nH]4)c(-c4ccccc4)c4nc(c(-c5ccccc5)c5ccc2[nH]5)C=C4)C=C3)cc1)c1ccccc1
REMARK SMILES IDX 20 1 19 2 17 3 18 4 16 6 7 7 8 8 9 9 15 10 10 11 6 12 4 13
REMARK SMILES IDX 5 14 3 16 2 17 1 18 74 19 75 20 79 21 76 22 78 23 77 24
REMARK SMILES IDX 11 25 12 26 13 27 14 28 21 29 22 30 23 31 24 32 25 34 26 35
REMARK SMILES IDX 27 36 73 37 28 38 72 39 29 40 30 41 31 42 66 43 32 44 71 45
REMARK SMILES IDX 65 46 67 47 33 48 70 49 64 50 63 51 34 53 56 54 41 55 55 56
REMARK SMILES IDX 42 57 45 58 54 59 68 60 43 61 44 62 53 64 69 65 46 66 35 67
REMARK SMILES IDX 36 68 40 69 37 70 39 71 38 72 57 73 58 74 62 75 59 76 61 77
REMARK SMILES IDX 60 78 47 79 48 80 52 81 49 82 51 83 50 84
REMARK H PARENT 19 5 6 15 23 33 67 52 45 63
REMARK Flexibility Score: inf
ROOT
ATOM      1  C   UNL A   1      36.969  22.915  24.580  1.00  0.00     0.118 C 
ENDROOT
BRANCH   1   2
ATOM      2  N   UNL A   1      36.009  23.026  23.498  1.00  0.00    -0.352 N 
ATOM      3  C   UNL A   1      34.856  23.736  23.358  1.00  0.00     0.253 C 
ATOM      4  O   UNL A   1      34.275  23.636  22.274  1.00  0.00    -0.269 OA
ATOM      5  H   UNL A   1      36.238  22.482  22.710  1.00  0.00     0.163 HD
BRANCH   3   6
ATOM      6  C   UNL A   1      34.225  24.559  24.422  1.00  0.00     0.067 A 
ATOM      7  C   UNL A   1      33.763  24.173  25.691  1.00  0.00     0.054 A 
ATOM      8  C   UNL A   1      33.012  25.096  26.453  1.00  0.00     0.031 A 
ATOM      9  C   UNL A   1      32.889  26.429  26.071  1.00  0.00     0.049 A 
ATOM     10  C   UNL A   1      34.072  25.911  24.036  1.00  0.00     0.063 A 
ATOM     11  C   UNL A   1      33.479  26.835  24.887  1.00  0.00     0.131 A 
BRANCH   7  12
ATOM     12  N   UNL A   1      33.896  22.941  26.332  1.00  0.00    -0.325 N 
ATOM     13  C   UNL A   1      33.645  21.636  26.070  1.00  0.00     0.231 C 
ATOM     14  O   UNL A   1      33.876  20.929  27.069  1.00  0.00    -0.274 OA
ATOM     15  H   UNL A   1      34.283  23.052  27.230  1.00  0.00     0.169 HD
BRANCH  13  16
ATOM     16  C   UNL A   1      33.305  20.953  24.717  1.00  0.00     0.108 C 
BRANCH  16  17
ATOM     17  C   UNL A   1      32.045  21.339  23.933  1.00  0.00     0.015 C 
ATOM     18  C   UNL A   1      32.057  20.923  22.471  1.00  0.00     0.005 C 
ENDBRANCH  16  17
BRANCH  16  19
ATOM     19  C   UNL A   1      33.460  19.416  24.829  1.00  0.00    -0.036 A 
ATOM     20  C   UNL A   1      34.672  18.820  24.426  1.00  0.00     0.004 A 
ATOM     21  C   UNL A   1      32.439  18.563  25.283  1.00  0.00     0.004 A 
ATOM     22  C   UNL A   1      34.854  17.437  24.465  1.00  0.00     0.000 A 
ATOM     23  C   UNL A   1      32.609  17.173  25.284  1.00  0.00     0.000 A 
ATOM     24  C   UNL A   1      33.816  16.611  24.878  1.00  0.00     0.000 A 
ENDBRANCH  16  19
ENDBRANCH  13  16
ENDBRANCH   7  12
BRANCH  11  25
ATOM     25  O   UNL A   1      33.403  28.190  24.541  1.00  0.00    -0.427 OA
BRANCH  25  26
ATOM     26  C   UNL A   1      32.449  28.602  23.612  1.00  0.00     0.308 C 
ATOM     27  C   UNL A   1      31.061  28.847  24.138  1.00  0.00     0.139 C 
ATOM     28  O   UNL A   1      32.755  28.825  22.444  1.00  0.00    -0.252 OA
ENDBRANCH  25  26
ENDBRANCH  11  25
ENDBRANCH   3   6
ENDBRANCH   1   2
BRANCH   1  29
ATOM     29  C   UNL A   1      37.483  21.497  24.751  1.00  0.00     0.042 C 
BRANCH  29  30
ATOM     30  C   UNL A   1      38.565  21.407  25.829  1.00  0.00     0.118 C 
BRANCH  30  31
ATOM     31  N   UNL A   1      39.430  20.235  25.724  1.00  0.00    -0.352 N 
ATOM     32  C   UNL A   1      40.763  20.066  26.043  1.00  0.00     0.251 C 
ATOM     33  H   UNL A   1      38.990  19.431  25.366  1.00  0.00     0.163 HD
ATOM     34  O   UNL A   1      41.340  19.019  25.820  1.00  0.00    -0.269 OA
BRANCH  32  35
ATOM     35  C   UNL A   1      41.518  21.204  26.610  1.00  0.00     0.039 A 
ATOM     36  C   UNL A   1      41.978  22.205  25.753  1.00  0.00     0.014 A 
ATOM     37  C   UNL A   1      41.712  21.315  27.984  1.00  0.00     0.014 A 
ATOM     38  C   UNL A   1      42.506  23.381  26.290  1.00  0.00     0.010 A 
ATOM     39  C   UNL A   1      42.095  22.537  28.518  1.00  0.00     0.010 A 
ATOM     40  C   UNL A   1      42.493  23.588  27.679  1.00  0.00    -0.014 A 
BRANCH  40  41
ATOM     41  C   UNL A   1      42.879  24.887  28.288  1.00  0.00     0.031 A 
ATOM     42  C   UNL A   1      41.828  25.932  28.556  1.00  0.00     0.074 A 
ATOM     43  C   UNL A   1      44.180  25.177  28.493  1.00  0.00     0.049 A 
ATOM     44  N   UNL A   1      41.975  27.181  28.918  1.00  0.00    -0.248 NA
ATOM     45  C   UNL A   1      40.427  25.535  28.328  1.00  0.00     0.031 C 
ATOM     46  C   UNL A   1      45.309  24.286  28.216  1.00  0.00     0.029 A 
ATOM     47  N   UNL A   1      44.772  26.315  28.980  1.00  0.00    -0.354 N 
ATOM     48  C   UNL A   1      40.698  27.728  28.900  1.00  0.00     0.074 A 
ATOM     49  C   UNL A   1      39.799  26.694  28.440  1.00  0.00     0.031 C 
ATOM     50  C   UNL A   1      46.451  24.890  28.587  1.00  0.00     0.029 A 
ATOM     51  C   UNL A   1      46.140  26.226  29.079  1.00  0.00     0.049 A 
ATOM     52  H   UNL A   1      44.265  27.119  29.235  1.00  0.00     0.167 HD
ATOM     53  C   UNL A   1      40.301  28.971  29.260  1.00  0.00     0.031 A 
ATOM     54  C   UNL A   1      47.044  27.122  29.518  1.00  0.00     0.031 A 
ATOM     55  C   UNL A   1      41.182  29.976  29.785  1.00  0.00     0.049 A 
ATOM     56  C   UNL A   1      46.574  28.471  29.980  1.00  0.00     0.074 A 
ATOM     57  C   UNL A   1      40.869  31.236  30.265  1.00  0.00     0.029 A 
ATOM     58  N   UNL A   1      42.553  29.824  29.920  1.00  0.00    -0.354 N 
ATOM     59  N   UNL A   1      45.356  28.957  30.003  1.00  0.00    -0.248 NA
ATOM     60  C   UNL A   1      47.603  29.392  30.481  1.00  0.00     0.031 C 
ATOM     61  C   UNL A   1      42.056  31.855  30.669  1.00  0.00     0.029 A 
ATOM     62  C   UNL A   1      43.102  30.967  30.473  1.00  0.00     0.049 A 
ATOM     63  H   UNL A   1      43.061  29.021  29.660  1.00  0.00     0.167 HD
ATOM     64  C   UNL A   1      45.470  30.231  30.543  1.00  0.00     0.074 A 
ATOM     65  C   UNL A   1      46.872  30.437  30.844  1.00  0.00     0.031 C 
ATOM     66  C   UNL A   1      44.498  31.148  30.770  1.00  0.00     0.031 A 
BRANCH  53  67
ATOM     67  C   UNL A   1      38.841  29.295  29.101  1.00  0.00    -0.014 A 
ATOM     68  C   UNL A   1      37.955  29.213  30.187  1.00  0.00     0.009 A 
ATOM     69  C   UNL A   1      38.343  29.673  27.845  1.00  0.00     0.009 A 
ATOM     70  C   UNL A   1      36.591  29.446  30.006  1.00  0.00     0.001 A 
ATOM     71  C   UNL A   1      36.982  29.938  27.674  1.00  0.00     0.001 A 
ATOM     72  C   UNL A   1      36.106  29.810  28.751  1.00  0.00     0.000 A 
ENDBRANCH  53  67
BRANCH  54  73
ATOM     73  C   UNL A   1      48.480  26.751  29.591  1.00  0.00    -0.014 A 
ATOM     74  C   UNL A   1      49.339  27.067  28.527  1.00  0.00     0.009 A 
ATOM     75  C   UNL A   1      49.002  26.095  30.716  1.00  0.00     0.009 A 
ATOM     76  C   UNL A   1      50.689  26.713  28.579  1.00  0.00     0.001 A 
ATOM     77  C   UNL A   1      50.357  25.762  30.774  1.00  0.00     0.001 A 
ATOM     78  C   UNL A   1      51.198  26.066  29.703  1.00  0.00     0.000 A 
ENDBRANCH  54  73
BRANCH  66  79
ATOM     79  C   UNL A   1      44.915  32.441  31.405  1.00  0.00    -0.014 A 
ATOM     80  C   UNL A   1      44.958  32.582  32.801  1.00  0.00     0.009 A 
ATOM     81  C   UNL A   1      45.314  33.515  30.595  1.00  0.00     0.009 A 
ATOM     82  C   UNL A   1      45.371  33.785  33.372  1.00  0.00     0.001 A 
ATOM     83  C   UNL A   1      45.748  34.709  31.170  1.00  0.00     0.001 A 
ATOM     84  C   UNL A   1      45.770  34.846  32.558  1.00  0.00     0.000 A 
ENDBRANCH  66  79
ENDBRANCH  40  41
ENDBRANCH  32  35
ENDBRANCH  30  31
ENDBRANCH  29  30
ENDBRANCH   1  29
TORSDOF 16
ENDMDL
