MODEL 1
REMARK VINA RESULT:     -12.2      0.000      0.000
REMARK SMILES O=C(NCCCNC(=O)[C@@H]1CN(C(=O)C[NH+]2CCOCC2)C[C@H]1c1ccc2c(c1)OCO2)c1ccc(-c2c3nc(c(-c4ccccc4)c4ccc([nH]4)c(-c4ccccc4)c4nc(c(-c5ccccc5)c5ccc2[nH]5)C=C4)C=C3)cc1
REMARK SMILES IDX 5 1 4 2 3 3 1 4 2 5 33 7 34 8 80 9 35 10 79 11 36 12 37 13
REMARK SMILES IDX 38 14 73 15 39 16 78 17 72 18 74 19 40 20 77 21 71 22 70 23
REMARK SMILES IDX 41 25 63 26 48 27 62 28 49 29 52 30 61 31 75 32 50 33 51 34
REMARK SMILES IDX 60 36 76 37 53 38 42 39 43 40 47 41 44 42 46 43 45 44 64 45
REMARK SMILES IDX 65 46 69 47 66 48 68 49 67 50 54 51 55 52 59 53 56 54 58 55
REMARK SMILES IDX 57 56 6 57 7 58 8 59 9 61 10 62 11 63 23 64 12 65 22 66
REMARK SMILES IDX 24 67 25 68 29 69 26 70 28 71 27 72 30 73 32 74 31 75 13 76
REMARK SMILES IDX 14 77 15 78 16 79 17 80 21 81 18 83 20 84 19 85
REMARK H PARENT 3 6 74 24 52 35 7 60 16 82
REMARK Flexibility Score: inf
ROOT
ATOM      1  C   UNL A   1      33.451  31.393  26.704  1.00  0.00     0.042 C 
ENDROOT
BRANCH   1   2
ATOM      2  C   UNL A   1      32.224  31.918  27.433  1.00  0.00     0.118 C 
BRANCH   2   3
ATOM      3  N   UNL A   1      32.219  33.372  27.528  1.00  0.00    -0.352 N 
ATOM      4  O   UNL A   1      32.774  35.392  28.359  1.00  0.00    -0.269 OA
ATOM      5  C   UNL A   1      33.073  34.218  28.196  1.00  0.00     0.251 C 
ATOM      6  H   UNL A   1      31.491  33.818  27.038  1.00  0.00     0.163 HD
BRANCH   5   7
ATOM      7  C   UNL A   1      34.344  33.691  28.731  1.00  0.00     0.039 A 
ATOM      8  C   UNL A   1      35.545  33.949  28.070  1.00  0.00     0.014 A 
ATOM      9  C   UNL A   1      34.335  32.937  29.907  1.00  0.00     0.014 A 
ATOM     10  C   UNL A   1      36.702  33.300  28.469  1.00  0.00     0.010 A 
ATOM     11  C   UNL A   1      35.528  32.386  30.380  1.00  0.00     0.010 A 
ATOM     12  C   UNL A   1      36.714  32.532  29.643  1.00  0.00    -0.014 A 
BRANCH  12  13
ATOM     13  C   UNL A   1      37.997  31.951  30.106  1.00  0.00     0.031 A 
ATOM     14  C   UNL A   1      38.811  32.613  31.180  1.00  0.00     0.074 A 
ATOM     15  C   UNL A   1      38.408  30.790  29.560  1.00  0.00     0.049 A 
ATOM     16  N   UNL A   1      39.939  32.219  31.716  1.00  0.00    -0.248 NA
ATOM     17  C   UNL A   1      38.302  33.884  31.719  1.00  0.00     0.031 C 
ATOM     18  C   UNL A   1      37.696  30.052  28.512  1.00  0.00     0.029 A 
ATOM     19  N   UNL A   1      39.504  30.012  29.827  1.00  0.00    -0.354 N 
ATOM     20  C   UNL A   1      40.289  33.203  32.631  1.00  0.00     0.074 A 
ATOM     21  C   UNL A   1      39.267  34.226  32.560  1.00  0.00     0.031 C 
ATOM     22  C   UNL A   1      38.337  28.900  28.273  1.00  0.00     0.029 A 
ATOM     23  C   UNL A   1      39.544  28.857  29.087  1.00  0.00     0.049 A 
ATOM     24  H   UNL A   1      40.194  30.259  30.484  1.00  0.00     0.167 HD
ATOM     25  C   UNL A   1      41.364  33.248  33.456  1.00  0.00     0.031 A 
ATOM     26  C   UNL A   1      40.461  27.875  29.051  1.00  0.00     0.031 A 
ATOM     27  C   UNL A   1      42.382  32.230  33.513  1.00  0.00     0.049 A 
ATOM     28  C   UNL A   1      41.667  27.975  29.936  1.00  0.00     0.074 A 
ATOM     29  C   UNL A   1      43.494  32.166  34.334  1.00  0.00     0.029 A 
ATOM     30  N   UNL A   1      42.419  31.103  32.704  1.00  0.00    -0.354 N 
ATOM     31  N   UNL A   1      41.966  28.896  30.819  1.00  0.00    -0.248 NA
ATOM     32  C   UNL A   1      42.658  26.900  29.817  1.00  0.00     0.031 C 
ATOM     33  C   UNL A   1      44.237  31.036  33.978  1.00  0.00     0.029 A 
ATOM     34  C   UNL A   1      43.551  30.354  32.986  1.00  0.00     0.049 A 
ATOM     35  H   UNL A   1      41.740  30.868  32.031  1.00  0.00     0.167 HD
ATOM     36  C   UNL A   1      43.170  28.498  31.383  1.00  0.00     0.074 A 
ATOM     37  C   UNL A   1      43.534  27.246  30.750  1.00  0.00     0.031 C 
ATOM     38  C   UNL A   1      43.905  29.114  32.341  1.00  0.00     0.031 A 
BRANCH  25  39
ATOM     39  C   UNL A   1      41.515  34.466  34.328  1.00  0.00    -0.014 A 
ATOM     40  C   UNL A   1      40.980  34.518  35.625  1.00  0.00     0.009 A 
ATOM     41  C   UNL A   1      42.221  35.581  33.845  1.00  0.00     0.009 A 
ATOM     42  C   UNL A   1      41.106  35.676  36.399  1.00  0.00     0.001 A 
ATOM     43  C   UNL A   1      42.375  36.723  34.633  1.00  0.00     0.001 A 
ATOM     44  C   UNL A   1      41.805  36.775  35.904  1.00  0.00     0.000 A 
ENDBRANCH  25  39
BRANCH  26  45
ATOM     45  C   UNL A   1      40.264  26.718  28.139  1.00  0.00    -0.014 A 
ATOM     46  C   UNL A   1      40.813  26.727  26.849  1.00  0.00     0.009 A 
ATOM     47  C   UNL A   1      39.552  25.586  28.568  1.00  0.00     0.009 A 
ATOM     48  C   UNL A   1      40.638  25.632  26.000  1.00  0.00     0.001 A 
ATOM     49  C   UNL A   1      39.409  24.479  27.729  1.00  0.00     0.001 A 
ATOM     50  C   UNL A   1      39.944  24.507  26.444  1.00  0.00     0.000 A 
ENDBRANCH  26  45
BRANCH  38  51
ATOM     51  C   UNL A   1      45.157  28.414  32.794  1.00  0.00    -0.014 A 
ATOM     52  C   UNL A   1      45.135  27.470  33.833  1.00  0.00     0.009 A 
ATOM     53  C   UNL A   1      46.373  28.691  32.151  1.00  0.00     0.009 A 
ATOM     54  C   UNL A   1      46.316  26.848  34.244  1.00  0.00     0.001 A 
ATOM     55  C   UNL A   1      47.545  28.042  32.541  1.00  0.00     0.001 A 
ATOM     56  C   UNL A   1      47.518  27.131  33.595  1.00  0.00     0.000 A 
ENDBRANCH  38  51
ENDBRANCH  12  13
ENDBRANCH   5   7
ENDBRANCH   2   3
ENDBRANCH   1   2
BRANCH   1  57
ATOM     57  C   UNL A   1      33.887  30.025  27.198  1.00  0.00     0.117 C 
BRANCH  57  58
ATOM     58  N   UNL A   1      32.782  29.313  27.814  1.00  0.00    -0.356 N 
ATOM     59  C   UNL A   1      31.996  28.330  27.308  1.00  0.00     0.225 C 
ATOM     60  H   UNL A   1      32.572  29.584  28.737  1.00  0.00     0.163 HD
ATOM     61  O   UNL A   1      31.139  27.838  28.041  1.00  0.00    -0.275 OA
BRANCH  59  62
ATOM     62  C   UNL A   1      32.174  27.902  25.872  1.00  0.00     0.107 C 
ATOM     63  C   UNL A   1      31.380  28.856  25.015  1.00  0.00     0.133 C 
ATOM     64  C   UNL A   1      31.583  26.508  25.577  1.00  0.00     0.053 C 
ATOM     65  N   UNL A   1      30.988  28.090  23.860  1.00  0.00    -0.336 N 
ATOM     66  C   UNL A   1      31.132  26.660  24.105  1.00  0.00     0.129 C 
BRANCH  64  67
ATOM     67  C   UNL A   1      32.643  25.466  25.922  1.00  0.00    -0.038 A 
ATOM     68  C   UNL A   1      33.955  25.634  25.395  1.00  0.00     0.008 A 
ATOM     69  C   UNL A   1      32.354  24.286  26.621  1.00  0.00     0.054 A 
ATOM     70  C   UNL A   1      34.909  24.613  25.447  1.00  0.00     0.051 A 
ATOM     71  C   UNL A   1      33.319  23.299  26.668  1.00  0.00     0.166 A 
ATOM     72  C   UNL A   1      34.550  23.447  26.077  1.00  0.00     0.165 A 
ATOM     73  O   UNL A   1      33.165  22.077  27.243  1.00  0.00    -0.454 OA
ATOM     74  O   UNL A   1      35.320  22.334  26.188  1.00  0.00    -0.454 OA
ATOM     75  C   UNL A   1      34.430  21.464  26.919  1.00  0.00     0.468 C 
ENDBRANCH  64  67
BRANCH  65  76
ATOM     76  C   UNL A   1      30.497  28.571  22.662  1.00  0.00     0.277 C 
ATOM     77  O   UNL A   1      30.289  27.810  21.715  1.00  0.00    -0.268 OA
BRANCH  76  78
ATOM     78  C   UNL A   1      30.218  30.081  22.546  1.00  0.00     0.363 C 
BRANCH  78  79
ATOM     79  N   UNL A   1      28.833  30.523  22.808  1.00  0.00    -0.323 N 
ATOM     80  C   UNL A   1      28.010  30.641  21.592  1.00  0.00     0.291 C 
ATOM     81  C   UNL A   1      28.630  31.713  23.644  1.00  0.00     0.291 C 
ATOM     82  H   UNL A   1      28.515  29.741  23.380  1.00  0.00     0.348 HD
ATOM     83  C   UNL A   1      28.198  31.969  20.849  1.00  0.00     0.221 C 
ATOM     84  C   UNL A   1      28.780  33.049  22.900  1.00  0.00     0.221 C 
ATOM     85  O   UNL A   1      27.996  33.100  21.700  1.00  0.00    -0.370 OA
ENDBRANCH  78  79
ENDBRANCH  76  78
ENDBRANCH  65  76
ENDBRANCH  59  62
ENDBRANCH  57  58
ENDBRANCH   1  57
TORSDOF 14
ENDMDL
MODEL 2
REMARK VINA RESULT:     -12.1      3.945      8.855
REMARK SMILES O=C(NCCCNC(=O)[C@@H]1CN(C(=O)C[NH+]2CCOCC2)C[C@H]1c1ccc2c(c1)OCO2)c1ccc(-c2c3nc(c(-c4ccccc4)c4ccc([nH]4)c(-c4ccccc4)c4nc(c(-c5ccccc5)c5ccc2[nH]5)C=C4)C=C3)cc1
REMARK SMILES IDX 5 1 4 2 3 3 1 4 2 5 33 7 34 8 80 9 35 10 79 11 36 12 37 13
REMARK SMILES IDX 38 14 73 15 39 16 78 17 72 18 74 19 40 20 77 21 71 22 70 23
REMARK SMILES IDX 41 25 63 26 48 27 62 28 49 29 52 30 61 31 75 32 50 33 51 34
REMARK SMILES IDX 60 36 76 37 53 38 42 39 43 40 47 41 44 42 46 43 45 44 64 45
REMARK SMILES IDX 65 46 69 47 66 48 68 49 67 50 54 51 55 52 59 53 56 54 58 55
REMARK SMILES IDX 57 56 6 57 7 58 8 59 9 61 10 62 11 63 23 64 12 65 22 66
REMARK SMILES IDX 24 67 25 68 29 69 26 70 28 71 27 72 30 73 32 74 31 75 13 76
REMARK SMILES IDX 14 77 15 78 16 79 17 80 21 81 18 83 20 84 19 85
REMARK H PARENT 3 6 74 24 52 35 7 60 16 82
REMARK Flexibility Score: inf
ROOT
ATOM      1  C   UNL A   1      38.423  20.232  25.076  1.00  0.00     0.042 C 
ENDROOT
BRANCH   1   2
ATOM      2  C   UNL A   1      39.249  19.983  26.328  1.00  0.00     0.118 C 
BRANCH   2   3
ATOM      3  N   UNL A   1      40.450  19.204  26.051  1.00  0.00    -0.352 N 
ATOM      4  O   UNL A   1      42.607  18.854  25.504  1.00  0.00    -0.269 OA
ATOM      5  C   UNL A   1      41.764  19.600  25.981  1.00  0.00     0.251 C 
ATOM      6  H   UNL A   1      40.295  18.245  25.890  1.00  0.00     0.163 HD
BRANCH   5   7
ATOM      7  C   UNL A   1      42.145  20.940  26.470  1.00  0.00     0.039 A 
ATOM      8  C   UNL A   1      42.248  21.186  27.839  1.00  0.00     0.014 A 
ATOM      9  C   UNL A   1      42.405  21.959  25.550  1.00  0.00     0.014 A 
ATOM     10  C   UNL A   1      42.420  22.483  28.293  1.00  0.00     0.010 A 
ATOM     11  C   UNL A   1      42.704  23.243  26.012  1.00  0.00     0.010 A 
ATOM     12  C   UNL A   1      42.677  23.523  27.386  1.00  0.00    -0.014 A 
BRANCH  12  13
ATOM     13  C   UNL A   1      42.976  24.875  27.914  1.00  0.00     0.031 A 
ATOM     14  C   UNL A   1      44.386  25.310  28.194  1.00  0.00     0.074 A 
ATOM     15  C   UNL A   1      41.951  25.727  28.111  1.00  0.00     0.049 A 
ATOM     16  N   UNL A   1      44.818  26.467  28.628  1.00  0.00    -0.248 NA
ATOM     17  C   UNL A   1      45.450  24.320  27.964  1.00  0.00     0.031 C 
ATOM     18  C   UNL A   1      40.539  25.418  27.868  1.00  0.00     0.029 A 
ATOM     19  N   UNL A   1      41.937  27.031  28.531  1.00  0.00    -0.354 N 
ATOM     20  C   UNL A   1      46.195  26.337  28.752  1.00  0.00     0.074 A 
ATOM     21  C   UNL A   1      46.525  24.980  28.371  1.00  0.00     0.031 C 
ATOM     22  C   UNL A   1      39.805  26.518  28.080  1.00  0.00     0.029 A 
ATOM     23  C   UNL A   1      40.680  27.583  28.550  1.00  0.00     0.049 A 
ATOM     24  H   UNL A   1      42.748  27.523  28.792  1.00  0.00     0.167 HD
ATOM     25  C   UNL A   1      47.101  27.264  29.148  1.00  0.00     0.031 A 
ATOM     26  C   UNL A   1      40.270  28.807  28.924  1.00  0.00     0.031 A 
ATOM     27  C   UNL A   1      46.763  28.610  29.536  1.00  0.00     0.049 A 
ATOM     28  C   UNL A   1      41.287  29.797  29.406  1.00  0.00     0.074 A 
ATOM     29  C   UNL A   1      47.608  29.635  29.922  1.00  0.00     0.029 A 
ATOM     30  N   UNL A   1      45.471  29.113  29.600  1.00  0.00    -0.354 N 
ATOM     31  N   UNL A   1      42.588  29.669  29.486  1.00  0.00    -0.248 NA
ATOM     32  C   UNL A   1      40.775  31.099  29.849  1.00  0.00     0.031 C 
ATOM     33  C   UNL A   1      46.824  30.736  30.282  1.00  0.00     0.029 A 
ATOM     34  C   UNL A   1      45.494  30.424  30.049  1.00  0.00     0.049 A 
ATOM     35  H   UNL A   1      44.657  28.613  29.359  1.00  0.00     0.167 HD
ATOM     36  C   UNL A   1      43.057  30.885  29.964  1.00  0.00     0.074 A 
ATOM     37  C   UNL A   1      41.900  31.739  30.139  1.00  0.00     0.031 C 
ATOM     38  C   UNL A   1      44.333  31.260  30.228  1.00  0.00     0.031 A 
BRANCH  25  39
ATOM     39  C   UNL A   1      48.542  26.834  29.225  1.00  0.00    -0.014 A 
ATOM     40  C   UNL A   1      49.432  27.035  28.159  1.00  0.00     0.009 A 
ATOM     41  C   UNL A   1      49.021  26.226  30.397  1.00  0.00     0.009 A 
ATOM     42  C   UNL A   1      50.756  26.594  28.246  1.00  0.00     0.001 A 
ATOM     43  C   UNL A   1      50.352  25.816  30.495  1.00  0.00     0.001 A 
ATOM     44  C   UNL A   1      51.215  25.988  29.414  1.00  0.00     0.000 A 
ENDBRANCH  25  39
BRANCH  26  45
ATOM     45  C   UNL A   1      38.826  29.151  28.854  1.00  0.00    -0.014 A 
ATOM     46  C   UNL A   1      38.002  28.995  29.977  1.00  0.00     0.009 A 
ATOM     47  C   UNL A   1      38.273  29.669  27.672  1.00  0.00     0.009 A 
ATOM     48  C   UNL A   1      36.649  29.334  29.913  1.00  0.00     0.001 A 
ATOM     49  C   UNL A   1      36.928  30.039  27.620  1.00  0.00     0.001 A 
ATOM     50  C   UNL A   1      36.116  29.863  28.738  1.00  0.00     0.000 A 
ENDBRANCH  26  45
BRANCH  38  51
ATOM     51  C   UNL A   1      44.544  32.673  30.695  1.00  0.00    -0.014 A 
ATOM     52  C   UNL A   1      44.560  33.002  32.060  1.00  0.00     0.009 A 
ATOM     53  C   UNL A   1      44.752  33.688  29.748  1.00  0.00     0.009 A 
ATOM     54  C   UNL A   1      44.741  34.326  32.463  1.00  0.00     0.001 A 
ATOM     55  C   UNL A   1      44.967  35.005  30.156  1.00  0.00     0.001 A 
ATOM     56  C   UNL A   1      44.949  35.325  31.512  1.00  0.00     0.000 A 
ENDBRANCH  38  51
ENDBRANCH  12  13
ENDBRANCH   5   7
ENDBRANCH   2   3
ENDBRANCH   1   2
BRANCH   1  57
ATOM     57  C   UNL A   1      37.784  21.609  25.059  1.00  0.00     0.117 C 
BRANCH  57  58
ATOM     58  N   UNL A   1      36.820  21.753  26.134  1.00  0.00    -0.356 N 
ATOM     59  C   UNL A   1      35.469  21.630  26.109  1.00  0.00     0.225 C 
ATOM     60  H   UNL A   1      37.204  21.973  27.014  1.00  0.00     0.163 HD
ATOM     61  O   UNL A   1      34.856  21.754  27.168  1.00  0.00    -0.275 OA
BRANCH  59  62
ATOM     62  C   UNL A   1      34.771  21.384  24.794  1.00  0.00     0.107 C 
ATOM     63  C   UNL A   1      34.514  22.729  24.161  1.00  0.00     0.133 C 
ATOM     64  C   UNL A   1      33.378  20.744  24.958  1.00  0.00     0.053 C 
ATOM     65  N   UNL A   1      33.324  22.553  23.368  1.00  0.00    -0.336 N 
ATOM     66  C   UNL A   1      32.609  21.343  23.757  1.00  0.00     0.129 C 
BRANCH  64  67
ATOM     67  C   UNL A   1      33.563  19.231  25.037  1.00  0.00    -0.038 A 
ATOM     68  C   UNL A   1      34.578  18.630  24.240  1.00  0.00     0.008 A 
ATOM     69  C   UNL A   1      32.698  18.392  25.753  1.00  0.00     0.054 A 
ATOM     70  C   UNL A   1      34.652  17.246  24.056  1.00  0.00     0.051 A 
ATOM     71  C   UNL A   1      32.802  17.027  25.563  1.00  0.00     0.166 A 
ATOM     72  C   UNL A   1      33.733  16.473  24.720  1.00  0.00     0.165 A 
ATOM     73  O   UNL A   1      31.992  16.093  26.128  1.00  0.00    -0.454 OA
ATOM     74  O   UNL A   1      33.619  15.122  24.633  1.00  0.00    -0.454 OA
ATOM     75  C   UNL A   1      32.504  14.889  25.520  1.00  0.00     0.468 C 
ENDBRANCH  64  67
BRANCH  65  76
ATOM     76  C   UNL A   1      32.842  23.391  22.382  1.00  0.00     0.277 C 
ATOM     77  O   UNL A   1      33.276  23.323  21.230  1.00  0.00    -0.268 OA
BRANCH  76  78
ATOM     78  C   UNL A   1      31.752  24.409  22.763  1.00  0.00     0.363 C 
BRANCH  78  79
ATOM     79  N   UNL A   1      32.165  25.826  22.845  1.00  0.00    -0.323 N 
ATOM     80  C   UNL A   1      32.600  26.237  24.190  1.00  0.00     0.291 C 
ATOM     81  C   UNL A   1      31.260  26.845  22.299  1.00  0.00     0.291 C 
ATOM     82  H   UNL A   1      32.957  25.805  22.204  1.00  0.00     0.348 HD
ATOM     83  C   UNL A   1      31.443  26.614  25.123  1.00  0.00     0.221 C 
ATOM     84  C   UNL A   1      30.118  27.256  23.241  1.00  0.00     0.221 C 
ATOM     85  O   UNL A   1      30.585  27.604  24.551  1.00  0.00    -0.370 OA
ENDBRANCH  78  79
ENDBRANCH  76  78
ENDBRANCH  65  76
ENDBRANCH  59  62
ENDBRANCH  57  58
ENDBRANCH   1  57
TORSDOF 14
ENDMDL
MODEL 3
REMARK VINA RESULT:     -12.0      3.878      8.670
REMARK SMILES O=C(NCCCNC(=O)[C@@H]1CN(C(=O)C[NH+]2CCOCC2)C[C@H]1c1ccc2c(c1)OCO2)c1ccc(-c2c3nc(c(-c4ccccc4)c4ccc([nH]4)c(-c4ccccc4)c4nc(c(-c5ccccc5)c5ccc2[nH]5)C=C4)C=C3)cc1
REMARK SMILES IDX 5 1 4 2 3 3 1 4 2 5 33 7 34 8 80 9 35 10 79 11 36 12 37 13
REMARK SMILES IDX 38 14 73 15 39 16 78 17 72 18 74 19 40 20 77 21 71 22 70 23
REMARK SMILES IDX 41 25 63 26 48 27 62 28 49 29 52 30 61 31 75 32 50 33 51 34
REMARK SMILES IDX 60 36 76 37 53 38 42 39 43 40 47 41 44 42 46 43 45 44 64 45
REMARK SMILES IDX 65 46 69 47 66 48 68 49 67 50 54 51 55 52 59 53 56 54 58 55
REMARK SMILES IDX 57 56 6 57 7 58 8 59 9 61 10 62 11 63 23 64 12 65 22 66
REMARK SMILES IDX 24 67 25 68 29 69 26 70 28 71 27 72 30 73 32 74 31 75 13 76
REMARK SMILES IDX 14 77 15 78 16 79 17 80 21 81 18 83 20 84 19 85
REMARK H PARENT 3 6 74 24 52 35 7 60 16 82
REMARK Flexibility Score: inf
ROOT
ATOM      1  C   UNL A   1      38.418  20.022  25.099  1.00  0.00     0.042 C 
ENDROOT
BRANCH   1   2
ATOM      2  C   UNL A   1      39.323  19.821  26.304  1.00  0.00     0.118 C 
BRANCH   2   3
ATOM      3  N   UNL A   1      40.601  19.220  25.941  1.00  0.00    -0.352 N 
ATOM      4  O   UNL A   1      42.765  19.184  25.316  1.00  0.00    -0.269 OA
ATOM      5  C   UNL A   1      41.853  19.783  25.868  1.00  0.00     0.251 C 
ATOM      6  H   UNL A   1      40.560  18.263  25.712  1.00  0.00     0.163 HD
BRANCH   5   7
ATOM      7  C   UNL A   1      42.082  21.122  26.444  1.00  0.00     0.039 A 
ATOM      8  C   UNL A   1      42.267  22.224  25.609  1.00  0.00     0.014 A 
ATOM      9  C   UNL A   1      42.106  21.279  27.832  1.00  0.00     0.014 A 
ATOM     10  C   UNL A   1      42.666  23.436  26.149  1.00  0.00     0.010 A 
ATOM     11  C   UNL A   1      42.384  22.534  28.378  1.00  0.00     0.010 A 
ATOM     12  C   UNL A   1      42.703  23.613  27.540  1.00  0.00    -0.014 A 
BRANCH  12  13
ATOM     13  C   UNL A   1      43.016  24.957  28.082  1.00  0.00     0.031 A 
ATOM     14  C   UNL A   1      41.933  25.963  28.348  1.00  0.00     0.074 A 
ATOM     15  C   UNL A   1      44.301  25.251  28.362  1.00  0.00     0.049 A 
ATOM     16  N   UNL A   1      42.038  27.169  28.848  1.00  0.00    -0.248 NA
ATOM     17  C   UNL A   1      40.557  25.572  28.006  1.00  0.00     0.031 C 
ATOM     18  C   UNL A   1      45.438  24.350  28.151  1.00  0.00     0.029 A 
ATOM     19  N   UNL A   1      44.864  26.373  28.911  1.00  0.00    -0.354 N 
ATOM     20  C   UNL A   1      40.751  27.691  28.852  1.00  0.00     0.074 A 
ATOM     21  C   UNL A   1      39.885  26.680  28.282  1.00  0.00     0.031 C 
ATOM     22  C   UNL A   1      46.550  24.928  28.624  1.00  0.00     0.029 A 
ATOM     23  C   UNL A   1      46.220  26.266  29.095  1.00  0.00     0.049 A 
ATOM     24  H   UNL A   1      44.347  27.175  29.150  1.00  0.00     0.167 HD
ATOM     25  C   UNL A   1      40.331  28.902  29.292  1.00  0.00     0.031 A 
ATOM     26  C   UNL A   1      47.110  27.154  29.572  1.00  0.00     0.031 A 
ATOM     27  C   UNL A   1      41.201  29.907  29.849  1.00  0.00     0.049 A 
ATOM     28  C   UNL A   1      46.625  28.505  30.004  1.00  0.00     0.074 A 
ATOM     29  C   UNL A   1      40.870  31.153  30.352  1.00  0.00     0.029 A 
ATOM     30  N   UNL A   1      42.579  29.784  29.963  1.00  0.00    -0.354 N 
ATOM     31  N   UNL A   1      45.401  28.971  30.032  1.00  0.00    -0.248 NA
ATOM     32  C   UNL A   1      47.647  29.450  30.468  1.00  0.00     0.031 C 
ATOM     33  C   UNL A   1      42.053  31.809  30.708  1.00  0.00     0.029 A 
ATOM     34  C   UNL A   1      43.115  30.944  30.498  1.00  0.00     0.049 A 
ATOM     35  H   UNL A   1      43.098  28.989  29.703  1.00  0.00     0.167 HD
ATOM     36  C   UNL A   1      45.500  30.257  30.543  1.00  0.00     0.074 A 
ATOM     37  C   UNL A   1      46.903  30.488  30.824  1.00  0.00     0.031 C 
ATOM     38  C   UNL A   1      44.516  31.163  30.764  1.00  0.00     0.031 A 
BRANCH  25  39
ATOM     39  C   UNL A   1      38.867  29.223  29.141  1.00  0.00    -0.014 A 
ATOM     40  C   UNL A   1      37.958  29.043  30.196  1.00  0.00     0.009 A 
ATOM     41  C   UNL A   1      38.391  29.728  27.921  1.00  0.00     0.009 A 
ATOM     42  C   UNL A   1      36.599  29.316  30.016  1.00  0.00     0.001 A 
ATOM     43  C   UNL A   1      37.038  30.031  27.753  1.00  0.00     0.001 A 
ATOM     44  C   UNL A   1      36.141  29.812  28.797  1.00  0.00     0.000 A 
ENDBRANCH  25  39
BRANCH  26  45
ATOM     45  C   UNL A   1      48.545  26.782  29.660  1.00  0.00    -0.014 A 
ATOM     46  C   UNL A   1      49.049  26.154  30.807  1.00  0.00     0.009 A 
ATOM     47  C   UNL A   1      49.412  27.024  28.581  1.00  0.00     0.009 A 
ATOM     48  C   UNL A   1      50.395  25.792  30.881  1.00  0.00     0.001 A 
ATOM     49  C   UNL A   1      50.750  26.631  28.644  1.00  0.00     0.001 A 
ATOM     50  C   UNL A   1      51.242  26.023  29.797  1.00  0.00     0.000 A 
ENDBRANCH  26  45
BRANCH  38  51
ATOM     51  C   UNL A   1      44.922  32.473  31.380  1.00  0.00    -0.014 A 
ATOM     52  C   UNL A   1      44.978  32.643  32.772  1.00  0.00     0.009 A 
ATOM     53  C   UNL A   1      45.276  33.547  30.548  1.00  0.00     0.009 A 
ATOM     54  C   UNL A   1      45.343  33.877  33.317  1.00  0.00     0.001 A 
ATOM     55  C   UNL A   1      45.673  34.767  31.096  1.00  0.00     0.001 A 
ATOM     56  C   UNL A   1      45.694  34.935  32.479  1.00  0.00     0.000 A 
ENDBRANCH  38  51
ENDBRANCH  12  13
ENDBRANCH   5   7
ENDBRANCH   2   3
ENDBRANCH   1   2
BRANCH   1  57
ATOM     57  C   UNL A   1      37.874  21.436  25.004  1.00  0.00     0.117 C 
BRANCH  57  58
ATOM     58  N   UNL A   1      36.921  21.705  26.064  1.00  0.00    -0.356 N 
ATOM     59  C   UNL A   1      35.564  21.677  26.037  1.00  0.00     0.225 C 
ATOM     60  H   UNL A   1      37.317  21.941  26.934  1.00  0.00     0.163 HD
ATOM     61  O   UNL A   1      34.959  21.899  27.085  1.00  0.00    -0.275 OA
BRANCH  59  62
ATOM     62  C   UNL A   1      34.853  21.414  24.733  1.00  0.00     0.107 C 
ATOM     63  C   UNL A   1      34.609  22.749  24.075  1.00  0.00     0.133 C 
ATOM     64  C   UNL A   1      33.453  20.795  24.920  1.00  0.00     0.053 C 
ATOM     65  N   UNL A   1      33.411  22.573  23.294  1.00  0.00    -0.336 N 
ATOM     66  C   UNL A   1      32.684  21.380  23.713  1.00  0.00     0.129 C 
BRANCH  64  67
ATOM     67  C   UNL A   1      33.620  19.281  25.028  1.00  0.00    -0.038 A 
ATOM     68  C   UNL A   1      34.685  18.665  24.313  1.00  0.00     0.008 A 
ATOM     69  C   UNL A   1      32.698  18.457  25.687  1.00  0.00     0.054 A 
ATOM     70  C   UNL A   1      34.761  17.278  24.149  1.00  0.00     0.051 A 
ATOM     71  C   UNL A   1      32.804  17.090  25.519  1.00  0.00     0.166 A 
ATOM     72  C   UNL A   1      33.790  16.519  24.753  1.00  0.00     0.165 A 
ATOM     73  O   UNL A   1      31.948  16.167  26.033  1.00  0.00    -0.454 OA
ATOM     74  O   UNL A   1      33.671  15.168  24.671  1.00  0.00    -0.454 OA
ATOM     75  C   UNL A   1      32.493  14.954  25.476  1.00  0.00     0.468 C 
ENDBRANCH  64  67
BRANCH  65  76
ATOM     76  C   UNL A   1      32.932  23.398  22.295  1.00  0.00     0.277 C 
ATOM     77  O   UNL A   1      33.305  23.256  21.129  1.00  0.00    -0.268 OA
BRANCH  76  78
ATOM     78  C   UNL A   1      31.923  24.494  22.680  1.00  0.00     0.363 C 
BRANCH  78  79
ATOM     79  N   UNL A   1      32.164  25.843  22.126  1.00  0.00    -0.323 N 
ATOM     80  C   UNL A   1      33.489  26.391  22.461  1.00  0.00     0.291 C 
ATOM     81  C   UNL A   1      31.145  26.877  22.347  1.00  0.00     0.291 C 
ATOM     82  H   UNL A   1      32.108  25.626  21.132  1.00  0.00     0.348 HD
ATOM     83  C   UNL A   1      33.551  27.047  23.846  1.00  0.00     0.221 C 
ATOM     84  C   UNL A   1      31.221  27.566  23.718  1.00  0.00     0.221 C 
ATOM     85  O   UNL A   1      32.539  28.043  24.021  1.00  0.00    -0.370 OA
ENDBRANCH  78  79
ENDBRANCH  76  78
ENDBRANCH  65  76
ENDBRANCH  59  62
ENDBRANCH  57  58
ENDBRANCH   1  57
TORSDOF 14
ENDMDL
