MODEL 1
REMARK VINA RESULT:     -11.2      0.000      0.000
REMARK SMILES O=C(CC[N@@H+]1C[C@@H](c2ccccc2)[C@@H]2[C@H]1[C@H]1CC[N@H+]2CC1)NCCCNC(=O)c1ccc(-c2c3nc(c(-c4ccccc4)c4ccc([nH]4)c(-c4ccccc4)c4nc(c(-c5ccccc5)c5ccc2[nH]5)C=C4)C=C3)cc1
REMARK SMILES IDX 23 1 22 2 1 3 2 4 3 6 4 7 5 8 6 9 15 10 7 12 14 13 16 14
REMARK SMILES IDX 19 15 17 16 21 17 18 18 20 19 8 21 9 22 13 23 10 24 12 25
REMARK SMILES IDX 11 26 24 27 25 28 26 29 27 30 28 32 29 33 30 34 76 35 31 36
REMARK SMILES IDX 75 37 32 38 33 39 34 40 69 41 35 42 74 43 68 44 70 45 36 46
REMARK SMILES IDX 73 47 67 48 66 49 37 51 59 52 44 53 58 54 45 55 48 56 57 57
REMARK SMILES IDX 71 58 46 59 47 60 56 62 72 63 49 64 38 65 39 66 43 67 40 68
REMARK SMILES IDX 42 69 41 70 60 71 61 72 65 73 62 74 64 75 63 76 50 77 51 78
REMARK SMILES IDX 55 79 52 80 54 81 53 82
REMARK H PARENT 22 5 5 11 19 20 26 31 70 50 48 61
REMARK Flexibility Score: inf
ROOT
ATOM      1  C   UNL A   1      31.531  28.407  25.718  1.00  0.00     0.117 C 
ENDROOT
BRANCH   1   2
ATOM      2  N   UNL A   1      31.082  27.447  24.734  1.00  0.00    -0.356 N 
ATOM      3  O   UNL A   1      33.107  27.194  23.686  1.00  0.00    -0.275 OA
ATOM      4  C   UNL A   1      31.926  26.881  23.811  1.00  0.00     0.225 C 
ATOM      5  H   UNL A   1      30.131  27.190  24.725  1.00  0.00     0.163 HD
BRANCH   4   6
ATOM      6  C   UNL A   1      31.268  25.874  22.891  1.00  0.00     0.161 C 
BRANCH   6   7
ATOM      7  C   UNL A   1      32.216  24.764  22.435  1.00  0.00     0.272 C 
BRANCH   7   8
ATOM      8  N   UNL A   1      33.138  24.276  23.490  1.00  0.00    -0.326 N 
ATOM      9  C   UNL A   1      34.379  23.719  22.842  1.00  0.00     0.277 C 
ATOM     10  C   UNL A   1      32.511  23.211  24.330  1.00  0.00     0.247 C 
ATOM     11  H   UNL A   1      33.365  25.065  24.096  1.00  0.00     0.348 HD
ATOM     12  C   UNL A   1      35.012  22.501  23.583  1.00  0.00     0.139 C 
ATOM     13  C   UNL A   1      33.810  21.877  24.315  1.00  0.00     0.256 C 
ATOM     14  C   UNL A   1      32.145  23.646  26.078  1.00  0.00     0.065 C 
ATOM     15  N   UNL A   1      33.903  21.009  25.688  1.00  0.00    -0.327 N 
ATOM     16  C   UNL A   1      33.479  23.241  26.083  1.00  0.00     0.071 C 
ATOM     17  C   UNL A   1      32.503  22.737  27.622  1.00  0.00     0.071 C 
ATOM     18  C   UNL A   1      32.629  21.513  25.826  1.00  0.00     0.263 C 
ATOM     19  C   UNL A   1      33.912  21.484  27.266  1.00  0.00     0.263 C 
ATOM     20  H   UNL A   1      34.546  20.228  25.547  1.00  0.00     0.348 HD
BRANCH  12  21
ATOM     21  C   UNL A   1      36.268  22.673  24.420  1.00  0.00    -0.033 A 
ATOM     22  C   UNL A   1      36.606  23.848  25.105  1.00  0.00     0.004 A 
ATOM     23  C   UNL A   1      37.110  21.555  24.576  1.00  0.00     0.004 A 
ATOM     24  C   UNL A   1      37.694  23.877  25.984  1.00  0.00     0.000 A 
ATOM     25  C   UNL A   1      38.220  21.596  25.420  1.00  0.00     0.000 A 
ATOM     26  C   UNL A   1      38.498  22.751  26.142  1.00  0.00     0.000 A 
ENDBRANCH  12  21
ENDBRANCH   7   8
ENDBRANCH   6   7
ENDBRANCH   4   6
ENDBRANCH   1   2
BRANCH   1  27
ATOM     27  C   UNL A   1      32.251  27.753  26.891  1.00  0.00     0.042 C 
BRANCH  27  28
ATOM     28  C   UNL A   1      33.595  28.381  27.245  1.00  0.00     0.118 C 
BRANCH  28  29
ATOM     29  N   UNL A   1      33.512  29.802  27.547  1.00  0.00    -0.352 N 
ATOM     30  C   UNL A   1      34.432  30.657  28.100  1.00  0.00     0.251 C 
ATOM     31  H   UNL A   1      32.650  30.219  27.318  1.00  0.00     0.163 HD
ATOM     32  O   UNL A   1      34.098  31.811  28.350  1.00  0.00    -0.269 OA
BRANCH  30  33
ATOM     33  C   UNL A   1      35.810  30.214  28.417  1.00  0.00     0.039 A 
ATOM     34  C   UNL A   1      36.780  30.302  27.413  1.00  0.00     0.014 A 
ATOM     35  C   UNL A   1      36.147  29.656  29.653  1.00  0.00     0.014 A 
ATOM     36  C   UNL A   1      38.086  29.867  27.657  1.00  0.00     0.010 A 
ATOM     37  C   UNL A   1      37.468  29.293  29.922  1.00  0.00     0.010 A 
ATOM     38  C   UNL A   1      38.448  29.375  28.921  1.00  0.00    -0.014 A 
BRANCH  38  39
ATOM     39  C   UNL A   1      39.837  28.912  29.185  1.00  0.00     0.031 A 
ATOM     40  C   UNL A   1      40.811  29.800  29.913  1.00  0.00     0.074 A 
ATOM     41  C   UNL A   1      40.235  27.698  28.757  1.00  0.00     0.049 A 
ATOM     42  N   UNL A   1      42.057  29.565  30.244  1.00  0.00    -0.248 NA
ATOM     43  C   UNL A   1      40.332  31.136  30.305  1.00  0.00     0.031 C 
ATOM     44  C   UNL A   1      39.406  26.747  28.011  1.00  0.00     0.029 A 
ATOM     45  N   UNL A   1      41.439  27.052  28.893  1.00  0.00    -0.354 N 
ATOM     46  C   UNL A   1      42.509  30.721  30.868  1.00  0.00     0.074 A 
ATOM     47  C   UNL A   1      41.426  31.677  30.820  1.00  0.00     0.031 C 
ATOM     48  C   UNL A   1      40.115  25.629  27.788  1.00  0.00     0.029 A 
ATOM     49  C   UNL A   1      41.456  25.793  28.341  1.00  0.00     0.049 A 
ATOM     50  H   UNL A   1      42.217  27.452  29.344  1.00  0.00     0.167 HD
ATOM     51  C   UNL A   1      43.709  30.964  31.450  1.00  0.00     0.031 A 
ATOM     52  C   UNL A   1      42.437  24.873  28.287  1.00  0.00     0.031 A 
ATOM     53  C   UNL A   1      44.790  30.015  31.508  1.00  0.00     0.049 A 
ATOM     54  C   UNL A   1      43.765  25.170  28.930  1.00  0.00     0.074 A 
ATOM     55  C   UNL A   1      46.027  30.152  32.116  1.00  0.00     0.029 A 
ATOM     56  N   UNL A   1      44.764  28.753  30.935  1.00  0.00    -0.354 N 
ATOM     57  N   UNL A   1      44.152  26.244  29.573  1.00  0.00    -0.248 NA
ATOM     58  C   UNL A   1      44.785  24.114  28.853  1.00  0.00     0.031 C 
ATOM     59  C   UNL A   1      46.769  28.994  31.865  1.00  0.00     0.029 A 
ATOM     60  C   UNL A   1      45.970  28.109  31.159  1.00  0.00     0.049 A 
ATOM     61  H   UNL A   1      44.002  28.371  30.443  1.00  0.00     0.167 HD
ATOM     62  C   UNL A   1      45.444  25.979  30.012  1.00  0.00     0.074 A 
ATOM     63  C   UNL A   1      45.768  24.638  29.572  1.00  0.00     0.031 C 
ATOM     64  C   UNL A   1      46.283  26.773  30.721  1.00  0.00     0.031 A 
BRANCH  51  65
ATOM     65  C   UNL A   1      43.917  32.320  32.067  1.00  0.00    -0.014 A 
ATOM     66  C   UNL A   1      43.601  32.564  33.414  1.00  0.00     0.009 A 
ATOM     67  C   UNL A   1      44.465  33.361  31.301  1.00  0.00     0.009 A 
ATOM     68  C   UNL A   1      43.790  33.832  33.968  1.00  0.00     0.001 A 
ATOM     69  C   UNL A   1      44.683  34.618  31.867  1.00  0.00     0.001 A 
ATOM     70  C   UNL A   1      44.335  34.857  33.195  1.00  0.00     0.000 A 
ENDBRANCH  51  65
BRANCH  52  71
ATOM     71  C   UNL A   1      42.198  23.564  27.622  1.00  0.00    -0.014 A 
ATOM     72  C   UNL A   1      41.688  22.477  28.349  1.00  0.00     0.009 A 
ATOM     73  C   UNL A   1      42.497  23.390  26.263  1.00  0.00     0.009 A 
ATOM     74  C   UNL A   1      41.513  21.234  27.736  1.00  0.00     0.001 A 
ATOM     75  C   UNL A   1      42.291  22.155  25.644  1.00  0.00     0.001 A 
ATOM     76  C   UNL A   1      41.811  21.075  26.384  1.00  0.00     0.000 A 
ENDBRANCH  52  71
BRANCH  64  77
ATOM     77  C   UNL A   1      47.615  26.193  31.112  1.00  0.00    -0.014 A 
ATOM     78  C   UNL A   1      47.828  25.621  32.375  1.00  0.00     0.009 A 
ATOM     79  C   UNL A   1      48.667  26.195  30.181  1.00  0.00     0.009 A 
ATOM     80  C   UNL A   1      49.081  25.104  32.714  1.00  0.00     0.001 A 
ATOM     81  C   UNL A   1      49.907  25.648  30.511  1.00  0.00     0.001 A 
ATOM     82  C   UNL A   1      50.117  25.114  31.781  1.00  0.00     0.000 A 
ENDBRANCH  64  77
ENDBRANCH  38  39
ENDBRANCH  30  33
ENDBRANCH  28  29
ENDBRANCH  27  28
ENDBRANCH   1  27
TORSDOF 13
ENDMDL
MODEL 2
REMARK VINA RESULT:     -11.1      2.327      7.721
REMARK SMILES O=C(CC[N@@H+]1C[C@@H](c2ccccc2)[C@@H]2[C@H]1[C@H]1CC[N@H+]2CC1)NCCCNC(=O)c1ccc(-c2c3nc(c(-c4ccccc4)c4ccc([nH]4)c(-c4ccccc4)c4nc(c(-c5ccccc5)c5ccc2[nH]5)C=C4)C=C3)cc1
REMARK SMILES IDX 23 1 22 2 1 3 2 4 3 6 4 7 5 8 6 9 15 10 7 12 14 13 16 14
REMARK SMILES IDX 19 15 17 16 21 17 18 18 20 19 8 21 9 22 13 23 10 24 12 25
REMARK SMILES IDX 11 26 24 27 25 28 26 29 27 30 28 32 29 33 30 34 76 35 31 36
REMARK SMILES IDX 75 37 32 38 33 39 34 40 69 41 35 42 74 43 68 44 70 45 36 46
REMARK SMILES IDX 73 47 67 48 66 49 37 51 59 52 44 53 58 54 45 55 48 56 57 57
REMARK SMILES IDX 71 58 46 59 47 60 56 62 72 63 49 64 38 65 39 66 43 67 40 68
REMARK SMILES IDX 42 69 41 70 60 71 61 72 65 73 62 74 64 75 63 76 50 77 51 78
REMARK SMILES IDX 55 79 52 80 54 81 53 82
REMARK H PARENT 22 5 5 11 19 20 26 31 70 50 48 61
REMARK Flexibility Score: inf
ROOT
ATOM      1  C   UNL A   1      35.216  22.345  26.135  1.00  0.00     0.117 C 
ENDROOT
BRANCH   1   2
ATOM      2  N   UNL A   1      33.802  22.496  26.397  1.00  0.00    -0.356 N 
ATOM      3  O   UNL A   1      33.148  22.610  24.200  1.00  0.00    -0.275 OA
ATOM      4  C   UNL A   1      32.866  22.577  25.395  1.00  0.00     0.225 C 
ATOM      5  H   UNL A   1      33.498  22.544  27.332  1.00  0.00     0.163 HD
BRANCH   4   6
ATOM      6  C   UNL A   1      31.437  22.699  25.878  1.00  0.00     0.161 C 
BRANCH   6   7
ATOM      7  C   UNL A   1      30.704  23.909  25.297  1.00  0.00     0.272 C 
BRANCH   7   8
ATOM      8  N   UNL A   1      31.514  25.152  25.256  1.00  0.00    -0.326 N 
ATOM      9  C   UNL A   1      31.047  26.081  26.347  1.00  0.00     0.277 C 
ATOM     10  C   UNL A   1      31.396  25.852  23.942  1.00  0.00     0.247 C 
ATOM     11  H   UNL A   1      32.492  24.892  25.391  1.00  0.00     0.348 HD
ATOM     12  C   UNL A   1      31.122  27.597  25.990  1.00  0.00     0.139 C 
ATOM     13  C   UNL A   1      31.005  27.598  24.454  1.00  0.00     0.256 C 
ATOM     14  C   UNL A   1      32.898  25.879  22.883  1.00  0.00     0.065 C 
ATOM     15  N   UNL A   1      31.616  28.744  23.474  1.00  0.00    -0.327 N 
ATOM     16  C   UNL A   1      33.052  26.961  23.750  1.00  0.00     0.071 C 
ATOM     17  C   UNL A   1      33.695  27.265  21.998  1.00  0.00     0.071 C 
ATOM     18  C   UNL A   1      31.646  27.670  22.613  1.00  0.00     0.263 C 
ATOM     19  C   UNL A   1      33.114  28.905  22.807  1.00  0.00     0.263 C 
ATOM     20  H   UNL A   1      31.251  29.654  23.756  1.00  0.00     0.348 HD
BRANCH  12  21
ATOM     21  C   UNL A   1      32.226  28.472  26.560  1.00  0.00    -0.033 A 
ATOM     22  C   UNL A   1      33.526  28.026  26.833  1.00  0.00     0.004 A 
ATOM     23  C   UNL A   1      31.943  29.837  26.760  1.00  0.00     0.004 A 
ATOM     24  C   UNL A   1      34.529  28.928  27.204  1.00  0.00     0.000 A 
ATOM     25  C   UNL A   1      32.933  30.730  27.171  1.00  0.00     0.000 A 
ATOM     26  C   UNL A   1      34.233  30.278  27.370  1.00  0.00     0.000 A 
ENDBRANCH  12  21
ENDBRANCH   7   8
ENDBRANCH   6   7
ENDBRANCH   4   6
ENDBRANCH   1   2
BRANCH   1  27
ATOM     27  C   UNL A   1      35.925  23.681  25.949  1.00  0.00     0.042 C 
BRANCH  27  28
ATOM     28  C   UNL A   1      37.078  23.658  24.951  1.00  0.00     0.118 C 
BRANCH  28  29
ATOM     29  N   UNL A   1      38.121  22.702  25.288  1.00  0.00    -0.352 N 
ATOM     30  C   UNL A   1      39.259  22.843  26.042  1.00  0.00     0.251 C 
ATOM     31  H   UNL A   1      37.989  21.802  24.911  1.00  0.00     0.163 HD
ATOM     32  O   UNL A   1      40.049  21.906  26.110  1.00  0.00    -0.269 OA
BRANCH  30  33
ATOM     33  C   UNL A   1      39.563  24.104  26.758  1.00  0.00     0.039 A 
ATOM     34  C   UNL A   1      40.312  25.079  26.091  1.00  0.00     0.014 A 
ATOM     35  C   UNL A   1      39.184  24.316  28.086  1.00  0.00     0.014 A 
ATOM     36  C   UNL A   1      40.649  26.271  26.737  1.00  0.00     0.010 A 
ATOM     37  C   UNL A   1      39.453  25.538  28.706  1.00  0.00     0.010 A 
ATOM     38  C   UNL A   1      40.206  26.521  28.046  1.00  0.00    -0.014 A 
BRANCH  38  39
ATOM     39  C   UNL A   1      40.562  27.789  28.738  1.00  0.00     0.031 A 
ATOM     40  C   UNL A   1      41.942  27.985  29.309  1.00  0.00     0.074 A 
ATOM     41  C   UNL A   1      39.642  28.765  28.872  1.00  0.00     0.049 A 
ATOM     42  N   UNL A   1      42.439  29.024  29.934  1.00  0.00    -0.248 NA
ATOM     43  C   UNL A   1      42.883  26.860  29.179  1.00  0.00     0.031 C 
ATOM     44  C   UNL A   1      38.259  28.697  28.396  1.00  0.00     0.029 A 
ATOM     45  N   UNL A   1      39.736  30.010  29.444  1.00  0.00    -0.354 N 
ATOM     46  C   UNL A   1      43.739  28.673  30.280  1.00  0.00     0.074 A 
ATOM     47  C   UNL A   1      43.936  27.307  29.847  1.00  0.00     0.031 C 
ATOM     48  C   UNL A   1      37.645  29.862  28.664  1.00  0.00     0.029 A 
ATOM     49  C   UNL A   1      38.576  30.744  29.361  1.00  0.00     0.049 A 
ATOM     50  H   UNL A   1      40.556  30.345  29.873  1.00  0.00     0.167 HD
ATOM     51  C   UNL A   1      44.693  29.423  30.883  1.00  0.00     0.031 A 
ATOM     52  C   UNL A   1      38.294  31.988  29.793  1.00  0.00     0.031 A 
ATOM     53  C   UNL A   1      44.507  30.784  31.311  1.00  0.00     0.049 A 
ATOM     54  C   UNL A   1      39.367  32.796  30.471  1.00  0.00     0.074 A 
ATOM     55  C   UNL A   1      45.429  31.641  31.889  1.00  0.00     0.029 A 
ATOM     56  N   UNL A   1      43.317  31.488  31.207  1.00  0.00    -0.354 N 
ATOM     57  N   UNL A   1      40.610  32.471  30.730  1.00  0.00    -0.248 NA
ATOM     58  C   UNL A   1      38.998  34.153  30.899  1.00  0.00     0.031 C 
ATOM     59  C   UNL A   1      44.781  32.845  32.185  1.00  0.00     0.029 A 
ATOM     60  C   UNL A   1      43.476  32.761  31.730  1.00  0.00     0.049 A 
ATOM     61  H   UNL A   1      42.484  31.135  30.821  1.00  0.00     0.167 HD
ATOM     62  C   UNL A   1      41.182  33.595  31.313  1.00  0.00     0.074 A 
ATOM     63  C   UNL A   1      40.153  34.613  31.358  1.00  0.00     0.031 C 
ATOM     64  C   UNL A   1      42.448  33.769  31.766  1.00  0.00     0.031 A 
BRANCH  51  65
ATOM     65  C   UNL A   1      46.031  28.777  31.123  1.00  0.00    -0.014 A 
ATOM     66  C   UNL A   1      46.299  28.074  32.310  1.00  0.00     0.009 A 
ATOM     67  C   UNL A   1      47.028  28.845  30.137  1.00  0.00     0.009 A 
ATOM     68  C   UNL A   1      47.550  27.491  32.520  1.00  0.00     0.001 A 
ATOM     69  C   UNL A   1      48.266  28.233  30.337  1.00  0.00     0.001 A 
ATOM     70  C   UNL A   1      48.531  27.566  31.532  1.00  0.00     0.000 A 
ENDBRANCH  51  65
BRANCH  52  71
ATOM     71  C   UNL A   1      36.941  32.564  29.575  1.00  0.00    -0.014 A 
ATOM     72  C   UNL A   1      35.939  32.423  30.550  1.00  0.00     0.009 A 
ATOM     73  C   UNL A   1      36.637  33.242  28.385  1.00  0.00     0.009 A 
ATOM     74  C   UNL A   1      34.654  32.919  30.321  1.00  0.00     0.001 A 
ATOM     75  C   UNL A   1      35.359  33.765  28.173  1.00  0.00     0.001 A 
ATOM     76  C   UNL A   1      34.366  33.593  29.136  1.00  0.00     0.000 A 
ENDBRANCH  52  71
BRANCH  64  77
ATOM     77  C   UNL A   1      42.807  35.129  32.301  1.00  0.00    -0.014 A 
ATOM     78  C   UNL A   1      42.501  35.509  33.616  1.00  0.00     0.009 A 
ATOM     79  C   UNL A   1      43.493  36.034  31.475  1.00  0.00     0.009 A 
ATOM     80  C   UNL A   1      42.835  36.784  34.079  1.00  0.00     0.001 A 
ATOM     81  C   UNL A   1      43.854  37.295  31.950  1.00  0.00     0.001 A 
ATOM     82  C   UNL A   1      43.514  37.674  33.247  1.00  0.00     0.000 A 
ENDBRANCH  64  77
ENDBRANCH  38  39
ENDBRANCH  30  33
ENDBRANCH  28  29
ENDBRANCH  27  28
ENDBRANCH   1  27
TORSDOF 13
ENDMDL
MODEL 3
REMARK VINA RESULT:     -11.0      2.380      7.589
REMARK SMILES O=C(CC[N@@H+]1C[C@@H](c2ccccc2)[C@@H]2[C@H]1[C@H]1CC[N@H+]2CC1)NCCCNC(=O)c1ccc(-c2c3nc(c(-c4ccccc4)c4ccc([nH]4)c(-c4ccccc4)c4nc(c(-c5ccccc5)c5ccc2[nH]5)C=C4)C=C3)cc1
REMARK SMILES IDX 23 1 22 2 1 3 2 4 3 6 4 7 5 8 6 9 15 10 7 12 14 13 16 14
REMARK SMILES IDX 19 15 17 16 21 17 18 18 20 19 8 21 9 22 13 23 10 24 12 25
REMARK SMILES IDX 11 26 24 27 25 28 26 29 27 30 28 32 29 33 30 34 76 35 31 36
REMARK SMILES IDX 75 37 32 38 33 39 34 40 69 41 35 42 74 43 68 44 70 45 36 46
REMARK SMILES IDX 73 47 67 48 66 49 37 51 59 52 44 53 58 54 45 55 48 56 57 57
REMARK SMILES IDX 71 58 46 59 47 60 56 62 72 63 49 64 38 65 39 66 43 67 40 68
REMARK SMILES IDX 42 69 41 70 60 71 61 72 65 73 62 74 64 75 63 76 50 77 51 78
REMARK SMILES IDX 55 79 52 80 54 81 53 82
REMARK H PARENT 22 5 5 11 19 20 26 31 70 50 48 61
REMARK Flexibility Score: inf
ROOT
ATOM      1  C   UNL A   1      35.277  22.109  26.130  1.00  0.00     0.117 C 
ENDROOT
BRANCH   1   2
ATOM      2  N   UNL A   1      33.973  22.021  25.512  1.00  0.00    -0.356 N 
ATOM      3  O   UNL A   1      32.791  22.844  27.299  1.00  0.00    -0.275 OA
ATOM      4  C   UNL A   1      32.825  22.439  26.140  1.00  0.00     0.225 C 
ATOM      5  H   UNL A   1      33.904  21.645  24.605  1.00  0.00     0.163 HD
BRANCH   4   6
ATOM      6  C   UNL A   1      31.566  22.293  25.312  1.00  0.00     0.161 C 
BRANCH   6   7
ATOM      7  C   UNL A   1      30.716  23.564  25.277  1.00  0.00     0.272 C 
BRANCH   7   8
ATOM      8  N   UNL A   1      31.501  24.822  25.210  1.00  0.00    -0.326 N 
ATOM      9  C   UNL A   1      31.057  25.740  26.319  1.00  0.00     0.277 C 
ATOM     10  C   UNL A   1      31.321  25.522  23.902  1.00  0.00     0.247 C 
ATOM     11  H   UNL A   1      32.487  24.580  25.308  1.00  0.00     0.348 HD
ATOM     12  C   UNL A   1      31.091  27.258  25.963  1.00  0.00     0.139 C 
ATOM     13  C   UNL A   1      30.917  27.260  24.433  1.00  0.00     0.256 C 
ATOM     14  C   UNL A   1      32.783  25.580  22.789  1.00  0.00     0.065 C 
ATOM     15  N   UNL A   1      31.470  28.418  23.434  1.00  0.00    -0.327 N 
ATOM     16  C   UNL A   1      32.949  26.662  23.652  1.00  0.00     0.071 C 
ATOM     17  C   UNL A   1      33.521  26.981  21.879  1.00  0.00     0.071 C 
ATOM     18  C   UNL A   1      31.488  27.347  22.569  1.00  0.00     0.263 C 
ATOM     19  C   UNL A   1      32.940  28.609  22.713  1.00  0.00     0.263 C 
ATOM     20  H   UNL A   1      31.099  29.321  23.731  1.00  0.00     0.348 HD
BRANCH  12  21
ATOM     21  C   UNL A   1      32.198  28.153  26.494  1.00  0.00    -0.033 A 
ATOM     22  C   UNL A   1      33.531  27.751  26.652  1.00  0.00     0.004 A 
ATOM     23  C   UNL A   1      31.877  29.494  26.779  1.00  0.00     0.004 A 
ATOM     24  C   UNL A   1      34.523  28.677  26.993  1.00  0.00     0.000 A 
ATOM     25  C   UNL A   1      32.859  30.409  27.161  1.00  0.00     0.000 A 
ATOM     26  C   UNL A   1      34.186  30.005  27.245  1.00  0.00     0.000 A 
ENDBRANCH  12  21
ENDBRANCH   7   8
ENDBRANCH   6   7
ENDBRANCH   4   6
ENDBRANCH   1   2
BRANCH   1  27
ATOM     27  C   UNL A   1      35.852  23.519  26.090  1.00  0.00     0.042 C 
BRANCH  27  28
ATOM     28  C   UNL A   1      37.049  23.694  25.161  1.00  0.00     0.118 C 
BRANCH  28  29
ATOM     29  N   UNL A   1      38.136  22.766  25.430  1.00  0.00    -0.352 N 
ATOM     30  C   UNL A   1      39.313  22.935  26.114  1.00  0.00     0.251 C 
ATOM     31  H   UNL A   1      38.005  21.864  25.057  1.00  0.00     0.163 HD
ATOM     32  O   UNL A   1      40.131  22.020  26.130  1.00  0.00    -0.269 OA
BRANCH  30  33
ATOM     33  C   UNL A   1      39.625  24.202  26.817  1.00  0.00     0.039 A 
ATOM     34  C   UNL A   1      40.358  25.175  26.131  1.00  0.00     0.014 A 
ATOM     35  C   UNL A   1      39.270  24.421  28.151  1.00  0.00     0.014 A 
ATOM     36  C   UNL A   1      40.703  26.373  26.764  1.00  0.00     0.010 A 
ATOM     37  C   UNL A   1      39.546  25.646  28.758  1.00  0.00     0.010 A 
ATOM     38  C   UNL A   1      40.283  26.629  28.079  1.00  0.00    -0.014 A 
BRANCH  38  39
ATOM     39  C   UNL A   1      40.647  27.902  28.757  1.00  0.00     0.031 A 
ATOM     40  C   UNL A   1      39.634  29.008  28.896  1.00  0.00     0.074 A 
ATOM     41  C   UNL A   1      41.895  28.079  29.235  1.00  0.00     0.049 A 
ATOM     42  N   UNL A   1      39.763  30.182  29.464  1.00  0.00    -0.248 NA
ATOM     43  C   UNL A   1      38.306  28.775  28.304  1.00  0.00     0.031 C 
ATOM     44  C   UNL A   1      42.985  27.105  29.140  1.00  0.00     0.029 A 
ATOM     45  N   UNL A   1      42.454  29.140  29.902  1.00  0.00    -0.354 N 
ATOM     46  C   UNL A   1      38.544  30.826  29.286  1.00  0.00     0.074 A 
ATOM     47  C   UNL A   1      37.708  29.938  28.509  1.00  0.00     0.031 C 
ATOM     48  C   UNL A   1      44.070  27.601  29.758  1.00  0.00     0.029 A 
ATOM     49  C   UNL A   1      43.766  28.937  30.261  1.00  0.00     0.049 A 
ATOM     50  H   UNL A   1      41.963  29.969  30.106  1.00  0.00     0.167 HD
ATOM     51  C   UNL A   1      38.144  32.037  29.745  1.00  0.00     0.031 A 
ATOM     52  C   UNL A   1      44.627  29.733  30.924  1.00  0.00     0.031 A 
ATOM     53  C   UNL A   1      38.969  32.923  30.524  1.00  0.00     0.049 A 
ATOM     54  C   UNL A   1      44.162  31.078  31.412  1.00  0.00     0.074 A 
ATOM     55  C   UNL A   1      38.637  34.151  31.073  1.00  0.00     0.029 A 
ATOM     56  N   UNL A   1      40.290  32.677  30.864  1.00  0.00    -0.354 N 
ATOM     57  N   UNL A   1      42.986  31.643  31.292  1.00  0.00    -0.248 NA
ATOM     58  C   UNL A   1      45.146  31.888  32.146  1.00  0.00     0.031 C 
ATOM     59  C   UNL A   1      39.774  34.672  31.699  1.00  0.00     0.029 A 
ATOM     60  C   UNL A   1      40.793  33.739  31.598  1.00  0.00     0.049 A 
ATOM     61  H   UNL A   1      40.795  31.869  30.620  1.00  0.00     0.167 HD
ATOM     62  C   UNL A   1      43.075  32.853  31.968  1.00  0.00     0.074 A 
ATOM     63  C   UNL A   1      44.417  32.935  32.506  1.00  0.00     0.031 C 
ATOM     64  C   UNL A   1      42.128  33.809  32.132  1.00  0.00     0.031 A 
BRANCH  51  65
ATOM     65  C   UNL A   1      36.747  32.478  29.405  1.00  0.00    -0.014 A 
ATOM     66  C   UNL A   1      35.669  32.212  30.266  1.00  0.00     0.009 A 
ATOM     67  C   UNL A   1      36.507  33.197  28.223  1.00  0.00     0.009 A 
ATOM     68  C   UNL A   1      34.376  32.619  29.929  1.00  0.00     0.001 A 
ATOM     69  C   UNL A   1      35.219  33.631  27.905  1.00  0.00     0.001 A 
ATOM     70  C   UNL A   1      34.153  33.332  28.752  1.00  0.00     0.000 A 
ENDBRANCH  51  65
BRANCH  52  71
ATOM     71  C   UNL A   1      46.014  29.271  31.193  1.00  0.00    -0.014 A 
ATOM     72  C   UNL A   1      46.317  28.568  32.370  1.00  0.00     0.009 A 
ATOM     73  C   UNL A   1      47.047  29.547  30.284  1.00  0.00     0.009 A 
ATOM     74  C   UNL A   1      47.631  28.181  32.646  1.00  0.00     0.001 A 
ATOM     75  C   UNL A   1      48.353  29.130  30.548  1.00  0.00     0.001 A 
ATOM     76  C   UNL A   1      48.646  28.458  31.733  1.00  0.00     0.000 A 
ENDBRANCH  52  71
BRANCH  64  77
ATOM     77  C   UNL A   1      42.493  35.003  32.973  1.00  0.00    -0.014 A 
ATOM     78  C   UNL A   1      42.161  35.075  34.334  1.00  0.00     0.009 A 
ATOM     79  C   UNL A   1      43.209  36.061  32.392  1.00  0.00     0.009 A 
ATOM     80  C   UNL A   1      42.500  36.203  35.085  1.00  0.00     0.001 A 
ATOM     81  C   UNL A   1      43.575  37.173  33.152  1.00  0.00     0.001 A 
ATOM     82  C   UNL A   1      43.210  37.249  34.495  1.00  0.00     0.000 A 
ENDBRANCH  64  77
ENDBRANCH  38  39
ENDBRANCH  30  33
ENDBRANCH  28  29
ENDBRANCH  27  28
ENDBRANCH   1  27
TORSDOF 13
ENDMDL
