MODEL 1
REMARK VINA RESULT:     -11.9      0.000      0.000
REMARK SMILES O=C(NCCCNC(=O)c1ccc(-c2c3nc(c(-c4ccccc4)c4ccc([nH]4)c(-c4ccccc4)c4nc(c(-c5ccccc5)c5ccc2[nH]5)C=C4)C=C3)cc1)C1=Cc2cc(C(F)(F)F)ccc2O[C@@H]1C(F)(F)F
REMARK SMILES IDX 5 1 4 2 3 3 1 4 2 5 58 7 59 8 71 9 60 10 70 11 61 12 69 13
REMARK SMILES IDX 62 14 68 15 67 16 72 17 73 18 74 19 75 20 63 21 64 22 65 23
REMARK SMILES IDX 66 24 6 25 7 26 8 27 9 29 10 30 11 31 57 32 12 33 56 34
REMARK SMILES IDX 13 35 14 36 15 37 50 38 16 39 55 40 49 41 51 42 17 43 54 44
REMARK SMILES IDX 48 45 47 46 18 48 40 49 25 50 39 51 26 52 29 53 38 54 52 55
REMARK SMILES IDX 27 56 28 57 37 59 53 60 30 61 19 62 20 63 24 64 21 65 23 66
REMARK SMILES IDX 22 67 41 68 42 69 46 70 43 71 45 72 44 73 31 74 32 75 36 76
REMARK SMILES IDX 33 77 35 78 34 79
REMARK H PARENT 3 6 7 28 51 47 29 58
REMARK Flexibility Score: inf
ROOT
ATOM      1  C   UNL A   1      33.172  28.924  27.612  1.00  0.00     0.042 C 
ENDROOT
BRANCH   1   2
ATOM      2  C   UNL A   1      31.806  28.684  26.971  1.00  0.00     0.118 C 
BRANCH   2   3
ATOM      3  N   UNL A   1      31.340  27.303  27.111  1.00  0.00    -0.352 N 
ATOM      4  O   UNL A   1      31.372  25.059  26.883  1.00  0.00    -0.270 OA
ATOM      5  C   UNL A   1      31.679  26.155  26.433  1.00  0.00     0.251 C 
ATOM      6  H   UNL A   1      30.664  27.173  27.816  1.00  0.00     0.163 HD
BRANCH   5   7
ATOM      7  C   UNL A   1      32.518  26.286  25.223  1.00  0.00     0.067 C 
ATOM      8  C   UNL A   1      33.856  26.247  25.287  1.00  0.00     0.025 C 
ATOM      9  C   UNL A   1      31.835  26.102  23.903  1.00  0.00     0.314 C 
ATOM     10  C   UNL A   1      34.401  25.122  24.518  1.00  0.00     0.018 A 
ATOM     11  O   UNL A   1      32.392  25.012  23.124  1.00  0.00    -0.475 OA
ATOM     12  C   UNL A   1      35.528  24.440  25.003  1.00  0.00     0.025 A 
ATOM     13  C   UNL A   1      33.619  24.529  23.512  1.00  0.00     0.128 A 
ATOM     14  C   UNL A   1      35.845  23.152  24.530  1.00  0.00     0.056 A 
ATOM     15  C   UNL A   1      33.976  23.294  22.977  1.00  0.00     0.048 A 
ATOM     16  C   UNL A   1      35.071  22.599  23.497  1.00  0.00     0.017 A 
BRANCH   9  17
ATOM     17  C   UNL A   1      31.894  27.417  23.100  1.00  0.00     0.429 C 
ATOM     18  F   UNL A   1      31.586  28.480  23.882  1.00  0.00    -0.167 F 
ATOM     19  F   UNL A   1      33.127  27.651  22.592  1.00  0.00    -0.167 F 
ATOM     20  F   UNL A   1      31.027  27.425  22.057  1.00  0.00    -0.167 F 
ENDBRANCH   9  17
BRANCH  14  21
ATOM     21  C   UNL A   1      36.959  22.362  25.177  1.00  0.00     0.416 C 
ATOM     22  F   UNL A   1      37.876  23.155  25.793  1.00  0.00    -0.166 F 
ATOM     23  F   UNL A   1      36.502  21.504  26.134  1.00  0.00    -0.166 F 
ATOM     24  F   UNL A   1      37.654  21.586  24.299  1.00  0.00    -0.166 F 
ENDBRANCH  14  21
ENDBRANCH   5   7
ENDBRANCH   2   3
ENDBRANCH   1   2
BRANCH   1  25
ATOM     25  C   UNL A   1      33.772  30.273  27.225  1.00  0.00     0.118 C 
BRANCH  25  26
ATOM     26  N   UNL A   1      33.982  31.172  28.355  1.00  0.00    -0.352 N 
ATOM     27  C   UNL A   1      35.019  31.285  29.269  1.00  0.00     0.251 C 
ATOM     28  H   UNL A   1      33.252  31.816  28.496  1.00  0.00     0.163 HD
ATOM     29  O   UNL A   1      34.919  32.048  30.195  1.00  0.00    -0.269 OA
BRANCH  27  30
ATOM     30  C   UNL A   1      36.228  30.428  29.134  1.00  0.00     0.039 A 
ATOM     31  C   UNL A   1      36.887  30.384  27.902  1.00  0.00     0.014 A 
ATOM     32  C   UNL A   1      36.723  29.690  30.205  1.00  0.00     0.014 A 
ATOM     33  C   UNL A   1      38.112  29.715  27.791  1.00  0.00     0.010 A 
ATOM     34  C   UNL A   1      37.993  29.132  30.128  1.00  0.00     0.010 A 
ATOM     35  C   UNL A   1      38.716  29.154  28.925  1.00  0.00    -0.014 A 
BRANCH  35  36
ATOM     36  C   UNL A   1      40.105  28.619  28.914  1.00  0.00     0.031 A 
ATOM     37  C   UNL A   1      41.271  29.547  29.129  1.00  0.00     0.074 A 
ATOM     38  C   UNL A   1      40.329  27.330  28.584  1.00  0.00     0.049 A 
ATOM     39  N   UNL A   1      42.548  29.335  28.927  1.00  0.00    -0.248 NA
ATOM     40  C   UNL A   1      40.957  30.911  29.588  1.00  0.00     0.031 C 
ATOM     41  C   UNL A   1      39.299  26.323  28.314  1.00  0.00     0.029 A 
ATOM     42  N   UNL A   1      41.508  26.648  28.399  1.00  0.00    -0.354 N 
ATOM     43  C   UNL A   1      43.177  30.545  29.191  1.00  0.00     0.074 A 
ATOM     44  C   UNL A   1      42.142  31.499  29.524  1.00  0.00     0.031 C 
ATOM     45  C   UNL A   1      39.889  25.151  28.031  1.00  0.00     0.029 A 
ATOM     46  C   UNL A   1      41.335  25.334  28.033  1.00  0.00     0.049 A 
ATOM     47  H   UNL A   1      42.393  27.062  28.515  1.00  0.00     0.167 HD
ATOM     48  C   UNL A   1      44.500  30.835  29.177  1.00  0.00     0.031 A 
ATOM     49  C   UNL A   1      42.235  24.387  27.712  1.00  0.00     0.031 A 
ATOM     50  C   UNL A   1      45.535  29.879  28.895  1.00  0.00     0.049 A 
ATOM     51  C   UNL A   1      43.697  24.736  27.696  1.00  0.00     0.074 A 
ATOM     52  C   UNL A   1      46.907  30.061  28.920  1.00  0.00     0.029 A 
ATOM     53  N   UNL A   1      45.312  28.556  28.550  1.00  0.00    -0.354 N 
ATOM     54  N   UNL A   1      44.276  25.879  27.976  1.00  0.00    -0.248 NA
ATOM     55  C   UNL A   1      44.630  23.666  27.311  1.00  0.00     0.031 C 
ATOM     56  C   UNL A   1      47.514  28.854  28.559  1.00  0.00     0.029 A 
ATOM     57  C   UNL A   1      46.520  27.913  28.348  1.00  0.00     0.049 A 
ATOM     58  H   UNL A   1      44.426  28.136  28.464  1.00  0.00     0.167 HD
ATOM     59  C   UNL A   1      45.638  25.660  27.822  1.00  0.00     0.074 A 
ATOM     60  C   UNL A   1      45.801  24.272  27.440  1.00  0.00     0.031 C 
ATOM     61  C   UNL A   1      46.662  26.531  27.977  1.00  0.00     0.031 A 
BRANCH  48  62
ATOM     62  C   UNL A   1      44.903  32.248  29.494  1.00  0.00    -0.014 A 
ATOM     63  C   UNL A   1      44.984  33.221  28.485  1.00  0.00     0.009 A 
ATOM     64  C   UNL A   1      45.166  32.621  30.821  1.00  0.00     0.009 A 
ATOM     65  C   UNL A   1      45.355  34.531  28.795  1.00  0.00     0.001 A 
ATOM     66  C   UNL A   1      45.510  33.938  31.131  1.00  0.00     0.001 A 
ATOM     67  C   UNL A   1      45.614  34.889  30.117  1.00  0.00     0.000 A 
ENDBRANCH  48  62
BRANCH  49  68
ATOM     68  C   UNL A   1      41.791  23.011  27.367  1.00  0.00    -0.014 A 
ATOM     69  C   UNL A   1      41.342  22.719  26.069  1.00  0.00     0.009 A 
ATOM     70  C   UNL A   1      41.787  21.991  28.330  1.00  0.00     0.009 A 
ATOM     71  C   UNL A   1      40.871  21.443  25.752  1.00  0.00     0.001 A 
ATOM     72  C   UNL A   1      41.341  20.709  28.003  1.00  0.00     0.001 A 
ATOM     73  C   UNL A   1      40.873  20.439  26.717  1.00  0.00     0.000 A 
ENDBRANCH  49  68
BRANCH  61  74
ATOM     74  C   UNL A   1      48.050  26.002  27.767  1.00  0.00    -0.014 A 
ATOM     75  C   UNL A   1      48.655  26.047  26.502  1.00  0.00     0.009 A 
ATOM     76  C   UNL A   1      48.779  25.505  28.858  1.00  0.00     0.009 A 
ATOM     77  C   UNL A   1      49.959  25.580  26.330  1.00  0.00     0.001 A 
ATOM     78  C   UNL A   1      50.090  25.063  28.687  1.00  0.00     0.001 A 
ATOM     79  C   UNL A   1      50.677  25.095  27.423  1.00  0.00     0.000 A 
ENDBRANCH  61  74
ENDBRANCH  35  36
ENDBRANCH  27  30
ENDBRANCH  25  26
ENDBRANCH   1  25
TORSDOF 12
ENDMDL
MODEL 2
REMARK VINA RESULT:     -11.7      1.825      3.895
REMARK SMILES O=C(NCCCNC(=O)c1ccc(-c2c3nc(c(-c4ccccc4)c4ccc([nH]4)c(-c4ccccc4)c4nc(c(-c5ccccc5)c5ccc2[nH]5)C=C4)C=C3)cc1)C1=Cc2cc(C(F)(F)F)ccc2O[C@@H]1C(F)(F)F
REMARK SMILES IDX 5 1 4 2 3 3 1 4 2 5 58 7 59 8 71 9 60 10 70 11 61 12 69 13
REMARK SMILES IDX 62 14 68 15 67 16 72 17 73 18 74 19 75 20 63 21 64 22 65 23
REMARK SMILES IDX 66 24 6 25 7 26 8 27 9 29 10 30 11 31 57 32 12 33 56 34
REMARK SMILES IDX 13 35 14 36 15 37 50 38 16 39 55 40 49 41 51 42 17 43 54 44
REMARK SMILES IDX 48 45 47 46 18 48 40 49 25 50 39 51 26 52 29 53 38 54 52 55
REMARK SMILES IDX 27 56 28 57 37 59 53 60 30 61 19 62 20 63 24 64 21 65 23 66
REMARK SMILES IDX 22 67 41 68 42 69 46 70 43 71 45 72 44 73 31 74 32 75 36 76
REMARK SMILES IDX 33 77 35 78 34 79
REMARK H PARENT 3 6 7 28 51 47 29 58
REMARK Flexibility Score: inf
ROOT
ATOM      1  C   UNL A   1      33.247  28.396  26.999  1.00  0.00     0.042 C 
ENDROOT
BRANCH   1   2
ATOM      2  C   UNL A   1      31.779  28.047  26.761  1.00  0.00     0.118 C 
BRANCH   2   3
ATOM      3  N   UNL A   1      31.430  26.696  27.206  1.00  0.00    -0.352 N 
ATOM      4  O   UNL A   1      31.271  24.447  27.116  1.00  0.00    -0.270 OA
ATOM      5  C   UNL A   1      31.308  25.514  26.515  1.00  0.00     0.251 C 
ATOM      6  H   UNL A   1      31.251  26.621  28.172  1.00  0.00     0.163 HD
BRANCH   5   7
ATOM      7  C   UNL A   1      31.345  25.567  25.038  1.00  0.00     0.067 C 
ATOM      8  C   UNL A   1      30.226  25.686  24.310  1.00  0.00     0.025 C 
ATOM      9  C   UNL A   1      32.672  25.846  24.404  1.00  0.00     0.314 C 
ATOM     10  C   UNL A   1      30.228  26.920  23.514  1.00  0.00     0.018 A 
ATOM     11  O   UNL A   1      32.671  27.046  23.589  1.00  0.00    -0.475 OA
ATOM     12  C   UNL A   1      29.025  27.618  23.326  1.00  0.00     0.025 A 
ATOM     13  C   UNL A   1      31.447  27.564  23.240  1.00  0.00     0.128 A 
ATOM     14  C   UNL A   1      29.035  28.967  22.922  1.00  0.00     0.056 A 
ATOM     15  C   UNL A   1      31.461  28.870  22.756  1.00  0.00     0.048 A 
ATOM     16  C   UNL A   1      30.263  29.575  22.617  1.00  0.00     0.017 A 
BRANCH   9  17
ATOM     17  C   UNL A   1      33.112  24.630  23.563  1.00  0.00     0.429 C 
ATOM     18  F   UNL A   1      32.562  24.668  22.326  1.00  0.00    -0.167 F 
ATOM     19  F   UNL A   1      34.455  24.587  23.391  1.00  0.00    -0.167 F 
ATOM     20  F   UNL A   1      32.746  23.452  24.127  1.00  0.00    -0.167 F 
ENDBRANCH   9  17
BRANCH  14  21
ATOM     21  C   UNL A   1      27.745  29.754  22.885  1.00  0.00     0.416 C 
ATOM     22  F   UNL A   1      27.497  30.299  21.664  1.00  0.00    -0.166 F 
ATOM     23  F   UNL A   1      26.657  28.987  23.181  1.00  0.00    -0.166 F 
ATOM     24  F   UNL A   1      27.713  30.784  23.776  1.00  0.00    -0.166 F 
ENDBRANCH  14  21
ENDBRANCH   5   7
ENDBRANCH   2   3
ENDBRANCH   1   2
BRANCH   1  25
ATOM     25  C   UNL A   1      33.634  29.746  26.399  1.00  0.00     0.118 C 
BRANCH  25  26
ATOM     26  N   UNL A   1      33.702  30.827  27.376  1.00  0.00    -0.352 N 
ATOM     27  C   UNL A   1      34.640  31.139  28.350  1.00  0.00     0.251 C 
ATOM     28  H   UNL A   1      32.942  31.451  27.338  1.00  0.00     0.163 HD
ATOM     29  O   UNL A   1      34.425  32.039  29.120  1.00  0.00    -0.269 OA
BRANCH  27  30
ATOM     30  C   UNL A   1      35.882  30.329  28.474  1.00  0.00     0.039 A 
ATOM     31  C   UNL A   1      36.793  30.329  27.414  1.00  0.00     0.014 A 
ATOM     32  C   UNL A   1      36.162  29.593  29.621  1.00  0.00     0.014 A 
ATOM     33  C   UNL A   1      38.039  29.707  27.566  1.00  0.00     0.010 A 
ATOM     34  C   UNL A   1      37.440  29.084  29.818  1.00  0.00     0.010 A 
ATOM     35  C   UNL A   1      38.404  29.151  28.801  1.00  0.00    -0.014 A 
BRANCH  35  36
ATOM     36  C   UNL A   1      39.783  28.667  29.087  1.00  0.00     0.031 A 
ATOM     37  C   UNL A   1      40.810  29.614  29.650  1.00  0.00     0.074 A 
ATOM     38  C   UNL A   1      40.150  27.421  28.724  1.00  0.00     0.049 A 
ATOM     39  N   UNL A   1      42.108  29.465  29.750  1.00  0.00    -0.248 NA
ATOM     40  C   UNL A   1      40.320  30.920  30.122  1.00  0.00     0.031 C 
ATOM     41  C   UNL A   1      39.272  26.407  28.135  1.00  0.00     0.029 A 
ATOM     42  N   UNL A   1      41.375  26.799  28.780  1.00  0.00    -0.354 N 
ATOM     43  C   UNL A   1      42.588  30.668  30.251  1.00  0.00     0.074 A 
ATOM     44  C   UNL A   1      41.452  31.552  30.394  1.00  0.00     0.031 C 
ATOM     45  C   UNL A   1      39.976  25.285  27.915  1.00  0.00     0.029 A 
ATOM     46  C   UNL A   1      41.367  25.517  28.284  1.00  0.00     0.049 A 
ATOM     47  H   UNL A   1      42.182  27.232  29.140  1.00  0.00     0.167 HD
ATOM     48  C   UNL A   1      43.857  31.004  30.582  1.00  0.00     0.031 A 
ATOM     49  C   UNL A   1      42.369  24.634  28.120  1.00  0.00     0.031 A 
ATOM     50  C   UNL A   1      44.981  30.113  30.488  1.00  0.00     0.049 A 
ATOM     51  C   UNL A   1      43.770  25.034  28.488  1.00  0.00     0.074 A 
ATOM     52  C   UNL A   1      46.294  30.340  30.861  1.00  0.00     0.029 A 
ATOM     53  N   UNL A   1      44.920  28.818  30.000  1.00  0.00    -0.354 N 
ATOM     54  N   UNL A   1      44.201  26.167  28.987  1.00  0.00    -0.248 NA
ATOM     55  C   UNL A   1      44.825  24.035  28.261  1.00  0.00     0.031 C 
ATOM     56  C   UNL A   1      47.036  29.191  30.568  1.00  0.00     0.029 A 
ATOM     57  C   UNL A   1      46.175  28.238  30.049  1.00  0.00     0.049 A 
ATOM     58  H   UNL A   1      44.105  28.377  29.668  1.00  0.00     0.167 HD
ATOM     59  C   UNL A   1      45.570  26.010  29.153  1.00  0.00     0.074 A 
ATOM     60  C   UNL A   1      45.896  24.668  28.717  1.00  0.00     0.031 C 
ATOM     61  C   UNL A   1      46.478  26.899  29.619  1.00  0.00     0.031 A 
BRANCH  48  62
ATOM     62  C   UNL A   1      44.094  32.397  31.095  1.00  0.00    -0.014 A 
ATOM     63  C   UNL A   1      44.361  33.457  30.214  1.00  0.00     0.009 A 
ATOM     64  C   UNL A   1      44.010  32.661  32.471  1.00  0.00     0.009 A 
ATOM     65  C   UNL A   1      44.574  34.746  30.704  1.00  0.00     0.001 A 
ATOM     66  C   UNL A   1      44.197  33.958  32.955  1.00  0.00     0.001 A 
ATOM     67  C   UNL A   1      44.488  34.996  32.072  1.00  0.00     0.000 A 
ENDBRANCH  48  62
BRANCH  49  68
ATOM     68  C   UNL A   1      42.096  23.279  27.573  1.00  0.00    -0.014 A 
ATOM     69  C   UNL A   1      42.306  23.013  26.210  1.00  0.00     0.009 A 
ATOM     70  C   UNL A   1      41.604  22.254  28.395  1.00  0.00     0.009 A 
ATOM     71  C   UNL A   1      42.001  21.759  25.678  1.00  0.00     0.001 A 
ATOM     72  C   UNL A   1      41.325  20.993  27.865  1.00  0.00     0.001 A 
ATOM     73  C   UNL A   1      41.514  20.750  26.504  1.00  0.00     0.000 A 
ENDBRANCH  49  68
BRANCH  61  74
ATOM     74  C   UNL A   1      47.903  26.440  29.714  1.00  0.00    -0.014 A 
ATOM     75  C   UNL A   1      48.793  26.627  28.646  1.00  0.00     0.009 A 
ATOM     76  C   UNL A   1      48.372  25.864  30.904  1.00  0.00     0.009 A 
ATOM     77  C   UNL A   1      50.124  26.223  28.762  1.00  0.00     0.001 A 
ATOM     78  C   UNL A   1      49.707  25.484  31.025  1.00  0.00     0.001 A 
ATOM     79  C   UNL A   1      50.581  25.658  29.953  1.00  0.00     0.000 A 
ENDBRANCH  61  74
ENDBRANCH  35  36
ENDBRANCH  27  30
ENDBRANCH  25  26
ENDBRANCH   1  25
TORSDOF 12
ENDMDL
MODEL 3
REMARK VINA RESULT:     -11.7      2.245      7.757
REMARK SMILES O=C(NCCCNC(=O)c1ccc(-c2c3nc(c(-c4ccccc4)c4ccc([nH]4)c(-c4ccccc4)c4nc(c(-c5ccccc5)c5ccc2[nH]5)C=C4)C=C3)cc1)C1=Cc2cc(C(F)(F)F)ccc2O[C@@H]1C(F)(F)F
REMARK SMILES IDX 5 1 4 2 3 3 1 4 2 5 58 7 59 8 71 9 60 10 70 11 61 12 69 13
REMARK SMILES IDX 62 14 68 15 67 16 72 17 73 18 74 19 75 20 63 21 64 22 65 23
REMARK SMILES IDX 66 24 6 25 7 26 8 27 9 29 10 30 11 31 57 32 12 33 56 34
REMARK SMILES IDX 13 35 14 36 15 37 50 38 16 39 55 40 49 41 51 42 17 43 54 44
REMARK SMILES IDX 48 45 47 46 18 48 40 49 25 50 39 51 26 52 29 53 38 54 52 55
REMARK SMILES IDX 27 56 28 57 37 59 53 60 30 61 19 62 20 63 24 64 21 65 23 66
REMARK SMILES IDX 22 67 41 68 42 69 46 70 43 71 45 72 44 73 31 74 32 75 36 76
REMARK SMILES IDX 33 77 35 78 34 79
REMARK H PARENT 3 6 7 28 51 47 29 58
REMARK Flexibility Score: inf
ROOT
ATOM      1  C   UNL A   1      37.302  21.389  24.544  1.00  0.00     0.042 C 
ENDROOT
BRANCH   1   2
ATOM      2  C   UNL A   1      37.137  22.823  24.045  1.00  0.00     0.118 C 
BRANCH   2   3
ATOM      3  N   UNL A   1      35.950  23.007  23.206  1.00  0.00    -0.352 N 
ATOM      4  O   UNL A   1      33.985  23.893  22.541  1.00  0.00    -0.270 OA
ATOM      5  C   UNL A   1      34.740  23.607  23.462  1.00  0.00     0.251 C 
ATOM      6  H   UNL A   1      36.034  22.637  22.298  1.00  0.00     0.163 HD
BRANCH   5   7
ATOM      7  C   UNL A   1      34.440  23.999  24.856  1.00  0.00     0.067 C 
ATOM      8  C   UNL A   1      34.671  25.241  25.302  1.00  0.00     0.025 C 
ATOM      9  C   UNL A   1      33.548  23.086  25.638  1.00  0.00     0.314 C 
ATOM     10  C   UNL A   1      33.433  25.896  25.743  1.00  0.00     0.018 A 
ATOM     11  O   UNL A   1      32.338  23.738  26.105  1.00  0.00    -0.475 OA
ATOM     12  C   UNL A   1      33.265  27.271  25.514  1.00  0.00     0.025 A 
ATOM     13  C   UNL A   1      32.315  25.111  26.071  1.00  0.00     0.128 A 
ATOM     14  C   UNL A   1      31.983  27.852  25.555  1.00  0.00     0.056 A 
ATOM     15  C   UNL A   1      31.057  25.695  26.199  1.00  0.00     0.048 A 
ATOM     16  C   UNL A   1      30.887  27.054  25.923  1.00  0.00     0.017 A 
BRANCH   9  17
ATOM     17  C   UNL A   1      34.328  22.492  26.829  1.00  0.00     0.429 C 
ATOM     18  F   UNL A   1      33.694  22.740  28.000  1.00  0.00    -0.167 F 
ATOM     19  F   UNL A   1      34.460  21.148  26.734  1.00  0.00    -0.167 F 
ATOM     20  F   UNL A   1      35.578  23.008  26.936  1.00  0.00    -0.167 F 
ENDBRANCH   9  17
BRANCH  14  21
ATOM     21  C   UNL A   1      31.793  29.294  25.144  1.00  0.00     0.416 C 
ATOM     22  F   UNL A   1      32.892  29.817  24.540  1.00  0.00    -0.166 F 
ATOM     23  F   UNL A   1      30.767  29.452  24.259  1.00  0.00    -0.166 F 
ATOM     24  F   UNL A   1      31.501  30.121  26.187  1.00  0.00    -0.166 F 
ENDBRANCH  14  21
ENDBRANCH   5   7
ENDBRANCH   2   3
ENDBRANCH   1   2
BRANCH   1  25
ATOM     25  C   UNL A   1      38.280  21.283  25.711  1.00  0.00     0.118 C 
BRANCH  25  26
ATOM     26  N   UNL A   1      39.195  20.150  25.612  1.00  0.00    -0.352 N 
ATOM     27  C   UNL A   1      40.537  20.012  25.934  1.00  0.00     0.251 C 
ATOM     28  H   UNL A   1      38.784  19.333  25.251  1.00  0.00     0.163 HD
ATOM     29  O   UNL A   1      41.115  18.992  25.663  1.00  0.00    -0.269 OA
BRANCH  27  30
ATOM     30  C   UNL A   1      41.273  21.143  26.563  1.00  0.00     0.039 A 
ATOM     31  C   UNL A   1      41.839  22.119  25.737  1.00  0.00     0.014 A 
ATOM     32  C   UNL A   1      41.390  21.258  27.944  1.00  0.00     0.014 A 
ATOM     33  C   UNL A   1      42.396  23.272  26.303  1.00  0.00     0.010 A 
ATOM     34  C   UNL A   1      41.830  22.453  28.501  1.00  0.00     0.010 A 
ATOM     35  C   UNL A   1      42.320  23.487  27.687  1.00  0.00    -0.014 A 
BRANCH  35  36
ATOM     36  C   UNL A   1      42.702  24.779  28.322  1.00  0.00     0.031 A 
ATOM     37  C   UNL A   1      41.659  25.843  28.547  1.00  0.00     0.074 A 
ATOM     38  C   UNL A   1      43.999  25.049  28.576  1.00  0.00     0.049 A 
ATOM     39  N   UNL A   1      41.818  27.104  28.860  1.00  0.00    -0.248 NA
ATOM     40  C   UNL A   1      40.255  25.447  28.348  1.00  0.00     0.031 C 
ATOM     41  C   UNL A   1      45.121  24.128  28.376  1.00  0.00     0.029 A 
ATOM     42  N   UNL A   1      44.596  26.194  29.045  1.00  0.00    -0.354 N 
ATOM     43  C   UNL A   1      40.543  27.657  28.852  1.00  0.00     0.074 A 
ATOM     44  C   UNL A   1      39.628  26.608  28.460  1.00  0.00     0.031 C 
ATOM     45  C   UNL A   1      46.261  24.732  28.748  1.00  0.00     0.029 A 
ATOM     46  C   UNL A   1      45.964  26.102  29.150  1.00  0.00     0.049 A 
ATOM     47  H   UNL A   1      44.093  27.006  29.281  1.00  0.00     0.167 HD
ATOM     48  C   UNL A   1      40.163  28.920  29.162  1.00  0.00     0.031 A 
ATOM     49  C   UNL A   1      46.881  27.019  29.506  1.00  0.00     0.031 A 
ATOM     50  C   UNL A   1      41.063  29.951  29.598  1.00  0.00     0.049 A 
ATOM     51  C   UNL A   1      46.435  28.416  29.837  1.00  0.00     0.074 A 
ATOM     52  C   UNL A   1      40.765  31.243  29.998  1.00  0.00     0.029 A 
ATOM     53  N   UNL A   1      42.436  29.803  29.709  1.00  0.00    -0.354 N 
ATOM     54  N   UNL A   1      45.221  28.913  29.851  1.00  0.00    -0.248 NA
ATOM     55  C   UNL A   1      47.486  29.380  30.193  1.00  0.00     0.031 C 
ATOM     56  C   UNL A   1      41.964  31.888  30.320  1.00  0.00     0.029 A 
ATOM     57  C   UNL A   1      43.001  30.985  30.158  1.00  0.00     0.049 A 
ATOM     58  H   UNL A   1      42.934  28.981  29.501  1.00  0.00     0.167 HD
ATOM     59  C   UNL A   1      45.361  30.239  30.236  1.00  0.00     0.074 A 
ATOM     60  C   UNL A   1      46.774  30.465  30.463  1.00  0.00     0.031 C 
ATOM     61  C   UNL A   1      44.407  31.187  30.385  1.00  0.00     0.031 A 
BRANCH  48  62
ATOM     62  C   UNL A   1      38.701  29.250  29.052  1.00  0.00    -0.014 A 
ATOM     63  C   UNL A   1      37.856  29.176  30.170  1.00  0.00     0.009 A 
ATOM     64  C   UNL A   1      38.170  29.678  27.825  1.00  0.00     0.009 A 
ATOM     65  C   UNL A   1      36.501  29.490  30.054  1.00  0.00     0.001 A 
ATOM     66  C   UNL A   1      36.820  30.017  27.719  1.00  0.00     0.001 A 
ATOM     67  C   UNL A   1      35.985  29.914  28.831  1.00  0.00     0.000 A 
ENDBRANCH  48  62
BRANCH  49  68
ATOM     68  C   UNL A   1      48.323  26.661  29.564  1.00  0.00    -0.014 A 
ATOM     69  C   UNL A   1      49.144  26.859  28.442  1.00  0.00     0.009 A 
ATOM     70  C   UNL A   1      48.881  26.099  30.722  1.00  0.00     0.009 A 
ATOM     71  C   UNL A   1      50.486  26.474  28.470  1.00  0.00     0.001 A 
ATOM     72  C   UNL A   1      50.230  25.741  30.756  1.00  0.00     0.001 A 
ATOM     73  C   UNL A   1      51.029  25.918  29.626  1.00  0.00     0.000 A 
ENDBRANCH  49  68
BRANCH  61  74
ATOM     74  C   UNL A   1      44.853  32.544  30.842  1.00  0.00    -0.014 A 
ATOM     75  C   UNL A   1      45.175  33.548  29.917  1.00  0.00     0.009 A 
ATOM     76  C   UNL A   1      44.897  32.837  32.214  1.00  0.00     0.009 A 
ATOM     77  C   UNL A   1      45.557  34.815  30.360  1.00  0.00     0.001 A 
ATOM     78  C   UNL A   1      45.256  34.111  32.652  1.00  0.00     0.001 A 
ATOM     79  C   UNL A   1      45.591  35.097  31.725  1.00  0.00     0.000 A 
ENDBRANCH  61  74
ENDBRANCH  35  36
ENDBRANCH  27  30
ENDBRANCH  25  26
ENDBRANCH   1  25
TORSDOF 12
ENDMDL
