MODEL 1
REMARK VINA RESULT:     -11.0      0.000      0.000
REMARK SMILES C[C@H](C(=O)N[C@H](C)C(=O)NCCCNC(=O)c1ccc(-c2c3nc(c(-c4ccccc4)c4ccc([nH]4)c(-c4ccccc4)c4nc(c(-c5ccccc5)c5ccc2[nH]5)C=C4)C=C3)cc1)n1cnc2ccccc21
REMARK SMILES IDX 11 1 10 2 8 3 9 4 6 6 7 7 5 8 3 9 4 10 2 12 1 13 65 14 66 15
REMARK SMILES IDX 73 16 67 17 68 18 72 19 69 20 71 21 70 22 12 23 13 24 14 25
REMARK SMILES IDX 15 26 16 28 17 29 18 30 64 31 19 32 63 33 20 34 21 35 22 36
REMARK SMILES IDX 57 37 23 38 62 39 56 40 58 41 24 42 61 43 55 44 54 45 25 47
REMARK SMILES IDX 47 48 32 49 46 50 33 51 36 52 45 53 59 54 34 55 35 56 44 58
REMARK SMILES IDX 60 59 37 60 26 61 27 62 31 63 28 64 30 65 29 66 48 67 49 68
REMARK SMILES IDX 53 69 50 70 52 71 51 72 38 73 39 74 43 75 40 76 42 77 41 78
REMARK H PARENT 10 5 5 11 14 27 58 46 36 57
REMARK Flexibility Score: inf
ROOT
ATOM      1  C   UNL A   1      36.102  20.093  24.999  1.00  0.00     0.117 C 
ENDROOT
BRANCH   1   2
ATOM      2  N   UNL A   1      35.215  18.933  24.985  1.00  0.00    -0.354 N 
ATOM      3  C   UNL A   1      33.907  18.798  24.597  1.00  0.00     0.242 C 
ATOM      4  O   UNL A   1      33.322  17.757  24.905  1.00  0.00    -0.273 OA
ATOM      5  H   UNL A   1      35.629  18.101  25.310  1.00  0.00     0.163 HD
BRANCH   3   6
ATOM      6  C   UNL A   1      33.157  19.980  23.951  1.00  0.00     0.168 C 
ATOM      7  C   UNL A   1      32.223  19.411  22.885  1.00  0.00     0.041 C 
BRANCH   6   8
ATOM      8  N   UNL A   1      32.481  20.703  25.026  1.00  0.00    -0.343 N 
ATOM      9  C   UNL A   1      31.630  21.760  24.971  1.00  0.00     0.243 C 
ATOM     10  O   UNL A   1      30.664  21.748  25.735  1.00  0.00    -0.273 OA
ATOM     11  H   UNL A   1      32.673  20.372  25.933  1.00  0.00     0.164 HD
BRANCH   9  12
ATOM     12  C   UNL A   1      31.975  22.927  24.062  1.00  0.00     0.174 C 
ATOM     13  C   UNL A   1      30.771  23.843  23.785  1.00  0.00     0.042 C 
BRANCH  12  14
ATOM     14  N   UNL A   1      33.049  23.699  24.680  1.00  0.00    -0.318 N 
ATOM     15  C   UNL A   1      32.937  24.436  25.824  1.00  0.00     0.201 A 
ATOM     16  C   UNL A   1      34.379  23.642  24.333  1.00  0.00     0.069 A 
ATOM     17  N   UNL A   1      34.118  24.720  26.324  1.00  0.00    -0.237 NA
ATOM     18  C   UNL A   1      35.025  24.188  25.437  1.00  0.00     0.088 A 
ATOM     19  C   UNL A   1      35.065  23.107  23.233  1.00  0.00     0.028 A 
ATOM     20  C   UNL A   1      36.422  24.109  25.510  1.00  0.00     0.030 A 
ATOM     21  C   UNL A   1      36.456  23.056  23.317  1.00  0.00     0.002 A 
ATOM     22  C   UNL A   1      37.124  23.518  24.450  1.00  0.00     0.002 A 
ENDBRANCH  12  14
ENDBRANCH   9  12
ENDBRANCH   6   8
ENDBRANCH   3   6
ENDBRANCH   1   2
BRANCH   1  23
ATOM     23  C   UNL A   1      37.520  19.746  24.601  1.00  0.00     0.042 C 
BRANCH  23  24
ATOM     24  C   UNL A   1      38.540  20.214  25.615  1.00  0.00     0.118 C 
BRANCH  24  25
ATOM     25  N   UNL A   1      39.654  19.280  25.748  1.00  0.00    -0.352 N 
ATOM     26  C   UNL A   1      40.969  19.516  26.054  1.00  0.00     0.251 C 
ATOM     27  H   UNL A   1      39.425  18.334  25.595  1.00  0.00     0.163 HD
ATOM     28  O   UNL A   1      41.808  18.631  25.881  1.00  0.00    -0.269 OA
BRANCH  26  29
ATOM     29  C   UNL A   1      41.378  20.830  26.580  1.00  0.00     0.039 A 
ATOM     30  C   UNL A   1      41.897  21.789  25.707  1.00  0.00     0.014 A 
ATOM     31  C   UNL A   1      41.254  21.116  27.941  1.00  0.00     0.014 A 
ATOM     32  C   UNL A   1      42.231  23.051  26.197  1.00  0.00     0.010 A 
ATOM     33  C   UNL A   1      41.453  22.407  28.398  1.00  0.00     0.010 A 
ATOM     34  C   UNL A   1      41.978  23.380  27.539  1.00  0.00    -0.014 A 
BRANCH  34  35
ATOM     35  C   UNL A   1      42.300  24.720  28.083  1.00  0.00     0.031 A 
ATOM     36  C   UNL A   1      43.707  25.034  28.516  1.00  0.00     0.074 A 
ATOM     37  C   UNL A   1      41.318  25.629  28.242  1.00  0.00     0.049 A 
ATOM     38  N   UNL A   1      44.181  26.129  29.051  1.00  0.00    -0.248 NA
ATOM     39  C   UNL A   1      44.710  23.965  28.358  1.00  0.00     0.031 C 
ATOM     40  C   UNL A   1      39.906  25.423  27.912  1.00  0.00     0.029 A 
ATOM     41  N   UNL A   1      41.363  26.913  28.721  1.00  0.00    -0.354 N 
ATOM     42  C   UNL A   1      45.521  25.871  29.311  1.00  0.00     0.074 A 
ATOM     43  C   UNL A   1      45.771  24.498  28.941  1.00  0.00     0.031 C 
ATOM     44  C   UNL A   1      39.228  26.556  28.157  1.00  0.00     0.029 A 
ATOM     45  C   UNL A   1      40.147  27.550  28.701  1.00  0.00     0.049 A 
ATOM     46  H   UNL A   1      42.189  27.338  29.048  1.00  0.00     0.167 HD
ATOM     47  C   UNL A   1      46.471  26.711  29.787  1.00  0.00     0.031 A 
ATOM     48  C   UNL A   1      39.811  28.797  29.079  1.00  0.00     0.031 A 
ATOM     49  C   UNL A   1      46.223  28.082  30.136  1.00  0.00     0.049 A 
ATOM     50  C   UNL A   1      40.883  29.711  29.603  1.00  0.00     0.074 A 
ATOM     51  C   UNL A   1      47.124  29.037  30.570  1.00  0.00     0.029 A 
ATOM     52  N   UNL A   1      44.978  28.693  30.090  1.00  0.00    -0.354 N 
ATOM     53  N   UNL A   1      42.163  29.476  29.771  1.00  0.00    -0.248 NA
ATOM     54  C   UNL A   1      40.466  31.070  29.973  1.00  0.00     0.031 C 
ATOM     55  C   UNL A   1      46.415  30.211  30.843  1.00  0.00     0.029 A 
ATOM     56  C   UNL A   1      45.084  30.007  30.512  1.00  0.00     0.049 A 
ATOM     57  H   UNL A   1      44.146  28.257  29.801  1.00  0.00     0.167 HD
ATOM     58  C   UNL A   1      42.708  30.666  30.236  1.00  0.00     0.074 A 
ATOM     59  C   UNL A   1      41.623  31.624  30.303  1.00  0.00     0.031 C 
ATOM     60  C   UNL A   1      43.991  30.942  30.574  1.00  0.00     0.031 A 
BRANCH  47  61
ATOM     61  C   UNL A   1      47.860  26.160  29.959  1.00  0.00    -0.014 A 
ATOM     62  C   UNL A   1      48.337  25.755  31.217  1.00  0.00     0.009 A 
ATOM     63  C   UNL A   1      48.699  26.023  28.842  1.00  0.00     0.009 A 
ATOM     64  C   UNL A   1      49.636  25.263  31.359  1.00  0.00     0.001 A 
ATOM     65  C   UNL A   1      49.985  25.499  28.981  1.00  0.00     0.001 A 
ATOM     66  C   UNL A   1      50.457  25.130  30.240  1.00  0.00     0.000 A 
ENDBRANCH  47  61
BRANCH  48  67
ATOM     67  C   UNL A   1      38.405  29.263  28.951  1.00  0.00    -0.014 A 
ATOM     68  C   UNL A   1      37.542  29.242  30.056  1.00  0.00     0.009 A 
ATOM     69  C   UNL A   1      37.917  29.726  27.718  1.00  0.00     0.009 A 
ATOM     70  C   UNL A   1      36.211  29.644  29.923  1.00  0.00     0.001 A 
ATOM     71  C   UNL A   1      36.594  30.157  27.597  1.00  0.00     0.001 A 
ATOM     72  C   UNL A   1      35.740  30.104  28.696  1.00  0.00     0.000 A 
ENDBRANCH  48  67
BRANCH  60  73
ATOM     73  C   UNL A   1      44.297  32.350  31.006  1.00  0.00    -0.014 A 
ATOM     74  C   UNL A   1      44.254  32.728  32.357  1.00  0.00     0.009 A 
ATOM     75  C   UNL A   1      44.661  33.304  30.044  1.00  0.00     0.009 A 
ATOM     76  C   UNL A   1      44.528  34.046  32.729  1.00  0.00     0.001 A 
ATOM     77  C   UNL A   1      44.969  34.611  30.422  1.00  0.00     0.001 A 
ATOM     78  C   UNL A   1      44.889  34.984  31.762  1.00  0.00     0.000 A 
ENDBRANCH  60  73
ENDBRANCH  34  35
ENDBRANCH  26  29
ENDBRANCH  24  25
ENDBRANCH  23  24
ENDBRANCH   1  23
TORSDOF 13
ENDMDL
MODEL 2
REMARK VINA RESULT:     -11.0      0.413      6.027
REMARK SMILES C[C@H](C(=O)N[C@H](C)C(=O)NCCCNC(=O)c1ccc(-c2c3nc(c(-c4ccccc4)c4ccc([nH]4)c(-c4ccccc4)c4nc(c(-c5ccccc5)c5ccc2[nH]5)C=C4)C=C3)cc1)n1cnc2ccccc21
REMARK SMILES IDX 11 1 10 2 8 3 9 4 6 6 7 7 5 8 3 9 4 10 2 12 1 13 65 14 66 15
REMARK SMILES IDX 73 16 67 17 68 18 72 19 69 20 71 21 70 22 12 23 13 24 14 25
REMARK SMILES IDX 15 26 16 28 17 29 18 30 64 31 19 32 63 33 20 34 21 35 22 36
REMARK SMILES IDX 57 37 23 38 62 39 56 40 58 41 24 42 61 43 55 44 54 45 25 47
REMARK SMILES IDX 47 48 32 49 46 50 33 51 36 52 45 53 59 54 34 55 35 56 44 58
REMARK SMILES IDX 60 59 37 60 26 61 27 62 31 63 28 64 30 65 29 66 48 67 49 68
REMARK SMILES IDX 53 69 50 70 52 71 51 72 38 73 39 74 43 75 40 76 42 77 41 78
REMARK H PARENT 10 5 5 11 14 27 58 46 36 57
REMARK Flexibility Score: inf
ROOT
ATOM      1  C   UNL A   1      36.111  19.926  24.971  1.00  0.00     0.117 C 
ENDROOT
BRANCH   1   2
ATOM      2  N   UNL A   1      35.294  18.715  24.958  1.00  0.00    -0.354 N 
ATOM      3  C   UNL A   1      33.996  18.503  24.572  1.00  0.00     0.242 C 
ATOM      4  O   UNL A   1      33.474  17.429  24.880  1.00  0.00    -0.273 OA
ATOM      5  H   UNL A   1      35.757  17.909  25.282  1.00  0.00     0.163 HD
BRANCH   3   6
ATOM      6  C   UNL A   1      33.175  19.639  23.929  1.00  0.00     0.168 C 
ATOM      7  C   UNL A   1      32.190  19.003  22.950  1.00  0.00     0.041 C 
BRANCH   6   8
ATOM      8  N   UNL A   1      32.552  20.391  25.015  1.00  0.00    -0.343 N 
ATOM      9  C   UNL A   1      31.755  21.490  24.974  1.00  0.00     0.243 C 
ATOM     10  O   UNL A   1      30.800  21.525  25.752  1.00  0.00    -0.273 OA
ATOM     11  H   UNL A   1      32.740  20.048  25.917  1.00  0.00     0.164 HD
BRANCH   9  12
ATOM     12  C   UNL A   1      32.145  22.641  24.063  1.00  0.00     0.174 C 
ATOM     13  C   UNL A   1      30.958  23.553  23.712  1.00  0.00     0.042 C 
BRANCH  12  14
ATOM     14  N   UNL A   1      33.190  23.423  24.720  1.00  0.00    -0.318 N 
ATOM     15  C   UNL A   1      33.054  24.089  25.904  1.00  0.00     0.201 A 
ATOM     16  C   UNL A   1      34.519  23.442  24.365  1.00  0.00     0.069 A 
ATOM     17  N   UNL A   1      34.224  24.395  26.415  1.00  0.00    -0.237 NA
ATOM     18  C   UNL A   1      35.148  23.953  25.495  1.00  0.00     0.088 A 
ATOM     19  C   UNL A   1      35.220  23.001  23.234  1.00  0.00     0.028 A 
ATOM     20  C   UNL A   1      36.547  23.930  25.559  1.00  0.00     0.030 A 
ATOM     21  C   UNL A   1      36.612  23.005  23.310  1.00  0.00     0.002 A 
ATOM     22  C   UNL A   1      37.267  23.431  24.465  1.00  0.00     0.002 A 
ENDBRANCH  12  14
ENDBRANCH   9  12
ENDBRANCH   6   8
ENDBRANCH   3   6
ENDBRANCH   1   2
BRANCH   1  23
ATOM     23  C   UNL A   1      37.552  19.660  24.594  1.00  0.00     0.042 C 
BRANCH  23  24
ATOM     24  C   UNL A   1      38.528  20.171  25.630  1.00  0.00     0.118 C 
BRANCH  24  25
ATOM     25  N   UNL A   1      39.694  19.303  25.764  1.00  0.00    -0.352 N 
ATOM     26  C   UNL A   1      40.991  19.614  26.082  1.00  0.00     0.251 C 
ATOM     27  H   UNL A   1      39.522  18.347  25.602  1.00  0.00     0.163 HD
ATOM     28  O   UNL A   1      41.882  18.781  25.908  1.00  0.00    -0.269 OA
BRANCH  26  29
ATOM     29  C   UNL A   1      41.318  20.946  26.620  1.00  0.00     0.039 A 
ATOM     30  C   UNL A   1      41.229  21.174  27.995  1.00  0.00     0.014 A 
ATOM     31  C   UNL A   1      41.712  21.975  25.764  1.00  0.00     0.014 A 
ATOM     32  C   UNL A   1      41.594  22.418  28.508  1.00  0.00     0.010 A 
ATOM     33  C   UNL A   1      42.205  23.160  26.285  1.00  0.00     0.010 A 
ATOM     34  C   UNL A   1      42.118  23.408  27.660  1.00  0.00    -0.014 A 
BRANCH  34  35
ATOM     35  C   UNL A   1      42.537  24.731  28.178  1.00  0.00     0.031 A 
ATOM     36  C   UNL A   1      41.511  25.815  28.380  1.00  0.00     0.074 A 
ATOM     37  C   UNL A   1      43.842  24.974  28.410  1.00  0.00     0.049 A 
ATOM     38  N   UNL A   1      41.681  27.047  28.785  1.00  0.00    -0.248 NA
ATOM     39  C   UNL A   1      40.114  25.483  28.051  1.00  0.00     0.031 C 
ATOM     40  C   UNL A   1      44.935  24.023  28.200  1.00  0.00     0.029 A 
ATOM     41  N   UNL A   1      44.467  26.101  28.878  1.00  0.00    -0.354 N 
ATOM     42  C   UNL A   1      40.424  27.635  28.737  1.00  0.00     0.074 A 
ATOM     43  C   UNL A   1      39.513  26.652  28.200  1.00  0.00     0.031 C 
ATOM     44  C   UNL A   1      46.091  24.591  28.580  1.00  0.00     0.029 A 
ATOM     45  C   UNL A   1      45.826  25.958  29.017  1.00  0.00     0.049 A 
ATOM     46  H   UNL A   1      43.988  26.934  29.094  1.00  0.00     0.167 HD
ATOM     47  C   UNL A   1      40.051  28.875  29.133  1.00  0.00     0.031 A 
ATOM     48  C   UNL A   1      46.754  26.832  29.448  1.00  0.00     0.031 A 
ATOM     49  C   UNL A   1      40.957  29.844  29.686  1.00  0.00     0.049 A 
ATOM     50  C   UNL A   1      46.315  28.202  29.885  1.00  0.00     0.074 A 
ATOM     51  C   UNL A   1      40.674  31.106  30.175  1.00  0.00     0.029 A 
ATOM     52  N   UNL A   1      42.324  29.655  29.820  1.00  0.00    -0.354 N 
ATOM     53  N   UNL A   1      45.109  28.717  29.905  1.00  0.00    -0.248 NA
ATOM     54  C   UNL A   1      47.365  29.104  30.374  1.00  0.00     0.031 C 
ATOM     55  C   UNL A   1      41.880  31.705  30.553  1.00  0.00     0.029 A 
ATOM     56  C   UNL A   1      42.903  30.789  30.363  1.00  0.00     0.049 A 
ATOM     57  H   UNL A   1      42.809  28.838  29.567  1.00  0.00     0.167 HD
ATOM     58  C   UNL A   1      45.252  29.992  30.438  1.00  0.00     0.074 A 
ATOM     59  C   UNL A   1      46.658  30.160  30.746  1.00  0.00     0.031 C 
ATOM     60  C   UNL A   1      44.305  30.937  30.658  1.00  0.00     0.031 A 
BRANCH  47  61
ATOM     61  C   UNL A   1      38.601  29.246  28.977  1.00  0.00    -0.014 A 
ATOM     62  C   UNL A   1      37.704  29.162  30.056  1.00  0.00     0.009 A 
ATOM     63  C   UNL A   1      38.128  29.708  27.739  1.00  0.00     0.009 A 
ATOM     64  C   UNL A   1      36.358  29.494  29.886  1.00  0.00     0.001 A 
ATOM     65  C   UNL A   1      36.790  30.072  27.582  1.00  0.00     0.001 A 
ATOM     66  C   UNL A   1      35.904  29.954  28.652  1.00  0.00     0.000 A 
ENDBRANCH  47  61
BRANCH  48  67
ATOM     67  C   UNL A   1      48.183  26.430  29.516  1.00  0.00    -0.014 A 
ATOM     68  C   UNL A   1      49.040  26.650  28.426  1.00  0.00     0.009 A 
ATOM     69  C   UNL A   1      48.699  25.818  30.669  1.00  0.00     0.009 A 
ATOM     70  C   UNL A   1      50.372  26.237  28.477  1.00  0.00     0.001 A 
ATOM     71  C   UNL A   1      50.041  25.435  30.729  1.00  0.00     0.001 A 
ATOM     72  C   UNL A   1      50.872  25.633  29.629  1.00  0.00     0.000 A 
ENDBRANCH  48  67
BRANCH  60  73
ATOM     73  C   UNL A   1      44.755  32.221  31.298  1.00  0.00    -0.014 A 
ATOM     74  C   UNL A   1      44.788  32.372  32.693  1.00  0.00     0.009 A 
ATOM     75  C   UNL A   1      45.178  33.285  30.488  1.00  0.00     0.009 A 
ATOM     76  C   UNL A   1      45.197  33.580  33.262  1.00  0.00     0.001 A 
ATOM     77  C   UNL A   1      45.620  34.479  31.059  1.00  0.00     0.001 A 
ATOM     78  C   UNL A   1      45.616  34.630  32.445  1.00  0.00     0.000 A 
ENDBRANCH  60  73
ENDBRANCH  34  35
ENDBRANCH  26  29
ENDBRANCH  24  25
ENDBRANCH  23  24
ENDBRANCH   1  23
TORSDOF 13
ENDMDL
MODEL 3
REMARK VINA RESULT:     -10.8      4.240      9.229
REMARK SMILES C[C@H](C(=O)N[C@H](C)C(=O)NCCCNC(=O)c1ccc(-c2c3nc(c(-c4ccccc4)c4ccc([nH]4)c(-c4ccccc4)c4nc(c(-c5ccccc5)c5ccc2[nH]5)C=C4)C=C3)cc1)n1cnc2ccccc21
REMARK SMILES IDX 11 1 10 2 8 3 9 4 6 6 7 7 5 8 3 9 4 10 2 12 1 13 65 14 66 15
REMARK SMILES IDX 73 16 67 17 68 18 72 19 69 20 71 21 70 22 12 23 13 24 14 25
REMARK SMILES IDX 15 26 16 28 17 29 18 30 64 31 19 32 63 33 20 34 21 35 22 36
REMARK SMILES IDX 57 37 23 38 62 39 56 40 58 41 24 42 61 43 55 44 54 45 25 47
REMARK SMILES IDX 47 48 32 49 46 50 33 51 36 52 45 53 59 54 34 55 35 56 44 58
REMARK SMILES IDX 60 59 37 60 26 61 27 62 31 63 28 64 30 65 29 66 48 67 49 68
REMARK SMILES IDX 53 69 50 70 52 71 51 72 38 73 39 74 43 75 40 76 42 77 41 78
REMARK H PARENT 10 5 5 11 14 27 58 46 36 57
REMARK Flexibility Score: inf
ROOT
ATOM      1  C   UNL A   1      30.963  30.766  25.309  1.00  0.00     0.117 C 
ENDROOT
BRANCH   1   2
ATOM      2  N   UNL A   1      30.126  31.090  24.156  1.00  0.00    -0.354 N 
ATOM      3  C   UNL A   1      29.456  30.287  23.269  1.00  0.00     0.242 C 
ATOM      4  O   UNL A   1      29.010  30.811  22.247  1.00  0.00    -0.273 OA
ATOM      5  H   UNL A   1      30.024  32.054  23.987  1.00  0.00     0.163 HD
BRANCH   3   6
ATOM      6  C   UNL A   1      29.419  28.759  23.472  1.00  0.00     0.168 C 
ATOM      7  C   UNL A   1      28.017  28.277  23.107  1.00  0.00     0.041 C 
BRANCH   6   8
ATOM      8  N   UNL A   1      30.488  28.188  22.657  1.00  0.00    -0.343 N 
ATOM      9  C   UNL A   1      30.827  26.891  22.441  1.00  0.00     0.243 C 
ATOM     10  O   UNL A   1      31.158  26.576  21.296  1.00  0.00    -0.273 OA
ATOM     11  H   UNL A   1      31.051  28.847  22.192  1.00  0.00     0.164 HD
BRANCH   9  12
ATOM     12  C   UNL A   1      30.884  25.944  23.627  1.00  0.00     0.174 C 
ATOM     13  C   UNL A   1      30.863  24.464  23.211  1.00  0.00     0.042 C 
BRANCH  12  14
ATOM     14  N   UNL A   1      32.097  26.224  24.391  1.00  0.00    -0.318 N 
ATOM     15  C   UNL A   1      33.374  26.037  23.945  1.00  0.00     0.201 A 
ATOM     16  C   UNL A   1      32.153  26.907  25.584  1.00  0.00     0.069 A 
ATOM     17  N   UNL A   1      34.237  26.692  24.687  1.00  0.00    -0.237 NA
ATOM     18  C   UNL A   1      33.489  27.281  25.680  1.00  0.00     0.088 A 
ATOM     19  C   UNL A   1      31.182  27.292  26.519  1.00  0.00     0.028 A 
ATOM     20  C   UNL A   1      33.871  28.171  26.692  1.00  0.00     0.030 A 
ATOM     21  C   UNL A   1      31.587  28.162  27.531  1.00  0.00     0.002 A 
ATOM     22  C   UNL A   1      32.902  28.622  27.599  1.00  0.00     0.002 A 
ENDBRANCH  12  14
ENDBRANCH   9  12
ENDBRANCH   6   8
ENDBRANCH   3   6
ENDBRANCH   1   2
BRANCH   1  23
ATOM     23  C   UNL A   1      30.902  31.823  26.388  1.00  0.00     0.042 C 
BRANCH  23  24
ATOM     24  C   UNL A   1      32.272  32.295  26.821  1.00  0.00     0.118 C 
BRANCH  24  25
ATOM     25  N   UNL A   1      32.249  33.659  27.338  1.00  0.00    -0.352 N 
ATOM     26  C   UNL A   1      33.055  34.262  28.268  1.00  0.00     0.251 C 
ATOM     27  H   UNL A   1      31.545  34.236  26.960  1.00  0.00     0.163 HD
ATOM     28  O   UNL A   1      32.729  35.346  28.753  1.00  0.00    -0.269 OA
BRANCH  26  29
ATOM     29  C   UNL A   1      34.306  33.608  28.693  1.00  0.00     0.039 A 
ATOM     30  C   UNL A   1      35.517  34.002  28.121  1.00  0.00     0.014 A 
ATOM     31  C   UNL A   1      34.282  32.600  29.658  1.00  0.00     0.014 A 
ATOM     32  C   UNL A   1      36.705  33.422  28.566  1.00  0.00     0.010 A 
ATOM     33  C   UNL A   1      35.467  32.126  30.194  1.00  0.00     0.010 A 
ATOM     34  C   UNL A   1      36.691  32.506  29.631  1.00  0.00    -0.014 A 
BRANCH  34  35
ATOM     35  C   UNL A   1      37.938  31.891  30.141  1.00  0.00     0.031 A 
ATOM     36  C   UNL A   1      38.697  32.555  31.259  1.00  0.00     0.074 A 
ATOM     37  C   UNL A   1      38.416  30.772  29.562  1.00  0.00     0.049 A 
ATOM     38  N   UNL A   1      39.826  32.198  31.816  1.00  0.00    -0.248 NA
ATOM     39  C   UNL A   1      38.134  33.805  31.800  1.00  0.00     0.031 C 
ATOM     40  C   UNL A   1      37.800  30.068  28.435  1.00  0.00     0.029 A 
ATOM     41  N   UNL A   1      39.534  30.031  29.846  1.00  0.00    -0.354 N 
ATOM     42  C   UNL A   1      40.112  33.186  32.751  1.00  0.00     0.074 A 
ATOM     43  C   UNL A   1      39.081  34.191  32.639  1.00  0.00     0.031 C 
ATOM     44  C   UNL A   1      38.524  28.972  28.154  1.00  0.00     0.029 A 
ATOM     45  C   UNL A   1      39.675  28.922  29.048  1.00  0.00     0.049 A 
ATOM     46  H   UNL A   1      40.174  30.270  30.555  1.00  0.00     0.167 HD
ATOM     47  C   UNL A   1      41.126  33.239  33.646  1.00  0.00     0.031 A 
ATOM     48  C   UNL A   1      40.628  27.972  29.040  1.00  0.00     0.031 A 
ATOM     49  C   UNL A   1      42.140  32.227  33.766  1.00  0.00     0.049 A 
ATOM     50  C   UNL A   1      41.743  28.052  30.044  1.00  0.00     0.074 A 
ATOM     51  C   UNL A   1      43.177  32.152  34.678  1.00  0.00     0.029 A 
ATOM     52  N   UNL A   1      42.241  31.113  32.947  1.00  0.00    -0.354 N 
ATOM     53  N   UNL A   1      41.958  28.953  30.973  1.00  0.00    -0.248 NA
ATOM     54  C   UNL A   1      42.739  26.972  30.010  1.00  0.00     0.031 C 
ATOM     55  C   UNL A   1      43.942  31.022  34.373  1.00  0.00     0.029 A 
ATOM     56  C   UNL A   1      43.339  30.356  33.317  1.00  0.00     0.049 A 
ATOM     57  H   UNL A   1      41.624  30.894  32.213  1.00  0.00     0.167 HD
ATOM     58  C   UNL A   1      43.094  28.531  31.653  1.00  0.00     0.074 A 
ATOM     59  C   UNL A   1      43.508  27.285  31.041  1.00  0.00     0.031 C 
ATOM     60  C   UNL A   1      43.736  29.121  32.692  1.00  0.00     0.031 A 
BRANCH  47  61
ATOM     61  C   UNL A   1      41.185  34.434  34.557  1.00  0.00    -0.014 A 
ATOM     62  C   UNL A   1      41.866  35.606  34.185  1.00  0.00     0.009 A 
ATOM     63  C   UNL A   1      40.530  34.399  35.798  1.00  0.00     0.009 A 
ATOM     64  C   UNL A   1      41.924  36.699  35.052  1.00  0.00     0.001 A 
ATOM     65  C   UNL A   1      40.560  35.505  36.648  1.00  0.00     0.001 A 
ATOM     66  C   UNL A   1      41.266  36.650  36.280  1.00  0.00     0.000 A 
ENDBRANCH  47  61
BRANCH  48  67
ATOM     67  C   UNL A   1      40.554  26.849  28.068  1.00  0.00    -0.014 A 
ATOM     68  C   UNL A   1      41.103  26.979  26.784  1.00  0.00     0.009 A 
ATOM     69  C   UNL A   1      39.928  25.642  28.418  1.00  0.00     0.009 A 
ATOM     70  C   UNL A   1      40.998  25.938  25.859  1.00  0.00     0.001 A 
ATOM     71  C   UNL A   1      39.852  24.591  27.502  1.00  0.00     0.001 A 
ATOM     72  C   UNL A   1      40.377  24.744  26.220  1.00  0.00     0.000 A 
ENDBRANCH  48  67
BRANCH  60  73
ATOM     73  C   UNL A   1      44.927  28.400  33.258  1.00  0.00    -0.014 A 
ATOM     74  C   UNL A   1      46.231  28.680  32.818  1.00  0.00     0.009 A 
ATOM     75  C   UNL A   1      44.741  27.445  34.268  1.00  0.00     0.009 A 
ATOM     76  C   UNL A   1      47.319  27.985  33.351  1.00  0.00     0.001 A 
ATOM     77  C   UNL A   1      45.832  26.777  34.824  1.00  0.00     0.001 A 
ATOM     78  C   UNL A   1      47.119  27.039  34.355  1.00  0.00     0.000 A 
ENDBRANCH  60  73
ENDBRANCH  34  35
ENDBRANCH  26  29
ENDBRANCH  24  25
ENDBRANCH  23  24
ENDBRANCH   1  23
TORSDOF 13
ENDMDL
