MODEL 1
REMARK VINA RESULT:      -9.8      0.000      0.000
REMARK SMILES [NH3+][C@@H](Cc1ccc(OC(F)F)cc1)C(=O)NCCCNC(=O)c1ccc(-c2c3nc(c(-c4ccccc4)c4ccc([nH]4)c(-c4ccccc4)c4nc(c(-c5ccccc5)c5ccc2[nH]5)C=C4)C=C3)cc1
REMARK SMILES IDX 17 1 16 2 14 3 15 4 2 6 1 7 3 11 4 12 5 13 13 14 6 15 12 16
REMARK SMILES IDX 7 17 8 18 9 19 10 20 11 21 18 22 19 23 20 24 21 25 22 27
REMARK SMILES IDX 23 28 24 29 70 30 25 31 69 32 26 33 27 34 28 35 63 36 29 37
REMARK SMILES IDX 68 38 62 39 64 40 30 41 67 42 61 43 60 44 31 46 53 47 38 48
REMARK SMILES IDX 52 49 39 50 42 51 51 52 65 53 40 54 41 55 50 57 66 58 43 59
REMARK SMILES IDX 32 60 33 61 37 62 34 63 36 64 35 65 54 66 55 67 59 68 56 69
REMARK SMILES IDX 58 70 57 71 44 72 45 73 49 74 46 75 48 76 47 77
REMARK H PARENT 16 5 1 8 1 9 1 10 20 26 64 45 42 56
REMARK Flexibility Score: inf
ROOT
ATOM      1  C   UNL A   1      34.008  34.914  29.638  1.00  0.00     0.118 C 
ENDROOT
BRANCH   1   2
ATOM      2  N   UNL A   1      32.910  35.296  30.502  1.00  0.00    -0.351 N 
ATOM      3  C   UNL A   1      32.873  36.212  31.511  1.00  0.00     0.278 C 
ATOM      4  O   UNL A   1      31.755  36.639  31.821  1.00  0.00    -0.268 OA
ATOM      5  H   UNL A   1      32.064  34.822  30.336  1.00  0.00     0.163 HD
BRANCH   3   6
ATOM      6  C   UNL A   1      34.132  36.732  32.245  1.00  0.00     0.275 C 
BRANCH   6   7
ATOM      7  N   UNL A   1      34.137  38.205  32.382  1.00  0.00    -0.347 N 
ATOM      8  H   UNL A   1      34.706  38.470  33.187  1.00  0.00     0.345 HD
ATOM      9  H   UNL A   1      33.182  38.539  32.517  1.00  0.00     0.345 HD
ATOM     10  H   UNL A   1      34.527  38.625  31.538  1.00  0.00     0.345 HD
ENDBRANCH   6   7
BRANCH   6  11
ATOM     11  C   UNL A   1      34.549  35.917  33.493  1.00  0.00     0.111 C 
BRANCH  11  12
ATOM     12  C   UNL A   1      35.437  34.714  33.290  1.00  0.00    -0.041 A 
ATOM     13  C   UNL A   1      34.985  33.422  33.592  1.00  0.00     0.008 A 
ATOM     14  C   UNL A   1      36.728  34.866  32.766  1.00  0.00     0.008 A 
ATOM     15  C   UNL A   1      35.769  32.306  33.281  1.00  0.00     0.047 A 
ATOM     16  C   UNL A   1      37.499  33.748  32.428  1.00  0.00     0.047 A 
ATOM     17  C   UNL A   1      36.997  32.467  32.641  1.00  0.00     0.126 A 
BRANCH  17  18
ATOM     18  O   UNL A   1      37.655  31.320  32.291  1.00  0.00    -0.435 OA
BRANCH  18  19
ATOM     19  C   UNL A   1      38.139  30.560  33.400  1.00  0.00     0.542 C 
ATOM     20  F   UNL A   1      38.981  29.587  32.965  1.00  0.00    -0.167 F 
ATOM     21  F   UNL A   1      38.810  31.371  34.247  1.00  0.00    -0.167 F 
ENDBRANCH  18  19
ENDBRANCH  17  18
ENDBRANCH  11  12
ENDBRANCH   6  11
ENDBRANCH   3   6
ENDBRANCH   1   2
BRANCH   1  22
ATOM     22  C   UNL A   1      34.426  33.464  29.759  1.00  0.00     0.042 C 
BRANCH  22  23
ATOM     23  C   UNL A   1      34.898  32.876  28.435  1.00  0.00     0.118 C 
BRANCH  23  24
ATOM     24  N   UNL A   1      34.194  31.650  28.056  1.00  0.00    -0.352 N 
ATOM     25  C   UNL A   1      34.646  30.359  27.900  1.00  0.00     0.251 C 
ATOM     26  H   UNL A   1      33.233  31.768  27.884  1.00  0.00     0.163 HD
ATOM     27  O   UNL A   1      33.922  29.497  27.422  1.00  0.00    -0.269 OA
BRANCH  25  28
ATOM     28  C   UNL A   1      36.024  30.014  28.292  1.00  0.00     0.039 A 
ATOM     29  C   UNL A   1      36.268  29.495  29.568  1.00  0.00     0.014 A 
ATOM     30  C   UNL A   1      37.073  30.200  27.397  1.00  0.00     0.014 A 
ATOM     31  C   UNL A   1      37.556  29.075  29.906  1.00  0.00     0.010 A 
ATOM     32  C   UNL A   1      38.321  29.676  27.686  1.00  0.00     0.010 A 
ATOM     33  C   UNL A   1      38.580  29.119  28.948  1.00  0.00    -0.014 A 
BRANCH  33  34
ATOM     34  C   UNL A   1      39.953  28.637  29.227  1.00  0.00     0.031 A 
ATOM     35  C   UNL A   1      40.947  29.586  29.838  1.00  0.00     0.074 A 
ATOM     36  C   UNL A   1      40.334  27.412  28.821  1.00  0.00     0.049 A 
ATOM     37  N   UNL A   1      42.240  29.456  29.976  1.00  0.00    -0.248 NA
ATOM     38  C   UNL A   1      40.419  30.879  30.312  1.00  0.00     0.031 C 
ATOM     39  C   UNL A   1      39.472  26.416  28.181  1.00  0.00     0.029 A 
ATOM     40  N   UNL A   1      41.562  26.803  28.872  1.00  0.00    -0.354 N 
ATOM     41  C   UNL A   1      42.683  30.663  30.501  1.00  0.00     0.074 A 
ATOM     42  C   UNL A   1      41.532  31.530  30.610  1.00  0.00     0.031 C 
ATOM     43  C   UNL A   1      40.192  25.314  27.918  1.00  0.00     0.029 A 
ATOM     44  C   UNL A   1      41.575  25.543  28.323  1.00  0.00     0.049 A 
ATOM     45  H   UNL A   1      42.360  27.228  29.263  1.00  0.00     0.167 HD
ATOM     46  C   UNL A   1      43.934  31.013  30.879  1.00  0.00     0.031 A 
ATOM     47  C   UNL A   1      42.592  24.679  28.153  1.00  0.00     0.031 A 
ATOM     48  C   UNL A   1      45.065  30.130  30.809  1.00  0.00     0.049 A 
ATOM     49  C   UNL A   1      43.970  25.081  28.602  1.00  0.00     0.074 A 
ATOM     50  C   UNL A   1      46.363  30.354  31.230  1.00  0.00     0.029 A 
ATOM     51  N   UNL A   1      45.024  28.844  30.289  1.00  0.00    -0.354 N 
ATOM     52  N   UNL A   1      44.366  26.208  29.143  1.00  0.00    -0.248 NA
ATOM     53  C   UNL A   1      45.038  24.087  28.424  1.00  0.00     0.031 C 
ATOM     54  C   UNL A   1      47.118  29.215  30.931  1.00  0.00     0.029 A 
ATOM     55  C   UNL A   1      46.278  28.266  30.369  1.00  0.00     0.049 A 
ATOM     56  H   UNL A   1      44.223  28.410  29.919  1.00  0.00     0.167 HD
ATOM     57  C   UNL A   1      45.723  26.050  29.395  1.00  0.00     0.074 A 
ATOM     58  C   UNL A   1      46.076  24.714  28.962  1.00  0.00     0.031 C 
ATOM     59  C   UNL A   1      46.600  26.931  29.936  1.00  0.00     0.031 A 
BRANCH  46  60
ATOM     60  C   UNL A   1      44.134  32.410  31.399  1.00  0.00    -0.014 A 
ATOM     61  C   UNL A   1      44.028  32.701  32.769  1.00  0.00     0.009 A 
ATOM     62  C   UNL A   1      44.442  33.449  30.508  1.00  0.00     0.009 A 
ATOM     63  C   UNL A   1      44.180  34.011  33.229  1.00  0.00     0.001 A 
ATOM     64  C   UNL A   1      44.625  34.752  30.974  1.00  0.00     0.001 A 
ATOM     65  C   UNL A   1      44.482  35.034  32.332  1.00  0.00     0.000 A 
ENDBRANCH  46  60
BRANCH  47  66
ATOM     66  C   UNL A   1      42.346  23.344  27.548  1.00  0.00    -0.014 A 
ATOM     67  C   UNL A   1      42.558  23.139  26.177  1.00  0.00     0.009 A 
ATOM     68  C   UNL A   1      41.901  22.269  28.334  1.00  0.00     0.009 A 
ATOM     69  C   UNL A   1      42.305  21.894  25.598  1.00  0.00     0.001 A 
ATOM     70  C   UNL A   1      41.675  21.017  27.757  1.00  0.00     0.001 A 
ATOM     71  C   UNL A   1      41.868  20.832  26.388  1.00  0.00     0.000 A 
ENDBRANCH  47  66
BRANCH  59  72
ATOM     72  C   UNL A   1      48.012  26.461  30.127  1.00  0.00    -0.014 A 
ATOM     73  C   UNL A   1      48.420  25.841  31.317  1.00  0.00     0.009 A 
ATOM     74  C   UNL A   1      48.933  26.595  29.076  1.00  0.00     0.009 A 
ATOM     75  C   UNL A   1      49.732  25.391  31.463  1.00  0.00     0.001 A 
ATOM     76  C   UNL A   1      50.237  26.119  29.213  1.00  0.00     0.001 A 
ATOM     77  C   UNL A   1      50.637  25.525  30.410  1.00  0.00     0.000 A 
ENDBRANCH  59  72
ENDBRANCH  33  34
ENDBRANCH  25  28
ENDBRANCH  23  24
ENDBRANCH  22  23
ENDBRANCH   1  22
TORSDOF 15
ENDMDL
MODEL 2
REMARK VINA RESULT:      -9.6      5.630     10.895
REMARK SMILES [NH3+][C@@H](Cc1ccc(OC(F)F)cc1)C(=O)NCCCNC(=O)c1ccc(-c2c3nc(c(-c4ccccc4)c4ccc([nH]4)c(-c4ccccc4)c4nc(c(-c5ccccc5)c5ccc2[nH]5)C=C4)C=C3)cc1
REMARK SMILES IDX 17 1 16 2 14 3 15 4 2 6 1 7 3 11 4 12 5 13 13 14 6 15 12 16
REMARK SMILES IDX 7 17 8 18 9 19 10 20 11 21 18 22 19 23 20 24 21 25 22 27
REMARK SMILES IDX 23 28 24 29 70 30 25 31 69 32 26 33 27 34 28 35 63 36 29 37
REMARK SMILES IDX 68 38 62 39 64 40 30 41 67 42 61 43 60 44 31 46 53 47 38 48
REMARK SMILES IDX 52 49 39 50 42 51 51 52 65 53 40 54 41 55 50 57 66 58 43 59
REMARK SMILES IDX 32 60 33 61 37 62 34 63 36 64 35 65 54 66 55 67 59 68 56 69
REMARK SMILES IDX 58 70 57 71 44 72 45 73 49 74 46 75 48 76 47 77
REMARK H PARENT 16 5 1 8 1 9 1 10 20 26 64 45 42 56
REMARK Flexibility Score: inf
ROOT
ATOM      1  C   UNL A   1      36.117  21.447  25.140  1.00  0.00     0.118 C 
ENDROOT
BRANCH   1   2
ATOM      2  N   UNL A   1      35.823  22.245  23.969  1.00  0.00    -0.351 N 
ATOM      3  C   UNL A   1      34.705  22.962  23.661  1.00  0.00     0.278 C 
ATOM      4  O   UNL A   1      34.844  23.860  22.822  1.00  0.00    -0.268 OA
ATOM      5  H   UNL A   1      36.538  22.274  23.292  1.00  0.00     0.163 HD
BRANCH   3   6
ATOM      6  C   UNL A   1      33.322  22.716  24.309  1.00  0.00     0.275 C 
BRANCH   6   7
ATOM      7  N   UNL A   1      32.745  23.947  24.892  1.00  0.00    -0.347 N 
ATOM      8  H   UNL A   1      31.895  24.198  24.385  1.00  0.00     0.345 HD
ATOM      9  H   UNL A   1      33.420  24.708  24.819  1.00  0.00     0.345 HD
ATOM     10  H   UNL A   1      32.518  23.786  25.874  1.00  0.00     0.345 HD
ENDBRANCH   6   7
BRANCH   6  11
ATOM     11  C   UNL A   1      32.362  21.820  23.491  1.00  0.00     0.111 C 
BRANCH  11  12
ATOM     12  C   UNL A   1      32.479  20.323  23.651  1.00  0.00    -0.041 A 
ATOM     13  C   UNL A   1      32.241  19.459  22.573  1.00  0.00     0.008 A 
ATOM     14  C   UNL A   1      32.857  19.770  24.882  1.00  0.00     0.008 A 
ATOM     15  C   UNL A   1      32.477  18.087  22.700  1.00  0.00     0.047 A 
ATOM     16  C   UNL A   1      33.120  18.400  25.000  1.00  0.00     0.047 A 
ATOM     17  C   UNL A   1      32.977  17.567  23.893  1.00  0.00     0.126 A 
BRANCH  17  18
ATOM     18  O   UNL A   1      33.265  16.230  23.901  1.00  0.00    -0.435 OA
BRANCH  18  19
ATOM     19  C   UNL A   1      33.390  15.665  25.208  1.00  0.00     0.542 C 
ATOM     20  F   UNL A   1      32.530  14.623  25.348  1.00  0.00    -0.167 F 
ATOM     21  F   UNL A   1      34.651  15.216  25.388  1.00  0.00    -0.167 F 
ENDBRANCH  18  19
ENDBRANCH  17  18
ENDBRANCH  11  12
ENDBRANCH   6  11
ENDBRANCH   3   6
ENDBRANCH   1   2
BRANCH   1  22
ATOM     22  C   UNL A   1      37.227  20.435  24.948  1.00  0.00     0.042 C 
BRANCH  22  23
ATOM     23  C   UNL A   1      38.539  20.874  25.585  1.00  0.00     0.118 C 
BRANCH  23  24
ATOM     24  N   UNL A   1      39.547  19.814  25.637  1.00  0.00    -0.352 N 
ATOM     25  C   UNL A   1      40.876  19.846  25.995  1.00  0.00     0.251 C 
ATOM     26  H   UNL A   1      39.219  18.925  25.372  1.00  0.00     0.163 HD
ATOM     27  O   UNL A   1      41.594  18.872  25.820  1.00  0.00    -0.269 OA
BRANCH  25  28
ATOM     28  C   UNL A   1      41.448  21.074  26.575  1.00  0.00     0.039 A 
ATOM     29  C   UNL A   1      41.952  22.067  25.728  1.00  0.00     0.014 A 
ATOM     30  C   UNL A   1      41.484  21.243  27.956  1.00  0.00     0.014 A 
ATOM     31  C   UNL A   1      42.403  23.271  26.271  1.00  0.00     0.010 A 
ATOM     32  C   UNL A   1      41.818  22.478  28.485  1.00  0.00     0.010 A 
ATOM     33  C   UNL A   1      42.293  23.502  27.650  1.00  0.00    -0.014 A 
BRANCH  33  34
ATOM     34  C   UNL A   1      42.703  24.778  28.280  1.00  0.00     0.031 A 
ATOM     35  C   UNL A   1      41.664  25.840  28.516  1.00  0.00     0.074 A 
ATOM     36  C   UNL A   1      44.004  25.027  28.519  1.00  0.00     0.049 A 
ATOM     37  N   UNL A   1      41.821  27.093  28.853  1.00  0.00    -0.248 NA
ATOM     38  C   UNL A   1      40.260  25.451  28.289  1.00  0.00     0.031 C 
ATOM     39  C   UNL A   1      45.108  24.091  28.295  1.00  0.00     0.029 A 
ATOM     40  N   UNL A   1      44.620  26.160  28.987  1.00  0.00    -0.354 N 
ATOM     41  C   UNL A   1      40.549  27.649  28.829  1.00  0.00     0.074 A 
ATOM     42  C   UNL A   1      39.638  26.614  28.395  1.00  0.00     0.031 C 
ATOM     43  C   UNL A   1      46.262  24.681  28.646  1.00  0.00     0.029 A 
ATOM     44  C   UNL A   1      45.987  26.049  29.069  1.00  0.00     0.049 A 
ATOM     45  H   UNL A   1      44.129  26.976  29.239  1.00  0.00     0.167 HD
ATOM     46  C   UNL A   1      40.168  28.905  29.158  1.00  0.00     0.031 A 
ATOM     47  C   UNL A   1      46.912  26.957  29.431  1.00  0.00     0.031 A 
ATOM     48  C   UNL A   1      41.073  29.915  29.631  1.00  0.00     0.049 A 
ATOM     49  C   UNL A   1      46.463  28.340  29.816  1.00  0.00     0.074 A 
ATOM     50  C   UNL A   1      40.788  31.198  30.061  1.00  0.00     0.029 A 
ATOM     51  N   UNL A   1      42.446  29.747  29.744  1.00  0.00    -0.354 N 
ATOM     52  N   UNL A   1      45.250  28.838  29.836  1.00  0.00    -0.248 NA
ATOM     53  C   UNL A   1      47.510  29.281  30.235  1.00  0.00     0.031 C 
ATOM     54  C   UNL A   1      41.994  31.820  30.400  1.00  0.00     0.029 A 
ATOM     55  C   UNL A   1      43.022  30.907  30.228  1.00  0.00     0.049 A 
ATOM     56  H   UNL A   1      42.935  28.925  29.515  1.00  0.00     0.167 HD
ATOM     57  C   UNL A   1      45.384  30.142  30.295  1.00  0.00     0.074 A 
ATOM     58  C   UNL A   1      46.794  30.350  30.555  1.00  0.00     0.031 C 
ATOM     59  C   UNL A   1      44.428  31.084  30.484  1.00  0.00     0.031 A 
BRANCH  46  60
ATOM     60  C   UNL A   1      38.710  29.245  29.014  1.00  0.00    -0.014 A 
ATOM     61  C   UNL A   1      37.816  29.093  30.086  1.00  0.00     0.009 A 
ATOM     62  C   UNL A   1      38.225  29.735  27.792  1.00  0.00     0.009 A 
ATOM     63  C   UNL A   1      36.458  29.378  29.923  1.00  0.00     0.001 A 
ATOM     64  C   UNL A   1      36.874  30.050  27.640  1.00  0.00     0.001 A 
ATOM     65  C   UNL A   1      35.990  29.861  28.702  1.00  0.00     0.000 A 
ENDBRANCH  46  60
BRANCH  47  66
ATOM     66  C   UNL A   1      48.350  26.585  29.467  1.00  0.00    -0.014 A 
ATOM     67  C   UNL A   1      48.900  25.999  30.617  1.00  0.00     0.009 A 
ATOM     68  C   UNL A   1      49.180  26.810  28.358  1.00  0.00     0.009 A 
ATOM     69  C   UNL A   1      50.256  25.670  30.667  1.00  0.00     0.001 A 
ATOM     70  C   UNL A   1      50.530  26.454  28.400  1.00  0.00     0.001 A 
ATOM     71  C   UNL A   1      51.070  25.893  29.557  1.00  0.00     0.000 A 
ENDBRANCH  47  66
BRANCH  59  72
ATOM     72  C   UNL A   1      44.872  32.408  31.036  1.00  0.00    -0.014 A 
ATOM     73  C   UNL A   1      44.947  32.632  32.418  1.00  0.00     0.009 A 
ATOM     74  C   UNL A   1      45.270  33.426  30.155  1.00  0.00     0.009 A 
ATOM     75  C   UNL A   1      45.384  33.863  32.908  1.00  0.00     0.001 A 
ATOM     76  C   UNL A   1      45.733  34.645  30.647  1.00  0.00     0.001 A 
ATOM     77  C   UNL A   1      45.782  34.866  32.023  1.00  0.00     0.000 A 
ENDBRANCH  59  72
ENDBRANCH  33  34
ENDBRANCH  25  28
ENDBRANCH  23  24
ENDBRANCH  22  23
ENDBRANCH   1  22
TORSDOF 15
ENDMDL
MODEL 3
REMARK VINA RESULT:      -9.6      4.384      6.797
REMARK SMILES [NH3+][C@@H](Cc1ccc(OC(F)F)cc1)C(=O)NCCCNC(=O)c1ccc(-c2c3nc(c(-c4ccccc4)c4ccc([nH]4)c(-c4ccccc4)c4nc(c(-c5ccccc5)c5ccc2[nH]5)C=C4)C=C3)cc1
REMARK SMILES IDX 17 1 16 2 14 3 15 4 2 6 1 7 3 11 4 12 5 13 13 14 6 15 12 16
REMARK SMILES IDX 7 17 8 18 9 19 10 20 11 21 18 22 19 23 20 24 21 25 22 27
REMARK SMILES IDX 23 28 24 29 70 30 25 31 69 32 26 33 27 34 28 35 63 36 29 37
REMARK SMILES IDX 68 38 62 39 64 40 30 41 67 42 61 43 60 44 31 46 53 47 38 48
REMARK SMILES IDX 52 49 39 50 42 51 51 52 65 53 40 54 41 55 50 57 66 58 43 59
REMARK SMILES IDX 32 60 33 61 37 62 34 63 36 64 35 65 54 66 55 67 59 68 56 69
REMARK SMILES IDX 58 70 57 71 44 72 45 73 49 74 46 75 48 76 47 77
REMARK H PARENT 16 5 1 8 1 9 1 10 20 26 64 45 42 56
REMARK Flexibility Score: inf
ROOT
ATOM      1  C   UNL A   1      33.202  27.219  25.350  1.00  0.00     0.118 C 
ENDROOT
BRANCH   1   2
ATOM      2  N   UNL A   1      31.981  26.862  26.043  1.00  0.00    -0.351 N 
ATOM      3  C   UNL A   1      30.863  26.239  25.572  1.00  0.00     0.278 C 
ATOM      4  O   UNL A   1      30.143  25.696  26.418  1.00  0.00    -0.268 OA
ATOM      5  H   UNL A   1      31.955  27.106  26.996  1.00  0.00     0.163 HD
BRANCH   3   6
ATOM      6  C   UNL A   1      30.482  26.174  24.074  1.00  0.00     0.275 C 
BRANCH   6   7
ATOM      7  N   UNL A   1      31.058  24.992  23.396  1.00  0.00    -0.347 N 
ATOM      8  H   UNL A   1      31.549  25.289  22.552  1.00  0.00     0.345 HD
ATOM      9  H   UNL A   1      30.310  24.345  23.145  1.00  0.00     0.345 HD
ATOM     10  H   UNL A   1      31.714  24.525  24.023  1.00  0.00     0.345 HD
ENDBRANCH   6   7
BRANCH   6  11
ATOM     11  C   UNL A   1      29.005  26.505  23.756  1.00  0.00     0.111 C 
BRANCH  11  12
ATOM     12  C   UNL A   1      28.651  27.938  23.440  1.00  0.00    -0.041 A 
ATOM     13  C   UNL A   1      27.315  28.364  23.411  1.00  0.00     0.008 A 
ATOM     14  C   UNL A   1      29.660  28.880  23.198  1.00  0.00     0.008 A 
ATOM     15  C   UNL A   1      27.008  29.718  23.245  1.00  0.00     0.047 A 
ATOM     16  C   UNL A   1      29.352  30.239  23.060  1.00  0.00     0.047 A 
ATOM     17  C   UNL A   1      28.027  30.663  23.134  1.00  0.00     0.126 A 
BRANCH  17  18
ATOM     18  O   UNL A   1      27.639  31.972  23.066  1.00  0.00    -0.435 OA
BRANCH  18  19
ATOM     19  C   UNL A   1      28.584  32.832  22.426  1.00  0.00     0.542 C 
ATOM     20  F   UNL A   1      28.140  33.173  21.189  1.00  0.00    -0.167 F 
ATOM     21  F   UNL A   1      28.741  33.957  23.158  1.00  0.00    -0.167 F 
ENDBRANCH  18  19
ENDBRANCH  17  18
ENDBRANCH  11  12
ENDBRANCH   6  11
ENDBRANCH   3   6
ENDBRANCH   1   2
BRANCH   1  22
ATOM     22  C   UNL A   1      33.913  28.429  25.917  1.00  0.00     0.042 C 
BRANCH  22  23
ATOM     23  C   UNL A   1      33.513  28.727  27.356  1.00  0.00     0.118 C 
BRANCH  23  24
ATOM     24  N   UNL A   1      33.627  30.141  27.714  1.00  0.00    -0.352 N 
ATOM     25  C   UNL A   1      34.661  30.849  28.283  1.00  0.00     0.251 C 
ATOM     26  H   UNL A   1      32.828  30.679  27.513  1.00  0.00     0.163 HD
ATOM     27  O   UNL A   1      34.500  32.005  28.649  1.00  0.00    -0.269 OA
BRANCH  25  28
ATOM     28  C   UNL A   1      35.971  30.204  28.476  1.00  0.00     0.039 A 
ATOM     29  C   UNL A   1      36.912  30.231  27.441  1.00  0.00     0.014 A 
ATOM     30  C   UNL A   1      36.270  29.576  29.681  1.00  0.00     0.014 A 
ATOM     31  C   UNL A   1      38.188  29.707  27.656  1.00  0.00     0.010 A 
ATOM     32  C   UNL A   1      37.568  29.166  29.936  1.00  0.00     0.010 A 
ATOM     33  C   UNL A   1      38.538  29.215  28.922  1.00  0.00    -0.014 A 
BRANCH  33  34
ATOM     34  C   UNL A   1      39.891  28.698  29.230  1.00  0.00     0.031 A 
ATOM     35  C   UNL A   1      40.893  29.615  29.876  1.00  0.00     0.074 A 
ATOM     36  C   UNL A   1      40.253  27.467  28.822  1.00  0.00     0.049 A 
ATOM     37  N   UNL A   1      42.179  29.452  30.045  1.00  0.00    -0.248 NA
ATOM     38  C   UNL A   1      40.385  30.916  30.350  1.00  0.00     0.031 C 
ATOM     39  C   UNL A   1      39.383  26.499  28.149  1.00  0.00     0.029 A 
ATOM     40  N   UNL A   1      41.464  26.828  28.896  1.00  0.00    -0.354 N 
ATOM     41  C   UNL A   1      42.637  30.643  30.594  1.00  0.00     0.074 A 
ATOM     42  C   UNL A   1      41.505  31.537  30.682  1.00  0.00     0.031 C 
ATOM     43  C   UNL A   1      40.083  25.382  27.893  1.00  0.00     0.029 A 
ATOM     44  C   UNL A   1      41.460  25.574  28.335  1.00  0.00     0.049 A 
ATOM     45  H   UNL A   1      42.262  27.229  29.312  1.00  0.00     0.167 HD
ATOM     46  C   UNL A   1      43.887  30.959  31.006  1.00  0.00     0.031 A 
ATOM     47  C   UNL A   1      42.460  24.686  28.181  1.00  0.00     0.031 A 
ATOM     48  C   UNL A   1      44.997  30.048  30.955  1.00  0.00     0.049 A 
ATOM     49  C   UNL A   1      43.836  25.050  28.670  1.00  0.00     0.074 A 
ATOM     50  C   UNL A   1      46.289  30.236  31.411  1.00  0.00     0.029 A 
ATOM     51  N   UNL A   1      44.938  28.769  30.422  1.00  0.00    -0.354 N 
ATOM     52  N   UNL A   1      44.246  26.162  29.232  1.00  0.00    -0.248 NA
ATOM     53  C   UNL A   1      44.884  24.032  28.508  1.00  0.00     0.031 C 
ATOM     54  C   UNL A   1      47.023  29.082  31.119  1.00  0.00     0.029 A 
ATOM     55  C   UNL A   1      46.175  28.160  30.527  1.00  0.00     0.049 A 
ATOM     56  H   UNL A   1      44.137  28.358  30.027  1.00  0.00     0.167 HD
ATOM     57  C   UNL A   1      45.591  25.968  29.516  1.00  0.00     0.074 A 
ATOM     58  C   UNL A   1      45.922  24.628  29.077  1.00  0.00     0.031 C 
ATOM     59  C   UNL A   1      46.475  26.822  30.088  1.00  0.00     0.031 A 
BRANCH  46  60
ATOM     60  C   UNL A   1      44.107  32.345  31.546  1.00  0.00    -0.014 A 
ATOM     61  C   UNL A   1      44.482  33.404  30.704  1.00  0.00     0.009 A 
ATOM     62  C   UNL A   1      43.927  32.598  32.914  1.00  0.00     0.009 A 
ATOM     63  C   UNL A   1      44.719  34.677  31.230  1.00  0.00     0.001 A 
ATOM     64  C   UNL A   1      44.132  33.878  33.432  1.00  0.00     0.001 A 
ATOM     65  C   UNL A   1      44.539  34.913  32.592  1.00  0.00     0.000 A 
ENDBRANCH  46  60
BRANCH  47  66
ATOM     66  C   UNL A   1      42.197  23.364  27.557  1.00  0.00    -0.014 A 
ATOM     67  C   UNL A   1      42.459  23.160  26.194  1.00  0.00     0.009 A 
ATOM     68  C   UNL A   1      41.685  22.299  28.315  1.00  0.00     0.009 A 
ATOM     69  C   UNL A   1      42.191  21.928  25.595  1.00  0.00     0.001 A 
ATOM     70  C   UNL A   1      41.444  21.058  27.720  1.00  0.00     0.001 A 
ATOM     71  C   UNL A   1      41.688  20.876  26.359  1.00  0.00     0.000 A 
ENDBRANCH  47  66
BRANCH  59  72
ATOM     72  C   UNL A   1      47.870  26.315  30.309  1.00  0.00    -0.014 A 
ATOM     73  C   UNL A   1      48.277  25.821  31.557  1.00  0.00     0.009 A 
ATOM     74  C   UNL A   1      48.773  26.285  29.234  1.00  0.00     0.009 A 
ATOM     75  C   UNL A   1      49.573  25.333  31.732  1.00  0.00     0.001 A 
ATOM     76  C   UNL A   1      50.059  25.772  29.405  1.00  0.00     0.001 A 
ATOM     77  C   UNL A   1      50.460  25.304  30.656  1.00  0.00     0.000 A 
ENDBRANCH  59  72
ENDBRANCH  33  34
ENDBRANCH  25  28
ENDBRANCH  23  24
ENDBRANCH  22  23
ENDBRANCH   1  22
TORSDOF 15
ENDMDL
