MODEL 1
REMARK VINA RESULT:     -13.0      0.000      0.000
REMARK SMILES Cc1cccc(S(=O)(=O)Nc2cnc(N(C)Cc3ccccc3)c(C(=O)NCCCNC(=O)c3ccc(-c4c5nc(c(-c6ccccc6)c6ccc([nH]6)c(-c6ccccc6)c6nc(c(-c7ccccc7)c7ccc4[nH]7)C=C6)C=C5)cc3)c2)c1
REMARK SMILES IDX 28 1 27 2 25 3 26 4 24 6 11 7 12 8 82 9 13 10 14 11 10 12
REMARK SMILES IDX 7 14 8 15 9 16 6 17 1 18 2 19 3 20 83 21 4 22 5 23 15 24
REMARK SMILES IDX 16 25 17 26 18 27 19 28 23 29 20 30 22 31 21 32 29 33 30 34
REMARK SMILES IDX 31 35 32 36 33 38 34 39 35 40 81 41 36 42 80 43 37 44 38 45
REMARK SMILES IDX 39 46 74 47 40 48 79 49 73 50 75 51 41 52 78 53 72 54 71 55
REMARK SMILES IDX 42 57 64 58 49 59 63 60 50 61 53 62 62 63 76 64 51 65 52 66
REMARK SMILES IDX 61 68 77 69 54 70 43 71 44 72 48 73 45 74 47 75 46 76 65 77
REMARK SMILES IDX 66 78 70 79 67 80 69 81 68 82 55 83 56 84 60 85 57 86 59 87
REMARK SMILES IDX 58 88
REMARK H PARENT 27 5 10 13 31 37 75 56 53 67
REMARK Flexibility Score: inf
ROOT
ATOM      1  C   UNL A   1      32.873  28.360  27.550  1.00  0.00     0.118 C 
ENDROOT
BRANCH   1   2
ATOM      2  N   UNL A   1      31.679  27.557  27.318  1.00  0.00    -0.352 N 
ATOM      3  C   UNL A   1      31.411  26.524  26.436  1.00  0.00     0.255 C 
ATOM      4  O   UNL A   1      30.234  26.194  26.310  1.00  0.00    -0.269 OA
ATOM      5  H   UNL A   1      30.920  27.794  27.899  1.00  0.00     0.163 HD
BRANCH   3   6
ATOM      6  C   UNL A   1      32.466  25.858  25.618  1.00  0.00     0.084 A 
ATOM      7  C   UNL A   1      34.135  24.075  25.544  1.00  0.00     0.068 A 
ATOM      8  C   UNL A   1      34.527  24.589  24.331  1.00  0.00     0.140 A 
ATOM      9  C   UNL A   1      33.163  24.786  26.226  1.00  0.00     0.046 A 
ATOM     10  N   UNL A   1      33.938  25.650  23.747  1.00  0.00    -0.236 NA
ATOM     11  C   UNL A   1      32.891  26.299  24.342  1.00  0.00     0.141 A 
BRANCH   7  12
ATOM     12  N   UNL A   1      34.674  22.829  25.964  1.00  0.00    -0.278 N 
ATOM     13  H   UNL A   1      34.635  22.629  26.928  1.00  0.00     0.180 HD
BRANCH  12  14
ATOM     14  S   UNL A   1      35.370  21.671  24.978  1.00  0.00     0.261 S 
ATOM     15  O   UNL A   1      36.411  21.007  25.749  1.00  0.00    -0.201 OA
ATOM     16  O   UNL A   1      35.684  22.360  23.753  1.00  0.00    -0.201 OA
BRANCH  14  17
ATOM     17  C   UNL A   1      34.179  20.405  24.560  1.00  0.00     0.088 A 
ATOM     18  C   UNL A   1      34.113  16.709  23.767  1.00  0.00     0.044 C 
ATOM     19  C   UNL A   1      33.651  18.124  23.945  1.00  0.00    -0.050 A 
ATOM     20  C   UNL A   1      32.488  18.562  23.306  1.00  0.00     0.003 A 
ATOM     21  C   UNL A   1      34.446  19.041  24.649  1.00  0.00     0.025 A 
ATOM     22  C   UNL A   1      32.148  19.912  23.326  1.00  0.00     0.002 A 
ATOM     23  C   UNL A   1      33.005  20.837  23.926  1.00  0.00     0.022 A 
ENDBRANCH  14  17
ENDBRANCH  12  14
ENDBRANCH   7  12
BRANCH  11  24
ATOM     24  N   UNL A   1      32.390  27.323  23.570  1.00  0.00    -0.355 N 
ATOM     25  C   UNL A   1      32.930  28.671  23.779  1.00  0.00     0.145 C 
BRANCH  24  26
ATOM     26  C   UNL A   1      31.428  27.223  22.475  1.00  0.00     0.153 C 
BRANCH  26  27
ATOM     27  C   UNL A   1      30.163  28.035  22.661  1.00  0.00    -0.029 A 
ATOM     28  C   UNL A   1      30.068  29.298  22.054  1.00  0.00     0.005 A 
ATOM     29  C   UNL A   1      29.026  27.513  23.296  1.00  0.00     0.005 A 
ATOM     30  C   UNL A   1      28.876  30.024  22.090  1.00  0.00     0.000 A 
ATOM     31  C   UNL A   1      27.832  28.240  23.333  1.00  0.00     0.000 A 
ATOM     32  C   UNL A   1      27.758  29.495  22.730  1.00  0.00     0.000 A 
ENDBRANCH  26  27
ENDBRANCH  24  26
ENDBRANCH  11  24
ENDBRANCH   3   6
ENDBRANCH   1   2
BRANCH   1  33
ATOM     33  C   UNL A   1      32.605  29.857  27.361  1.00  0.00     0.042 C 
BRANCH  33  34
ATOM     34  C   UNL A   1      33.864  30.681  27.166  1.00  0.00     0.118 C 
BRANCH  34  35
ATOM     35  N   UNL A   1      34.241  31.481  28.335  1.00  0.00    -0.352 N 
ATOM     36  C   UNL A   1      35.306  31.275  29.196  1.00  0.00     0.251 C 
ATOM     37  H   UNL A   1      33.669  32.259  28.530  1.00  0.00     0.163 HD
ATOM     38  O   UNL A   1      35.562  32.060  30.099  1.00  0.00    -0.269 OA
BRANCH  36  39
ATOM     39  C   UNL A   1      36.210  30.142  28.904  1.00  0.00     0.039 A 
ATOM     40  C   UNL A   1      36.562  29.309  29.969  1.00  0.00     0.014 A 
ATOM     41  C   UNL A   1      36.938  30.142  27.717  1.00  0.00     0.014 A 
ATOM     42  C   UNL A   1      37.804  28.687  29.946  1.00  0.00     0.010 A 
ATOM     43  C   UNL A   1      38.215  29.620  27.740  1.00  0.00     0.010 A 
ATOM     44  C   UNL A   1      38.671  28.957  28.885  1.00  0.00    -0.014 A 
BRANCH  44  45
ATOM     45  C   UNL A   1      40.090  28.631  28.932  1.00  0.00     0.031 A 
ATOM     46  C   UNL A   1      40.535  27.307  28.466  1.00  0.00     0.074 A 
ATOM     47  C   UNL A   1      40.994  29.512  29.419  1.00  0.00     0.049 A 
ATOM     48  N   UNL A   1      41.537  26.658  28.956  1.00  0.00    -0.248 NA
ATOM     49  C   UNL A   1      39.816  26.576  27.430  1.00  0.00     0.031 C 
ATOM     50  C   UNL A   1      42.449  29.383  29.400  1.00  0.00     0.029 A 
ATOM     51  N   UNL A   1      40.765  30.600  30.262  1.00  0.00    -0.354 N 
ATOM     52  C   UNL A   1      41.780  25.599  28.112  1.00  0.00     0.074 A 
ATOM     53  C   UNL A   1      40.628  25.534  27.241  1.00  0.00     0.031 C 
ATOM     54  C   UNL A   1      42.955  30.105  30.414  1.00  0.00     0.029 A 
ATOM     55  C   UNL A   1      41.831  30.625  31.176  1.00  0.00     0.049 A 
ATOM     56  H   UNL A   1      40.006  31.226  30.224  1.00  0.00     0.167 HD
ATOM     57  C   UNL A   1      42.997  24.987  28.124  1.00  0.00     0.031 A 
ATOM     58  C   UNL A   1      41.667  30.523  32.527  1.00  0.00     0.031 A 
ATOM     59  C   UNL A   1      43.861  25.512  29.179  1.00  0.00     0.049 A 
ATOM     60  C   UNL A   1      42.392  29.332  33.120  1.00  0.00     0.074 A 
ATOM     61  C   UNL A   1      44.893  26.437  29.179  1.00  0.00     0.029 A 
ATOM     62  N   UNL A   1      43.504  25.325  30.510  1.00  0.00    -0.354 N 
ATOM     63  N   UNL A   1      42.891  28.359  32.409  1.00  0.00    -0.248 NA
ATOM     64  C   UNL A   1      42.544  29.101  34.556  1.00  0.00     0.031 C 
ATOM     65  C   UNL A   1      45.088  26.877  30.513  1.00  0.00     0.029 A 
ATOM     66  C   UNL A   1      44.197  26.198  31.326  1.00  0.00     0.049 A 
ATOM     67  H   UNL A   1      42.848  24.662  30.826  1.00  0.00     0.167 HD
ATOM     68  C   UNL A   1      43.392  27.392  33.238  1.00  0.00     0.074 A 
ATOM     69  C   UNL A   1      43.166  27.908  34.575  1.00  0.00     0.031 C 
ATOM     70  C   UNL A   1      43.934  26.235  32.758  1.00  0.00     0.031 A 
BRANCH  57  71
ATOM     71  C   UNL A   1      43.490  24.158  26.961  1.00  0.00    -0.014 A 
ATOM     72  C   UNL A   1      44.096  24.792  25.861  1.00  0.00     0.009 A 
ATOM     73  C   UNL A   1      43.321  22.768  26.851  1.00  0.00     0.009 A 
ATOM     74  C   UNL A   1      44.404  24.099  24.681  1.00  0.00     0.001 A 
ATOM     75  C   UNL A   1      43.582  22.075  25.661  1.00  0.00     0.001 A 
ATOM     76  C   UNL A   1      44.113  22.747  24.569  1.00  0.00     0.000 A 
ENDBRANCH  57  71
BRANCH  58  77
ATOM     77  C   UNL A   1      40.357  31.042  33.009  1.00  0.00    -0.014 A 
ATOM     78  C   UNL A   1      39.306  30.114  33.175  1.00  0.00     0.009 A 
ATOM     79  C   UNL A   1      40.277  32.273  33.676  1.00  0.00     0.009 A 
ATOM     80  C   UNL A   1      38.287  30.347  34.102  1.00  0.00     0.001 A 
ATOM     81  C   UNL A   1      39.238  32.509  34.586  1.00  0.00     0.001 A 
ATOM     82  C   UNL A   1      38.275  31.530  34.832  1.00  0.00     0.000 A 
ENDBRANCH  58  77
BRANCH  70  83
ATOM     83  C   UNL A   1      44.333  25.050  33.595  1.00  0.00    -0.014 A 
ATOM     84  C   UNL A   1      43.421  24.188  34.218  1.00  0.00     0.009 A 
ATOM     85  C   UNL A   1      45.698  24.692  33.660  1.00  0.00     0.009 A 
ATOM     86  C   UNL A   1      43.856  23.056  34.921  1.00  0.00     0.001 A 
ATOM     87  C   UNL A   1      46.131  23.542  34.325  1.00  0.00     0.001 A 
ATOM     88  C   UNL A   1      45.209  22.731  34.968  1.00  0.00     0.000 A 
ENDBRANCH  70  83
ENDBRANCH  44  45
ENDBRANCH  36  39
ENDBRANCH  34  35
ENDBRANCH  33  34
ENDBRANCH   1  33
TORSDOF 16
ENDMDL
MODEL 2
REMARK VINA RESULT:     -12.3      2.963      8.996
REMARK SMILES Cc1cccc(S(=O)(=O)Nc2cnc(N(C)Cc3ccccc3)c(C(=O)NCCCNC(=O)c3ccc(-c4c5nc(c(-c6ccccc6)c6ccc([nH]6)c(-c6ccccc6)c6nc(c(-c7ccccc7)c7ccc4[nH]7)C=C6)C=C5)cc3)c2)c1
REMARK SMILES IDX 28 1 27 2 25 3 26 4 24 6 11 7 12 8 82 9 13 10 14 11 10 12
REMARK SMILES IDX 7 14 8 15 9 16 6 17 1 18 2 19 3 20 83 21 4 22 5 23 15 24
REMARK SMILES IDX 16 25 17 26 18 27 19 28 23 29 20 30 22 31 21 32 29 33 30 34
REMARK SMILES IDX 31 35 32 36 33 38 34 39 35 40 81 41 36 42 80 43 37 44 38 45
REMARK SMILES IDX 39 46 74 47 40 48 79 49 73 50 75 51 41 52 78 53 72 54 71 55
REMARK SMILES IDX 42 57 64 58 49 59 63 60 50 61 53 62 62 63 76 64 51 65 52 66
REMARK SMILES IDX 61 68 77 69 54 70 43 71 44 72 48 73 45 74 47 75 46 76 65 77
REMARK SMILES IDX 66 78 70 79 67 80 69 81 68 82 55 83 56 84 60 85 57 86 59 87
REMARK SMILES IDX 58 88
REMARK H PARENT 27 5 10 13 31 37 75 56 53 67
REMARK Flexibility Score: inf
ROOT
ATOM      1  C   UNL A   1      36.053  22.905  25.538  1.00  0.00     0.118 C 
ENDROOT
BRANCH   1   2
ATOM      2  N   UNL A   1      35.199  22.410  26.610  1.00  0.00    -0.352 N 
ATOM      3  C   UNL A   1      33.916  22.746  27.006  1.00  0.00     0.255 C 
ATOM      4  O   UNL A   1      33.541  22.317  28.095  1.00  0.00    -0.269 OA
ATOM      5  H   UNL A   1      35.614  21.703  27.156  1.00  0.00     0.163 HD
BRANCH   3   6
ATOM      6  C   UNL A   1      33.021  23.628  26.202  1.00  0.00     0.084 A 
ATOM      7  C   UNL A   1      31.932  25.812  26.068  1.00  0.00     0.068 A 
ATOM      8  C   UNL A   1      31.294  25.346  24.944  1.00  0.00     0.140 A 
ATOM      9  C   UNL A   1      32.722  24.900  26.747  1.00  0.00     0.046 A 
ATOM     10  N   UNL A   1      31.494  24.117  24.430  1.00  0.00    -0.236 NA
ATOM     11  C   UNL A   1      32.366  23.236  25.011  1.00  0.00     0.141 A 
BRANCH   7  12
ATOM     12  N   UNL A   1      31.815  27.189  26.398  1.00  0.00    -0.278 N 
ATOM     13  H   UNL A   1      31.248  27.415  27.171  1.00  0.00     0.180 HD
BRANCH  12  14
ATOM     14  S   UNL A   1      32.548  28.462  25.598  1.00  0.00     0.261 S 
ATOM     15  O   UNL A   1      31.494  29.342  25.116  1.00  0.00    -0.201 OA
ATOM     16  O   UNL A   1      33.474  27.847  24.682  1.00  0.00    -0.201 OA
BRANCH  14  17
ATOM     17  C   UNL A   1      33.527  29.437  26.734  1.00  0.00     0.088 A 
ATOM     18  C   UNL A   1      33.744  33.005  27.966  1.00  0.00     0.044 C 
ATOM     19  C   UNL A   1      34.084  31.561  27.755  1.00  0.00    -0.050 A 
ATOM     20  C   UNL A   1      35.387  31.112  27.984  1.00  0.00     0.003 A 
ATOM     21  C   UNL A   1      33.131  30.685  27.211  1.00  0.00     0.025 A 
ATOM     22  C   UNL A   1      35.751  29.816  27.628  1.00  0.00     0.002 A 
ATOM     23  C   UNL A   1      34.833  28.989  26.977  1.00  0.00     0.022 A 
ENDBRANCH  14  17
ENDBRANCH  12  14
ENDBRANCH   7  12
BRANCH  11  24
ATOM     24  N   UNL A   1      32.475  22.055  24.312  1.00  0.00    -0.355 N 
ATOM     25  C   UNL A   1      33.243  22.062  23.062  1.00  0.00     0.145 C 
BRANCH  24  26
ATOM     26  C   UNL A   1      31.987  20.737  24.711  1.00  0.00     0.153 C 
BRANCH  26  27
ATOM     27  C   UNL A   1      32.847  19.575  24.259  1.00  0.00    -0.029 A 
ATOM     28  C   UNL A   1      34.121  19.410  24.825  1.00  0.00     0.005 A 
ATOM     29  C   UNL A   1      32.362  18.574  23.404  1.00  0.00     0.005 A 
ATOM     30  C   UNL A   1      34.894  18.284  24.535  1.00  0.00     0.000 A 
ATOM     31  C   UNL A   1      33.136  17.447  23.113  1.00  0.00     0.000 A 
ATOM     32  C   UNL A   1      34.402  17.302  23.679  1.00  0.00     0.000 A 
ENDBRANCH  26  27
ENDBRANCH  24  26
ENDBRANCH  11  24
ENDBRANCH   3   6
ENDBRANCH   1   2
BRANCH   1  33
ATOM     33  C   UNL A   1      36.981  24.028  26.015  1.00  0.00     0.042 C 
BRANCH  33  34
ATOM     34  C   UNL A   1      38.353  23.542  26.443  1.00  0.00     0.118 C 
BRANCH  34  35
ATOM     35  N   UNL A   1      38.645  22.158  26.058  1.00  0.00    -0.352 N 
ATOM     36  C   UNL A   1      39.857  21.493  26.135  1.00  0.00     0.251 C 
ATOM     37  H   UNL A   1      37.887  21.638  25.703  1.00  0.00     0.163 HD
ATOM     38  O   UNL A   1      39.959  20.308  25.849  1.00  0.00    -0.269 OA
BRANCH  36  39
ATOM     39  C   UNL A   1      41.004  22.232  26.705  1.00  0.00     0.039 A 
ATOM     40  C   UNL A   1      41.311  22.006  28.049  1.00  0.00     0.014 A 
ATOM     41  C   UNL A   1      41.499  23.344  26.030  1.00  0.00     0.014 A 
ATOM     42  C   UNL A   1      41.879  23.037  28.786  1.00  0.00     0.010 A 
ATOM     43  C   UNL A   1      41.957  24.408  26.782  1.00  0.00     0.010 A 
ATOM     44  C   UNL A   1      42.076  24.274  28.169  1.00  0.00    -0.014 A 
BRANCH  44  45
ATOM     45  C   UNL A   1      42.345  25.491  28.924  1.00  0.00     0.031 A 
ATOM     46  C   UNL A   1      41.277  26.495  29.065  1.00  0.00     0.074 A 
ATOM     47  C   UNL A   1      43.562  25.722  29.468  1.00  0.00     0.049 A 
ATOM     48  N   UNL A   1      41.474  27.768  29.136  1.00  0.00    -0.248 NA
ATOM     49  C   UNL A   1      39.868  26.122  29.068  1.00  0.00     0.031 C 
ATOM     50  C   UNL A   1      43.935  26.817  30.360  1.00  0.00     0.029 A 
ATOM     51  N   UNL A   1      44.782  25.141  29.121  1.00  0.00    -0.354 N 
ATOM     52  C   UNL A   1      40.277  28.339  29.503  1.00  0.00     0.074 A 
ATOM     53  C   UNL A   1      39.293  27.292  29.350  1.00  0.00     0.031 C 
ATOM     54  C   UNL A   1      45.254  27.040  30.234  1.00  0.00     0.029 A 
ATOM     55  C   UNL A   1      45.739  26.168  29.177  1.00  0.00     0.049 A 
ATOM     56  H   UNL A   1      44.941  24.199  28.885  1.00  0.00     0.167 HD
ATOM     57  C   UNL A   1      40.261  29.585  30.054  1.00  0.00     0.031 A 
ATOM     58  C   UNL A   1      46.492  26.554  28.106  1.00  0.00     0.031 A 
ATOM     59  C   UNL A   1      41.588  30.197  30.058  1.00  0.00     0.049 A 
ATOM     60  C   UNL A   1      46.293  28.012  27.742  1.00  0.00     0.074 A 
ATOM     61  C   UNL A   1      42.560  30.332  31.036  1.00  0.00     0.029 A 
ATOM     62  N   UNL A   1      42.206  30.496  28.848  1.00  0.00    -0.354 N 
ATOM     63  N   UNL A   1      45.325  28.750  28.209  1.00  0.00    -0.248 NA
ATOM     64  C   UNL A   1      47.114  28.729  26.767  1.00  0.00     0.031 C 
ATOM     65  C   UNL A   1      43.792  30.620  30.393  1.00  0.00     0.029 A 
ATOM     66  C   UNL A   1      43.561  30.690  29.031  1.00  0.00     0.049 A 
ATOM     67  H   UNL A   1      41.740  30.561  27.983  1.00  0.00     0.167 HD
ATOM     68  C   UNL A   1      45.360  29.985  27.618  1.00  0.00     0.074 A 
ATOM     69  C   UNL A   1      46.508  29.929  26.733  1.00  0.00     0.031 C 
ATOM     70  C   UNL A   1      44.429  30.945  27.889  1.00  0.00     0.031 A 
BRANCH  57  71
ATOM     71  C   UNL A   1      39.097  30.082  30.880  1.00  0.00    -0.014 A 
ATOM     72  C   UNL A   1      38.925  29.614  32.195  1.00  0.00     0.009 A 
ATOM     73  C   UNL A   1      38.098  30.946  30.401  1.00  0.00     0.009 A 
ATOM     74  C   UNL A   1      37.771  29.895  32.939  1.00  0.00     0.001 A 
ATOM     75  C   UNL A   1      36.920  31.195  31.118  1.00  0.00     0.001 A 
ATOM     76  C   UNL A   1      36.751  30.657  32.386  1.00  0.00     0.000 A 
ENDBRANCH  57  71
BRANCH  58  77
ATOM     77  C   UNL A   1      46.735  25.462  27.123  1.00  0.00    -0.014 A 
ATOM     78  C   UNL A   1      46.067  24.235  27.329  1.00  0.00     0.009 A 
ATOM     79  C   UNL A   1      47.232  25.748  25.844  1.00  0.00     0.009 A 
ATOM     80  C   UNL A   1      45.769  23.394  26.254  1.00  0.00     0.001 A 
ATOM     81  C   UNL A   1      46.950  24.888  24.775  1.00  0.00     0.001 A 
ATOM     82  C   UNL A   1      46.181  23.740  24.972  1.00  0.00     0.000 A 
ENDBRANCH  58  77
BRANCH  70  83
ATOM     83  C   UNL A   1      44.286  32.249  27.152  1.00  0.00    -0.014 A 
ATOM     84  C   UNL A   1      44.150  32.352  25.761  1.00  0.00     0.009 A 
ATOM     85  C   UNL A   1      44.148  33.441  27.898  1.00  0.00     0.009 A 
ATOM     86  C   UNL A   1      43.943  33.592  25.142  1.00  0.00     0.001 A 
ATOM     87  C   UNL A   1      43.900  34.672  27.287  1.00  0.00     0.001 A 
ATOM     88  C   UNL A   1      43.812  34.749  25.905  1.00  0.00     0.000 A 
ENDBRANCH  70  83
ENDBRANCH  44  45
ENDBRANCH  36  39
ENDBRANCH  34  35
ENDBRANCH  33  34
ENDBRANCH   1  33
TORSDOF 16
ENDMDL
MODEL 3
REMARK VINA RESULT:     -12.3      3.036      8.833
REMARK SMILES Cc1cccc(S(=O)(=O)Nc2cnc(N(C)Cc3ccccc3)c(C(=O)NCCCNC(=O)c3ccc(-c4c5nc(c(-c6ccccc6)c6ccc([nH]6)c(-c6ccccc6)c6nc(c(-c7ccccc7)c7ccc4[nH]7)C=C6)C=C5)cc3)c2)c1
REMARK SMILES IDX 28 1 27 2 25 3 26 4 24 6 11 7 12 8 82 9 13 10 14 11 10 12
REMARK SMILES IDX 7 14 8 15 9 16 6 17 1 18 2 19 3 20 83 21 4 22 5 23 15 24
REMARK SMILES IDX 16 25 17 26 18 27 19 28 23 29 20 30 22 31 21 32 29 33 30 34
REMARK SMILES IDX 31 35 32 36 33 38 34 39 35 40 81 41 36 42 80 43 37 44 38 45
REMARK SMILES IDX 39 46 74 47 40 48 79 49 73 50 75 51 41 52 78 53 72 54 71 55
REMARK SMILES IDX 42 57 64 58 49 59 63 60 50 61 53 62 62 63 76 64 51 65 52 66
REMARK SMILES IDX 61 68 77 69 54 70 43 71 44 72 48 73 45 74 47 75 46 76 65 77
REMARK SMILES IDX 66 78 70 79 67 80 69 81 68 82 55 83 56 84 60 85 57 86 59 87
REMARK SMILES IDX 58 88
REMARK H PARENT 27 5 10 13 31 37 75 56 53 67
REMARK Flexibility Score: inf
ROOT
ATOM      1  C   UNL A   1      37.133  23.966  26.211  1.00  0.00     0.118 C 
ENDROOT
BRANCH   1   2
ATOM      2  N   UNL A   1      36.037  23.308  26.912  1.00  0.00    -0.352 N 
ATOM      3  C   UNL A   1      34.722  23.060  26.555  1.00  0.00     0.255 C 
ATOM      4  O   UNL A   1      33.965  22.688  27.450  1.00  0.00    -0.269 OA
ATOM      5  H   UNL A   1      36.277  22.978  27.808  1.00  0.00     0.163 HD
BRANCH   3   6
ATOM      6  C   UNL A   1      34.199  23.275  25.174  1.00  0.00     0.084 A 
ATOM      7  C   UNL A   1      33.806  24.906  23.398  1.00  0.00     0.068 A 
ATOM      8  C   UNL A   1      33.166  23.901  22.714  1.00  0.00     0.140 A 
ATOM      9  C   UNL A   1      34.232  24.601  24.679  1.00  0.00     0.046 A 
ATOM     10  N   UNL A   1      33.048  22.642  23.179  1.00  0.00    -0.236 NA
ATOM     11  C   UNL A   1      33.570  22.280  24.390  1.00  0.00     0.141 A 
BRANCH   7  12
ATOM     12  N   UNL A   1      34.064  26.132  22.727  1.00  0.00    -0.278 N 
ATOM     13  H   UNL A   1      34.882  26.178  22.181  1.00  0.00     0.180 HD
BRANCH  12  14
ATOM     14  S   UNL A   1      33.109  27.505  22.778  1.00  0.00     0.261 S 
ATOM     15  O   UNL A   1      31.810  27.156  22.223  1.00  0.00    -0.201 OA
ATOM     16  O   UNL A   1      33.912  28.543  22.185  1.00  0.00    -0.201 OA
BRANCH  14  17
ATOM     17  C   UNL A   1      32.809  27.997  24.471  1.00  0.00     0.088 A 
ATOM     18  C   UNL A   1      34.776  29.099  27.507  1.00  0.00     0.044 C 
ATOM     19  C   UNL A   1      33.622  28.670  26.650  1.00  0.00    -0.050 A 
ATOM     20  C   UNL A   1      32.468  28.154  27.244  1.00  0.00     0.003 A 
ATOM     21  C   UNL A   1      33.746  28.670  25.252  1.00  0.00     0.025 A 
ATOM     22  C   UNL A   1      31.466  27.597  26.453  1.00  0.00     0.002 A 
ATOM     23  C   UNL A   1      31.648  27.491  25.072  1.00  0.00     0.022 A 
ENDBRANCH  14  17
ENDBRANCH  12  14
ENDBRANCH   7  12
BRANCH  11  24
ATOM     24  N   UNL A   1      33.396  20.942  24.667  1.00  0.00    -0.355 N 
ATOM     25  C   UNL A   1      32.024  20.439  24.803  1.00  0.00     0.145 C 
BRANCH  24  26
ATOM     26  C   UNL A   1      34.426  19.910  24.756  1.00  0.00     0.153 C 
BRANCH  26  27
ATOM     27  C   UNL A   1      33.908  18.487  24.732  1.00  0.00    -0.029 A 
ATOM     28  C   UNL A   1      34.339  17.622  23.714  1.00  0.00     0.005 A 
ATOM     29  C   UNL A   1      33.128  17.959  25.772  1.00  0.00     0.005 A 
ATOM     30  C   UNL A   1      33.991  16.270  23.727  1.00  0.00     0.000 A 
ATOM     31  C   UNL A   1      32.778  16.605  25.784  1.00  0.00     0.000 A 
ATOM     32  C   UNL A   1      33.210  15.761  24.762  1.00  0.00     0.000 A 
ENDBRANCH  26  27
ENDBRANCH  24  26
ENDBRANCH  11  24
ENDBRANCH   3   6
ENDBRANCH   1   2
BRANCH   1  33
ATOM     33  C   UNL A   1      38.093  22.957  25.571  1.00  0.00     0.042 C 
BRANCH  33  34
ATOM     34  C   UNL A   1      39.301  22.637  26.431  1.00  0.00     0.118 C 
BRANCH  34  35
ATOM     35  N   UNL A   1      39.963  21.376  26.086  1.00  0.00    -0.352 N 
ATOM     36  C   UNL A   1      41.302  21.054  26.230  1.00  0.00     0.251 C 
ATOM     37  H   UNL A   1      39.386  20.673  25.707  1.00  0.00     0.163 HD
ATOM     38  O   UNL A   1      41.725  19.935  25.972  1.00  0.00    -0.269 OA
BRANCH  36  39
ATOM     39  C   UNL A   1      42.187  22.072  26.837  1.00  0.00     0.039 A 
ATOM     40  C   UNL A   1      42.458  21.958  28.202  1.00  0.00     0.014 A 
ATOM     41  C   UNL A   1      42.423  23.261  26.152  1.00  0.00     0.014 A 
ATOM     42  C   UNL A   1      42.699  23.114  28.934  1.00  0.00     0.010 A 
ATOM     43  C   UNL A   1      42.548  24.420  26.891  1.00  0.00     0.010 A 
ATOM     44  C   UNL A   1      42.612  24.348  28.286  1.00  0.00    -0.014 A 
BRANCH  44  45
ATOM     45  C   UNL A   1      42.516  25.607  29.013  1.00  0.00     0.031 A 
ATOM     46  C   UNL A   1      41.362  26.488  28.766  1.00  0.00     0.074 A 
ATOM     47  C   UNL A   1      43.479  25.987  29.884  1.00  0.00     0.049 A 
ATOM     48  N   UNL A   1      41.401  27.777  28.817  1.00  0.00    -0.248 NA
ATOM     49  C   UNL A   1      40.064  25.959  28.367  1.00  0.00     0.031 C 
ATOM     50  C   UNL A   1      43.451  27.142  30.779  1.00  0.00     0.029 A 
ATOM     51  N   UNL A   1      44.798  25.538  29.956  1.00  0.00    -0.354 N 
ATOM     52  C   UNL A   1      40.099  28.220  28.772  1.00  0.00     0.074 A 
ATOM     53  C   UNL A   1      39.318  27.065  28.392  1.00  0.00     0.031 C 
ATOM     54  C   UNL A   1      44.717  27.507  31.043  1.00  0.00     0.029 A 
ATOM     55  C   UNL A   1      45.586  26.668  30.236  1.00  0.00     0.049 A 
ATOM     56  H   UNL A   1      45.114  24.614  29.835  1.00  0.00     0.167 HD
ATOM     57  C   UNL A   1      39.792  29.471  29.217  1.00  0.00     0.031 A 
ATOM     58  C   UNL A   1      46.588  27.106  29.419  1.00  0.00     0.031 A 
ATOM     59  C   UNL A   1      40.987  30.227  29.584  1.00  0.00     0.049 A 
ATOM     60  C   UNL A   1      46.367  28.522  28.926  1.00  0.00     0.074 A 
ATOM     61  C   UNL A   1      41.596  30.496  30.799  1.00  0.00     0.029 A 
ATOM     62  N   UNL A   1      41.913  30.561  28.600  1.00  0.00    -0.354 N 
ATOM     63  N   UNL A   1      45.234  29.160  29.035  1.00  0.00    -0.248 NA
ATOM     64  C   UNL A   1      47.372  29.300  28.203  1.00  0.00     0.031 C 
ATOM     65  C   UNL A   1      42.930  30.904  30.541  1.00  0.00     0.029 A 
ATOM     66  C   UNL A   1      43.121  30.911  29.171  1.00  0.00     0.049 A 
ATOM     67  H   UNL A   1      41.730  30.550  27.633  1.00  0.00     0.167 HD
ATOM     68  C   UNL A   1      45.326  30.374  28.410  1.00  0.00     0.074 A 
ATOM     69  C   UNL A   1      46.690  30.424  27.916  1.00  0.00     0.031 C 
ATOM     70  C   UNL A   1      44.267  31.230  28.330  1.00  0.00     0.031 A 
BRANCH  57  71
ATOM     71  C   UNL A   1      38.389  29.856  29.622  1.00  0.00    -0.014 A 
ATOM     72  C   UNL A   1      37.770  30.966  29.022  1.00  0.00     0.009 A 
ATOM     73  C   UNL A   1      37.655  29.219  30.637  1.00  0.00     0.009 A 
ATOM     74  C   UNL A   1      36.549  31.478  29.485  1.00  0.00     0.001 A 
ATOM     75  C   UNL A   1      36.459  29.750  31.139  1.00  0.00     0.001 A 
ATOM     76  C   UNL A   1      35.912  30.890  30.569  1.00  0.00     0.000 A 
ENDBRANCH  57  71
BRANCH  58  77
ATOM     77  C   UNL A   1      47.226  26.022  28.623  1.00  0.00    -0.014 A 
ATOM     78  C   UNL A   1      46.751  25.808  27.311  1.00  0.00     0.009 A 
ATOM     79  C   UNL A   1      48.496  25.536  28.964  1.00  0.00     0.009 A 
ATOM     80  C   UNL A   1      47.584  25.265  26.329  1.00  0.00     0.001 A 
ATOM     81  C   UNL A   1      49.316  24.970  27.980  1.00  0.00     0.001 A 
ATOM     82  C   UNL A   1      48.879  24.879  26.658  1.00  0.00     0.000 A 
ENDBRANCH  58  77
BRANCH  70  83
ATOM     83  C   UNL A   1      44.228  32.490  27.507  1.00  0.00    -0.014 A 
ATOM     84  C   UNL A   1      44.290  33.781  28.048  1.00  0.00     0.009 A 
ATOM     85  C   UNL A   1      44.263  32.384  26.099  1.00  0.00     0.009 A 
ATOM     86  C   UNL A   1      44.327  34.913  27.222  1.00  0.00     0.001 A 
ATOM     87  C   UNL A   1      44.342  33.508  25.274  1.00  0.00     0.001 A 
ATOM     88  C   UNL A   1      44.359  34.776  25.837  1.00  0.00     0.000 A 
ENDBRANCH  70  83
ENDBRANCH  44  45
ENDBRANCH  36  39
ENDBRANCH  34  35
ENDBRANCH  33  34
ENDBRANCH   1  33
TORSDOF 16
ENDMDL
