MODEL 1
REMARK VINA RESULT:     -12.6      0.000      0.000
REMARK SMILES C[C@H]1CC[C@@](Nc2ccc(C(N)=O)nn2)(C(=O)NCCCNC(=O)c2ccc(-c3c4nc(c(-c5ccccc5)c5ccc([nH]5)c(-c5ccccc5)c5nc(c(-c6ccccc6)c6ccc3[nH]6)C=C5)C=C4)cc2)CC1
REMARK SMILES IDX 19 1 18 2 16 3 17 4 5 6 1 7 2 8 74 9 3 10 73 11 4 12 6 13
REMARK SMILES IDX 7 15 8 16 15 17 9 18 14 19 10 20 11 21 12 22 13 23 20 26
REMARK SMILES IDX 21 27 22 28 23 29 24 31 25 32 26 33 72 34 27 35 71 36 28 37
REMARK SMILES IDX 29 38 30 39 65 40 31 41 70 42 64 43 66 44 32 45 69 46 63 47
REMARK SMILES IDX 62 48 33 50 55 51 40 52 54 53 41 54 44 55 53 56 67 57 42 58
REMARK SMILES IDX 43 59 52 61 68 62 45 63 34 64 35 65 39 66 36 67 38 68 37 69
REMARK SMILES IDX 56 70 57 71 61 72 58 73 60 74 59 75 46 76 47 77 51 78 48 79
REMARK SMILES IDX 50 80 49 81
REMARK H PARENT 18 5 6 14 12 24 12 25 22 30 66 49 44 60
REMARK Flexibility Score: inf
ROOT
ATOM      1  C   UNL A   1      36.827  21.142  24.859  1.00  0.00     0.117 C 
ENDROOT
BRANCH   1   2
ATOM      2  N   UNL A   1      36.001  21.248  26.048  1.00  0.00    -0.354 N 
ATOM      3  C   UNL A   1      34.660  21.454  26.184  1.00  0.00     0.245 C 
ATOM      4  O   UNL A   1      34.214  21.344  27.331  1.00  0.00    -0.272 OA
ATOM      5  H   UNL A   1      36.491  21.157  26.897  1.00  0.00     0.163 HD
BRANCH   3   6
ATOM      6  C   UNL A   1      33.742  21.771  24.950  1.00  0.00     0.118 C 
ATOM      7  C   UNL A   1      33.684  26.063  25.948  1.00  0.00     0.007 C 
ATOM      8  C   UNL A   1      33.392  24.773  25.180  1.00  0.00    -0.014 C 
ATOM      9  C   UNL A   1      32.564  23.806  26.035  1.00  0.00     0.006 C 
ATOM     10  C   UNL A   1      34.698  24.134  24.707  1.00  0.00     0.006 C 
ATOM     11  C   UNL A   1      32.408  22.412  25.410  1.00  0.00     0.039 C 
ATOM     12  C   UNL A   1      34.438  22.796  24.016  1.00  0.00     0.039 C 
BRANCH   6  13
ATOM     13  N   UNL A   1      33.406  20.547  24.161  1.00  0.00    -0.354 N 
ATOM     14  H   UNL A   1      33.126  20.659  23.225  1.00  0.00     0.163 HD
BRANCH  13  15
ATOM     15  C   UNL A   1      33.464  19.262  24.675  1.00  0.00     0.149 A 
ATOM     16  C   UNL A   1      34.500  18.375  24.416  1.00  0.00     0.051 A 
ATOM     17  N   UNL A   1      32.368  18.833  25.342  1.00  0.00    -0.132 NA
ATOM     18  C   UNL A   1      34.345  17.023  24.725  1.00  0.00     0.040 A 
ATOM     19  N   UNL A   1      32.188  17.497  25.631  1.00  0.00    -0.143 NA
ATOM     20  C   UNL A   1      33.155  16.614  25.297  1.00  0.00     0.150 A 
BRANCH  20  21
ATOM     21  C   UNL A   1      32.849  15.168  25.475  1.00  0.00     0.269 C 
ATOM     22  N   UNL A   1      31.531  14.833  25.631  1.00  0.00    -0.364 N 
ATOM     23  O   UNL A   1      33.725  14.310  25.442  1.00  0.00    -0.268 OA
ATOM     24  H   UNL A   1      30.843  15.538  25.655  1.00  0.00     0.160 HD
ATOM     25  H   UNL A   1      31.269  13.888  25.718  1.00  0.00     0.160 HD
ENDBRANCH  20  21
ENDBRANCH  13  15
ENDBRANCH   6  13
ENDBRANCH   3   6
ENDBRANCH   1   2
BRANCH   1  26
ATOM     26  C   UNL A   1      37.853  20.035  24.993  1.00  0.00     0.042 C 
BRANCH  26  27
ATOM     27  C   UNL A   1      39.080  20.471  25.776  1.00  0.00     0.118 C 
BRANCH  27  28
ATOM     28  N   UNL A   1      40.086  19.419  25.871  1.00  0.00    -0.352 N 
ATOM     29  C   UNL A   1      41.430  19.518  26.123  1.00  0.00     0.251 C 
ATOM     30  H   UNL A   1      39.749  18.503  25.734  1.00  0.00     0.163 HD
ATOM     31  O   UNL A   1      42.165  18.551  25.953  1.00  0.00    -0.269 OA
BRANCH  29  32
ATOM     32  C   UNL A   1      41.986  20.806  26.577  1.00  0.00     0.039 A 
ATOM     33  C   UNL A   1      42.393  21.744  25.628  1.00  0.00     0.014 A 
ATOM     34  C   UNL A   1      42.079  21.091  27.942  1.00  0.00     0.014 A 
ATOM     35  C   UNL A   1      42.829  23.000  26.052  1.00  0.00     0.010 A 
ATOM     36  C   UNL A   1      42.410  22.374  28.354  1.00  0.00     0.010 A 
ATOM     37  C   UNL A   1      42.802  23.337  27.414  1.00  0.00    -0.014 A 
BRANCH  37  38
ATOM     38  C   UNL A   1      43.199  24.684  27.888  1.00  0.00     0.031 A 
ATOM     39  C   UNL A   1      42.144  25.721  28.159  1.00  0.00     0.074 A 
ATOM     40  C   UNL A   1      44.504  24.994  28.007  1.00  0.00     0.049 A 
ATOM     41  N   UNL A   1      42.289  26.976  28.501  1.00  0.00    -0.248 NA
ATOM     42  C   UNL A   1      40.741  25.303  27.994  1.00  0.00     0.031 C 
ATOM     43  C   UNL A   1      45.623  24.090  27.732  1.00  0.00     0.029 A 
ATOM     44  N   UNL A   1      45.111  26.166  28.384  1.00  0.00    -0.354 N 
ATOM     45  C   UNL A   1      41.002  27.495  28.575  1.00  0.00     0.074 A 
ATOM     46  C   UNL A   1      40.094  26.442  28.181  1.00  0.00     0.031 C 
ATOM     47  C   UNL A   1      46.777  24.730  27.977  1.00  0.00     0.029 A 
ATOM     48  C   UNL A   1      46.484  26.101  28.380  1.00  0.00     0.049 A 
ATOM     49  H   UNL A   1      44.611  26.977  28.633  1.00  0.00     0.167 HD
ATOM     50  C   UNL A   1      40.608  28.732  28.960  1.00  0.00     0.031 A 
ATOM     51  C   UNL A   1      47.402  27.044  28.660  1.00  0.00     0.031 A 
ATOM     52  C   UNL A   1      41.513  29.775  29.360  1.00  0.00     0.049 A 
ATOM     53  C   UNL A   1      46.940  28.417  29.065  1.00  0.00     0.074 A 
ATOM     54  C   UNL A   1      41.214  31.047  29.815  1.00  0.00     0.029 A 
ATOM     55  N   UNL A   1      42.894  29.665  29.353  1.00  0.00    -0.354 N 
ATOM     56  N   UNL A   1      45.717  28.873  29.193  1.00  0.00    -0.248 NA
ATOM     57  C   UNL A   1      47.986  29.400  29.377  1.00  0.00     0.031 C 
ATOM     58  C   UNL A   1      42.417  31.726  30.030  1.00  0.00     0.029 A 
ATOM     59  C   UNL A   1      43.463  30.855  29.775  1.00  0.00     0.049 A 
ATOM     60  H   UNL A   1      43.396  28.861  29.090  1.00  0.00     0.167 HD
ATOM     61  C   UNL A   1      45.846  30.184  29.631  1.00  0.00     0.074 A 
ATOM     62  C   UNL A   1      47.265  30.445  29.762  1.00  0.00     0.031 C 
ATOM     63  C   UNL A   1      44.877  31.093  29.903  1.00  0.00     0.031 A 
BRANCH  50  64
ATOM     64  C   UNL A   1      39.132  29.019  28.961  1.00  0.00    -0.014 A 
ATOM     65  C   UNL A   1      38.349  28.806  30.107  1.00  0.00     0.009 A 
ATOM     66  C   UNL A   1      38.520  29.540  27.810  1.00  0.00     0.009 A 
ATOM     67  C   UNL A   1      36.979  29.071  30.089  1.00  0.00     0.001 A 
ATOM     68  C   UNL A   1      37.156  29.835  27.804  1.00  0.00     0.001 A 
ATOM     69  C   UNL A   1      36.384  29.590  28.940  1.00  0.00     0.000 A 
ENDBRANCH  50  64
BRANCH  51  70
ATOM     70  C   UNL A   1      48.852  26.725  28.575  1.00  0.00    -0.014 A 
ATOM     71  C   UNL A   1      49.547  26.870  27.365  1.00  0.00     0.009 A 
ATOM     72  C   UNL A   1      49.548  26.260  29.704  1.00  0.00     0.009 A 
ATOM     73  C   UNL A   1      50.897  26.523  27.276  1.00  0.00     0.001 A 
ATOM     74  C   UNL A   1      50.906  25.946  29.620  1.00  0.00     0.001 A 
ATOM     75  C   UNL A   1      51.576  26.065  28.404  1.00  0.00     0.000 A 
ENDBRANCH  51  70
BRANCH  63  76
ATOM     76  C   UNL A   1      45.316  32.436  30.413  1.00  0.00    -0.014 A 
ATOM     77  C   UNL A   1      45.548  33.513  29.543  1.00  0.00     0.009 A 
ATOM     78  C   UNL A   1      45.453  32.639  31.796  1.00  0.00     0.009 A 
ATOM     79  C   UNL A   1      45.942  34.754  30.045  1.00  0.00     0.001 A 
ATOM     80  C   UNL A   1      45.815  33.889  32.298  1.00  0.00     0.001 A 
ATOM     81  C   UNL A   1      46.070  34.942  31.422  1.00  0.00     0.000 A 
ENDBRANCH  63  76
ENDBRANCH  37  38
ENDBRANCH  29  32
ENDBRANCH  27  28
ENDBRANCH  26  27
ENDBRANCH   1  26
TORSDOF 13
ENDMDL
MODEL 2
REMARK VINA RESULT:     -12.6      0.749      6.027
REMARK SMILES C[C@H]1CC[C@@](Nc2ccc(C(N)=O)nn2)(C(=O)NCCCNC(=O)c2ccc(-c3c4nc(c(-c5ccccc5)c5ccc([nH]5)c(-c5ccccc5)c5nc(c(-c6ccccc6)c6ccc3[nH]6)C=C5)C=C4)cc2)CC1
REMARK SMILES IDX 19 1 18 2 16 3 17 4 5 6 1 7 2 8 74 9 3 10 73 11 4 12 6 13
REMARK SMILES IDX 7 15 8 16 15 17 9 18 14 19 10 20 11 21 12 22 13 23 20 26
REMARK SMILES IDX 21 27 22 28 23 29 24 31 25 32 26 33 72 34 27 35 71 36 28 37
REMARK SMILES IDX 29 38 30 39 65 40 31 41 70 42 64 43 66 44 32 45 69 46 63 47
REMARK SMILES IDX 62 48 33 50 55 51 40 52 54 53 41 54 44 55 53 56 67 57 42 58
REMARK SMILES IDX 43 59 52 61 68 62 45 63 34 64 35 65 39 66 36 67 38 68 37 69
REMARK SMILES IDX 56 70 57 71 61 72 58 73 60 74 59 75 46 76 47 77 51 78 48 79
REMARK SMILES IDX 50 80 49 81
REMARK H PARENT 18 5 6 14 12 24 12 25 22 30 66 49 44 60
REMARK Flexibility Score: inf
ROOT
ATOM      1  C   UNL A   1      36.675  20.879  24.756  1.00  0.00     0.117 C 
ENDROOT
BRANCH   1   2
ATOM      2  N   UNL A   1      35.874  21.084  25.949  1.00  0.00    -0.354 N 
ATOM      3  C   UNL A   1      34.549  21.373  26.091  1.00  0.00     0.245 C 
ATOM      4  O   UNL A   1      34.113  21.338  27.247  1.00  0.00    -0.272 OA
ATOM      5  H   UNL A   1      36.370  21.001  26.796  1.00  0.00     0.163 HD
BRANCH   3   6
ATOM      6  C   UNL A   1      33.633  21.688  24.856  1.00  0.00     0.118 C 
ATOM      7  C   UNL A   1      33.707  26.002  25.756  1.00  0.00     0.007 C 
ATOM      8  C   UNL A   1      33.372  24.704  25.019  1.00  0.00    -0.014 C 
ATOM      9  C   UNL A   1      32.522  23.781  25.901  1.00  0.00     0.006 C 
ATOM     10  C   UNL A   1      34.656  24.016  24.554  1.00  0.00     0.006 C 
ATOM     11  C   UNL A   1      32.321  22.378  25.308  1.00  0.00     0.039 C 
ATOM     12  C   UNL A   1      34.353  22.672  23.895  1.00  0.00     0.039 C 
BRANCH   6  13
ATOM     13  N   UNL A   1      33.256  20.457  24.097  1.00  0.00    -0.354 N 
ATOM     14  H   UNL A   1      32.927  20.562  23.175  1.00  0.00     0.163 HD
BRANCH  13  15
ATOM     15  C   UNL A   1      33.343  19.178  24.617  1.00  0.00     0.149 A 
ATOM     16  C   UNL A   1      34.358  18.285  24.304  1.00  0.00     0.051 A 
ATOM     17  N   UNL A   1      32.288  18.758  25.355  1.00  0.00    -0.132 NA
ATOM     18  C   UNL A   1      34.219  16.936  24.634  1.00  0.00     0.040 A 
ATOM     19  N   UNL A   1      32.123  17.426  25.667  1.00  0.00    -0.143 NA
ATOM     20  C   UNL A   1      33.066  16.536  25.282  1.00  0.00     0.150 A 
BRANCH  20  21
ATOM     21  C   UNL A   1      32.767  15.092  25.492  1.00  0.00     0.269 C 
ATOM     22  N   UNL A   1      31.454  14.758  25.687  1.00  0.00    -0.364 N 
ATOM     23  O   UNL A   1      33.644  14.236  25.452  1.00  0.00    -0.268 OA
ATOM     24  H   UNL A   1      30.766  15.462  25.716  1.00  0.00     0.160 HD
ATOM     25  H   UNL A   1      31.196  13.814  25.796  1.00  0.00     0.160 HD
ENDBRANCH  20  21
ENDBRANCH  13  15
ENDBRANCH   6  13
ENDBRANCH   3   6
ENDBRANCH   1   2
BRANCH   1  26
ATOM     26  C   UNL A   1      37.742  19.826  24.978  1.00  0.00     0.042 C 
BRANCH  26  27
ATOM     27  C   UNL A   1      38.975  20.384  25.668  1.00  0.00     0.118 C 
BRANCH  27  28
ATOM     28  N   UNL A   1      40.049  19.402  25.773  1.00  0.00    -0.352 N 
ATOM     29  C   UNL A   1      41.372  19.586  26.086  1.00  0.00     0.251 C 
ATOM     30  H   UNL A   1      39.785  18.470  25.593  1.00  0.00     0.163 HD
ATOM     31  O   UNL A   1      42.180  18.680  25.919  1.00  0.00    -0.269 OA
BRANCH  29  32
ATOM     32  C   UNL A   1      41.815  20.894  26.604  1.00  0.00     0.039 A 
ATOM     33  C   UNL A   1      42.296  21.852  25.711  1.00  0.00     0.014 A 
ATOM     34  C   UNL A   1      41.729  21.177  27.970  1.00  0.00     0.014 A 
ATOM     35  C   UNL A   1      42.626  23.123  26.184  1.00  0.00     0.010 A 
ATOM     36  C   UNL A   1      41.955  22.470  28.418  1.00  0.00     0.010 A 
ATOM     37  C   UNL A   1      42.419  23.453  27.533  1.00  0.00    -0.014 A 
BRANCH  37  38
ATOM     38  C   UNL A   1      42.700  24.813  28.051  1.00  0.00     0.031 A 
ATOM     39  C   UNL A   1      44.093  25.172  28.489  1.00  0.00     0.074 A 
ATOM     40  C   UNL A   1      41.693  25.696  28.191  1.00  0.00     0.049 A 
ATOM     41  N   UNL A   1      44.525  26.276  29.042  1.00  0.00    -0.248 NA
ATOM     42  C   UNL A   1      45.133  24.143  28.311  1.00  0.00     0.031 C 
ATOM     43  C   UNL A   1      40.291  25.453  27.843  1.00  0.00     0.029 A 
ATOM     44  N   UNL A   1      41.696  26.980  28.675  1.00  0.00    -0.354 N 
ATOM     45  C   UNL A   1      45.876  26.067  29.291  1.00  0.00     0.074 A 
ATOM     46  C   UNL A   1      46.179  24.712  28.889  1.00  0.00     0.031 C 
ATOM     47  C   UNL A   1      39.576  26.561  28.097  1.00  0.00     0.029 A 
ATOM     48  C   UNL A   1      40.456  27.574  28.669  1.00  0.00     0.049 A 
ATOM     49  H   UNL A   1      42.508  27.434  28.997  1.00  0.00     0.167 HD
ATOM     50  C   UNL A   1      46.791  26.934  29.787  1.00  0.00     0.031 A 
ATOM     51  C   UNL A   1      40.071  28.794  29.086  1.00  0.00     0.031 A 
ATOM     52  C   UNL A   1      46.489  28.284  30.176  1.00  0.00     0.049 A 
ATOM     53  C   UNL A   1      41.102  29.731  29.653  1.00  0.00     0.074 A 
ATOM     54  C   UNL A   1      47.352  29.259  30.644  1.00  0.00     0.029 A 
ATOM     55  N   UNL A   1      45.224  28.850  30.143  1.00  0.00    -0.354 N 
ATOM     56  N   UNL A   1      42.389  29.541  29.821  1.00  0.00    -0.248 NA
ATOM     57  C   UNL A   1      40.629  31.056  30.075  1.00  0.00     0.031 C 
ATOM     58  C   UNL A   1      46.600  30.397  30.948  1.00  0.00     0.029 A 
ATOM     59  C   UNL A   1      45.280  30.154  30.604  1.00  0.00     0.049 A 
ATOM     60  H   UNL A   1      44.408  28.392  29.837  1.00  0.00     0.167 HD
ATOM     61  C   UNL A   1      42.883  30.732  30.337  1.00  0.00     0.074 A 
ATOM     62  C   UNL A   1      41.761  31.642  30.439  1.00  0.00     0.031 C 
ATOM     63  C   UNL A   1      44.153  31.045  30.694  1.00  0.00     0.031 A 
BRANCH  50  64
ATOM     64  C   UNL A   1      48.203  26.439  29.936  1.00  0.00    -0.014 A 
ATOM     65  C   UNL A   1      49.145  26.602  28.907  1.00  0.00     0.009 A 
ATOM     66  C   UNL A   1      48.607  25.830  31.134  1.00  0.00     0.009 A 
ATOM     67  C   UNL A   1      50.449  26.130  29.059  1.00  0.00     0.001 A 
ATOM     68  C   UNL A   1      49.921  25.389  31.297  1.00  0.00     0.001 A 
ATOM     69  C   UNL A   1      50.838  25.529  30.256  1.00  0.00     0.000 A 
ENDBRANCH  50  64
BRANCH  51  70
ATOM     70  C   UNL A   1      38.647  29.207  28.979  1.00  0.00    -0.014 A 
ATOM     71  C   UNL A   1      37.784  29.091  30.080  1.00  0.00     0.009 A 
ATOM     72  C   UNL A   1      38.137  29.706  27.769  1.00  0.00     0.009 A 
ATOM     73  C   UNL A   1      36.435  29.433  29.963  1.00  0.00     0.001 A 
ATOM     74  C   UNL A   1      36.795  30.079  27.665  1.00  0.00     0.001 A 
ATOM     75  C   UNL A   1      35.943  29.930  28.757  1.00  0.00     0.000 A 
ENDBRANCH  51  70
BRANCH  63  76
ATOM     76  C   UNL A   1      44.406  32.444  31.183  1.00  0.00    -0.014 A 
ATOM     77  C   UNL A   1      44.351  32.765  32.548  1.00  0.00     0.009 A 
ATOM     78  C   UNL A   1      44.752  33.446  30.262  1.00  0.00     0.009 A 
ATOM     79  C   UNL A   1      44.603  34.070  32.976  1.00  0.00     0.001 A 
ATOM     80  C   UNL A   1      45.036  34.741  30.695  1.00  0.00     0.001 A 
ATOM     81  C   UNL A   1      44.951  35.054  32.050  1.00  0.00     0.000 A 
ENDBRANCH  63  76
ENDBRANCH  37  38
ENDBRANCH  29  32
ENDBRANCH  27  28
ENDBRANCH  26  27
ENDBRANCH   1  26
TORSDOF 13
ENDMDL
MODEL 3
REMARK VINA RESULT:     -12.3      5.522     10.294
REMARK SMILES C[C@H]1CC[C@@](Nc2ccc(C(N)=O)nn2)(C(=O)NCCCNC(=O)c2ccc(-c3c4nc(c(-c5ccccc5)c5ccc([nH]5)c(-c5ccccc5)c5nc(c(-c6ccccc6)c6ccc3[nH]6)C=C5)C=C4)cc2)CC1
REMARK SMILES IDX 19 1 18 2 16 3 17 4 5 6 1 7 2 8 74 9 3 10 73 11 4 12 6 13
REMARK SMILES IDX 7 15 8 16 15 17 9 18 14 19 10 20 11 21 12 22 13 23 20 26
REMARK SMILES IDX 21 27 22 28 23 29 24 31 25 32 26 33 72 34 27 35 71 36 28 37
REMARK SMILES IDX 29 38 30 39 65 40 31 41 70 42 64 43 66 44 32 45 69 46 63 47
REMARK SMILES IDX 62 48 33 50 55 51 40 52 54 53 41 54 44 55 53 56 67 57 42 58
REMARK SMILES IDX 43 59 52 61 68 62 45 63 34 64 35 65 39 66 36 67 38 68 37 69
REMARK SMILES IDX 56 70 57 71 61 72 58 73 60 74 59 75 46 76 47 77 51 78 48 79
REMARK SMILES IDX 50 80 49 81
REMARK H PARENT 18 5 6 14 12 24 12 25 22 30 66 49 44 60
REMARK Flexibility Score: inf
ROOT
ATOM      1  C   UNL A   1      31.744  30.238  26.430  1.00  0.00     0.117 C 
ENDROOT
BRANCH   1   2
ATOM      2  N   UNL A   1      32.598  30.046  25.272  1.00  0.00    -0.354 N 
ATOM      3  C   UNL A   1      32.531  29.135  24.259  1.00  0.00     0.245 C 
ATOM      4  O   UNL A   1      33.316  29.316  23.323  1.00  0.00    -0.272 OA
ATOM      5  H   UNL A   1      33.349  30.679  25.207  1.00  0.00     0.163 HD
BRANCH   3   6
ATOM      6  C   UNL A   1      31.494  27.957  24.273  1.00  0.00     0.118 C 
ATOM      7  C   UNL A   1      34.669  25.015  25.098  1.00  0.00     0.007 C 
ATOM      8  C   UNL A   1      33.264  25.564  24.847  1.00  0.00    -0.014 C 
ATOM      9  C   UNL A   1      33.155  26.156  23.436  1.00  0.00     0.006 C 
ATOM     10  C   UNL A   1      32.901  26.591  25.920  1.00  0.00     0.006 C 
ATOM     11  C   UNL A   1      31.840  26.909  23.185  1.00  0.00     0.039 C 
ATOM     12  C   UNL A   1      31.538  27.222  25.639  1.00  0.00     0.039 C 
BRANCH   6  13
ATOM     13  N   UNL A   1      30.097  28.425  24.019  1.00  0.00    -0.354 N 
ATOM     14  H   UNL A   1      29.355  27.899  24.393  1.00  0.00     0.163 HD
BRANCH  13  15
ATOM     15  C   UNL A   1      29.789  29.558  23.285  1.00  0.00     0.149 A 
ATOM     16  C   UNL A   1      29.343  30.744  23.850  1.00  0.00     0.051 A 
ATOM     17  N   UNL A   1      29.796  29.420  21.938  1.00  0.00    -0.132 NA
ATOM     18  C   UNL A   1      28.782  31.730  23.035  1.00  0.00     0.040 A 
ATOM     19  N   UNL A   1      29.222  30.371  21.122  1.00  0.00    -0.143 NA
ATOM     20  C   UNL A   1      28.702  31.489  21.677  1.00  0.00     0.150 A 
BRANCH  20  21
ATOM     21  C   UNL A   1      27.947  32.407  20.780  1.00  0.00     0.269 C 
ATOM     22  N   UNL A   1      27.601  31.918  19.550  1.00  0.00    -0.364 N 
ATOM     23  O   UNL A   1      27.612  33.532  21.136  1.00  0.00    -0.268 OA
ATOM     24  H   UNL A   1      27.881  31.012  19.284  1.00  0.00     0.160 HD
ATOM     25  H   UNL A   1      27.072  32.471  18.930  1.00  0.00     0.160 HD
ENDBRANCH  20  21
ENDBRANCH  13  15
ENDBRANCH   6  13
ENDBRANCH   3   6
ENDBRANCH   1   2
BRANCH   1  26
ATOM     26  C   UNL A   1      31.519  31.709  26.717  1.00  0.00     0.042 C 
BRANCH  26  27
ATOM     27  C   UNL A   1      32.804  32.433  27.080  1.00  0.00     0.118 C 
BRANCH  27  28
ATOM     28  N   UNL A   1      32.561  33.776  27.597  1.00  0.00    -0.352 N 
ATOM     29  C   UNL A   1      33.227  34.466  28.578  1.00  0.00     0.251 C 
ATOM     30  H   UNL A   1      31.809  34.256  27.180  1.00  0.00     0.163 HD
ATOM     31  O   UNL A   1      32.755  35.501  29.036  1.00  0.00    -0.269 OA
BRANCH  29  32
ATOM     32  C   UNL A   1      34.505  33.938  29.092  1.00  0.00     0.039 A 
ATOM     33  C   UNL A   1      34.502  33.153  30.246  1.00  0.00     0.014 A 
ATOM     34  C   UNL A   1      35.698  34.199  28.415  1.00  0.00     0.014 A 
ATOM     35  C   UNL A   1      35.693  32.573  30.681  1.00  0.00     0.010 A 
ATOM     36  C   UNL A   1      36.858  33.535  28.787  1.00  0.00     0.010 A 
ATOM     37  C   UNL A   1      36.871  32.726  29.932  1.00  0.00    -0.014 A 
BRANCH  37  38
ATOM     38  C   UNL A   1      38.137  32.069  30.334  1.00  0.00     0.031 A 
ATOM     39  C   UNL A   1      39.060  32.756  31.302  1.00  0.00     0.074 A 
ATOM     40  C   UNL A   1      38.487  30.894  29.778  1.00  0.00     0.049 A 
ATOM     41  N   UNL A   1      40.246  32.387  31.716  1.00  0.00    -0.248 NA
ATOM     42  C   UNL A   1      38.606  34.045  31.855  1.00  0.00     0.031 C 
ATOM     43  C   UNL A   1      37.698  30.148  28.794  1.00  0.00     0.029 A 
ATOM     44  N   UNL A   1      39.608  30.122  29.957  1.00  0.00    -0.354 N 
ATOM     45  C   UNL A   1      40.680  33.402  32.560  1.00  0.00     0.074 A 
ATOM     46  C   UNL A   1      39.665  34.430  32.550  1.00  0.00     0.031 C 
ATOM     47  C   UNL A   1      38.345  29.014  28.479  1.00  0.00     0.029 A 
ATOM     48  C   UNL A   1      39.612  28.974  29.200  1.00  0.00     0.049 A 
ATOM     49  H   UNL A   1      40.340  30.366  30.569  1.00  0.00     0.167 HD
ATOM     50  C   UNL A   1      41.814  33.463  33.298  1.00  0.00     0.031 A 
ATOM     51  C   UNL A   1      40.540  28.005  29.092  1.00  0.00     0.031 A 
ATOM     52  C   UNL A   1      42.818  32.434  33.314  1.00  0.00     0.049 A 
ATOM     53  C   UNL A   1      41.800  28.106  29.907  1.00  0.00     0.074 A 
ATOM     54  C   UNL A   1      43.980  32.376  34.063  1.00  0.00     0.029 A 
ATOM     55  N   UNL A   1      42.780  31.284  32.542  1.00  0.00    -0.354 N 
ATOM     56  N   UNL A   1      42.167  29.040  30.750  1.00  0.00    -0.248 NA
ATOM     57  C   UNL A   1      42.768  27.010  29.763  1.00  0.00     0.031 C 
ATOM     58  C   UNL A   1      44.672  31.216  33.704  1.00  0.00     0.029 A 
ATOM     59  C   UNL A   1      43.909  30.519  32.781  1.00  0.00     0.049 A 
ATOM     60  H   UNL A   1      42.057  31.045  31.918  1.00  0.00     0.167 HD
ATOM     61  C   UNL A   1      43.391  28.629  31.262  1.00  0.00     0.074 A 
ATOM     62  C   UNL A   1      43.696  27.354  30.646  1.00  0.00     0.031 C 
ATOM     63  C   UNL A   1      44.192  29.251  32.162  1.00  0.00     0.031 A 
BRANCH  50  64
ATOM     64  C   UNL A   1      42.023  34.687  34.146  1.00  0.00    -0.014 A 
ATOM     65  C   UNL A   1      41.573  34.739  35.475  1.00  0.00     0.009 A 
ATOM     66  C   UNL A   1      42.708  35.793  33.619  1.00  0.00     0.009 A 
ATOM     67  C   UNL A   1      41.768  35.886  36.245  1.00  0.00     0.001 A 
ATOM     68  C   UNL A   1      42.932  36.927  34.402  1.00  0.00     0.001 A 
ATOM     69  C   UNL A   1      42.452  36.977  35.711  1.00  0.00     0.000 A 
ENDBRANCH  50  64
BRANCH  51  70
ATOM     70  C   UNL A   1      40.312  26.849  28.185  1.00  0.00    -0.014 A 
ATOM     71  C   UNL A   1      39.597  25.724  28.625  1.00  0.00     0.009 A 
ATOM     72  C   UNL A   1      40.822  26.857  26.876  1.00  0.00     0.009 A 
ATOM     73  C   UNL A   1      39.427  24.620  27.787  1.00  0.00     0.001 A 
ATOM     74  C   UNL A   1      40.622  25.765  26.029  1.00  0.00     0.001 A 
ATOM     75  C   UNL A   1      39.936  24.642  26.489  1.00  0.00     0.000 A 
ENDBRANCH  51  70
BRANCH  63  76
ATOM     76  C   UNL A   1      45.451  28.539  32.571  1.00  0.00    -0.014 A 
ATOM     77  C   UNL A   1      45.462  27.617  33.629  1.00  0.00     0.009 A 
ATOM     78  C   UNL A   1      46.635  28.761  31.850  1.00  0.00     0.009 A 
ATOM     79  C   UNL A   1      46.643  26.961  33.980  1.00  0.00     0.001 A 
ATOM     80  C   UNL A   1      47.806  28.079  32.181  1.00  0.00     0.001 A 
ATOM     81  C   UNL A   1      47.812  27.187  33.252  1.00  0.00     0.000 A 
ENDBRANCH  63  76
ENDBRANCH  37  38
ENDBRANCH  29  32
ENDBRANCH  27  28
ENDBRANCH  26  27
ENDBRANCH   1  26
TORSDOF 13
ENDMDL
