MODEL 1
REMARK VINA RESULT:     -10.6      0.000      0.000
REMARK SMILES CN(Cc1csc(Br)c1)c1cccc(F)c1C(=O)NCCCNC(=O)c1ccc(-c2c3nc(c(-c4ccccc4)c4ccc([nH]4)c(-c4ccccc4)c4nc(c(-c5ccccc5)c5ccc2[nH]5)C=C4)C=C3)cc1
REMARK SMILES IDX 20 1 19 2 17 3 18 4 16 6 10 7 11 8 12 9 14 10 13 11 15 12
REMARK SMILES IDX 2 13 1 14 3 15 4 16 5 17 9 18 6 19 7 20 8 21 21 22 22 23
REMARK SMILES IDX 23 24 24 25 25 27 26 28 27 29 73 30 28 31 72 32 29 33 30 34
REMARK SMILES IDX 31 35 66 36 32 37 71 38 65 39 67 40 33 41 70 42 64 43 63 44
REMARK SMILES IDX 34 46 56 47 41 48 55 49 42 50 45 51 54 52 68 53 43 54 44 55
REMARK SMILES IDX 53 57 69 58 46 59 35 60 36 61 40 62 37 63 39 64 38 65 57 66
REMARK SMILES IDX 58 67 62 68 59 69 61 70 60 71 47 72 48 73 52 74 49 75 51 76
REMARK SMILES IDX 50 77
REMARK H PARENT 19 5 23 26 67 45 45 56
REMARK Flexibility Score: inf
ROOT
ATOM      1  C   UNL A   1      35.159  22.897  26.530  1.00  0.00     0.118 C 
ENDROOT
BRANCH   1   2
ATOM      2  N   UNL A   1      33.826  23.286  26.962  1.00  0.00    -0.352 N 
ATOM      3  C   UNL A   1      32.581  22.881  26.510  1.00  0.00     0.256 C 
ATOM      4  O   UNL A   1      31.616  23.043  27.257  1.00  0.00    -0.269 OA
ATOM      5  H   UNL A   1      33.805  23.942  27.695  1.00  0.00     0.163 HD
BRANCH   3   6
ATOM      6  C   UNL A   1      32.393  22.311  25.150  1.00  0.00     0.098 A 
ATOM      7  C   UNL A   1      32.082  23.136  24.042  1.00  0.00     0.053 A 
ATOM      8  C   UNL A   1      32.013  22.534  22.766  1.00  0.00     0.027 A 
ATOM      9  C   UNL A   1      32.190  21.162  22.588  1.00  0.00     0.005 A 
ATOM     10  C   UNL A   1      32.457  20.926  24.965  1.00  0.00     0.138 A 
ATOM     11  C   UNL A   1      32.388  20.353  23.698  1.00  0.00     0.040 A 
ATOM     12  F   UNL A   1      32.564  20.092  26.012  1.00  0.00    -0.206 F 
BRANCH   7  13
ATOM     13  N   UNL A   1      31.750  24.486  24.157  1.00  0.00    -0.370 N 
ATOM     14  C   UNL A   1      30.454  24.870  23.614  1.00  0.00     0.144 C 
BRANCH  13  15
ATOM     15  C   UNL A   1      32.806  25.491  24.223  1.00  0.00     0.152 C 
BRANCH  15  16
ATOM     16  C   UNL A   1      32.718  26.492  25.343  1.00  0.00    -0.017 A 
ATOM     17  C   UNL A   1      31.642  26.611  26.210  1.00  0.00     0.071 A 
ATOM     18  C   UNL A   1      33.730  27.462  25.656  1.00  0.00     0.033 A 
ATOM     19  S   UNL A   1      31.841  27.880  27.341  1.00  0.00    -0.136 S 
ATOM     20  C   UNL A   1      33.349  28.281  26.688  1.00  0.00     0.070 A 
ATOM     21  Br  UNL A   1      34.384  29.716  27.304  1.00  0.00    -0.039 Br
ENDBRANCH  15  16
ENDBRANCH  13  15
ENDBRANCH   7  13
ENDBRANCH   3   6
ENDBRANCH   1   2
BRANCH   1  22
ATOM     22  C   UNL A   1      35.981  23.979  25.849  1.00  0.00     0.042 C 
BRANCH  22  23
ATOM     23  C   UNL A   1      36.982  23.522  24.801  1.00  0.00     0.118 C 
BRANCH  23  24
ATOM     24  N   UNL A   1      37.988  22.591  25.283  1.00  0.00    -0.352 N 
ATOM     25  C   UNL A   1      39.076  22.748  26.105  1.00  0.00     0.251 C 
ATOM     26  H   UNL A   1      37.866  21.671  24.957  1.00  0.00     0.163 HD
ATOM     27  O   UNL A   1      39.787  21.767  26.330  1.00  0.00    -0.269 OA
BRANCH  25  28
ATOM     28  C   UNL A   1      39.460  24.058  26.690  1.00  0.00     0.039 A 
ATOM     29  C   UNL A   1      39.080  24.318  28.013  1.00  0.00     0.014 A 
ATOM     30  C   UNL A   1      40.132  25.050  25.974  1.00  0.00     0.014 A 
ATOM     31  C   UNL A   1      39.425  25.528  28.623  1.00  0.00     0.010 A 
ATOM     32  C   UNL A   1      40.573  26.208  26.617  1.00  0.00     0.010 A 
ATOM     33  C   UNL A   1      40.210  26.473  27.944  1.00  0.00    -0.014 A 
BRANCH  33  34
ATOM     34  C   UNL A   1      40.612  27.742  28.609  1.00  0.00     0.031 A 
ATOM     35  C   UNL A   1      42.037  27.961  29.051  1.00  0.00     0.074 A 
ATOM     36  C   UNL A   1      39.694  28.706  28.823  1.00  0.00     0.049 A 
ATOM     37  N   UNL A   1      42.581  29.026  29.589  1.00  0.00    -0.248 NA
ATOM     38  C   UNL A   1      42.968  26.834  28.888  1.00  0.00     0.031 C 
ATOM     39  C   UNL A   1      38.270  28.611  28.489  1.00  0.00     0.029 A 
ATOM     40  N   UNL A   1      39.824  29.966  29.356  1.00  0.00    -0.354 N 
ATOM     41  C   UNL A   1      43.908  28.691  29.831  1.00  0.00     0.074 A 
ATOM     42  C   UNL A   1      44.071  27.307  29.449  1.00  0.00     0.031 C 
ATOM     43  C   UNL A   1      37.673  29.780  28.772  1.00  0.00     0.029 A 
ATOM     44  C   UNL A   1      38.658  30.694  29.341  1.00  0.00     0.049 A 
ATOM     45  H   UNL A   1      40.672  30.314  29.715  1.00  0.00     0.167 HD
ATOM     46  C   UNL A   1      44.914  29.469  30.301  1.00  0.00     0.031 A 
ATOM     47  C   UNL A   1      38.411  31.960  29.726  1.00  0.00     0.031 A 
ATOM     48  C   UNL A   1      44.759  30.848  30.685  1.00  0.00     0.049 A 
ATOM     49  C   UNL A   1      39.540  32.800  30.256  1.00  0.00     0.074 A 
ATOM     50  C   UNL A   1      45.723  31.732  31.136  1.00  0.00     0.029 A 
ATOM     51  N   UNL A   1      43.559  31.541  30.665  1.00  0.00    -0.354 N 
ATOM     52  N   UNL A   1      40.804  32.490  30.409  1.00  0.00    -0.248 NA
ATOM     53  C   UNL A   1      39.207  34.179  30.644  1.00  0.00     0.031 C 
ATOM     54  C   UNL A   1      45.097  32.945  31.443  1.00  0.00     0.029 A 
ATOM     55  C   UNL A   1      43.754  32.837  31.116  1.00  0.00     0.049 A 
ATOM     56  H   UNL A   1      42.696  31.168  30.375  1.00  0.00     0.167 HD
ATOM     57  C   UNL A   1      41.424  33.643  30.875  1.00  0.00     0.074 A 
ATOM     58  C   UNL A   1      40.399  34.663  30.959  1.00  0.00     0.031 C 
ATOM     59  C   UNL A   1      42.725  33.841  31.199  1.00  0.00     0.031 A 
BRANCH  46  60
ATOM     60  C   UNL A   1      46.274  28.834  30.427  1.00  0.00    -0.014 A 
ATOM     61  C   UNL A   1      46.671  28.191  31.612  1.00  0.00     0.009 A 
ATOM     62  C   UNL A   1      47.165  28.862  29.343  1.00  0.00     0.009 A 
ATOM     63  C   UNL A   1      47.946  27.633  31.723  1.00  0.00     0.001 A 
ATOM     64  C   UNL A   1      48.426  28.272  29.445  1.00  0.00     0.001 A 
ATOM     65  C   UNL A   1      48.821  27.671  30.639  1.00  0.00     0.000 A 
ENDBRANCH  46  60
BRANCH  47  66
ATOM     66  C   UNL A   1      37.044  32.531  29.590  1.00  0.00    -0.014 A 
ATOM     67  C   UNL A   1      36.116  32.417  30.637  1.00  0.00     0.009 A 
ATOM     68  C   UNL A   1      36.653  33.177  28.407  1.00  0.00     0.009 A 
ATOM     69  C   UNL A   1      34.814  32.905  30.488  1.00  0.00     0.001 A 
ATOM     70  C   UNL A   1      35.362  33.694  28.274  1.00  0.00     0.001 A 
ATOM     71  C   UNL A   1      34.441  33.547  29.309  1.00  0.00     0.000 A 
ENDBRANCH  47  66
BRANCH  59  72
ATOM     72  C   UNL A   1      43.120  35.230  31.627  1.00  0.00    -0.014 A 
ATOM     73  C   UNL A   1      43.054  35.635  32.969  1.00  0.00     0.009 A 
ATOM     74  C   UNL A   1      43.573  36.146  30.664  1.00  0.00     0.009 A 
ATOM     75  C   UNL A   1      43.380  36.945  33.329  1.00  0.00     0.001 A 
ATOM     76  C   UNL A   1      43.933  37.443  31.031  1.00  0.00     0.001 A 
ATOM     77  C   UNL A   1      43.822  37.847  32.360  1.00  0.00     0.000 A 
ENDBRANCH  59  72
ENDBRANCH  33  34
ENDBRANCH  25  28
ENDBRANCH  23  24
ENDBRANCH  22  23
ENDBRANCH   1  22
TORSDOF 13
ENDMDL
MODEL 2
REMARK VINA RESULT:     -10.6      2.165      3.366
REMARK SMILES CN(Cc1csc(Br)c1)c1cccc(F)c1C(=O)NCCCNC(=O)c1ccc(-c2c3nc(c(-c4ccccc4)c4ccc([nH]4)c(-c4ccccc4)c4nc(c(-c5ccccc5)c5ccc2[nH]5)C=C4)C=C3)cc1
REMARK SMILES IDX 20 1 19 2 17 3 18 4 16 6 10 7 11 8 12 9 14 10 13 11 15 12
REMARK SMILES IDX 2 13 1 14 3 15 4 16 5 17 9 18 6 19 7 20 8 21 21 22 22 23
REMARK SMILES IDX 23 24 24 25 25 27 26 28 27 29 73 30 28 31 72 32 29 33 30 34
REMARK SMILES IDX 31 35 66 36 32 37 71 38 65 39 67 40 33 41 70 42 64 43 63 44
REMARK SMILES IDX 34 46 56 47 41 48 55 49 42 50 45 51 54 52 68 53 43 54 44 55
REMARK SMILES IDX 53 57 69 58 46 59 35 60 36 61 40 62 37 63 39 64 38 65 57 66
REMARK SMILES IDX 58 67 62 68 59 69 61 70 60 71 47 72 48 73 52 74 49 75 51 76
REMARK SMILES IDX 50 77
REMARK H PARENT 19 5 23 26 67 45 45 56
REMARK Flexibility Score: inf
ROOT
ATOM      1  C   UNL A   1      36.911  21.703  24.731  1.00  0.00     0.118 C 
ENDROOT
BRANCH   1   2
ATOM      2  N   UNL A   1      36.156  21.807  25.970  1.00  0.00    -0.352 N 
ATOM      3  C   UNL A   1      34.801  21.659  26.212  1.00  0.00     0.256 C 
ATOM      4  O   UNL A   1      34.444  21.417  27.365  1.00  0.00    -0.269 OA
ATOM      5  H   UNL A   1      36.697  22.017  26.765  1.00  0.00     0.163 HD
BRANCH   3   6
ATOM      6  C   UNL A   1      33.793  21.831  25.133  1.00  0.00     0.098 A 
ATOM      7  C   UNL A   1      33.183  23.085  24.886  1.00  0.00     0.053 A 
ATOM      8  C   UNL A   1      32.307  23.192  23.784  1.00  0.00     0.027 A 
ATOM      9  C   UNL A   1      31.997  22.094  22.981  1.00  0.00     0.005 A 
ATOM     10  C   UNL A   1      33.383  20.722  24.386  1.00  0.00     0.138 A 
ATOM     11  C   UNL A   1      32.519  20.849  23.301  1.00  0.00     0.040 A 
ATOM     12  F   UNL A   1      33.792  19.483  24.703  1.00  0.00    -0.206 F 
BRANCH   7  13
ATOM     13  N   UNL A   1      33.330  24.190  25.726  1.00  0.00    -0.370 N 
ATOM     14  C   UNL A   1      32.184  24.502  26.571  1.00  0.00     0.144 C 
BRANCH  13  15
ATOM     15  C   UNL A   1      34.241  25.269  25.356  1.00  0.00     0.152 C 
BRANCH  15  16
ATOM     16  C   UNL A   1      33.649  26.649  25.261  1.00  0.00    -0.017 A 
ATOM     17  C   UNL A   1      33.002  27.153  24.143  1.00  0.00     0.071 A 
ATOM     18  C   UNL A   1      33.686  27.630  26.309  1.00  0.00     0.033 A 
ATOM     19  S   UNL A   1      32.488  28.772  24.349  1.00  0.00    -0.136 S 
ATOM     20  C   UNL A   1      33.123  28.817  25.916  1.00  0.00     0.070 A 
ATOM     21  Br  UNL A   1      33.078  30.347  26.997  1.00  0.00    -0.039 Br
ENDBRANCH  15  16
ENDBRANCH  13  15
ENDBRANCH   7  13
ENDBRANCH   3   6
ENDBRANCH   1   2
BRANCH   1  22
ATOM     22  C   UNL A   1      37.830  20.499  24.610  1.00  0.00     0.042 C 
BRANCH  22  23
ATOM     23  C   UNL A   1      38.448  19.975  25.895  1.00  0.00     0.118 C 
BRANCH  23  24
ATOM     24  N   UNL A   1      39.685  19.233  25.720  1.00  0.00    -0.352 N 
ATOM     25  C   UNL A   1      40.992  19.532  26.010  1.00  0.00     0.251 C 
ATOM     26  H   UNL A   1      39.561  18.344  25.315  1.00  0.00     0.163 HD
ATOM     27  O   UNL A   1      41.861  18.705  25.725  1.00  0.00    -0.269 OA
BRANCH  25  28
ATOM     28  C   UNL A   1      41.408  20.829  26.604  1.00  0.00     0.039 A 
ATOM     29  C   UNL A   1      41.746  21.869  25.729  1.00  0.00     0.014 A 
ATOM     30  C   UNL A   1      41.524  21.039  27.979  1.00  0.00     0.014 A 
ATOM     31  C   UNL A   1      42.132  23.117  26.229  1.00  0.00     0.010 A 
ATOM     32  C   UNL A   1      41.798  22.314  28.477  1.00  0.00     0.010 A 
ATOM     33  C   UNL A   1      42.125  23.366  27.610  1.00  0.00    -0.014 A 
BRANCH  33  34
ATOM     34  C   UNL A   1      42.494  24.707  28.140  1.00  0.00     0.031 A 
ATOM     35  C   UNL A   1      43.936  25.063  28.398  1.00  0.00     0.074 A 
ATOM     36  C   UNL A   1      41.529  25.614  28.395  1.00  0.00     0.049 A 
ATOM     37  N   UNL A   1      44.448  26.202  28.798  1.00  0.00    -0.248 NA
ATOM     38  C   UNL A   1      44.932  23.999  28.203  1.00  0.00     0.031 C 
ATOM     39  C   UNL A   1      40.090  25.390  28.235  1.00  0.00     0.029 A 
ATOM     40  N   UNL A   1      41.614  26.917  28.825  1.00  0.00    -0.354 N 
ATOM     41  C   UNL A   1      45.816  25.985  28.906  1.00  0.00     0.074 A 
ATOM     42  C   UNL A   1      46.048  24.592  28.599  1.00  0.00     0.031 C 
ATOM     43  C   UNL A   1      39.434  26.529  28.508  1.00  0.00     0.029 A 
ATOM     44  C   UNL A   1      40.398  27.553  28.897  1.00  0.00     0.049 A 
ATOM     45  H   UNL A   1      42.465  27.351  29.059  1.00  0.00     0.167 HD
ATOM     46  C   UNL A   1      46.801  26.868  29.203  1.00  0.00     0.031 A 
ATOM     47  C   UNL A   1      40.093  28.823  29.225  1.00  0.00     0.031 A 
ATOM     48  C   UNL A   1      46.577  28.256  29.512  1.00  0.00     0.049 A 
ATOM     49  C   UNL A   1      41.200  29.781  29.564  1.00  0.00     0.074 A 
ATOM     50  C   UNL A   1      47.510  29.241  29.789  1.00  0.00     0.029 A 
ATOM     51  N   UNL A   1      45.330  28.856  29.585  1.00  0.00    -0.354 N 
ATOM     52  N   UNL A   1      42.495  29.577  29.589  1.00  0.00    -0.248 NA
ATOM     53  C   UNL A   1      40.801  31.157  29.896  1.00  0.00     0.031 C 
ATOM     54  C   UNL A   1      46.824  30.423  30.085  1.00  0.00     0.029 A 
ATOM     55  C   UNL A   1      45.467  30.192  29.924  1.00  0.00     0.049 A 
ATOM     56  H   UNL A   1      44.473  28.399  29.422  1.00  0.00     0.167 HD
ATOM     57  C   UNL A   1      43.067  30.804  29.903  1.00  0.00     0.074 A 
ATOM     58  C   UNL A   1      41.977  31.749  30.038  1.00  0.00     0.031 C 
ATOM     59  C   UNL A   1      44.375  31.122  30.060  1.00  0.00     0.031 A 
BRANCH  46  60
ATOM     60  C   UNL A   1      48.213  26.346  29.213  1.00  0.00    -0.014 A 
ATOM     61  C   UNL A   1      49.008  26.370  28.054  1.00  0.00     0.009 A 
ATOM     62  C   UNL A   1      48.767  25.840  30.400  1.00  0.00     0.009 A 
ATOM     63  C   UNL A   1      50.305  25.856  28.072  1.00  0.00     0.001 A 
ATOM     64  C   UNL A   1      50.077  25.358  30.423  1.00  0.00     0.001 A 
ATOM     65  C   UNL A   1      50.840  25.354  29.257  1.00  0.00     0.000 A 
ENDBRANCH  46  60
BRANCH  47  66
ATOM     66  C   UNL A   1      38.677  29.280  29.211  1.00  0.00    -0.014 A 
ATOM     67  C   UNL A   1      37.895  29.215  30.375  1.00  0.00     0.009 A 
ATOM     68  C   UNL A   1      38.093  29.766  28.031  1.00  0.00     0.009 A 
ATOM     69  C   UNL A   1      36.549  29.593  30.349  1.00  0.00     0.001 A 
ATOM     70  C   UNL A   1      36.757  30.175  28.015  1.00  0.00     0.001 A 
ATOM     71  C   UNL A   1      35.984  30.077  29.171  1.00  0.00     0.000 A 
ENDBRANCH  47  66
BRANCH  59  72
ATOM     72  C   UNL A   1      44.700  32.564  30.347  1.00  0.00    -0.014 A 
ATOM     73  C   UNL A   1      44.928  33.488  29.315  1.00  0.00     0.009 A 
ATOM     74  C   UNL A   1      44.774  33.003  31.679  1.00  0.00     0.009 A 
ATOM     75  C   UNL A   1      45.277  34.807  29.613  1.00  0.00     0.001 A 
ATOM     76  C   UNL A   1      45.086  34.330  31.973  1.00  0.00     0.001 A 
ATOM     77  C   UNL A   1      45.353  35.228  30.941  1.00  0.00     0.000 A 
ENDBRANCH  59  72
ENDBRANCH  33  34
ENDBRANCH  25  28
ENDBRANCH  23  24
ENDBRANCH  22  23
ENDBRANCH   1  22
TORSDOF 13
ENDMDL
MODEL 3
REMARK VINA RESULT:     -10.5      2.636      7.248
REMARK SMILES CN(Cc1csc(Br)c1)c1cccc(F)c1C(=O)NCCCNC(=O)c1ccc(-c2c3nc(c(-c4ccccc4)c4ccc([nH]4)c(-c4ccccc4)c4nc(c(-c5ccccc5)c5ccc2[nH]5)C=C4)C=C3)cc1
REMARK SMILES IDX 20 1 19 2 17 3 18 4 16 6 10 7 11 8 12 9 14 10 13 11 15 12
REMARK SMILES IDX 2 13 1 14 3 15 4 16 5 17 9 18 6 19 7 20 8 21 21 22 22 23
REMARK SMILES IDX 23 24 24 25 25 27 26 28 27 29 73 30 28 31 72 32 29 33 30 34
REMARK SMILES IDX 31 35 66 36 32 37 71 38 65 39 67 40 33 41 70 42 64 43 63 44
REMARK SMILES IDX 34 46 56 47 41 48 55 49 42 50 45 51 54 52 68 53 43 54 44 55
REMARK SMILES IDX 53 57 69 58 46 59 35 60 36 61 40 62 37 63 39 64 38 65 57 66
REMARK SMILES IDX 58 67 62 68 59 69 61 70 60 71 47 72 48 73 52 74 49 75 51 76
REMARK SMILES IDX 50 77
REMARK H PARENT 19 5 23 26 67 45 45 56
REMARK Flexibility Score: inf
ROOT
ATOM      1  C   UNL A   1      33.879  26.585  25.999  1.00  0.00     0.118 C 
ENDROOT
BRANCH   1   2
ATOM      2  N   UNL A   1      32.658  25.856  26.303  1.00  0.00    -0.352 N 
ATOM      3  C   UNL A   1      32.436  24.497  26.448  1.00  0.00     0.256 C 
ATOM      4  O   UNL A   1      31.434  24.140  27.068  1.00  0.00    -0.269 OA
ATOM      5  H   UNL A   1      31.861  26.420  26.427  1.00  0.00     0.163 HD
BRANCH   3   6
ATOM      6  C   UNL A   1      33.342  23.489  25.840  1.00  0.00     0.098 A 
ATOM      7  C   UNL A   1      33.313  23.214  24.451  1.00  0.00     0.053 A 
ATOM      8  C   UNL A   1      34.270  22.314  23.932  1.00  0.00     0.027 A 
ATOM      9  C   UNL A   1      35.191  21.664  24.754  1.00  0.00     0.005 A 
ATOM     10  C   UNL A   1      34.199  22.745  26.657  1.00  0.00     0.138 A 
ATOM     11  C   UNL A   1      35.137  21.863  26.126  1.00  0.00     0.040 A 
ATOM     12  F   UNL A   1      34.132  22.837  27.996  1.00  0.00    -0.206 F 
BRANCH   7  13
ATOM     13  N   UNL A   1      32.335  23.711  23.589  1.00  0.00    -0.370 N 
ATOM     14  C   UNL A   1      31.090  22.954  23.537  1.00  0.00     0.144 C 
BRANCH  13  15
ATOM     15  C   UNL A   1      32.725  24.497  22.422  1.00  0.00     0.152 C 
BRANCH  15  16
ATOM     16  C   UNL A   1      32.608  25.992  22.545  1.00  0.00    -0.017 A 
ATOM     17  C   UNL A   1      33.653  26.882  22.352  1.00  0.00     0.071 A 
ATOM     18  C   UNL A   1      31.403  26.694  22.888  1.00  0.00     0.033 A 
ATOM     19  S   UNL A   1      33.193  28.510  22.612  1.00  0.00    -0.136 S 
ATOM     20  C   UNL A   1      31.610  28.045  22.986  1.00  0.00     0.070 A 
ATOM     21  Br  UNL A   1      30.280  29.260  23.502  1.00  0.00    -0.039 Br
ENDBRANCH  15  16
ENDBRANCH  13  15
ENDBRANCH   7  13
ENDBRANCH   3   6
ENDBRANCH   1   2
BRANCH   1  22
ATOM     22  C   UNL A   1      33.811  28.095  26.157  1.00  0.00     0.042 C 
BRANCH  22  23
ATOM     23  C   UNL A   1      33.127  28.624  27.407  1.00  0.00     0.118 C 
BRANCH  23  24
ATOM     24  N   UNL A   1      33.232  30.061  27.598  1.00  0.00    -0.352 N 
ATOM     25  C   UNL A   1      34.265  30.868  28.003  1.00  0.00     0.251 C 
ATOM     26  H   UNL A   1      32.400  30.549  27.400  1.00  0.00     0.163 HD
ATOM     27  O   UNL A   1      34.059  32.079  28.101  1.00  0.00    -0.269 OA
BRANCH  25  28
ATOM     28  C   UNL A   1      35.602  30.338  28.375  1.00  0.00     0.039 A 
ATOM     29  C   UNL A   1      36.631  30.440  27.430  1.00  0.00     0.014 A 
ATOM     30  C   UNL A   1      35.864  29.705  29.591  1.00  0.00     0.014 A 
ATOM     31  C   UNL A   1      37.914  29.971  27.727  1.00  0.00     0.010 A 
ATOM     32  C   UNL A   1      37.168  29.342  29.931  1.00  0.00     0.010 A 
ATOM     33  C   UNL A   1      38.208  29.451  28.997  1.00  0.00    -0.014 A 
BRANCH  33  34
ATOM     34  C   UNL A   1      39.584  28.992  29.328  1.00  0.00     0.031 A 
ATOM     35  C   UNL A   1      40.492  29.837  30.185  1.00  0.00     0.074 A 
ATOM     36  C   UNL A   1      40.028  27.810  28.853  1.00  0.00     0.049 A 
ATOM     37  N   UNL A   1      41.698  29.569  30.625  1.00  0.00    -0.248 NA
ATOM     38  C   UNL A   1      39.993  31.161  30.584  1.00  0.00     0.031 C 
ATOM     39  C   UNL A   1      39.274  26.912  27.974  1.00  0.00     0.029 A 
ATOM     40  N   UNL A   1      41.216  27.150  29.059  1.00  0.00    -0.354 N 
ATOM     41  C   UNL A   1      42.096  30.691  31.343  1.00  0.00     0.074 A 
ATOM     42  C   UNL A   1      41.038  31.667  31.221  1.00  0.00     0.031 C 
ATOM     43  C   UNL A   1      39.993  25.797  27.763  1.00  0.00     0.029 A 
ATOM     44  C   UNL A   1      41.270  25.915  28.458  1.00  0.00     0.049 A 
ATOM     45  H   UNL A   1      41.956  27.527  29.585  1.00  0.00     0.167 HD
ATOM     46  C   UNL A   1      43.227  30.886  32.065  1.00  0.00     0.031 A 
ATOM     47  C   UNL A   1      42.234  24.974  28.477  1.00  0.00     0.031 A 
ATOM     48  C   UNL A   1      44.286  29.919  32.190  1.00  0.00     0.049 A 
ATOM     49  C   UNL A   1      43.484  25.219  29.274  1.00  0.00     0.074 A 
ATOM     50  C   UNL A   1      45.453  30.007  32.929  1.00  0.00     0.029 A 
ATOM     51  N   UNL A   1      44.306  28.687  31.555  1.00  0.00    -0.354 N 
ATOM     52  N   UNL A   1      43.812  26.255  30.006  1.00  0.00    -0.248 NA
ATOM     53  C   UNL A   1      44.489  24.146  29.266  1.00  0.00     0.031 C 
ATOM     54  C   UNL A   1      46.205  28.851  32.697  1.00  0.00     0.029 A 
ATOM     55  C   UNL A   1      45.474  28.013  31.869  1.00  0.00     0.049 A 
ATOM     56  H   UNL A   1      43.595  28.343  30.968  1.00  0.00     0.167 HD
ATOM     57  C   UNL A   1      45.042  25.946  30.574  1.00  0.00     0.074 A 
ATOM     58  C   UNL A   1      45.389  24.616  30.117  1.00  0.00     0.031 C 
ATOM     59  C   UNL A   1      45.811  26.692  31.404  1.00  0.00     0.031 A 
BRANCH  46  60
ATOM     60  C   UNL A   1      43.371  32.208  32.773  1.00  0.00    -0.014 A 
ATOM     61  C   UNL A   1      43.982  33.308  32.149  1.00  0.00     0.009 A 
ATOM     62  C   UNL A   1      42.872  32.363  34.077  1.00  0.00     0.009 A 
ATOM     63  C   UNL A   1      44.134  34.517  32.829  1.00  0.00     0.001 A 
ATOM     64  C   UNL A   1      42.995  33.584  34.743  1.00  0.00     0.001 A 
ATOM     65  C   UNL A   1      43.637  34.656  34.124  1.00  0.00     0.000 A 
ENDBRANCH  46  60
BRANCH  47  66
ATOM     66  C   UNL A   1      42.042  23.692  27.747  1.00  0.00    -0.014 A 
ATOM     67  C   UNL A   1      41.421  22.600  28.374  1.00  0.00     0.009 A 
ATOM     68  C   UNL A   1      42.495  23.545  26.427  1.00  0.00     0.009 A 
ATOM     69  C   UNL A   1      41.290  21.378  27.707  1.00  0.00     0.001 A 
ATOM     70  C   UNL A   1      42.333  22.334  25.751  1.00  0.00     0.001 A 
ATOM     71  C   UNL A   1      41.742  21.249  26.395  1.00  0.00     0.000 A 
ENDBRANCH  47  66
BRANCH  59  72
ATOM     72  C   UNL A   1      47.083  26.063  31.910  1.00  0.00    -0.014 A 
ATOM     73  C   UNL A   1      48.285  26.149  31.190  1.00  0.00     0.009 A 
ATOM     74  C   UNL A   1      47.073  25.376  33.134  1.00  0.00     0.009 A 
ATOM     75  C   UNL A   1      49.436  25.513  31.660  1.00  0.00     0.001 A 
ATOM     76  C   UNL A   1      48.233  24.773  33.620  1.00  0.00     0.001 A 
ATOM     77  C   UNL A   1      49.410  24.828  32.875  1.00  0.00     0.000 A 
ENDBRANCH  59  72
ENDBRANCH  33  34
ENDBRANCH  25  28
ENDBRANCH  23  24
ENDBRANCH  22  23
ENDBRANCH   1  22
TORSDOF 13
ENDMDL
