MODEL 1
REMARK VINA RESULT:     -10.3      0.000      0.000
REMARK SMILES CC(C)Cn1c([C@@H](O)[C@@H](O)C(=O)NCCCNC(=O)c2ccc(-c3c4nc(c(-c5ccccc5)c5ccc([nH]5)c(-c5ccccc5)c5nc(c(-c6ccccc6)c6ccc3[nH]6)C=C5)C=C4)cc2)nc2cc(Cl)ccc21
REMARK SMILES IDX 14 1 13 2 11 3 12 4 9 6 7 7 6 8 5 9 75 10 68 11 69 12 74 13
REMARK SMILES IDX 70 14 73 15 71 16 72 17 4 18 2 19 1 20 3 21 8 22 10 24 15 26
REMARK SMILES IDX 16 27 17 28 18 29 19 31 20 32 21 33 67 34 22 35 66 36 23 37
REMARK SMILES IDX 24 38 25 39 60 40 26 41 65 42 59 43 61 44 27 45 64 46 58 47
REMARK SMILES IDX 57 48 28 50 50 51 35 52 49 53 36 54 39 55 48 56 62 57 37 58
REMARK SMILES IDX 38 59 47 61 63 62 40 63 29 64 30 65 34 66 31 67 33 68 32 69
REMARK SMILES IDX 51 70 52 71 56 72 53 73 55 74 54 75 41 76 42 77 46 78 43 79
REMARK SMILES IDX 45 80 44 81
REMARK H PARENT 13 5 8 23 10 25 17 30 61 49 39 60
REMARK Flexibility Score: inf
ROOT
ATOM      1  C   UNL A   1      33.274  35.139  30.298  1.00  0.00     0.117 C 
ENDROOT
BRANCH   1   2
ATOM      2  N   UNL A   1      33.801  35.737  31.507  1.00  0.00    -0.354 N 
ATOM      3  C   UNL A   1      34.253  35.162  32.661  1.00  0.00     0.252 C 
ATOM      4  O   UNL A   1      34.761  35.921  33.494  1.00  0.00    -0.272 OA
ATOM      5  H   UNL A   1      33.838  36.720  31.496  1.00  0.00     0.163 HD
BRANCH   3   6
ATOM      6  C   UNL A   1      34.191  33.643  32.915  1.00  0.00     0.239 C 
BRANCH   6   7
ATOM      7  C   UNL A   1      35.389  33.104  33.720  1.00  0.00     0.219 C 
BRANCH   7   8
ATOM      8  C   UNL A   1      36.677  33.275  32.948  1.00  0.00     0.142 A 
ATOM      9  N   UNL A   1      37.816  32.514  33.126  1.00  0.00    -0.325 N 
ATOM     10  C   UNL A   1      38.789  32.994  32.274  1.00  0.00     0.068 A 
ATOM     11  N   UNL A   1      36.869  34.184  32.007  1.00  0.00    -0.230 NA
ATOM     12  C   UNL A   1      38.155  34.007  31.563  1.00  0.00     0.090 A 
ATOM     13  C   UNL A   1      40.124  32.636  32.050  1.00  0.00     0.030 A 
ATOM     14  C   UNL A   1      38.849  34.685  30.551  1.00  0.00     0.051 A 
ATOM     15  C   UNL A   1      40.810  33.332  31.048  1.00  0.00     0.023 A 
ATOM     16  C   UNL A   1      40.178  34.329  30.306  1.00  0.00     0.043 A 
ATOM     17  Cl  UNL A   1      41.056  35.136  29.063  1.00  0.00    -0.084 Cl
BRANCH   9  18
ATOM     18  C   UNL A   1      37.983  31.388  34.031  1.00  0.00     0.127 C 
BRANCH  18  19
ATOM     19  C   UNL A   1      38.695  31.752  35.343  1.00  0.00     0.003 C 
ATOM     20  C   UNL A   1      37.948  31.298  36.595  1.00  0.00     0.009 C 
ATOM     21  C   UNL A   1      40.129  31.230  35.343  1.00  0.00     0.009 C 
ENDBRANCH  18  19
ENDBRANCH   9  18
ENDBRANCH   7   8
BRANCH   7  22
ATOM     22  O   UNL A   1      35.560  33.795  34.962  1.00  0.00    -0.382 OA
ATOM     23  H   UNL A   1      35.212  33.252  35.686  1.00  0.00     0.211 HD
ENDBRANCH   7  22
ENDBRANCH   6   7
BRANCH   6  24
ATOM     24  O   UNL A   1      32.945  33.302  33.541  1.00  0.00    -0.380 OA
ATOM     25  H   UNL A   1      32.219  33.449  32.916  1.00  0.00     0.211 HD
ENDBRANCH   6  24
ENDBRANCH   3   6
ENDBRANCH   1   2
BRANCH   1  26
ATOM     26  C   UNL A   1      34.145  35.418  29.072  1.00  0.00     0.042 C 
BRANCH  26  27
ATOM     27  C   UNL A   1      35.177  34.325  28.799  1.00  0.00     0.118 C 
BRANCH  27  28
ATOM     28  N   UNL A   1      34.629  33.186  28.089  1.00  0.00    -0.352 N 
ATOM     29  C   UNL A   1      34.967  31.873  27.941  1.00  0.00     0.251 C 
ATOM     30  H   UNL A   1      33.813  33.417  27.590  1.00  0.00     0.163 HD
ATOM     31  O   UNL A   1      34.177  31.191  27.275  1.00  0.00    -0.269 OA
BRANCH  29  32
ATOM     32  C   UNL A   1      36.205  31.224  28.447  1.00  0.00     0.039 A 
ATOM     33  C   UNL A   1      37.398  31.869  28.777  1.00  0.00     0.014 A 
ATOM     34  C   UNL A   1      36.160  29.817  28.528  1.00  0.00     0.014 A 
ATOM     35  C   UNL A   1      38.540  31.127  29.074  1.00  0.00     0.010 A 
ATOM     36  C   UNL A   1      37.291  29.072  28.834  1.00  0.00     0.010 A 
ATOM     37  C   UNL A   1      38.495  29.729  29.052  1.00  0.00    -0.014 A 
BRANCH  37  38
ATOM     38  C   UNL A   1      39.726  28.990  29.314  1.00  0.00     0.031 A 
ATOM     39  C   UNL A   1      40.086  28.825  30.749  1.00  0.00     0.074 A 
ATOM     40  C   UNL A   1      40.446  28.394  28.343  1.00  0.00     0.049 A 
ATOM     41  N   UNL A   1      41.148  29.241  31.358  1.00  0.00    -0.248 NA
ATOM     42  C   UNL A   1      39.099  28.187  31.632  1.00  0.00     0.031 C 
ATOM     43  C   UNL A   1      40.085  28.204  26.934  1.00  0.00     0.029 A 
ATOM     44  N   UNL A   1      41.628  27.723  28.449  1.00  0.00    -0.354 N 
ATOM     45  C   UNL A   1      41.042  28.796  32.676  1.00  0.00     0.074 A 
ATOM     46  C   UNL A   1      39.714  28.255  32.814  1.00  0.00     0.031 C 
ATOM     47  C   UNL A   1      40.898  27.270  26.388  1.00  0.00     0.029 A 
ATOM     48  C   UNL A   1      41.922  26.920  27.356  1.00  0.00     0.049 A 
ATOM     49  H   UNL A   1      42.220  27.802  29.231  1.00  0.00     0.167 HD
ATOM     50  C   UNL A   1      42.117  28.746  33.512  1.00  0.00     0.031 A 
ATOM     51  C   UNL A   1      42.897  25.980  27.283  1.00  0.00     0.031 A 
ATOM     52  C   UNL A   1      43.211  29.538  33.023  1.00  0.00     0.049 A 
ATOM     53  C   UNL A   1      43.896  26.285  28.331  1.00  0.00     0.074 A 
ATOM     54  C   UNL A   1      43.413  30.881  32.786  1.00  0.00     0.029 A 
ATOM     55  N   UNL A   1      44.225  28.880  32.372  1.00  0.00    -0.354 N 
ATOM     56  N   UNL A   1      44.659  27.340  28.319  1.00  0.00    -0.248 NA
ATOM     57  C   UNL A   1      43.760  25.625  29.620  1.00  0.00     0.031 C 
ATOM     58  C   UNL A   1      44.236  30.927  31.625  1.00  0.00     0.029 A 
ATOM     59  C   UNL A   1      44.535  29.613  31.258  1.00  0.00     0.049 A 
ATOM     60  H   UNL A   1      44.650  28.037  32.654  1.00  0.00     0.167 HD
ATOM     61  C   UNL A   1      44.744  27.728  29.648  1.00  0.00     0.074 A 
ATOM     62  C   UNL A   1      44.263  26.577  30.409  1.00  0.00     0.031 C 
ATOM     63  C   UNL A   1      44.927  29.037  29.990  1.00  0.00     0.031 A 
BRANCH  50  64
ATOM     64  C   UNL A   1      42.313  27.706  34.589  1.00  0.00    -0.014 A 
ATOM     65  C   UNL A   1      41.818  27.840  35.898  1.00  0.00     0.009 A 
ATOM     66  C   UNL A   1      42.765  26.424  34.216  1.00  0.00     0.009 A 
ATOM     67  C   UNL A   1      41.737  26.753  36.775  1.00  0.00     0.001 A 
ATOM     68  C   UNL A   1      42.647  25.325  35.076  1.00  0.00     0.001 A 
ATOM     69  C   UNL A   1      42.123  25.490  36.353  1.00  0.00     0.000 A 
ENDBRANCH  50  64
BRANCH  51  70
ATOM     70  C   UNL A   1      42.813  24.647  26.646  1.00  0.00    -0.014 A 
ATOM     71  C   UNL A   1      41.802  23.747  27.030  1.00  0.00     0.009 A 
ATOM     72  C   UNL A   1      43.884  24.142  25.891  1.00  0.00     0.009 A 
ATOM     73  C   UNL A   1      41.875  22.388  26.712  1.00  0.00     0.001 A 
ATOM     74  C   UNL A   1      43.960  22.778  25.573  1.00  0.00     0.001 A 
ATOM     75  C   UNL A   1      42.963  21.900  25.997  1.00  0.00     0.000 A 
ENDBRANCH  51  70
BRANCH  63  76
ATOM     76  C   UNL A   1      45.281  30.028  28.907  1.00  0.00    -0.014 A 
ATOM     77  C   UNL A   1      44.233  30.616  28.181  1.00  0.00     0.009 A 
ATOM     78  C   UNL A   1      46.597  30.223  28.451  1.00  0.00     0.009 A 
ATOM     79  C   UNL A   1      44.485  31.350  27.021  1.00  0.00     0.001 A 
ATOM     80  C   UNL A   1      46.852  30.983  27.304  1.00  0.00     0.001 A 
ATOM     81  C   UNL A   1      45.795  31.533  26.582  1.00  0.00     0.000 A 
ENDBRANCH  63  76
ENDBRANCH  37  38
ENDBRANCH  29  32
ENDBRANCH  27  28
ENDBRANCH  26  27
ENDBRANCH   1  26
TORSDOF 16
ENDMDL
MODEL 2
REMARK VINA RESULT:     -10.1      2.634      4.901
REMARK SMILES CC(C)Cn1c([C@@H](O)[C@@H](O)C(=O)NCCCNC(=O)c2ccc(-c3c4nc(c(-c5ccccc5)c5ccc([nH]5)c(-c5ccccc5)c5nc(c(-c6ccccc6)c6ccc3[nH]6)C=C5)C=C4)cc2)nc2cc(Cl)ccc21
REMARK SMILES IDX 14 1 13 2 11 3 12 4 9 6 7 7 6 8 5 9 75 10 68 11 69 12 74 13
REMARK SMILES IDX 70 14 73 15 71 16 72 17 4 18 2 19 1 20 3 21 8 22 10 24 15 26
REMARK SMILES IDX 16 27 17 28 18 29 19 31 20 32 21 33 67 34 22 35 66 36 23 37
REMARK SMILES IDX 24 38 25 39 60 40 26 41 65 42 59 43 61 44 27 45 64 46 58 47
REMARK SMILES IDX 57 48 28 50 50 51 35 52 49 53 36 54 39 55 48 56 62 57 37 58
REMARK SMILES IDX 38 59 47 61 63 62 40 63 29 64 30 65 34 66 31 67 33 68 32 69
REMARK SMILES IDX 51 70 52 71 56 72 53 73 55 74 54 75 41 76 42 77 46 78 43 79
REMARK SMILES IDX 45 80 44 81
REMARK H PARENT 13 5 8 23 10 25 17 30 61 49 39 60
REMARK Flexibility Score: inf
ROOT
ATOM      1  C   UNL A   1      38.491  34.301  33.387  1.00  0.00     0.117 C 
ENDROOT
BRANCH   1   2
ATOM      2  N   UNL A   1      37.476  34.071  34.393  1.00  0.00    -0.354 N 
ATOM      3  C   UNL A   1      36.124  34.267  34.355  1.00  0.00     0.252 C 
ATOM      4  O   UNL A   1      35.481  33.868  35.333  1.00  0.00    -0.272 OA
ATOM      5  H   UNL A   1      37.815  33.715  35.246  1.00  0.00     0.163 HD
BRANCH   3   6
ATOM      6  C   UNL A   1      35.408  34.904  33.149  1.00  0.00     0.239 C 
BRANCH   6   7
ATOM      7  C   UNL A   1      34.408  33.959  32.456  1.00  0.00     0.219 C 
BRANCH   7   8
ATOM      8  C   UNL A   1      35.133  32.904  31.652  1.00  0.00     0.142 A 
ATOM      9  N   UNL A   1      35.438  33.000  30.308  1.00  0.00    -0.325 N 
ATOM     10  C   UNL A   1      36.059  31.830  29.925  1.00  0.00     0.068 A 
ATOM     11  N   UNL A   1      35.558  31.753  32.143  1.00  0.00    -0.230 NA
ATOM     12  C   UNL A   1      36.155  31.091  31.099  1.00  0.00     0.090 A 
ATOM     13  C   UNL A   1      36.551  31.366  28.699  1.00  0.00     0.030 A 
ATOM     14  C   UNL A   1      36.800  29.845  31.086  1.00  0.00     0.051 A 
ATOM     15  C   UNL A   1      37.177  30.115  28.696  1.00  0.00     0.023 A 
ATOM     16  C   UNL A   1      37.308  29.376  29.872  1.00  0.00     0.043 A 
ATOM     17  Cl  UNL A   1      38.113  27.854  29.823  1.00  0.00    -0.084 Cl
BRANCH   9  18
ATOM     18  C   UNL A   1      35.178  34.131  29.432  1.00  0.00     0.127 C 
BRANCH  18  19
ATOM     19  C   UNL A   1      33.684  34.394  29.192  1.00  0.00     0.003 C 
ATOM     20  C   UNL A   1      33.314  35.875  29.179  1.00  0.00     0.009 C 
ATOM     21  C   UNL A   1      33.210  33.702  27.917  1.00  0.00     0.009 C 
ENDBRANCH  18  19
ENDBRANCH   9  18
ENDBRANCH   7   8
BRANCH   7  22
ATOM     22  O   UNL A   1      33.583  33.263  33.397  1.00  0.00    -0.382 OA
ATOM     23  H   UNL A   1      32.762  32.983  32.963  1.00  0.00     0.211 HD
ENDBRANCH   7  22
ENDBRANCH   6   7
BRANCH   6  24
ATOM     24  O   UNL A   1      34.778  36.132  33.545  1.00  0.00    -0.380 OA
ATOM     25  H   UNL A   1      34.170  35.959  34.281  1.00  0.00     0.211 HD
ENDBRANCH   6  24
ENDBRANCH   3   6
ENDBRANCH   1   2
BRANCH   1  26
ATOM     26  C   UNL A   1      39.686  33.357  33.526  1.00  0.00     0.042 C 
BRANCH  26  27
ATOM     27  C   UNL A   1      41.023  34.015  33.185  1.00  0.00     0.118 C 
BRANCH  27  28
ATOM     28  N   UNL A   1      41.066  34.559  31.841  1.00  0.00    -0.352 N 
ATOM     29  C   UNL A   1      41.115  34.043  30.581  1.00  0.00     0.251 C 
ATOM     30  H   UNL A   1      41.058  35.543  31.840  1.00  0.00     0.163 HD
ATOM     31  O   UNL A   1      41.077  34.872  29.663  1.00  0.00    -0.269 OA
BRANCH  29  32
ATOM     32  C   UNL A   1      41.270  32.607  30.227  1.00  0.00     0.039 A 
ATOM     33  C   UNL A   1      40.288  31.621  30.337  1.00  0.00     0.014 A 
ATOM     34  C   UNL A   1      42.560  32.224  29.807  1.00  0.00     0.014 A 
ATOM     35  C   UNL A   1      40.614  30.280  30.138  1.00  0.00     0.010 A 
ATOM     36  C   UNL A   1      42.888  30.891  29.595  1.00  0.00     0.010 A 
ATOM     37  C   UNL A   1      41.926  29.915  29.817  1.00  0.00    -0.014 A 
BRANCH  37  38
ATOM     38  C   UNL A   1      42.236  28.497  29.671  1.00  0.00     0.031 A 
ATOM     39  C   UNL A   1      42.952  27.871  30.817  1.00  0.00     0.074 A 
ATOM     40  C   UNL A   1      41.817  27.757  28.625  1.00  0.00     0.049 A 
ATOM     41  N   UNL A   1      44.116  27.309  30.819  1.00  0.00    -0.248 NA
ATOM     42  C   UNL A   1      42.324  27.957  32.143  1.00  0.00     0.031 C 
ATOM     43  C   UNL A   1      40.866  28.132  27.573  1.00  0.00     0.029 A 
ATOM     44  N   UNL A   1      42.079  26.448  28.348  1.00  0.00    -0.354 N 
ATOM     45  C   UNL A   1      44.319  26.835  32.115  1.00  0.00     0.074 A 
ATOM     46  C   UNL A   1      43.239  27.362  32.911  1.00  0.00     0.031 C 
ATOM     47  C   UNL A   1      40.450  27.016  26.930  1.00  0.00     0.029 A 
ATOM     48  C   UNL A   1      41.218  25.884  27.418  1.00  0.00     0.049 A 
ATOM     49  H   UNL A   1      42.814  25.948  28.770  1.00  0.00     0.167 HD
ATOM     50  C   UNL A   1      45.266  25.900  32.405  1.00  0.00     0.031 A 
ATOM     51  C   UNL A   1      41.096  24.566  27.123  1.00  0.00     0.031 A 
ATOM     52  C   UNL A   1      46.233  25.774  31.350  1.00  0.00     0.049 A 
ATOM     53  C   UNL A   1      42.338  23.891  27.563  1.00  0.00     0.074 A 
ATOM     54  C   UNL A   1      47.176  26.608  30.788  1.00  0.00     0.029 A 
ATOM     55  N   UNL A   1      46.079  24.728  30.474  1.00  0.00    -0.354 N 
ATOM     56  N   UNL A   1      43.503  24.092  27.017  1.00  0.00    -0.248 NA
ATOM     57  C   UNL A   1      42.361  23.294  28.888  1.00  0.00     0.031 C 
ATOM     58  C   UNL A   1      47.179  26.275  29.404  1.00  0.00     0.029 A 
ATOM     59  C   UNL A   1      46.281  25.222  29.213  1.00  0.00     0.049 A 
ATOM     60  H   UNL A   1      45.862  23.797  30.709  1.00  0.00     0.167 HD
ATOM     61  C   UNL A   1      44.397  24.061  28.077  1.00  0.00     0.074 A 
ATOM     62  C   UNL A   1      43.653  23.461  29.182  1.00  0.00     0.031 C 
ATOM     63  C   UNL A   1      45.558  24.779  28.041  1.00  0.00     0.031 A 
BRANCH  50  64
ATOM     64  C   UNL A   1      45.125  24.847  33.478  1.00  0.00    -0.014 A 
ATOM     65  C   UNL A   1      45.611  25.003  34.789  1.00  0.00     0.009 A 
ATOM     66  C   UNL A   1      44.236  23.774  33.261  1.00  0.00     0.009 A 
ATOM     67  C   UNL A   1      45.204  24.168  35.834  1.00  0.00     0.001 A 
ATOM     68  C   UNL A   1      43.795  22.962  34.313  1.00  0.00     0.001 A 
ATOM     69  C   UNL A   1      44.273  23.167  35.602  1.00  0.00     0.000 A 
ENDBRANCH  50  64
BRANCH  51  70
ATOM     70  C   UNL A   1      39.848  23.815  26.861  1.00  0.00    -0.014 A 
ATOM     71  C   UNL A   1      39.910  22.474  26.439  1.00  0.00     0.009 A 
ATOM     72  C   UNL A   1      38.620  24.484  26.732  1.00  0.00     0.009 A 
ATOM     73  C   UNL A   1      38.803  21.836  25.871  1.00  0.00     0.001 A 
ATOM     74  C   UNL A   1      37.510  23.846  26.160  1.00  0.00     0.001 A 
ATOM     75  C   UNL A   1      37.608  22.528  25.715  1.00  0.00     0.000 A 
ENDBRANCH  51  70
BRANCH  63  76
ATOM     76  C   UNL A   1      45.979  25.415  26.737  1.00  0.00    -0.014 A 
ATOM     77  C   UNL A   1      47.030  24.820  26.022  1.00  0.00     0.009 A 
ATOM     78  C   UNL A   1      45.521  26.678  26.321  1.00  0.00     0.009 A 
ATOM     79  C   UNL A   1      47.627  25.476  24.944  1.00  0.00     0.001 A 
ATOM     80  C   UNL A   1      46.101  27.323  25.223  1.00  0.00     0.001 A 
ATOM     81  C   UNL A   1      47.163  26.728  24.545  1.00  0.00     0.000 A 
ENDBRANCH  63  76
ENDBRANCH  37  38
ENDBRANCH  29  32
ENDBRANCH  27  28
ENDBRANCH  26  27
ENDBRANCH   1  26
TORSDOF 16
ENDMDL
MODEL 3
REMARK VINA RESULT:     -10.0      4.611     10.100
REMARK SMILES CC(C)Cn1c([C@@H](O)[C@@H](O)C(=O)NCCCNC(=O)c2ccc(-c3c4nc(c(-c5ccccc5)c5ccc([nH]5)c(-c5ccccc5)c5nc(c(-c6ccccc6)c6ccc3[nH]6)C=C5)C=C4)cc2)nc2cc(Cl)ccc21
REMARK SMILES IDX 14 1 13 2 11 3 12 4 9 6 7 7 6 8 5 9 75 10 68 11 69 12 74 13
REMARK SMILES IDX 70 14 73 15 71 16 72 17 4 18 2 19 1 20 3 21 8 22 10 24 15 26
REMARK SMILES IDX 16 27 17 28 18 29 19 31 20 32 21 33 67 34 22 35 66 36 23 37
REMARK SMILES IDX 24 38 25 39 60 40 26 41 65 42 59 43 61 44 27 45 64 46 58 47
REMARK SMILES IDX 57 48 28 50 50 51 35 52 49 53 36 54 39 55 48 56 62 57 37 58
REMARK SMILES IDX 38 59 47 61 63 62 40 63 29 64 30 65 34 66 31 67 33 68 32 69
REMARK SMILES IDX 51 70 52 71 56 72 53 73 55 74 54 75 41 76 42 77 46 78 43 79
REMARK SMILES IDX 45 80 44 81
REMARK H PARENT 13 5 8 23 10 25 17 30 61 49 39 60
REMARK Flexibility Score: inf
ROOT
ATOM      1  C   UNL A   1      37.445  23.866  26.073  1.00  0.00     0.117 C 
ENDROOT
BRANCH   1   2
ATOM      2  N   UNL A   1      37.409  23.483  24.677  1.00  0.00    -0.354 N 
ATOM      3  C   UNL A   1      36.371  23.059  23.896  1.00  0.00     0.252 C 
ATOM      4  O   UNL A   1      36.610  22.912  22.692  1.00  0.00    -0.272 OA
ATOM      5  H   UNL A   1      38.276  23.535  24.214  1.00  0.00     0.163 HD
BRANCH   3   6
ATOM      6  C   UNL A   1      34.954  22.819  24.453  1.00  0.00     0.239 C 
BRANCH   6   7
ATOM      7  C   UNL A   1      33.870  23.675  23.769  1.00  0.00     0.219 C 
BRANCH   7   8
ATOM      8  C   UNL A   1      33.518  24.876  24.616  1.00  0.00     0.142 A 
ATOM      9  N   UNL A   1      32.335  25.040  25.309  1.00  0.00    -0.325 N 
ATOM     10  C   UNL A   1      32.366  26.273  25.925  1.00  0.00     0.068 A 
ATOM     11  N   UNL A   1      34.306  25.924  24.789  1.00  0.00    -0.230 NA
ATOM     12  C   UNL A   1      33.623  26.782  25.614  1.00  0.00     0.090 A 
ATOM     13  C   UNL A   1      31.446  26.969  26.719  1.00  0.00     0.030 A 
ATOM     14  C   UNL A   1      34.021  28.020  26.138  1.00  0.00     0.051 A 
ATOM     15  C   UNL A   1      31.849  28.211  27.222  1.00  0.00     0.023 A 
ATOM     16  C   UNL A   1      33.118  28.719  26.944  1.00  0.00     0.043 A 
ATOM     17  Cl  UNL A   1      33.579  30.239  27.610  1.00  0.00    -0.084 Cl
BRANCH   9  18
ATOM     18  C   UNL A   1      31.240  24.087  25.406  1.00  0.00     0.127 C 
BRANCH  18  19
ATOM     19  C   UNL A   1      31.119  23.426  26.788  1.00  0.00     0.003 C 
ATOM     20  C   UNL A   1      29.755  22.794  27.050  1.00  0.00     0.009 C 
ATOM     21  C   UNL A   1      32.240  22.414  27.003  1.00  0.00     0.009 C 
ENDBRANCH  18  19
ENDBRANCH   9  18
ENDBRANCH   7   8
BRANCH   7  22
ATOM     22  O   UNL A   1      34.302  24.179  22.500  1.00  0.00    -0.382 OA
ATOM     23  H   UNL A   1      35.193  23.848  22.306  1.00  0.00     0.211 HD
ENDBRANCH   7  22
ENDBRANCH   6   7
BRANCH   6  24
ATOM     24  O   UNL A   1      34.633  21.422  24.389  1.00  0.00    -0.380 OA
ATOM     25  H   UNL A   1      34.541  21.153  23.463  1.00  0.00     0.211 HD
ENDBRANCH   6  24
ENDBRANCH   3   6
ENDBRANCH   1   2
BRANCH   1  26
ATOM     26  C   UNL A   1      38.850  23.783  26.672  1.00  0.00     0.042 C 
BRANCH  26  27
ATOM     27  C   UNL A   1      39.486  22.400  26.541  1.00  0.00     0.118 C 
BRANCH  27  28
ATOM     28  N   UNL A   1      40.801  22.430  25.931  1.00  0.00    -0.352 N 
ATOM     29  C   UNL A   1      41.868  23.279  25.955  1.00  0.00     0.251 C 
ATOM     30  H   UNL A   1      40.963  21.646  25.360  1.00  0.00     0.163 HD
ATOM     31  O   UNL A   1      42.864  22.902  25.324  1.00  0.00    -0.269 OA
BRANCH  29  32
ATOM     32  C   UNL A   1      41.912  24.613  26.608  1.00  0.00     0.039 A 
ATOM     33  C   UNL A   1      42.276  24.872  27.931  1.00  0.00     0.014 A 
ATOM     34  C   UNL A   1      41.476  25.691  25.811  1.00  0.00     0.014 A 
ATOM     35  C   UNL A   1      42.106  26.147  28.470  1.00  0.00     0.010 A 
ATOM     36  C   UNL A   1      41.317  26.966  26.338  1.00  0.00     0.010 A 
ATOM     37  C   UNL A   1      41.580  27.177  27.685  1.00  0.00    -0.014 A 
BRANCH  37  38
ATOM     38  C   UNL A   1      41.368  28.482  28.303  1.00  0.00     0.031 A 
ATOM     39  C   UNL A   1      42.448  29.483  28.085  1.00  0.00     0.074 A 
ATOM     40  C   UNL A   1      40.228  28.817  28.941  1.00  0.00     0.049 A 
ATOM     41  N   UNL A   1      43.182  30.070  28.973  1.00  0.00    -0.248 NA
ATOM     42  C   UNL A   1      42.809  29.808  26.698  1.00  0.00     0.031 C 
ATOM     43  C   UNL A   1      38.965  28.072  28.990  1.00  0.00     0.029 A 
ATOM     44  N   UNL A   1      39.926  29.973  29.597  1.00  0.00    -0.354 N 
ATOM     45  C   UNL A   1      44.007  30.953  28.276  1.00  0.00     0.074 A 
ATOM     46  C   UNL A   1      43.815  30.665  26.877  1.00  0.00     0.031 C 
ATOM     47  C   UNL A   1      37.980  28.893  29.422  1.00  0.00     0.029 A 
ATOM     48  C   UNL A   1      38.569  30.158  29.822  1.00  0.00     0.049 A 
ATOM     49  H   UNL A   1      40.610  30.618  29.886  1.00  0.00     0.167 HD
ATOM     50  C   UNL A   1      44.660  31.976  28.894  1.00  0.00     0.031 A 
ATOM     51  C   UNL A   1      37.968  31.299  30.240  1.00  0.00     0.031 A 
ATOM     52  C   UNL A   1      44.710  31.795  30.319  1.00  0.00     0.049 A 
ATOM     53  C   UNL A   1      38.999  32.140  30.888  1.00  0.00     0.074 A 
ATOM     54  C   UNL A   1      45.284  30.869  31.164  1.00  0.00     0.029 A 
ATOM     55  N   UNL A   1      43.796  32.486  31.075  1.00  0.00    -0.354 N 
ATOM     56  N   UNL A   1      39.590  31.827  32.005  1.00  0.00    -0.248 NA
ATOM     57  C   UNL A   1      39.677  33.139  30.079  1.00  0.00     0.031 C 
ATOM     58  C   UNL A   1      44.357  30.728  32.234  1.00  0.00     0.029 A 
ATOM     59  C   UNL A   1      43.302  31.616  32.009  1.00  0.00     0.049 A 
ATOM     60  H   UNL A   1      43.543  33.432  30.965  1.00  0.00     0.167 HD
ATOM     61  C   UNL A   1      40.901  32.247  31.838  1.00  0.00     0.074 A 
ATOM     62  C   UNL A   1      40.868  33.140  30.682  1.00  0.00     0.031 C 
ATOM     63  C   UNL A   1      41.931  31.614  32.473  1.00  0.00     0.031 A 
BRANCH  50  64
ATOM     64  C   UNL A   1      44.946  33.315  28.257  1.00  0.00    -0.014 A 
ATOM     65  C   UNL A   1      43.943  34.215  27.856  1.00  0.00     0.009 A 
ATOM     66  C   UNL A   1      46.261  33.821  28.308  1.00  0.00     0.009 A 
ATOM     67  C   UNL A   1      44.222  35.554  27.564  1.00  0.00     0.001 A 
ATOM     68  C   UNL A   1      46.538  35.171  28.057  1.00  0.00     0.001 A 
ATOM     69  C   UNL A   1      45.515  36.038  27.694  1.00  0.00     0.000 A 
ENDBRANCH  50  64
BRANCH  51  70
ATOM     70  C   UNL A   1      36.682  31.861  29.769  1.00  0.00    -0.014 A 
ATOM     71  C   UNL A   1      36.570  32.352  28.455  1.00  0.00     0.009 A 
ATOM     72  C   UNL A   1      35.665  32.191  30.680  1.00  0.00     0.009 A 
ATOM     73  C   UNL A   1      35.507  33.177  28.073  1.00  0.00     0.001 A 
ATOM     74  C   UNL A   1      34.600  33.020  30.298  1.00  0.00     0.001 A 
ATOM     75  C   UNL A   1      34.531  33.525  29.000  1.00  0.00     0.000 A 
ENDBRANCH  51  70
BRANCH  63  76
ATOM     76  C   UNL A   1      41.610  30.606  33.551  1.00  0.00    -0.014 A 
ATOM     77  C   UNL A   1      41.750  31.005  34.889  1.00  0.00     0.009 A 
ATOM     78  C   UNL A   1      41.391  29.243  33.282  1.00  0.00     0.009 A 
ATOM     79  C   UNL A   1      41.704  30.070  35.926  1.00  0.00     0.001 A 
ATOM     80  C   UNL A   1      41.316  28.311  34.322  1.00  0.00     0.001 A 
ATOM     81  C   UNL A   1      41.487  28.724  35.642  1.00  0.00     0.000 A 
ENDBRANCH  63  76
ENDBRANCH  37  38
ENDBRANCH  29  32
ENDBRANCH  27  28
ENDBRANCH  26  27
ENDBRANCH   1  26
TORSDOF 16
ENDMDL
