MODEL 1
REMARK VINA RESULT:     -10.1      0.000      0.000
REMARK SMILES CC(C)OCCS(=O)(=O)N[C@@H]1CCC[C@H]1C(=O)NCCCNC(=O)c1ccc(-c2c3nc(c(-c4ccccc4)c4ccc([nH]4)c(-c4ccccc4)c4nc(c(-c5ccccc5)c5ccc2[nH]5)C=C4)C=C3)cc1
REMARK SMILES IDX 16 1 17 2 18 3 15 5 11 6 12 7 13 8 14 9 10 10 7 12 8 13 9 14
REMARK SMILES IDX 6 15 5 16 4 17 2 18 1 19 3 20 19 21 20 22 21 23 22 24 23 25
REMARK SMILES IDX 24 27 25 28 26 29 72 30 27 31 71 32 28 33 29 34 30 35 65 36
REMARK SMILES IDX 31 37 70 38 64 39 66 40 32 41 69 42 63 43 62 44 33 46 55 47
REMARK SMILES IDX 40 48 54 49 41 50 44 51 53 52 67 53 42 54 43 55 52 57 68 58
REMARK SMILES IDX 45 59 34 60 35 61 39 62 36 63 38 64 37 65 56 66 57 67 61 68
REMARK SMILES IDX 58 69 60 70 59 71 46 72 47 73 51 74 48 75 50 76 49 77
REMARK H PARENT 18 4 10 11 22 26 66 45 44 56
REMARK Flexibility Score: inf
ROOT
ATOM      1  C   UNL A   1      33.827  24.704  25.449  1.00  0.00     0.224 C 
ATOM      2  O   UNL A   1      35.051  24.606  25.313  1.00  0.00    -0.275 OA
ATOM      3  N   UNL A   1      33.425  25.819  26.097  1.00  0.00    -0.356 N 
ATOM      4  H   UNL A   1      34.096  26.202  26.706  1.00  0.00     0.163 HD
ENDROOT
BRANCH   1   5
ATOM      5  C   UNL A   1      32.886  23.652  24.853  1.00  0.00     0.096 C 
ATOM      6  C   UNL A   1      32.799  23.457  23.302  1.00  0.00     0.082 C 
ATOM      7  C   UNL A   1      32.534  21.963  23.117  1.00  0.00     0.021 C 
ATOM      8  C   UNL A   1      32.547  21.318  24.510  1.00  0.00     0.003 C 
ATOM      9  C   UNL A   1      33.237  22.288  25.444  1.00  0.00     0.015 C 
BRANCH   6  10
ATOM     10  N   UNL A   1      32.085  24.373  22.243  1.00  0.00    -0.211 NA
ATOM     11  H   UNL A   1      32.047  23.761  21.428  1.00  0.00     0.141 HD
BRANCH  10  12
ATOM     12  S   UNL A   1      32.311  25.891  21.530  1.00  0.00     0.214 S 
ATOM     13  O   UNL A   1      31.737  25.878  20.192  1.00  0.00    -0.212 OA
ATOM     14  O   UNL A   1      33.747  26.013  21.667  1.00  0.00    -0.212 OA
BRANCH  12  15
ATOM     15  C   UNL A   1      31.691  27.383  22.513  1.00  0.00     0.182 C 
BRANCH  15  16
ATOM     16  C   UNL A   1      30.258  27.952  22.688  1.00  0.00     0.178 C 
BRANCH  16  17
ATOM     17  O   UNL A   1      29.737  28.930  21.780  1.00  0.00    -0.378 OA
BRANCH  17  18
ATOM     18  C   UNL A   1      28.791  29.795  22.390  1.00  0.00     0.112 C 
ATOM     19  C   UNL A   1      29.511  30.365  23.631  1.00  0.00     0.038 C 
ATOM     20  C   UNL A   1      28.145  30.515  21.174  1.00  0.00     0.038 C 
ENDBRANCH  17  18
ENDBRANCH  16  17
ENDBRANCH  15  16
ENDBRANCH  12  15
ENDBRANCH  10  12
ENDBRANCH   6  10
ENDBRANCH   1   5
BRANCH   3  21
ATOM     21  C   UNL A   1      32.175  26.542  26.048  1.00  0.00     0.117 C 
BRANCH  21  22
ATOM     22  C   UNL A   1      32.171  27.765  26.945  1.00  0.00     0.042 C 
BRANCH  22  23
ATOM     23  C   UNL A   1      33.545  28.375  27.182  1.00  0.00     0.118 C 
BRANCH  23  24
ATOM     24  N   UNL A   1      33.498  29.811  27.432  1.00  0.00    -0.352 N 
ATOM     25  C   UNL A   1      34.393  30.640  28.058  1.00  0.00     0.251 C 
ATOM     26  H   UNL A   1      32.689  30.260  27.094  1.00  0.00     0.163 HD
ATOM     27  O   UNL A   1      34.050  31.773  28.390  1.00  0.00    -0.269 OA
BRANCH  25  28
ATOM     28  C   UNL A   1      35.761  30.171  28.346  1.00  0.00     0.039 A 
ATOM     29  C   UNL A   1      36.740  30.251  27.353  1.00  0.00     0.014 A 
ATOM     30  C   UNL A   1      36.068  29.619  29.589  1.00  0.00     0.014 A 
ATOM     31  C   UNL A   1      38.039  29.820  27.630  1.00  0.00     0.010 A 
ATOM     32  C   UNL A   1      37.383  29.313  29.906  1.00  0.00     0.010 A 
ATOM     33  C   UNL A   1      38.374  29.369  28.918  1.00  0.00    -0.014 A 
BRANCH  33  34
ATOM     34  C   UNL A   1      39.733  28.875  29.238  1.00  0.00     0.031 A 
ATOM     35  C   UNL A   1      40.683  29.758  30.005  1.00  0.00     0.074 A 
ATOM     36  C   UNL A   1      40.130  27.666  28.798  1.00  0.00     0.049 A 
ATOM     37  N   UNL A   1      41.928  29.538  30.343  1.00  0.00    -0.248 NA
ATOM     38  C   UNL A   1      40.181  31.082  30.412  1.00  0.00     0.031 C 
ATOM     39  C   UNL A   1      39.317  26.739  28.006  1.00  0.00     0.029 A 
ATOM     40  N   UNL A   1      41.322  27.008  28.959  1.00  0.00    -0.354 N 
ATOM     41  C   UNL A   1      42.356  30.698  30.977  1.00  0.00     0.074 A 
ATOM     42  C   UNL A   1      41.269  31.647  30.909  1.00  0.00     0.031 C 
ATOM     43  C   UNL A   1      40.020  25.616  27.787  1.00  0.00     0.029 A 
ATOM     44  C   UNL A   1      41.343  25.760  28.386  1.00  0.00     0.049 A 
ATOM     45  H   UNL A   1      42.089  27.393  29.440  1.00  0.00     0.167 HD
ATOM     46  C   UNL A   1      43.537  30.946  31.590  1.00  0.00     0.031 A 
ATOM     47  C   UNL A   1      42.320  24.836  28.354  1.00  0.00     0.031 A 
ATOM     48  C   UNL A   1      44.608  29.992  31.672  1.00  0.00     0.049 A 
ATOM     49  C   UNL A   1      43.621  25.130  29.047  1.00  0.00     0.074 A 
ATOM     50  C   UNL A   1      45.827  30.115  32.313  1.00  0.00     0.029 A 
ATOM     51  N   UNL A   1      44.583  28.731  31.095  1.00  0.00    -0.354 N 
ATOM     52  N   UNL A   1      43.988  26.208  29.698  1.00  0.00    -0.248 NA
ATOM     53  C   UNL A   1      44.634  24.067  29.020  1.00  0.00     0.031 C 
ATOM     54  C   UNL A   1      46.562  28.948  32.078  1.00  0.00     0.029 A 
ATOM     55  C   UNL A   1      45.772  28.071  31.351  1.00  0.00     0.049 A 
ATOM     56  H   UNL A   1      43.831  28.361  30.579  1.00  0.00     0.167 HD
ATOM     57  C   UNL A   1      45.257  25.936  30.195  1.00  0.00     0.074 A 
ATOM     58  C   UNL A   1      45.587  24.588  29.780  1.00  0.00     0.031 C 
ATOM     59  C   UNL A   1      46.076  26.728  30.930  1.00  0.00     0.031 A 
BRANCH  46  60
ATOM     60  C   UNL A   1      43.722  32.303  32.213  1.00  0.00    -0.014 A 
ATOM     61  C   UNL A   1      44.333  33.355  31.510  1.00  0.00     0.009 A 
ATOM     62  C   UNL A   1      43.269  32.539  33.521  1.00  0.00     0.009 A 
ATOM     63  C   UNL A   1      44.527  34.598  32.117  1.00  0.00     0.001 A 
ATOM     64  C   UNL A   1      43.431  33.793  34.113  1.00  0.00     0.001 A 
ATOM     65  C   UNL A   1      44.071  34.817  33.416  1.00  0.00     0.000 A 
ENDBRANCH  46  60
BRANCH  47  66
ATOM     66  C   UNL A   1      42.095  23.532  27.674  1.00  0.00    -0.014 A 
ATOM     67  C   UNL A   1      42.512  23.339  26.347  1.00  0.00     0.009 A 
ATOM     68  C   UNL A   1      41.453  22.477  28.342  1.00  0.00     0.009 A 
ATOM     69  C   UNL A   1      42.255  22.131  25.692  1.00  0.00     0.001 A 
ATOM     70  C   UNL A   1      41.229  21.260  27.695  1.00  0.00     0.001 A 
ATOM     71  C   UNL A   1      41.619  21.092  26.367  1.00  0.00     0.000 A 
ENDBRANCH  47  66
BRANCH  59  72
ATOM     72  C   UNL A   1      47.379  26.128  31.384  1.00  0.00    -0.014 A 
ATOM     73  C   UNL A   1      47.530  25.569  32.662  1.00  0.00     0.009 A 
ATOM     74  C   UNL A   1      48.472  26.112  30.502  1.00  0.00     0.009 A 
ATOM     75  C   UNL A   1      48.765  25.057  33.065  1.00  0.00     0.001 A 
ATOM     76  C   UNL A   1      49.693  25.564  30.894  1.00  0.00     0.001 A 
ATOM     77  C   UNL A   1      49.843  25.052  32.181  1.00  0.00     0.000 A 
ENDBRANCH  59  72
ENDBRANCH  33  34
ENDBRANCH  25  28
ENDBRANCH  23  24
ENDBRANCH  22  23
ENDBRANCH  21  22
ENDBRANCH   3  21
TORSDOF 16
ENDMDL
MODEL 2
REMARK VINA RESULT:     -10.0      2.784      7.978
REMARK SMILES CC(C)OCCS(=O)(=O)N[C@@H]1CCC[C@H]1C(=O)NCCCNC(=O)c1ccc(-c2c3nc(c(-c4ccccc4)c4ccc([nH]4)c(-c4ccccc4)c4nc(c(-c5ccccc5)c5ccc2[nH]5)C=C4)C=C3)cc1
REMARK SMILES IDX 16 1 17 2 18 3 15 5 11 6 12 7 13 8 14 9 10 10 7 12 8 13 9 14
REMARK SMILES IDX 6 15 5 16 4 17 2 18 1 19 3 20 19 21 20 22 21 23 22 24 23 25
REMARK SMILES IDX 24 27 25 28 26 29 72 30 27 31 71 32 28 33 29 34 30 35 65 36
REMARK SMILES IDX 31 37 70 38 64 39 66 40 32 41 69 42 63 43 62 44 33 46 55 47
REMARK SMILES IDX 40 48 54 49 41 50 44 51 53 52 67 53 42 54 43 55 52 57 68 58
REMARK SMILES IDX 45 59 34 60 35 61 39 62 36 63 38 64 37 65 56 66 57 67 61 68
REMARK SMILES IDX 58 69 60 70 59 71 46 72 47 73 51 74 48 75 50 76 49 77
REMARK H PARENT 18 4 10 11 22 26 66 45 44 56
REMARK Flexibility Score: inf
ROOT
ATOM      1  C   UNL A   1      33.498  24.338  22.763  1.00  0.00     0.224 C 
ATOM      2  O   UNL A   1      33.218  24.495  21.570  1.00  0.00    -0.275 OA
ATOM      3  N   UNL A   1      34.141  23.182  23.038  1.00  0.00    -0.356 N 
ATOM      4  H   UNL A   1      33.973  22.458  22.394  1.00  0.00     0.163 HD
ENDROOT
BRANCH   1   5
ATOM      5  C   UNL A   1      33.177  25.425  23.793  1.00  0.00     0.096 C 
ATOM      6  C   UNL A   1      33.778  25.348  25.237  1.00  0.00     0.082 C 
ATOM      7  C   UNL A   1      33.997  26.807  25.640  1.00  0.00     0.021 C 
ATOM      8  C   UNL A   1      33.608  27.679  24.438  1.00  0.00     0.003 C 
ATOM      9  C   UNL A   1      33.592  26.780  23.222  1.00  0.00     0.015 C 
BRANCH   6  10
ATOM     10  N   UNL A   1      33.346  24.411  26.423  1.00  0.00    -0.211 NA
ATOM     11  H   UNL A   1      34.183  23.844  26.558  1.00  0.00     0.141 HD
BRANCH  10  12
ATOM     12  S   UNL A   1      32.115  23.303  26.772  1.00  0.00     0.214 S 
ATOM     13  O   UNL A   1      30.946  24.027  27.251  1.00  0.00    -0.212 OA
ATOM     14  O   UNL A   1      32.820  22.437  27.691  1.00  0.00    -0.212 OA
BRANCH  12  15
ATOM     15  C   UNL A   1      31.643  22.108  25.385  1.00  0.00     0.182 C 
BRANCH  15  16
ATOM     16  C   UNL A   1      32.041  20.627  25.148  1.00  0.00     0.178 C 
BRANCH  16  17
ATOM     17  O   UNL A   1      32.663  20.218  23.923  1.00  0.00    -0.378 OA
BRANCH  17  18
ATOM     18  C   UNL A   1      32.994  18.837  23.912  1.00  0.00     0.112 C 
ATOM     19  C   UNL A   1      32.792  18.365  25.367  1.00  0.00     0.038 C 
ATOM     20  C   UNL A   1      32.355  18.339  22.586  1.00  0.00     0.038 C 
ENDBRANCH  17  18
ENDBRANCH  16  17
ENDBRANCH  15  16
ENDBRANCH  12  15
ENDBRANCH  10  12
ENDBRANCH   6  10
ENDBRANCH   1   5
BRANCH   3  21
ATOM     21  C   UNL A   1      35.035  22.831  24.118  1.00  0.00     0.117 C 
BRANCH  21  22
ATOM     22  C   UNL A   1      36.455  23.307  23.882  1.00  0.00     0.042 C 
BRANCH  22  23
ATOM     23  C   UNL A   1      37.214  23.671  25.150  1.00  0.00     0.118 C 
BRANCH  23  24
ATOM     24  N   UNL A   1      38.266  22.717  25.481  1.00  0.00    -0.352 N 
ATOM     25  C   UNL A   1      39.478  22.900  26.096  1.00  0.00     0.251 C 
ATOM     26  H   UNL A   1      38.074  21.787  25.218  1.00  0.00     0.163 HD
ATOM     27  O   UNL A   1      40.327  22.012  26.052  1.00  0.00    -0.269 OA
BRANCH  25  28
ATOM     28  C   UNL A   1      39.769  24.162  26.800  1.00  0.00     0.039 A 
ATOM     29  C   UNL A   1      40.503  25.159  26.153  1.00  0.00     0.014 A 
ATOM     30  C   UNL A   1      39.346  24.346  28.116  1.00  0.00     0.014 A 
ATOM     31  C   UNL A   1      40.767  26.359  26.815  1.00  0.00     0.010 A 
ATOM     32  C   UNL A   1      39.496  25.583  28.725  1.00  0.00     0.010 A 
ATOM     33  C   UNL A   1      40.244  26.588  28.099  1.00  0.00    -0.014 A 
BRANCH  33  34
ATOM     34  C   UNL A   1      40.530  27.836  28.843  1.00  0.00     0.031 A 
ATOM     35  C   UNL A   1      41.860  28.002  29.533  1.00  0.00     0.074 A 
ATOM     36  C   UNL A   1      39.585  28.789  28.945  1.00  0.00     0.049 A 
ATOM     37  N   UNL A   1      42.290  28.990  30.274  1.00  0.00    -0.248 NA
ATOM     38  C   UNL A   1      42.821  26.892  29.404  1.00  0.00     0.031 C 
ATOM     39  C   UNL A   1      38.242  28.724  28.362  1.00  0.00     0.029 A 
ATOM     40  N   UNL A   1      39.613  30.006  29.577  1.00  0.00    -0.354 N 
ATOM     41  C   UNL A   1      43.551  28.609  30.715  1.00  0.00     0.074 A 
ATOM     42  C   UNL A   1      43.788  27.271  30.223  1.00  0.00     0.031 C 
ATOM     43  C   UNL A   1      37.591  29.868  28.627  1.00  0.00     0.029 A 
ATOM     44  C   UNL A   1      38.453  30.727  29.432  1.00  0.00     0.049 A 
ATOM     45  H   UNL A   1      40.390  30.331  30.085  1.00  0.00     0.167 HD
ATOM     46  C   UNL A   1      44.450  29.317  31.436  1.00  0.00     0.031 A 
ATOM     47  C   UNL A   1      38.127  31.948  29.894  1.00  0.00     0.031 A 
ATOM     48  C   UNL A   1      44.219  30.655  31.906  1.00  0.00     0.049 A 
ATOM     49  C   UNL A   1      39.143  32.719  30.689  1.00  0.00     0.074 A 
ATOM     50  C   UNL A   1      45.078  31.488  32.600  1.00  0.00     0.029 A 
ATOM     51  N   UNL A   1      43.038  31.359  31.722  1.00  0.00    -0.354 N 
ATOM     52  N   UNL A   1      40.358  32.371  31.042  1.00  0.00    -0.248 NA
ATOM     53  C   UNL A   1      38.750  34.064  31.128  1.00  0.00     0.031 C 
ATOM     54  C   UNL A   1      44.396  32.676  32.884  1.00  0.00     0.029 A 
ATOM     55  C   UNL A   1      43.139  32.610  32.304  1.00  0.00     0.049 A 
ATOM     56  H   UNL A   1      42.245  31.018  31.249  1.00  0.00     0.167 HD
ATOM     57  C   UNL A   1      40.888  33.469  31.707  1.00  0.00     0.074 A 
ATOM     58  C   UNL A   1      39.868  34.497  31.693  1.00  0.00     0.031 C 
ATOM     59  C   UNL A   1      42.110  33.618  32.275  1.00  0.00     0.031 A 
BRANCH  46  60
ATOM     60  C   UNL A   1      45.760  28.650  31.758  1.00  0.00    -0.014 A 
ATOM     61  C   UNL A   1      46.854  28.722  30.880  1.00  0.00     0.009 A 
ATOM     62  C   UNL A   1      45.907  27.945  32.963  1.00  0.00     0.009 A 
ATOM     63  C   UNL A   1      48.052  28.067  31.180  1.00  0.00     0.001 A 
ATOM     64  C   UNL A   1      47.117  27.322  33.278  1.00  0.00     0.001 A 
ATOM     65  C   UNL A   1      48.183  27.372  32.381  1.00  0.00     0.000 A 
ENDBRANCH  46  60
BRANCH  47  66
ATOM     66  C   UNL A   1      36.794  32.533  29.588  1.00  0.00    -0.014 A 
ATOM     67  C   UNL A   1      36.567  33.191  28.368  1.00  0.00     0.009 A 
ATOM     68  C   UNL A   1      35.745  32.449  30.517  1.00  0.00     0.009 A 
ATOM     69  C   UNL A   1      35.330  33.785  28.102  1.00  0.00     0.001 A 
ATOM     70  C   UNL A   1      34.500  33.015  30.233  1.00  0.00     0.001 A 
ATOM     71  C   UNL A   1      34.297  33.693  29.032  1.00  0.00     0.000 A 
ENDBRANCH  47  66
BRANCH  59  72
ATOM     72  C   UNL A   1      42.428  34.962  32.872  1.00  0.00    -0.014 A 
ATOM     73  C   UNL A   1      43.201  35.911  32.185  1.00  0.00     0.009 A 
ATOM     74  C   UNL A   1      41.926  35.285  34.143  1.00  0.00     0.009 A 
ATOM     75  C   UNL A   1      43.510  37.134  32.784  1.00  0.00     0.001 A 
ATOM     76  C   UNL A   1      42.205  36.523  34.722  1.00  0.00     0.001 A 
ATOM     77  C   UNL A   1      43.009  37.440  34.049  1.00  0.00     0.000 A 
ENDBRANCH  59  72
ENDBRANCH  33  34
ENDBRANCH  25  28
ENDBRANCH  23  24
ENDBRANCH  22  23
ENDBRANCH  21  22
ENDBRANCH   3  21
TORSDOF 16
ENDMDL
MODEL 3
REMARK VINA RESULT:     -10.0      3.482      5.551
REMARK SMILES CC(C)OCCS(=O)(=O)N[C@@H]1CCC[C@H]1C(=O)NCCCNC(=O)c1ccc(-c2c3nc(c(-c4ccccc4)c4ccc([nH]4)c(-c4ccccc4)c4nc(c(-c5ccccc5)c5ccc2[nH]5)C=C4)C=C3)cc1
REMARK SMILES IDX 16 1 17 2 18 3 15 5 11 6 12 7 13 8 14 9 10 10 7 12 8 13 9 14
REMARK SMILES IDX 6 15 5 16 4 17 2 18 1 19 3 20 19 21 20 22 21 23 22 24 23 25
REMARK SMILES IDX 24 27 25 28 26 29 72 30 27 31 71 32 28 33 29 34 30 35 65 36
REMARK SMILES IDX 31 37 70 38 64 39 66 40 32 41 69 42 63 43 62 44 33 46 55 47
REMARK SMILES IDX 40 48 54 49 41 50 44 51 53 52 67 53 42 54 43 55 52 57 68 58
REMARK SMILES IDX 45 59 34 60 35 61 39 62 36 63 38 64 37 65 56 66 57 67 61 68
REMARK SMILES IDX 58 69 60 70 59 71 46 72 47 73 51 74 48 75 50 76 49 77
REMARK H PARENT 18 4 10 11 22 26 66 45 44 56
REMARK Flexibility Score: inf
ROOT
ATOM      1  C   UNL A   1      33.965  32.594  28.167  1.00  0.00     0.224 C 
ATOM      2  O   UNL A   1      32.913  32.503  27.524  1.00  0.00    -0.275 OA
ATOM      3  N   UNL A   1      34.195  33.817  28.689  1.00  0.00    -0.356 N 
ATOM      4  H   UNL A   1      33.758  34.556  28.208  1.00  0.00     0.163 HD
ENDROOT
BRANCH   1   5
ATOM      5  C   UNL A   1      34.862  31.370  28.377  1.00  0.00     0.096 C 
ATOM      6  C   UNL A   1      34.569  30.034  27.615  1.00  0.00     0.082 C 
ATOM      7  C   UNL A   1      35.948  29.424  27.365  1.00  0.00     0.021 C 
ATOM      8  C   UNL A   1      36.993  30.416  27.897  1.00  0.00     0.003 C 
ATOM      9  C   UNL A   1      36.302  31.754  28.044  1.00  0.00     0.015 C 
BRANCH   6  10
ATOM     10  N   UNL A   1      33.440  28.978  27.899  1.00  0.00    -0.211 NA
ATOM     11  H   UNL A   1      33.974  28.199  28.286  1.00  0.00     0.141 HD
BRANCH  10  12
ATOM     12  S   UNL A   1      32.220  28.174  27.045  1.00  0.00     0.214 S 
ATOM     13  O   UNL A   1      31.111  27.898  27.947  1.00  0.00    -0.212 OA
ATOM     14  O   UNL A   1      32.982  27.061  26.521  1.00  0.00    -0.212 OA
BRANCH  12  15
ATOM     15  C   UNL A   1      31.608  29.013  25.465  1.00  0.00     0.182 C 
BRANCH  15  16
ATOM     16  C   UNL A   1      32.109  28.898  24.001  1.00  0.00     0.178 C 
BRANCH  16  17
ATOM     17  O   UNL A   1      32.062  27.648  23.302  1.00  0.00    -0.378 OA
BRANCH  17  18
ATOM     18  C   UNL A   1      33.335  27.240  22.824  1.00  0.00     0.112 C 
ATOM     19  C   UNL A   1      33.045  26.074  21.856  1.00  0.00     0.038 C 
ATOM     20  C   UNL A   1      34.068  28.590  22.593  1.00  0.00     0.038 C 
ENDBRANCH  17  18
ENDBRANCH  16  17
ENDBRANCH  15  16
ENDBRANCH  12  15
ENDBRANCH  10  12
ENDBRANCH   6  10
ENDBRANCH   1   5
BRANCH   3  21
ATOM     21  C   UNL A   1      34.975  34.225  29.835  1.00  0.00     0.117 C 
BRANCH  21  22
ATOM     22  C   UNL A   1      34.275  33.946  31.150  1.00  0.00     0.042 C 
BRANCH  22  23
ATOM     23  C   UNL A   1      34.731  32.672  31.848  1.00  0.00     0.118 C 
BRANCH  23  24
ATOM     24  N   UNL A   1      35.298  32.916  33.169  1.00  0.00    -0.352 N 
ATOM     25  C   UNL A   1      36.500  32.537  33.710  1.00  0.00     0.251 C 
ATOM     26  H   UNL A   1      34.722  33.439  33.773  1.00  0.00     0.163 HD
ATOM     27  O   UNL A   1      36.680  32.624  34.923  1.00  0.00    -0.269 OA
BRANCH  25  28
ATOM     28  C   UNL A   1      37.572  32.015  32.843  1.00  0.00     0.039 A 
ATOM     29  C   UNL A   1      38.392  30.983  33.305  1.00  0.00     0.014 A 
ATOM     30  C   UNL A   1      37.789  32.572  31.582  1.00  0.00     0.014 A 
ATOM     31  C   UNL A   1      39.398  30.480  32.478  1.00  0.00     0.010 A 
ATOM     32  C   UNL A   1      38.700  31.988  30.715  1.00  0.00     0.010 A 
ATOM     33  C   UNL A   1      39.543  30.965  31.167  1.00  0.00    -0.014 A 
BRANCH  33  34
ATOM     34  C   UNL A   1      40.619  30.477  30.273  1.00  0.00     0.031 A 
ATOM     35  C   UNL A   1      41.803  31.363  29.983  1.00  0.00     0.074 A 
ATOM     36  C   UNL A   1      40.509  29.271  29.685  1.00  0.00     0.049 A 
ATOM     37  N   UNL A   1      42.823  31.148  29.193  1.00  0.00    -0.248 NA
ATOM     38  C   UNL A   1      41.823  32.684  30.636  1.00  0.00     0.031 C 
ATOM     39  C   UNL A   1      39.388  28.342  29.851  1.00  0.00     0.029 A 
ATOM     40  N   UNL A   1      41.357  28.618  28.828  1.00  0.00    -0.354 N 
ATOM     41  C   UNL A   1      43.586  32.309  29.239  1.00  0.00     0.074 A 
ATOM     42  C   UNL A   1      42.875  33.253  30.070  1.00  0.00     0.031 C 
ATOM     43  C   UNL A   1      39.638  27.222  29.152  1.00  0.00     0.029 A 
ATOM     44  C   UNL A   1      40.913  27.371  28.459  1.00  0.00     0.049 A 
ATOM     45  H   UNL A   1      42.203  29.005  28.508  1.00  0.00     0.167 HD
ATOM     46  C   UNL A   1      44.786  32.560  28.669  1.00  0.00     0.031 A 
ATOM     47  C   UNL A   1      41.478  26.452  27.656  1.00  0.00     0.031 A 
ATOM     48  C   UNL A   1      45.499  31.611  27.859  1.00  0.00     0.049 A 
ATOM     49  C   UNL A   1      42.815  26.751  27.037  1.00  0.00     0.074 A 
ATOM     50  C   UNL A   1      46.746  31.739  27.273  1.00  0.00     0.029 A 
ATOM     51  N   UNL A   1      45.025  30.352  27.524  1.00  0.00    -0.354 N 
ATOM     52  N   UNL A   1      43.555  27.829  27.143  1.00  0.00    -0.248 NA
ATOM     53  C   UNL A   1      43.405  25.693  26.207  1.00  0.00     0.031 C 
ATOM     54  C   UNL A   1      47.002  30.576  26.539  1.00  0.00     0.029 A 
ATOM     55  C   UNL A   1      45.948  29.697  26.726  1.00  0.00     0.049 A 
ATOM     56  H   UNL A   1      44.160  29.979  27.811  1.00  0.00     0.167 HD
ATOM     57  C   UNL A   1      44.717  27.563  26.428  1.00  0.00     0.074 A 
ATOM     58  C   UNL A   1      44.586  26.217  25.908  1.00  0.00     0.031 C 
ATOM     59  C   UNL A   1      45.796  28.356  26.223  1.00  0.00     0.031 A 
BRANCH  46  60
ATOM     60  C   UNL A   1      45.394  33.917  28.904  1.00  0.00    -0.014 A 
ATOM     61  C   UNL A   1      46.243  34.160  29.997  1.00  0.00     0.009 A 
ATOM     62  C   UNL A   1      45.123  34.968  28.014  1.00  0.00     0.009 A 
ATOM     63  C   UNL A   1      46.770  35.435  30.219  1.00  0.00     0.001 A 
ATOM     64  C   UNL A   1      45.680  36.232  28.217  1.00  0.00     0.001 A 
ATOM     65  C   UNL A   1      46.492  36.468  29.325  1.00  0.00     0.000 A 
ENDBRANCH  46  60
BRANCH  47  66
ATOM     66  C   UNL A   1      40.802  25.148  27.418  1.00  0.00    -0.014 A 
ATOM     67  C   UNL A   1      41.261  23.981  28.049  1.00  0.00     0.009 A 
ATOM     68  C   UNL A   1      39.702  25.061  26.550  1.00  0.00     0.009 A 
ATOM     69  C   UNL A   1      40.658  22.749  27.785  1.00  0.00     0.001 A 
ATOM     70  C   UNL A   1      39.080  23.833  26.316  1.00  0.00     0.001 A 
ATOM     71  C   UNL A   1      39.566  22.676  26.923  1.00  0.00     0.000 A 
ENDBRANCH  47  66
BRANCH  59  72
ATOM     72  C   UNL A   1      46.945  27.762  25.454  1.00  0.00    -0.014 A 
ATOM     73  C   UNL A   1      47.031  27.864  24.057  1.00  0.00     0.009 A 
ATOM     74  C   UNL A   1      47.969  27.101  26.152  1.00  0.00     0.009 A 
ATOM     75  C   UNL A   1      48.091  27.266  23.372  1.00  0.00     0.001 A 
ATOM     76  C   UNL A   1      49.046  26.540  25.467  1.00  0.00     0.001 A 
ATOM     77  C   UNL A   1      49.098  26.609  24.077  1.00  0.00     0.000 A 
ENDBRANCH  59  72
ENDBRANCH  33  34
ENDBRANCH  25  28
ENDBRANCH  23  24
ENDBRANCH  22  23
ENDBRANCH  21  22
ENDBRANCH   3  21
TORSDOF 16
ENDMDL
