MODEL 1
REMARK VINA RESULT:     -11.5      0.000      0.000
REMARK SMILES O=Cc1ccc(-c2cnccc2C(=O)NCCCNC(=O)c2ccc(-c3c4nc(c(-c5ccccc5)c5ccc([nH]5)c(-c5ccccc5)c5nc(c(-c6ccccc6)c6ccc3[nH]6)C=C5)C=C4)cc2)s1
REMARK SMILES IDX 17 1 16 2 15 3 13 4 14 5 12 7 7 8 8 9 9 10 11 11 10 12 6 13
REMARK SMILES IDX 3 14 4 15 70 16 5 17 2 18 1 19 18 20 19 21 20 22 21 24 22 25
REMARK SMILES IDX 23 26 69 27 24 28 68 29 25 30 26 31 27 32 62 33 28 34 67 35
REMARK SMILES IDX 61 36 63 37 29 38 66 39 60 40 59 41 30 43 52 44 37 45 51 46
REMARK SMILES IDX 38 47 41 48 50 49 64 50 39 51 40 52 49 54 65 55 42 56 31 57
REMARK SMILES IDX 32 58 36 59 33 60 35 61 34 62 53 63 54 64 58 65 55 66 57 67
REMARK SMILES IDX 56 68 43 69 44 70 48 71 45 72 47 73 46 74
REMARK H PARENT 15 6 19 23 63 42 41 53
REMARK Flexibility Score: inf
ROOT
ATOM      1  C   UNL A   1      37.950  19.940  24.776  1.00  0.00     0.042 C 
ENDROOT
BRANCH   1   2
ATOM      2  C   UNL A   1      36.980  21.099  24.667  1.00  0.00     0.118 C 
BRANCH   2   3
ATOM      3  N   UNL A   1      36.145  21.370  25.808  1.00  0.00    -0.352 N 
ATOM      4  C   UNL A   1      34.780  21.260  25.929  1.00  0.00     0.252 C 
ATOM      5  O   UNL A   1      34.304  21.390  27.058  1.00  0.00    -0.269 OA
ATOM      6  H   UNL A   1      36.618  21.676  26.615  1.00  0.00     0.163 HD
BRANCH   4   7
ATOM      7  C   UNL A   1      33.833  21.123  24.782  1.00  0.00     0.051 A 
ATOM      8  C   UNL A   1      33.321  19.949  24.196  1.00  0.00     0.023 A 
ATOM      9  C   UNL A   1      32.397  20.129  23.159  1.00  0.00     0.121 A 
ATOM     10  N   UNL A   1      31.966  21.321  22.682  1.00  0.00    -0.264 NA
ATOM     11  C   UNL A   1      33.377  22.370  24.308  1.00  0.00     0.034 A 
ATOM     12  C   UNL A   1      32.462  22.419  23.274  1.00  0.00     0.112 A 
BRANCH   8  13
ATOM     13  C   UNL A   1      33.669  18.573  24.566  1.00  0.00     0.037 A 
ATOM     14  C   UNL A   1      33.390  16.198  25.200  1.00  0.00     0.067 A 
ATOM     15  C   UNL A   1      34.640  16.452  24.671  1.00  0.00     0.024 A 
ATOM     16  S   UNL A   1      32.522  17.642  25.465  1.00  0.00    -0.132 S 
ATOM     17  C   UNL A   1      34.805  17.830  24.312  1.00  0.00     0.021 A 
BRANCH  14  18
ATOM     18  C   UNL A   1      32.773  14.930  25.516  1.00  0.00     0.270 C 
ATOM     19  O   UNL A   1      33.355  13.849  25.542  1.00  0.00    -0.297 OA
ENDBRANCH  14  18
ENDBRANCH   8  13
ENDBRANCH   4   7
ENDBRANCH   2   3
ENDBRANCH   1   2
BRANCH   1  20
ATOM     20  C   UNL A   1      38.887  19.998  25.975  1.00  0.00     0.118 C 
BRANCH  20  21
ATOM     21  N   UNL A   1      40.135  19.255  25.823  1.00  0.00    -0.352 N 
ATOM     22  C   UNL A   1      41.457  19.550  26.064  1.00  0.00     0.251 C 
ATOM     23  H   UNL A   1      40.001  18.344  25.472  1.00  0.00     0.163 HD
ATOM     24  O   UNL A   1      42.302  18.688  25.821  1.00  0.00    -0.269 OA
BRANCH  22  25
ATOM     25  C   UNL A   1      41.902  20.874  26.559  1.00  0.00     0.039 A 
ATOM     26  C   UNL A   1      42.316  21.843  25.636  1.00  0.00     0.014 A 
ATOM     27  C   UNL A   1      41.957  21.175  27.915  1.00  0.00     0.014 A 
ATOM     28  C   UNL A   1      42.682  23.124  26.070  1.00  0.00     0.010 A 
ATOM     29  C   UNL A   1      42.184  22.481  28.336  1.00  0.00     0.010 A 
ATOM     30  C   UNL A   1      42.560  23.476  27.424  1.00  0.00    -0.014 A 
BRANCH  30  31
ATOM     31  C   UNL A   1      42.825  24.853  27.928  1.00  0.00     0.031 A 
ATOM     32  C   UNL A   1      44.216  25.244  28.364  1.00  0.00     0.074 A 
ATOM     33  C   UNL A   1      41.805  25.716  28.109  1.00  0.00     0.049 A 
ATOM     34  N   UNL A   1      44.615  26.320  28.998  1.00  0.00    -0.248 NA
ATOM     35  C   UNL A   1      45.294  24.277  28.097  1.00  0.00     0.031 C 
ATOM     36  C   UNL A   1      40.400  25.460  27.782  1.00  0.00     0.029 A 
ATOM     37  N   UNL A   1      41.793  26.986  28.632  1.00  0.00    -0.354 N 
ATOM     38  C   UNL A   1      45.970  26.132  29.245  1.00  0.00     0.074 A 
ATOM     39  C   UNL A   1      46.313  24.820  28.744  1.00  0.00     0.031 C 
ATOM     40  C   UNL A   1      39.672  26.547  28.076  1.00  0.00     0.029 A 
ATOM     41  C   UNL A   1      40.544  27.559  28.662  1.00  0.00     0.049 A 
ATOM     42  H   UNL A   1      42.603  27.444  28.954  1.00  0.00     0.167 HD
ATOM     43  C   UNL A   1      46.860  26.980  29.814  1.00  0.00     0.031 A 
ATOM     44  C   UNL A   1      40.141  28.761  29.116  1.00  0.00     0.031 A 
ATOM     45  C   UNL A   1      46.537  28.308  30.263  1.00  0.00     0.049 A 
ATOM     46  C   UNL A   1      41.151  29.700  29.712  1.00  0.00     0.074 A 
ATOM     47  C   UNL A   1      47.384  29.274  30.781  1.00  0.00     0.029 A 
ATOM     48  N   UNL A   1      45.268  28.862  30.231  1.00  0.00    -0.354 N 
ATOM     49  N   UNL A   1      42.437  29.524  29.894  1.00  0.00    -0.248 NA
ATOM     50  C   UNL A   1      40.653  31.010  30.156  1.00  0.00     0.031 C 
ATOM     51  C   UNL A   1      46.618  30.400  31.096  1.00  0.00     0.029 A 
ATOM     52  C   UNL A   1      45.305  30.152  30.731  1.00  0.00     0.049 A 
ATOM     53  H   UNL A   1      44.459  28.406  29.903  1.00  0.00     0.167 HD
ATOM     54  C   UNL A   1      42.906  30.708  30.447  1.00  0.00     0.074 A 
ATOM     55  C   UNL A   1      41.770  31.600  30.557  1.00  0.00     0.031 C 
ATOM     56  C   UNL A   1      44.167  31.027  30.829  1.00  0.00     0.031 A 
BRANCH  43  57
ATOM     57  C   UNL A   1      48.276  26.496  29.973  1.00  0.00    -0.014 A 
ATOM     58  C   UNL A   1      49.233  26.695  28.964  1.00  0.00     0.009 A 
ATOM     59  C   UNL A   1      48.666  25.851  31.157  1.00  0.00     0.009 A 
ATOM     60  C   UNL A   1      50.536  26.217  29.117  1.00  0.00     0.001 A 
ATOM     61  C   UNL A   1      49.979  25.403  31.322  1.00  0.00     0.001 A 
ATOM     62  C   UNL A   1      50.908  25.575  30.297  1.00  0.00     0.000 A 
ENDBRANCH  43  57
BRANCH  44  63
ATOM     63  C   UNL A   1      38.715  29.161  28.998  1.00  0.00    -0.014 A 
ATOM     64  C   UNL A   1      38.223  29.672  27.787  1.00  0.00     0.009 A 
ATOM     65  C   UNL A   1      37.839  29.036  30.088  1.00  0.00     0.009 A 
ATOM     66  C   UNL A   1      36.890  30.075  27.676  1.00  0.00     0.001 A 
ATOM     67  C   UNL A   1      36.500  29.413  29.965  1.00  0.00     0.001 A 
ATOM     68  C   UNL A   1      36.029  29.940  28.764  1.00  0.00     0.000 A 
ENDBRANCH  44  63
BRANCH  56  69
ATOM     69  C   UNL A   1      44.391  32.412  31.365  1.00  0.00    -0.014 A 
ATOM     70  C   UNL A   1      44.303  32.686  32.738  1.00  0.00     0.009 A 
ATOM     71  C   UNL A   1      44.737  33.448  30.484  1.00  0.00     0.009 A 
ATOM     72  C   UNL A   1      44.527  33.979  33.215  1.00  0.00     0.001 A 
ATOM     73  C   UNL A   1      44.988  34.734  30.966  1.00  0.00     0.001 A 
ATOM     74  C   UNL A   1      44.874  34.999  32.330  1.00  0.00     0.000 A 
ENDBRANCH  56  69
ENDBRANCH  30  31
ENDBRANCH  22  25
ENDBRANCH  20  21
ENDBRANCH   1  20
TORSDOF 12
ENDMDL
MODEL 2
REMARK VINA RESULT:     -11.4      1.289      6.218
REMARK SMILES O=Cc1ccc(-c2cnccc2C(=O)NCCCNC(=O)c2ccc(-c3c4nc(c(-c5ccccc5)c5ccc([nH]5)c(-c5ccccc5)c5nc(c(-c6ccccc6)c6ccc3[nH]6)C=C5)C=C4)cc2)s1
REMARK SMILES IDX 17 1 16 2 15 3 13 4 14 5 12 7 7 8 8 9 9 10 11 11 10 12 6 13
REMARK SMILES IDX 3 14 4 15 70 16 5 17 2 18 1 19 18 20 19 21 20 22 21 24 22 25
REMARK SMILES IDX 23 26 69 27 24 28 68 29 25 30 26 31 27 32 62 33 28 34 67 35
REMARK SMILES IDX 61 36 63 37 29 38 66 39 60 40 59 41 30 43 52 44 37 45 51 46
REMARK SMILES IDX 38 47 41 48 50 49 64 50 39 51 40 52 49 54 65 55 42 56 31 57
REMARK SMILES IDX 32 58 36 59 33 60 35 61 34 62 53 63 54 64 58 65 55 66 57 67
REMARK SMILES IDX 56 68 43 69 44 70 48 71 45 72 47 73 46 74
REMARK H PARENT 15 6 19 23 63 42 41 53
REMARK Flexibility Score: inf
ROOT
ATOM      1  C   UNL A   1      37.950  19.894  24.619  1.00  0.00     0.042 C 
ENDROOT
BRANCH   1   2
ATOM      2  C   UNL A   1      37.170  21.193  24.646  1.00  0.00     0.118 C 
BRANCH   2   3
ATOM      3  N   UNL A   1      36.356  21.451  25.806  1.00  0.00    -0.352 N 
ATOM      4  C   UNL A   1      34.994  21.349  25.949  1.00  0.00     0.252 C 
ATOM      5  O   UNL A   1      34.538  21.463  27.089  1.00  0.00    -0.269 OA
ATOM      6  H   UNL A   1      36.846  21.739  26.610  1.00  0.00     0.163 HD
BRANCH   4   7
ATOM      7  C   UNL A   1      34.026  21.239  24.817  1.00  0.00     0.051 A 
ATOM      8  C   UNL A   1      33.461  20.082  24.248  1.00  0.00     0.023 A 
ATOM      9  C   UNL A   1      32.529  20.289  23.223  1.00  0.00     0.121 A 
ATOM     10  N   UNL A   1      32.138  21.493  22.741  1.00  0.00    -0.264 NA
ATOM     11  C   UNL A   1      33.612  22.500  24.338  1.00  0.00     0.034 A 
ATOM     12  C   UNL A   1      32.685  22.575  23.317  1.00  0.00     0.112 A 
BRANCH   8  13
ATOM     13  C   UNL A   1      33.760  18.697  24.626  1.00  0.00     0.037 A 
ATOM     14  C   UNL A   1      33.400  16.318  25.206  1.00  0.00     0.067 A 
ATOM     15  C   UNL A   1      34.689  16.560  24.775  1.00  0.00     0.024 A 
ATOM     16  S   UNL A   1      32.535  17.772  25.424  1.00  0.00    -0.132 S 
ATOM     17  C   UNL A   1      34.901  17.939  24.447  1.00  0.00     0.021 A 
BRANCH  14  18
ATOM     18  C   UNL A   1      32.743  15.056  25.459  1.00  0.00     0.270 C 
ATOM     19  O   UNL A   1      33.277  13.953  25.376  1.00  0.00    -0.297 OA
ENDBRANCH  14  18
ENDBRANCH   8  13
ENDBRANCH   4   7
ENDBRANCH   2   3
ENDBRANCH   1   2
BRANCH   1  20
ATOM     20  C   UNL A   1      38.656  19.542  25.923  1.00  0.00     0.118 C 
BRANCH  20  21
ATOM     21  N   UNL A   1      39.951  18.886  25.768  1.00  0.00    -0.352 N 
ATOM     22  C   UNL A   1      41.252  19.277  25.990  1.00  0.00     0.251 C 
ATOM     23  H   UNL A   1      39.878  17.963  25.433  1.00  0.00     0.163 HD
ATOM     24  O   UNL A   1      42.152  18.472  25.751  1.00  0.00    -0.269 OA
BRANCH  22  25
ATOM     25  C   UNL A   1      41.608  20.637  26.459  1.00  0.00     0.039 A 
ATOM     26  C   UNL A   1      41.981  20.821  27.796  1.00  0.00     0.014 A 
ATOM     27  C   UNL A   1      41.548  21.746  25.622  1.00  0.00     0.014 A 
ATOM     28  C   UNL A   1      42.384  22.083  28.252  1.00  0.00     0.010 A 
ATOM     29  C   UNL A   1      42.078  22.965  26.033  1.00  0.00     0.010 A 
ATOM     30  C   UNL A   1      42.496  23.158  27.356  1.00  0.00    -0.014 A 
BRANCH  30  31
ATOM     31  C   UNL A   1      43.024  24.493  27.757  1.00  0.00     0.031 A 
ATOM     32  C   UNL A   1      42.077  25.583  28.196  1.00  0.00     0.074 A 
ATOM     33  C   UNL A   1      44.337  24.770  27.617  1.00  0.00     0.049 A 
ATOM     34  N   UNL A   1      42.315  26.854  28.406  1.00  0.00    -0.248 NA
ATOM     35  C   UNL A   1      40.665  25.203  28.375  1.00  0.00     0.031 C 
ATOM     36  C   UNL A   1      45.364  23.835  27.155  1.00  0.00     0.029 A 
ATOM     37  N   UNL A   1      45.030  25.937  27.835  1.00  0.00    -0.354 N 
ATOM     38  C   UNL A   1      41.080  27.427  28.690  1.00  0.00     0.074 A 
ATOM     39  C   UNL A   1      40.091  26.380  28.572  1.00  0.00     0.031 C 
ATOM     40  C   UNL A   1      46.557  24.449  27.160  1.00  0.00     0.029 A 
ATOM     41  C   UNL A   1      46.375  25.836  27.573  1.00  0.00     0.049 A 
ATOM     42  H   UNL A   1      44.604  26.766  28.151  1.00  0.00     0.167 HD
ATOM     43  C   UNL A   1      40.792  28.703  29.042  1.00  0.00     0.031 A 
ATOM     44  C   UNL A   1      47.355  26.757  27.647  1.00  0.00     0.031 A 
ATOM     45  C   UNL A   1      41.778  29.735  29.215  1.00  0.00     0.049 A 
ATOM     46  C   UNL A   1      47.018  28.158  28.074  1.00  0.00     0.074 A 
ATOM     47  C   UNL A   1      41.596  31.039  29.646  1.00  0.00     0.029 A 
ATOM     48  N   UNL A   1      43.134  29.575  28.982  1.00  0.00    -0.354 N 
ATOM     49  N   UNL A   1      45.852  28.669  28.384  1.00  0.00    -0.248 NA
ATOM     50  C   UNL A   1      48.138  29.106  28.168  1.00  0.00     0.031 C 
ATOM     51  C   UNL A   1      42.840  31.677  29.639  1.00  0.00     0.029 A 
ATOM     52  C   UNL A   1      43.801  30.758  29.249  1.00  0.00     0.049 A 
ATOM     53  H   UNL A   1      43.561  28.744  28.672  1.00  0.00     0.167 HD
ATOM     54  C   UNL A   1      46.100  29.989  28.738  1.00  0.00     0.074 A 
ATOM     55  C   UNL A   1      47.529  30.195  28.617  1.00  0.00     0.031 C 
ATOM     56  C   UNL A   1      45.223  30.945  29.128  1.00  0.00     0.031 A 
BRANCH  43  57
ATOM     57  C   UNL A   1      39.346  29.048  29.273  1.00  0.00    -0.014 A 
ATOM     58  C   UNL A   1      38.752  28.894  30.536  1.00  0.00     0.009 A 
ATOM     59  C   UNL A   1      38.571  29.558  28.219  1.00  0.00     0.009 A 
ATOM     60  C   UNL A   1      37.402  29.196  30.728  1.00  0.00     0.001 A 
ATOM     61  C   UNL A   1      37.230  29.890  28.421  1.00  0.00     0.001 A 
ATOM     62  C   UNL A   1      36.643  29.697  29.671  1.00  0.00     0.000 A 
ENDBRANCH  43  57
BRANCH  44  63
ATOM     63  C   UNL A   1      48.758  26.378  27.339  1.00  0.00    -0.014 A 
ATOM     64  C   UNL A   1      49.240  26.465  26.024  1.00  0.00     0.009 A 
ATOM     65  C   UNL A   1      49.622  25.930  28.350  1.00  0.00     0.009 A 
ATOM     66  C   UNL A   1      50.550  26.086  25.722  1.00  0.00     0.001 A 
ATOM     67  C   UNL A   1      50.940  25.578  28.050  1.00  0.00     0.001 A 
ATOM     68  C   UNL A   1      51.400  25.648  26.736  1.00  0.00     0.000 A 
ENDBRANCH  44  63
BRANCH  56  69
ATOM     69  C   UNL A   1      45.787  32.288  29.491  1.00  0.00    -0.014 A 
ATOM     70  C   UNL A   1      45.905  33.311  28.539  1.00  0.00     0.009 A 
ATOM     71  C   UNL A   1      46.167  32.544  30.818  1.00  0.00     0.009 A 
ATOM     72  C   UNL A   1      46.421  34.557  28.902  1.00  0.00     0.001 A 
ATOM     73  C   UNL A   1      46.658  33.798  31.184  1.00  0.00     0.001 A 
ATOM     74  C   UNL A   1      46.792  34.800  30.224  1.00  0.00     0.000 A 
ENDBRANCH  56  69
ENDBRANCH  30  31
ENDBRANCH  22  25
ENDBRANCH  20  21
ENDBRANCH   1  20
TORSDOF 12
ENDMDL
MODEL 3
REMARK VINA RESULT:     -11.3      6.406     10.853
REMARK SMILES O=Cc1ccc(-c2cnccc2C(=O)NCCCNC(=O)c2ccc(-c3c4nc(c(-c5ccccc5)c5ccc([nH]5)c(-c5ccccc5)c5nc(c(-c6ccccc6)c6ccc3[nH]6)C=C5)C=C4)cc2)s1
REMARK SMILES IDX 17 1 16 2 15 3 13 4 14 5 12 7 7 8 8 9 9 10 11 11 10 12 6 13
REMARK SMILES IDX 3 14 4 15 70 16 5 17 2 18 1 19 18 20 19 21 20 22 21 24 22 25
REMARK SMILES IDX 23 26 69 27 24 28 68 29 25 30 26 31 27 32 62 33 28 34 67 35
REMARK SMILES IDX 61 36 63 37 29 38 66 39 60 40 59 41 30 43 52 44 37 45 51 46
REMARK SMILES IDX 38 47 41 48 50 49 64 50 39 51 40 52 49 54 65 55 42 56 31 57
REMARK SMILES IDX 32 58 36 59 33 60 35 61 34 62 53 63 54 64 58 65 55 66 57 67
REMARK SMILES IDX 56 68 43 69 44 70 48 71 45 72 47 73 46 74
REMARK H PARENT 15 6 19 23 63 42 41 53
REMARK Flexibility Score: inf
ROOT
ATOM      1  C   UNL A   1      31.414  31.956  26.598  1.00  0.00     0.042 C 
ENDROOT
BRANCH   1   2
ATOM      2  C   UNL A   1      31.605  30.467  26.386  1.00  0.00     0.118 C 
BRANCH   2   3
ATOM      3  N   UNL A   1      32.459  30.059  25.302  1.00  0.00    -0.352 N 
ATOM      4  C   UNL A   1      32.157  29.293  24.201  1.00  0.00     0.252 C 
ATOM      5  O   UNL A   1      33.015  29.214  23.319  1.00  0.00    -0.269 OA
ATOM      6  H   UNL A   1      33.391  30.375  25.355  1.00  0.00     0.163 HD
BRANCH   4   7
ATOM      7  C   UNL A   1      30.928  28.457  24.059  1.00  0.00     0.051 A 
ATOM      8  C   UNL A   1      29.661  28.827  23.571  1.00  0.00     0.023 A 
ATOM      9  C   UNL A   1      28.704  27.807  23.499  1.00  0.00     0.121 A 
ATOM     10  N   UNL A   1      28.897  26.515  23.858  1.00  0.00    -0.264 NA
ATOM     11  C   UNL A   1      31.148  27.111  24.418  1.00  0.00     0.034 A 
ATOM     12  C   UNL A   1      30.122  26.194  24.304  1.00  0.00     0.112 A 
BRANCH   8  13
ATOM     13  C   UNL A   1      29.256  30.170  23.140  1.00  0.00     0.037 A 
ATOM     14  C   UNL A   1      28.311  31.971  21.731  1.00  0.00     0.067 A 
ATOM     15  C   UNL A   1      28.393  32.338  23.059  1.00  0.00     0.024 A 
ATOM     16  S   UNL A   1      29.101  30.486  21.447  1.00  0.00    -0.132 S 
ATOM     17  C   UNL A   1      28.950  31.299  23.875  1.00  0.00     0.021 A 
BRANCH  14  18
ATOM     18  C   UNL A   1      27.659  32.649  20.634  1.00  0.00     0.270 C 
ATOM     19  O   UNL A   1      27.278  33.817  20.654  1.00  0.00    -0.297 OA
ENDBRANCH  14  18
ENDBRANCH   8  13
ENDBRANCH   4   7
ENDBRANCH   2   3
ENDBRANCH   1   2
BRANCH   1  20
ATOM     20  C   UNL A   1      32.635  32.690  27.135  1.00  0.00     0.118 C 
BRANCH  20  21
ATOM     21  N   UNL A   1      32.379  34.041  27.629  1.00  0.00    -0.352 N 
ATOM     22  C   UNL A   1      33.003  34.857  28.544  1.00  0.00     0.251 C 
ATOM     23  H   UNL A   1      31.588  34.457  27.217  1.00  0.00     0.163 HD
ATOM     24  O   UNL A   1      32.528  35.973  28.751  1.00  0.00    -0.269 OA
BRANCH  22  25
ATOM     25  C   UNL A   1      34.193  34.427  29.316  1.00  0.00     0.039 A 
ATOM     26  C   UNL A   1      34.017  33.888  30.597  1.00  0.00     0.014 A 
ATOM     27  C   UNL A   1      35.486  34.575  28.824  1.00  0.00     0.014 A 
ATOM     28  C   UNL A   1      35.118  33.416  31.324  1.00  0.00     0.010 A 
ATOM     29  C   UNL A   1      36.559  33.983  29.481  1.00  0.00     0.010 A 
ATOM     30  C   UNL A   1      36.397  33.402  30.746  1.00  0.00    -0.014 A 
BRANCH  30  31
ATOM     31  C   UNL A   1      37.584  32.810  31.424  1.00  0.00     0.031 A 
ATOM     32  C   UNL A   1      38.285  31.617  30.821  1.00  0.00     0.074 A 
ATOM     33  C   UNL A   1      37.964  33.261  32.637  1.00  0.00     0.049 A 
ATOM     34  N   UNL A   1      39.212  30.849  31.340  1.00  0.00    -0.248 NA
ATOM     35  C   UNL A   1      37.855  31.204  29.474  1.00  0.00     0.031 C 
ATOM     36  C   UNL A   1      37.350  34.371  33.368  1.00  0.00     0.029 A 
ATOM     37  N   UNL A   1      38.957  32.823  33.480  1.00  0.00    -0.354 N 
ATOM     38  C   UNL A   1      39.432  29.842  30.408  1.00  0.00     0.074 A 
ATOM     39  C   UNL A   1      38.508  30.063  29.319  1.00  0.00     0.031 C 
ATOM     40  C   UNL A   1      38.000  34.551  34.528  1.00  0.00     0.029 A 
ATOM     41  C   UNL A   1      39.042  33.538  34.651  1.00  0.00     0.049 A 
ATOM     42  H   UNL A   1      39.553  32.070  33.266  1.00  0.00     0.167 HD
ATOM     43  C   UNL A   1      40.337  28.834  30.439  1.00  0.00     0.031 A 
ATOM     44  C   UNL A   1      39.859  33.392  35.711  1.00  0.00     0.031 A 
ATOM     45  C   UNL A   1      41.296  28.642  31.492  1.00  0.00     0.049 A 
ATOM     46  C   UNL A   1      40.880  32.290  35.708  1.00  0.00     0.074 A 
ATOM     47  C   UNL A   1      42.308  27.699  31.577  1.00  0.00     0.029 A 
ATOM     48  N   UNL A   1      41.374  29.418  32.637  1.00  0.00    -0.354 N 
ATOM     49  N   UNL A   1      41.105  31.375  34.797  1.00  0.00    -0.248 NA
ATOM     50  C   UNL A   1      41.765  32.206  36.879  1.00  0.00     0.031 C 
ATOM     51  C   UNL A   1      42.974  27.884  32.793  1.00  0.00     0.029 A 
ATOM     52  C   UNL A   1      42.408  28.970  33.441  1.00  0.00     0.049 A 
ATOM     53  H   UNL A   1      40.782  30.176  32.848  1.00  0.00     0.167 HD
ATOM     54  C   UNL A   1      42.175  30.626  35.270  1.00  0.00     0.074 A 
ATOM     55  C   UNL A   1      42.562  31.202  36.541  1.00  0.00     0.031 C 
ATOM     56  C   UNL A   1      42.782  29.557  34.700  1.00  0.00     0.031 A 
BRANCH  43  57
ATOM     57  C   UNL A   1      40.336  27.867  29.286  1.00  0.00    -0.014 A 
ATOM     58  C   UNL A   1      41.148  28.074  28.159  1.00  0.00     0.009 A 
ATOM     59  C   UNL A   1      39.530  26.719  29.336  1.00  0.00     0.009 A 
ATOM     60  C   UNL A   1      41.118  27.179  27.087  1.00  0.00     0.001 A 
ATOM     61  C   UNL A   1      39.525  25.808  28.278  1.00  0.00     0.001 A 
ATOM     62  C   UNL A   1      40.309  26.046  27.149  1.00  0.00     0.000 A 
ENDBRANCH  43  57
BRANCH  44  63
ATOM     63  C   UNL A   1      39.769  34.335  36.856  1.00  0.00    -0.014 A 
ATOM     64  C   UNL A   1      39.014  33.999  37.989  1.00  0.00     0.009 A 
ATOM     65  C   UNL A   1      40.435  35.571  36.825  1.00  0.00     0.009 A 
ATOM     66  C   UNL A   1      38.904  34.891  39.059  1.00  0.00     0.001 A 
ATOM     67  C   UNL A   1      40.346  36.448  37.908  1.00  0.00     0.001 A 
ATOM     68  C   UNL A   1      39.574  36.112  39.019  1.00  0.00     0.000 A 
ENDBRANCH  44  63
BRANCH  56  69
ATOM     69  C   UNL A   1      43.954  28.965  35.429  1.00  0.00    -0.014 A 
ATOM     70  C   UNL A   1      45.257  29.444  35.226  1.00  0.00     0.009 A 
ATOM     71  C   UNL A   1      43.742  27.941  36.366  1.00  0.00     0.009 A 
ATOM     72  C   UNL A   1      46.330  28.887  35.924  1.00  0.00     0.001 A 
ATOM     73  C   UNL A   1      44.813  27.405  37.083  1.00  0.00     0.001 A 
ATOM     74  C   UNL A   1      46.106  27.872  36.854  1.00  0.00     0.000 A 
ENDBRANCH  56  69
ENDBRANCH  30  31
ENDBRANCH  22  25
ENDBRANCH  20  21
ENDBRANCH   1  20
TORSDOF 12
ENDMDL
