MODEL 1
REMARK VINA RESULT:      -8.7      0.000      0.000
REMARK SMILES CS(=O)(=O)c1ccc(/C=C(/C(=O)NCCCNC(=O)c2ccc(-c3c4nc(c(-c5ccccc5)c5ccc([nH]5)c(-c5ccccc5)c5nc(c(-c6ccccc6)c6ccc3[nH]6)C=C5)C=C4)cc2)c2ccc(-c3ccc(S(C)(=O)=O)cc3)cc2)cc1
REMARK SMILES IDX 14 1 13 2 11 3 12 4 10 6 9 7 8 8 5 9 6 10 85 11 7 12 84 13
REMARK SMILES IDX 2 14 1 15 3 16 4 17 68 18 69 19 83 20 70 21 82 22 71 23
REMARK SMILES IDX 72 24 73 25 81 26 74 27 80 28 75 29 76 30 77 31 78 32 79 33
REMARK SMILES IDX 15 34 16 35 17 36 18 37 19 39 20 40 21 41 67 42 22 43 66 44
REMARK SMILES IDX 23 45 24 46 25 47 60 48 26 49 65 50 59 51 61 52 27 53 64 54
REMARK SMILES IDX 58 55 57 56 28 58 50 59 35 60 49 61 36 62 39 63 48 64 62 65
REMARK SMILES IDX 37 66 38 67 47 69 63 70 40 71 29 72 30 73 34 74 31 75 33 76
REMARK SMILES IDX 32 77 51 78 52 79 56 80 53 81 55 82 54 83 41 84 42 85 46 86
REMARK SMILES IDX 43 87 45 88 44 89
REMARK H PARENT 13 5 17 38 61 57 39 68
REMARK Flexibility Score: inf
ROOT
ATOM      1  C   UNL A   1      34.689  32.341  32.206  1.00  0.00     0.118 C 
ENDROOT
BRANCH   1   2
ATOM      2  N   UNL A   1      35.053  33.023  33.431  1.00  0.00    -0.352 N 
ATOM      3  C   UNL A   1      36.228  33.443  33.967  1.00  0.00     0.251 C 
ATOM      4  O   UNL A   1      36.153  33.932  35.096  1.00  0.00    -0.269 OA
ATOM      5  H   UNL A   1      34.278  33.226  34.002  1.00  0.00     0.163 HD
BRANCH   3   6
ATOM      6  C   UNL A   1      37.545  33.413  33.222  1.00  0.00     0.047 C 
ATOM      7  C   UNL A   1      37.754  34.149  32.106  1.00  0.00     0.022 C 
BRANCH   7   8
ATOM      8  C   UNL A   1      38.996  34.353  31.324  1.00  0.00    -0.025 A 
ATOM      9  C   UNL A   1      41.201  34.925  29.681  1.00  0.00     0.067 A 
ATOM     10  C   UNL A   1      41.346  34.940  31.068  1.00  0.00     0.021 A 
ATOM     11  C   UNL A   1      39.980  34.589  29.100  1.00  0.00     0.021 A 
ATOM     12  C   UNL A   1      40.252  34.620  31.881  1.00  0.00     0.009 A 
ATOM     13  C   UNL A   1      38.886  34.301  29.922  1.00  0.00     0.009 A 
BRANCH   9  14
ATOM     14  S   UNL A   1      42.556  35.403  28.637  1.00  0.00     0.175 S 
ATOM     15  C   UNL A   1      43.400  36.633  29.593  1.00  0.00     0.163 C 
ATOM     16  O   UNL A   1      42.002  36.055  27.463  1.00  0.00    -0.224 OA
ATOM     17  O   UNL A   1      43.424  34.251  28.507  1.00  0.00    -0.224 OA
ENDBRANCH   9  14
ENDBRANCH   7   8
BRANCH   6  18
ATOM     18  C   UNL A   1      38.529  32.392  33.661  1.00  0.00    -0.013 A 
ATOM     19  C   UNL A   1      38.325  31.065  33.257  1.00  0.00     0.009 A 
ATOM     20  C   UNL A   1      39.691  32.705  34.372  1.00  0.00     0.009 A 
ATOM     21  C   UNL A   1      39.281  30.084  33.511  1.00  0.00     0.009 A 
ATOM     22  C   UNL A   1      40.666  31.720  34.596  1.00  0.00     0.009 A 
ATOM     23  C   UNL A   1      40.489  30.398  34.150  1.00  0.00    -0.018 A 
BRANCH  23  24
ATOM     24  C   UNL A   1      41.534  29.368  34.310  1.00  0.00    -0.018 A 
ATOM     25  C   UNL A   1      42.508  29.487  35.321  1.00  0.00     0.010 A 
ATOM     26  C   UNL A   1      41.596  28.245  33.467  1.00  0.00     0.010 A 
ATOM     27  C   UNL A   1      43.519  28.537  35.476  1.00  0.00     0.021 A 
ATOM     28  C   UNL A   1      42.604  27.286  33.612  1.00  0.00     0.021 A 
ATOM     29  C   UNL A   1      43.568  27.448  34.607  1.00  0.00     0.067 A 
BRANCH  29  30
ATOM     30  S   UNL A   1      44.869  26.255  34.797  1.00  0.00     0.175 S 
ATOM     31  C   UNL A   1      44.643  25.168  33.413  1.00  0.00     0.163 C 
ATOM     32  O   UNL A   1      46.123  26.961  34.622  1.00  0.00    -0.224 OA
ATOM     33  O   UNL A   1      44.600  25.493  36.002  1.00  0.00    -0.224 OA
ENDBRANCH  29  30
ENDBRANCH  23  24
ENDBRANCH   6  18
ENDBRANCH   3   6
ENDBRANCH   1   2
BRANCH   1  34
ATOM     34  C   UNL A   1      34.417  33.356  31.095  1.00  0.00     0.042 C 
BRANCH  34  35
ATOM     35  C   UNL A   1      35.078  32.988  29.765  1.00  0.00     0.118 C 
BRANCH  35  36
ATOM     36  N   UNL A   1      34.310  31.993  29.031  1.00  0.00    -0.352 N 
ATOM     37  C   UNL A   1      34.725  30.842  28.411  1.00  0.00     0.251 C 
ATOM     38  H   UNL A   1      33.344  32.174  28.969  1.00  0.00     0.163 HD
ATOM     39  O   UNL A   1      33.968  30.263  27.637  1.00  0.00    -0.269 OA
BRANCH  37  40
ATOM     40  C   UNL A   1      36.075  30.295  28.664  1.00  0.00     0.039 A 
ATOM     41  C   UNL A   1      37.048  30.414  27.667  1.00  0.00     0.014 A 
ATOM     42  C   UNL A   1      36.370  29.624  29.854  1.00  0.00     0.014 A 
ATOM     43  C   UNL A   1      38.329  29.902  27.883  1.00  0.00     0.010 A 
ATOM     44  C   UNL A   1      37.667  29.180  30.097  1.00  0.00     0.010 A 
ATOM     45  C   UNL A   1      38.657  29.305  29.111  1.00  0.00    -0.014 A 
BRANCH  45  46
ATOM     46  C   UNL A   1      40.025  28.796  29.378  1.00  0.00     0.031 A 
ATOM     47  C   UNL A   1      41.032  29.667  30.080  1.00  0.00     0.074 A 
ATOM     48  C   UNL A   1      40.379  27.573  28.938  1.00  0.00     0.049 A 
ATOM     49  N   UNL A   1      42.291  29.424  30.345  1.00  0.00    -0.248 NA
ATOM     50  C   UNL A   1      40.572  30.994  30.518  1.00  0.00     0.031 C 
ATOM     51  C   UNL A   1      39.506  26.646  28.216  1.00  0.00     0.029 A 
ATOM     52  N   UNL A   1      41.574  26.904  29.027  1.00  0.00    -0.354 N 
ATOM     53  C   UNL A   1      42.775  30.571  30.961  1.00  0.00     0.074 A 
ATOM     54  C   UNL A   1      41.691  31.527  30.987  1.00  0.00     0.031 C 
ATOM     55  C   UNL A   1      40.186  25.518  27.953  1.00  0.00     0.029 A 
ATOM     56  C   UNL A   1      41.552  25.659  28.445  1.00  0.00     0.049 A 
ATOM     57  H   UNL A   1      42.371  27.280  29.466  1.00  0.00     0.167 HD
ATOM     58  C   UNL A   1      44.006  30.802  31.477  1.00  0.00     0.031 A 
ATOM     59  C   UNL A   1      42.524  24.738  28.315  1.00  0.00     0.031 A 
ATOM     60  C   UNL A   1      45.082  29.847  31.459  1.00  0.00     0.049 A 
ATOM     61  C   UNL A   1      43.888  25.026  28.881  1.00  0.00     0.074 A 
ATOM     62  C   UNL A   1      46.350  29.966  32.003  1.00  0.00     0.029 A 
ATOM     63  N   UNL A   1      45.016  28.596  30.865  1.00  0.00    -0.354 N 
ATOM     64  N   UNL A   1      44.310  26.092  29.517  1.00  0.00    -0.248 NA
ATOM     65  C   UNL A   1      44.904  23.977  28.719  1.00  0.00     0.031 C 
ATOM     66  C   UNL A   1      47.068  28.808  31.689  1.00  0.00     0.029 A 
ATOM     67  C   UNL A   1      46.229  27.943  31.007  1.00  0.00     0.049 A 
ATOM     68  H   UNL A   1      44.225  28.227  30.411  1.00  0.00     0.167 HD
ATOM     69  C   UNL A   1      45.630  25.829  29.860  1.00  0.00     0.074 A 
ATOM     70  C   UNL A   1      45.933  24.499  29.373  1.00  0.00     0.031 C 
ATOM     71  C   UNL A   1      46.513  26.618  30.519  1.00  0.00     0.031 A 
BRANCH  58  72
ATOM     72  C   UNL A   1      44.257  32.150  32.097  1.00  0.00    -0.014 A 
ATOM     73  C   UNL A   1      44.882  33.180  31.374  1.00  0.00     0.009 A 
ATOM     74  C   UNL A   1      43.833  32.407  33.410  1.00  0.00     0.009 A 
ATOM     75  C   UNL A   1      45.110  34.424  31.965  1.00  0.00     0.001 A 
ATOM     76  C   UNL A   1      44.035  33.661  33.988  1.00  0.00     0.001 A 
ATOM     77  C   UNL A   1      44.683  34.665  33.270  1.00  0.00     0.000 A 
ENDBRANCH  58  72
BRANCH  59  78
ATOM     78  C   UNL A   1      42.243  23.447  27.634  1.00  0.00    -0.014 A 
ATOM     79  C   UNL A   1      41.749  22.352  28.357  1.00  0.00     0.009 A 
ATOM     80  C   UNL A   1      42.477  23.301  26.257  1.00  0.00     0.009 A 
ATOM     81  C   UNL A   1      41.522  21.127  27.724  1.00  0.00     0.001 A 
ATOM     82  C   UNL A   1      42.218  22.085  25.620  1.00  0.00     0.001 A 
ATOM     83  C   UNL A   1      41.752  20.996  26.355  1.00  0.00     0.000 A 
ENDBRANCH  59  78
BRANCH  71  84
ATOM     84  C   UNL A   1      47.877  26.047  30.791  1.00  0.00    -0.014 A 
ATOM     85  C   UNL A   1      48.210  25.512  32.045  1.00  0.00     0.009 A 
ATOM     86  C   UNL A   1      48.830  26.012  29.761  1.00  0.00     0.009 A 
ATOM     87  C   UNL A   1      49.483  24.983  32.270  1.00  0.00     0.001 A 
ATOM     88  C   UNL A   1      50.090  25.454  29.980  1.00  0.00     0.001 A 
ATOM     89  C   UNL A   1      50.418  24.949  31.236  1.00  0.00     0.000 A 
ENDBRANCH  71  84
ENDBRANCH  45  46
ENDBRANCH  37  40
ENDBRANCH  35  36
ENDBRANCH  34  35
ENDBRANCH   1  34
TORSDOF 15
ENDMDL
MODEL 2
REMARK VINA RESULT:      -8.4      2.183      3.748
REMARK SMILES CS(=O)(=O)c1ccc(/C=C(/C(=O)NCCCNC(=O)c2ccc(-c3c4nc(c(-c5ccccc5)c5ccc([nH]5)c(-c5ccccc5)c5nc(c(-c6ccccc6)c6ccc3[nH]6)C=C5)C=C4)cc2)c2ccc(-c3ccc(S(C)(=O)=O)cc3)cc2)cc1
REMARK SMILES IDX 14 1 13 2 11 3 12 4 10 6 9 7 8 8 5 9 6 10 85 11 7 12 84 13
REMARK SMILES IDX 2 14 1 15 3 16 4 17 68 18 69 19 83 20 70 21 82 22 71 23
REMARK SMILES IDX 72 24 73 25 81 26 74 27 80 28 75 29 76 30 77 31 78 32 79 33
REMARK SMILES IDX 15 34 16 35 17 36 18 37 19 39 20 40 21 41 67 42 22 43 66 44
REMARK SMILES IDX 23 45 24 46 25 47 60 48 26 49 65 50 59 51 61 52 27 53 64 54
REMARK SMILES IDX 58 55 57 56 28 58 50 59 35 60 49 61 36 62 39 63 48 64 62 65
REMARK SMILES IDX 37 66 38 67 47 69 63 70 40 71 29 72 30 73 34 74 31 75 33 76
REMARK SMILES IDX 32 77 51 78 52 79 56 80 53 81 55 82 54 83 41 84 42 85 46 86
REMARK SMILES IDX 43 87 45 88 44 89
REMARK H PARENT 13 5 17 38 61 57 39 68
REMARK Flexibility Score: inf
ROOT
ATOM      1  C   UNL A   1      35.732  33.636  31.696  1.00  0.00     0.118 C 
ENDROOT
BRANCH   1   2
ATOM      2  N   UNL A   1      37.081  33.770  31.184  1.00  0.00    -0.352 N 
ATOM      3  C   UNL A   1      38.312  33.793  31.757  1.00  0.00     0.251 C 
ATOM      4  O   UNL A   1      39.253  34.006  30.988  1.00  0.00    -0.269 OA
ATOM      5  H   UNL A   1      37.112  33.867  30.205  1.00  0.00     0.163 HD
BRANCH   3   6
ATOM      6  C   UNL A   1      38.562  33.492  33.219  1.00  0.00     0.047 C 
ATOM      7  C   UNL A   1      38.197  34.350  34.199  1.00  0.00     0.022 C 
BRANCH   7   8
ATOM      8  C   UNL A   1      38.236  34.180  35.671  1.00  0.00    -0.025 A 
ATOM      9  C   UNL A   1      38.249  33.580  38.415  1.00  0.00     0.067 A 
ATOM     10  C   UNL A   1      39.303  34.302  37.857  1.00  0.00     0.021 A 
ATOM     11  C   UNL A   1      37.167  33.186  37.629  1.00  0.00     0.021 A 
ATOM     12  C   UNL A   1      39.274  34.628  36.496  1.00  0.00     0.009 A 
ATOM     13  C   UNL A   1      37.163  33.491  36.265  1.00  0.00     0.009 A 
BRANCH   9  14
ATOM     14  S   UNL A   1      38.305  33.091  40.122  1.00  0.00     0.175 S 
ATOM     15  C   UNL A   1      37.027  31.870  40.243  1.00  0.00     0.163 C 
ATOM     16  O   UNL A   1      37.906  34.234  40.923  1.00  0.00    -0.224 OA
ATOM     17  O   UNL A   1      39.580  32.439  40.339  1.00  0.00    -0.224 OA
ENDBRANCH   9  14
ENDBRANCH   7   8
BRANCH   6  18
ATOM     18  C   UNL A   1      39.400  32.303  33.515  1.00  0.00    -0.013 A 
ATOM     19  C   UNL A   1      38.845  31.035  33.296  1.00  0.00     0.009 A 
ATOM     20  C   UNL A   1      40.738  32.390  33.908  1.00  0.00     0.009 A 
ATOM     21  C   UNL A   1      39.620  29.884  33.415  1.00  0.00     0.009 A 
ATOM     22  C   UNL A   1      41.523  31.230  33.996  1.00  0.00     0.009 A 
ATOM     23  C   UNL A   1      40.984  29.958  33.729  1.00  0.00    -0.018 A 
BRANCH  23  24
ATOM     24  C   UNL A   1      41.810  28.735  33.742  1.00  0.00    -0.018 A 
ATOM     25  C   UNL A   1      41.338  27.559  34.358  1.00  0.00     0.010 A 
ATOM     26  C   UNL A   1      43.084  28.701  33.149  1.00  0.00     0.010 A 
ATOM     27  C   UNL A   1      42.111  26.397  34.403  1.00  0.00     0.021 A 
ATOM     28  C   UNL A   1      43.868  27.543  33.187  1.00  0.00     0.021 A 
ATOM     29  C   UNL A   1      43.381  26.404  33.828  1.00  0.00     0.067 A 
BRANCH  29  30
ATOM     30  S   UNL A   1      44.367  24.929  33.906  1.00  0.00     0.175 S 
ATOM     31  C   UNL A   1      43.280  23.739  34.648  1.00  0.00     0.163 C 
ATOM     32  O   UNL A   1      44.628  24.519  32.540  1.00  0.00    -0.224 OA
ATOM     33  O   UNL A   1      45.454  25.171  34.837  1.00  0.00    -0.224 OA
ENDBRANCH  29  30
ENDBRANCH  23  24
ENDBRANCH   6  18
ENDBRANCH   3   6
ENDBRANCH   1   2
BRANCH   1  34
ATOM     34  C   UNL A   1      35.012  32.482  30.998  1.00  0.00     0.042 C 
BRANCH  34  35
ATOM     35  C   UNL A   1      34.924  32.654  29.480  1.00  0.00     0.118 C 
BRANCH  35  36
ATOM     36  N   UNL A   1      34.220  31.549  28.846  1.00  0.00    -0.352 N 
ATOM     37  C   UNL A   1      34.713  30.409  28.264  1.00  0.00     0.251 C 
ATOM     38  H   UNL A   1      33.239  31.633  28.832  1.00  0.00     0.163 HD
ATOM     39  O   UNL A   1      33.976  29.717  27.567  1.00  0.00    -0.269 OA
BRANCH  37  40
ATOM     40  C   UNL A   1      36.121  30.009  28.465  1.00  0.00     0.039 A 
ATOM     41  C   UNL A   1      36.503  29.493  29.707  1.00  0.00     0.014 A 
ATOM     42  C   UNL A   1      37.073  30.188  27.458  1.00  0.00     0.014 A 
ATOM     43  C   UNL A   1      37.830  29.112  29.921  1.00  0.00     0.010 A 
ATOM     44  C   UNL A   1      38.377  29.740  27.648  1.00  0.00     0.010 A 
ATOM     45  C   UNL A   1      38.772  29.207  28.884  1.00  0.00    -0.014 A 
BRANCH  45  46
ATOM     46  C   UNL A   1      40.175  28.764  29.076  1.00  0.00     0.031 A 
ATOM     47  C   UNL A   1      41.198  29.714  29.638  1.00  0.00     0.074 A 
ATOM     48  C   UNL A   1      40.542  27.526  28.691  1.00  0.00     0.049 A 
ATOM     49  N   UNL A   1      42.482  29.533  29.818  1.00  0.00    -0.248 NA
ATOM     50  C   UNL A   1      40.722  31.052  30.022  1.00  0.00     0.031 C 
ATOM     51  C   UNL A   1      39.653  26.522  28.103  1.00  0.00     0.029 A 
ATOM     52  N   UNL A   1      41.765  26.905  28.730  1.00  0.00    -0.354 N 
ATOM     53  C   UNL A   1      42.967  30.734  30.318  1.00  0.00     0.074 A 
ATOM     54  C   UNL A   1      41.851  31.654  30.365  1.00  0.00     0.031 C 
ATOM     55  C   UNL A   1      40.354  25.403  27.862  1.00  0.00     0.029 A 
ATOM     56  C   UNL A   1      41.747  25.623  28.235  1.00  0.00     0.049 A 
ATOM     57  H   UNL A   1      42.578  27.337  29.080  1.00  0.00     0.167 HD
ATOM     58  C   UNL A   1      44.224  31.041  30.720  1.00  0.00     0.031 A 
ATOM     59  C   UNL A   1      42.742  24.728  28.090  1.00  0.00     0.031 A 
ATOM     60  C   UNL A   1      45.331  30.124  30.681  1.00  0.00     0.049 A 
ATOM     61  C   UNL A   1      44.132  25.100  28.527  1.00  0.00     0.074 A 
ATOM     62  C   UNL A   1      46.631  30.323  31.114  1.00  0.00     0.029 A 
ATOM     63  N   UNL A   1      45.269  28.834  30.177  1.00  0.00    -0.354 N 
ATOM     64  N   UNL A   1      44.560  26.221  29.056  1.00  0.00    -0.248 NA
ATOM     65  C   UNL A   1      45.173  24.077  28.355  1.00  0.00     0.031 C 
ATOM     66  C   UNL A   1      47.368  29.171  30.822  1.00  0.00     0.029 A 
ATOM     67  C   UNL A   1      46.513  28.233  30.266  1.00  0.00     0.049 A 
ATOM     68  H   UNL A   1      44.460  28.408  29.811  1.00  0.00     0.167 HD
ATOM     69  C   UNL A   1      45.911  26.027  29.311  1.00  0.00     0.074 A 
ATOM     70  C   UNL A   1      46.228  24.677  28.891  1.00  0.00     0.031 C 
ATOM     71  C   UNL A   1      46.810  26.888  29.846  1.00  0.00     0.031 A 
BRANCH  58  72
ATOM     72  C   UNL A   1      44.469  32.437  31.227  1.00  0.00    -0.014 A 
ATOM     73  C   UNL A   1      44.784  33.488  30.349  1.00  0.00     0.009 A 
ATOM     74  C   UNL A   1      44.350  32.713  32.598  1.00  0.00     0.009 A 
ATOM     75  C   UNL A   1      45.012  34.775  30.838  1.00  0.00     0.001 A 
ATOM     76  C   UNL A   1      44.548  34.009  33.081  1.00  0.00     0.001 A 
ATOM     77  C   UNL A   1      44.889  35.036  32.202  1.00  0.00     0.000 A 
ENDBRANCH  58  72
BRANCH  59  78
ATOM     78  C   UNL A   1      42.460  23.385  27.519  1.00  0.00    -0.014 A 
ATOM     79  C   UNL A   1      42.655  23.137  26.153  1.00  0.00     0.009 A 
ATOM     80  C   UNL A   1      41.984  22.347  28.337  1.00  0.00     0.009 A 
ATOM     81  C   UNL A   1      42.352  21.886  25.609  1.00  0.00     0.001 A 
ATOM     82  C   UNL A   1      41.713  21.088  27.796  1.00  0.00     0.001 A 
ATOM     83  C   UNL A   1      41.886  20.861  26.432  1.00  0.00     0.000 A 
ENDBRANCH  59  78
BRANCH  71  84
ATOM     84  C   UNL A   1      48.212  26.383  30.047  1.00  0.00    -0.014 A 
ATOM     85  C   UNL A   1      49.203  26.561  29.069  1.00  0.00     0.009 A 
ATOM     86  C   UNL A   1      48.554  25.754  31.256  1.00  0.00     0.009 A 
ATOM     87  C   UNL A   1      50.499  26.088  29.285  1.00  0.00     0.001 A 
ATOM     88  C   UNL A   1      49.857  25.311  31.479  1.00  0.00     0.001 A 
ATOM     89  C   UNL A   1      50.826  25.470  30.490  1.00  0.00     0.000 A 
ENDBRANCH  71  84
ENDBRANCH  45  46
ENDBRANCH  37  40
ENDBRANCH  35  36
ENDBRANCH  34  35
ENDBRANCH   1  34
TORSDOF 15
ENDMDL
MODEL 3
REMARK VINA RESULT:      -8.4      3.688     10.053
REMARK SMILES CS(=O)(=O)c1ccc(/C=C(/C(=O)NCCCNC(=O)c2ccc(-c3c4nc(c(-c5ccccc5)c5ccc([nH]5)c(-c5ccccc5)c5nc(c(-c6ccccc6)c6ccc3[nH]6)C=C5)C=C4)cc2)c2ccc(-c3ccc(S(C)(=O)=O)cc3)cc2)cc1
REMARK SMILES IDX 14 1 13 2 11 3 12 4 10 6 9 7 8 8 5 9 6 10 85 11 7 12 84 13
REMARK SMILES IDX 2 14 1 15 3 16 4 17 68 18 69 19 83 20 70 21 82 22 71 23
REMARK SMILES IDX 72 24 73 25 81 26 74 27 80 28 75 29 76 30 77 31 78 32 79 33
REMARK SMILES IDX 15 34 16 35 17 36 18 37 19 39 20 40 21 41 67 42 22 43 66 44
REMARK SMILES IDX 23 45 24 46 25 47 60 48 26 49 65 50 59 51 61 52 27 53 64 54
REMARK SMILES IDX 58 55 57 56 28 58 50 59 35 60 49 61 36 62 39 63 48 64 62 65
REMARK SMILES IDX 37 66 38 67 47 69 63 70 40 71 29 72 30 73 34 74 31 75 33 76
REMARK SMILES IDX 32 77 51 78 52 79 56 80 53 81 55 82 54 83 41 84 42 85 46 86
REMARK SMILES IDX 43 87 45 88 44 89
REMARK H PARENT 13 5 17 38 61 57 39 68
REMARK Flexibility Score: inf
ROOT
ATOM      1  C   UNL A   1      43.929  22.385  26.079  1.00  0.00     0.118 C 
ENDROOT
BRANCH   1   2
ATOM      2  N   UNL A   1      44.161  22.729  27.467  1.00  0.00    -0.352 N 
ATOM      3  C   UNL A   1      44.958  23.630  28.098  1.00  0.00     0.251 C 
ATOM      4  O   UNL A   1      44.943  23.581  29.331  1.00  0.00    -0.269 OA
ATOM      5  H   UNL A   1      43.623  22.190  28.091  1.00  0.00     0.163 HD
BRANCH   3   6
ATOM      6  C   UNL A   1      45.751  24.696  27.376  1.00  0.00     0.047 C 
ATOM      7  C   UNL A   1      46.930  24.424  26.769  1.00  0.00     0.022 C 
BRANCH   7   8
ATOM      8  C   UNL A   1      47.778  25.288  25.914  1.00  0.00    -0.025 A 
ATOM      9  C   UNL A   1      49.597  26.740  24.342  1.00  0.00     0.067 A 
ATOM     10  C   UNL A   1      48.328  26.446  23.843  1.00  0.00     0.021 A 
ATOM     11  C   UNL A   1      49.957  26.354  25.632  1.00  0.00     0.021 A 
ATOM     12  C   UNL A   1      47.414  25.753  24.645  1.00  0.00     0.009 A 
ATOM     13  C   UNL A   1      49.047  25.635  26.412  1.00  0.00     0.009 A 
BRANCH   9  14
ATOM     14  S   UNL A   1      50.796  27.551  23.312  1.00  0.00     0.175 S 
ATOM     15  C   UNL A   1      50.029  27.557  21.714  1.00  0.00     0.163 C 
ATOM     16  O   UNL A   1      51.968  26.696  23.240  1.00  0.00    -0.224 OA
ATOM     17  O   UNL A   1      50.900  28.920  23.773  1.00  0.00    -0.224 OA
ENDBRANCH   9  14
ENDBRANCH   7   8
BRANCH   6  18
ATOM     18  C   UNL A   1      45.275  26.094  27.531  1.00  0.00    -0.013 A 
ATOM     19  C   UNL A   1      45.986  26.940  28.392  1.00  0.00     0.009 A 
ATOM     20  C   UNL A   1      44.215  26.626  26.792  1.00  0.00     0.009 A 
ATOM     21  C   UNL A   1      45.682  28.297  28.475  1.00  0.00     0.009 A 
ATOM     22  C   UNL A   1      43.933  28.000  26.855  1.00  0.00     0.009 A 
ATOM     23  C   UNL A   1      44.676  28.864  27.680  1.00  0.00    -0.018 A 
BRANCH  23  24
ATOM     24  C   UNL A   1      44.446  30.321  27.703  1.00  0.00    -0.018 A 
ATOM     25  C   UNL A   1      44.351  31.050  26.499  1.00  0.00     0.010 A 
ATOM     26  C   UNL A   1      44.317  31.028  28.910  1.00  0.00     0.010 A 
ATOM     27  C   UNL A   1      44.156  32.432  26.497  1.00  0.00     0.021 A 
ATOM     28  C   UNL A   1      44.121  32.414  28.920  1.00  0.00     0.021 A 
ATOM     29  C   UNL A   1      44.057  33.107  27.712  1.00  0.00     0.067 A 
BRANCH  29  30
ATOM     30  S   UNL A   1      43.831  34.868  27.701  1.00  0.00     0.175 S 
ATOM     31  C   UNL A   1      42.632  35.143  28.980  1.00  0.00     0.163 C 
ATOM     32  O   UNL A   1      45.086  35.462  28.118  1.00  0.00    -0.224 OA
ATOM     33  O   UNL A   1      43.214  35.229  26.438  1.00  0.00    -0.224 OA
ENDBRANCH  29  30
ENDBRANCH  23  24
ENDBRANCH   6  18
ENDBRANCH   3   6
ENDBRANCH   1   2
BRANCH   1  34
ATOM     34  C   UNL A   1      42.507  22.768  25.668  1.00  0.00     0.042 C 
BRANCH  34  35
ATOM     35  C   UNL A   1      41.429  22.029  26.462  1.00  0.00     0.118 C 
BRANCH  35  36
ATOM     36  N   UNL A   1      40.107  22.201  25.877  1.00  0.00    -0.352 N 
ATOM     37  C   UNL A   1      39.141  23.138  26.142  1.00  0.00     0.251 C 
ATOM     38  H   UNL A   1      39.869  21.543  25.184  1.00  0.00     0.163 HD
ATOM     39  O   UNL A   1      38.000  22.969  25.721  1.00  0.00    -0.269 OA
BRANCH  37  40
ATOM     40  C   UNL A   1      39.461  24.345  26.933  1.00  0.00     0.039 A 
ATOM     41  C   UNL A   1      40.207  25.364  26.333  1.00  0.00     0.014 A 
ATOM     42  C   UNL A   1      39.074  24.455  28.271  1.00  0.00     0.014 A 
ATOM     43  C   UNL A   1      40.524  26.512  27.062  1.00  0.00     0.010 A 
ATOM     44  C   UNL A   1      39.327  25.630  28.973  1.00  0.00     0.010 A 
ATOM     45  C   UNL A   1      40.063  26.667  28.380  1.00  0.00    -0.014 A 
BRANCH  45  46
ATOM     46  C   UNL A   1      40.349  27.899  29.156  1.00  0.00     0.031 A 
ATOM     47  C   UNL A   1      41.600  27.996  29.987  1.00  0.00     0.074 A 
ATOM     48  C   UNL A   1      39.455  28.907  29.160  1.00  0.00     0.049 A 
ATOM     49  N   UNL A   1      41.991  28.961  30.781  1.00  0.00    -0.248 NA
ATOM     50  C   UNL A   1      42.520  26.849  29.940  1.00  0.00     0.031 C 
ATOM     51  C   UNL A   1      38.190  28.921  28.423  1.00  0.00     0.029 A 
ATOM     52  N   UNL A   1      39.473  30.113  29.814  1.00  0.00    -0.354 N 
ATOM     53  C   UNL A   1      43.188  28.530  31.339  1.00  0.00     0.074 A 
ATOM     54  C   UNL A   1      43.434  27.197  30.834  1.00  0.00     0.031 C 
ATOM     55  C   UNL A   1      37.567  30.090  28.644  1.00  0.00     0.029 A 
ATOM     56  C   UNL A   1      38.363  30.886  29.572  1.00  0.00     0.049 A 
ATOM     57  H   UNL A   1      40.210  30.397  30.402  1.00  0.00     0.167 HD
ATOM     58  C   UNL A   1      44.017  29.189  32.183  1.00  0.00     0.031 A 
ATOM     59  C   UNL A   1      38.021  32.097  30.048  1.00  0.00     0.031 A 
ATOM     60  C   UNL A   1      43.775  30.518  32.678  1.00  0.00     0.049 A 
ATOM     61  C   UNL A   1      38.950  32.801  30.998  1.00  0.00     0.074 A 
ATOM     62  C   UNL A   1      44.581  31.293  33.495  1.00  0.00     0.029 A 
ATOM     63  N   UNL A   1      42.643  31.268  32.404  1.00  0.00    -0.354 N 
ATOM     64  N   UNL A   1      40.109  32.404  31.467  1.00  0.00    -0.248 NA
ATOM     65  C   UNL A   1      38.528  34.126  31.475  1.00  0.00     0.031 C 
ATOM     66  C   UNL A   1      43.910  32.491  33.759  1.00  0.00     0.029 A 
ATOM     67  C   UNL A   1      42.716  32.488  33.056  1.00  0.00     0.049 A 
ATOM     68  H   UNL A   1      41.897  30.977  31.831  1.00  0.00     0.167 HD
ATOM     69  C   UNL A   1      40.569  33.442  32.266  1.00  0.00     0.074 A 
ATOM     70  C   UNL A   1      39.571  34.491  32.208  1.00  0.00     0.031 C 
ATOM     71  C   UNL A   1      41.715  33.522  32.984  1.00  0.00     0.031 A 
BRANCH  58  72
ATOM     72  C   UNL A   1      45.262  28.474  32.632  1.00  0.00    -0.014 A 
ATOM     73  C   UNL A   1      46.470  28.597  31.926  1.00  0.00     0.009 A 
ATOM     74  C   UNL A   1      45.237  27.692  33.798  1.00  0.00     0.009 A 
ATOM     75  C   UNL A   1      47.615  27.923  32.355  1.00  0.00     0.001 A 
ATOM     76  C   UNL A   1      46.391  27.044  34.242  1.00  0.00     0.001 A 
ATOM     77  C   UNL A   1      47.576  27.151  33.515  1.00  0.00     0.000 A 
ENDBRANCH  58  72
BRANCH  59  78
ATOM     78  C   UNL A   1      36.745  32.732  29.625  1.00  0.00    -0.014 A 
ATOM     79  C   UNL A   1      35.608  32.660  30.443  1.00  0.00     0.009 A 
ATOM     80  C   UNL A   1      36.655  33.406  28.396  1.00  0.00     0.009 A 
ATOM     81  C   UNL A   1      34.398  33.223  30.027  1.00  0.00     0.001 A 
ATOM     82  C   UNL A   1      35.453  33.995  27.997  1.00  0.00     0.001 A 
ATOM     83  C   UNL A   1      34.324  33.894  28.808  1.00  0.00     0.000 A 
ENDBRANCH  59  78
BRANCH  71  84
ATOM     84  C   UNL A   1      41.974  34.801  33.731  1.00  0.00    -0.014 A 
ATOM     85  C   UNL A   1      42.711  35.848  33.156  1.00  0.00     0.009 A 
ATOM     86  C   UNL A   1      41.435  34.973  35.016  1.00  0.00     0.009 A 
ATOM     87  C   UNL A   1      42.932  37.028  33.869  1.00  0.00     0.001 A 
ATOM     88  C   UNL A   1      41.632  36.165  35.713  1.00  0.00     0.001 A 
ATOM     89  C   UNL A   1      42.387  37.188  35.143  1.00  0.00     0.000 A 
ENDBRANCH  71  84
ENDBRANCH  45  46
ENDBRANCH  37  40
ENDBRANCH  35  36
ENDBRANCH  34  35
ENDBRANCH   1  34
TORSDOF 15
ENDMDL
