MODEL 1
REMARK VINA RESULT:     -12.0      0.000      0.000
REMARK SMILES O=C(COc1ccccc1/C=C1\C(=O)Nc2ccccc21)NCCCNC(=O)c1ccc(-c2c3nc(c(-c4ccccc4)c4ccc([nH]4)c(-c4ccccc4)c4nc(c(-c5ccccc5)c5ccc2[nH]5)C=C4)C=C3)cc1
REMARK SMILES IDX 23 1 22 2 1 3 2 4 3 6 4 7 5 8 6 9 10 10 7 11 9 12 8 13 11 14
REMARK SMILES IDX 12 15 13 16 21 17 14 18 15 19 16 20 20 21 17 23 19 24 18 25
REMARK SMILES IDX 24 26 25 27 26 28 27 29 28 31 29 32 30 33 76 34 31 35 75 36
REMARK SMILES IDX 32 37 33 38 34 39 69 40 35 41 74 42 68 43 70 44 36 45 73 46
REMARK SMILES IDX 67 47 66 48 37 50 59 51 44 52 58 53 45 54 48 55 57 56 71 57
REMARK SMILES IDX 46 58 47 59 56 61 72 62 49 63 38 64 39 65 43 66 40 67 42 68
REMARK SMILES IDX 41 69 60 70 61 71 65 72 62 73 64 74 63 75 50 76 51 77 55 78
REMARK SMILES IDX 52 79 54 80 53 81
REMARK H PARENT 22 5 15 22 26 30 70 49 48 60
REMARK Flexibility Score: inf
ROOT
ATOM      1  C   UNL A   1      37.072  21.700  24.184  1.00  0.00     0.117 C 
ENDROOT
BRANCH   1   2
ATOM      2  N   UNL A   1      35.869  22.354  24.625  1.00  0.00    -0.353 N 
ATOM      3  O   UNL A   1      36.845  23.897  26.036  1.00  0.00    -0.271 OA
ATOM      4  C   UNL A   1      35.929  23.572  25.290  1.00  0.00     0.257 C 
ATOM      5  H   UNL A   1      34.995  21.935  24.452  1.00  0.00     0.163 HD
BRANCH   4   6
ATOM      6  C   UNL A   1      34.758  24.486  24.946  1.00  0.00     0.329 C 
BRANCH   6   7
ATOM      7  O   UNL A   1      34.276  23.980  23.693  1.00  0.00    -0.483 OA
BRANCH   7   8
ATOM      8  C   UNL A   1      32.985  24.327  23.395  1.00  0.00     0.127 A 
ATOM      9  C   UNL A   1      32.696  25.698  23.396  1.00  0.00     0.047 A 
ATOM     10  C   UNL A   1      31.964  23.348  23.355  1.00  0.00     0.017 A 
ATOM     11  C   UNL A   1      31.374  26.126  23.416  1.00  0.00     0.004 A 
ATOM     12  C   UNL A   1      30.654  23.816  23.500  1.00  0.00     0.012 A 
ATOM     13  C   UNL A   1      30.356  25.184  23.507  1.00  0.00     0.001 A 
BRANCH  10  14
ATOM     14  C   UNL A   1      32.256  21.891  23.233  1.00  0.00     0.026 C 
ATOM     15  C   UNL A   1      32.548  20.970  24.179  1.00  0.00     0.050 C 
ATOM     16  C   UNL A   1      32.693  21.159  25.679  1.00  0.00     0.256 C 
ATOM     17  C   UNL A   1      32.763  19.518  23.948  1.00  0.00     0.011 A 
ATOM     18  O   UNL A   1      32.547  22.161  26.355  1.00  0.00    -0.269 OA
ATOM     19  N   UNL A   1      33.025  19.915  26.183  1.00  0.00    -0.321 N 
ATOM     20  C   UNL A   1      33.040  18.948  25.193  1.00  0.00     0.049 A 
ATOM     21  C   UNL A   1      32.709  18.688  22.844  1.00  0.00     0.011 A 
ATOM     22  H   UNL A   1      33.226  19.740  27.130  1.00  0.00     0.170 HD
ATOM     23  C   UNL A   1      33.261  17.595  25.381  1.00  0.00     0.027 A 
ATOM     24  C   UNL A   1      32.903  17.307  23.004  1.00  0.00     0.001 A 
ATOM     25  C   UNL A   1      33.178  16.764  24.265  1.00  0.00     0.002 A 
ENDBRANCH  10  14
ENDBRANCH   7   8
ENDBRANCH   6   7
ENDBRANCH   4   6
ENDBRANCH   1   2
BRANCH   1  26
ATOM     26  C   UNL A   1      37.545  20.547  25.030  1.00  0.00     0.042 C 
BRANCH  26  27
ATOM     27  C   UNL A   1      38.849  20.815  25.759  1.00  0.00     0.118 C 
BRANCH  27  28
ATOM     28  N   UNL A   1      39.796  19.701  25.754  1.00  0.00    -0.352 N 
ATOM     29  C   UNL A   1      41.125  19.680  26.127  1.00  0.00     0.251 C 
ATOM     30  H   UNL A   1      39.433  18.842  25.440  1.00  0.00     0.163 HD
ATOM     31  O   UNL A   1      41.792  18.659  26.006  1.00  0.00    -0.269 OA
BRANCH  29  32
ATOM     32  C   UNL A   1      41.753  20.923  26.621  1.00  0.00     0.039 A 
ATOM     33  C   UNL A   1      42.311  21.818  25.704  1.00  0.00     0.014 A 
ATOM     34  C   UNL A   1      41.690  21.249  27.975  1.00  0.00     0.014 A 
ATOM     35  C   UNL A   1      42.688  23.094  26.132  1.00  0.00     0.010 A 
ATOM     36  C   UNL A   1      41.945  22.553  28.371  1.00  0.00     0.010 A 
ATOM     37  C   UNL A   1      42.442  23.494  27.455  1.00  0.00    -0.014 A 
BRANCH  37  38
ATOM     38  C   UNL A   1      42.696  24.878  27.930  1.00  0.00     0.031 A 
ATOM     39  C   UNL A   1      44.083  25.266  28.366  1.00  0.00     0.074 A 
ATOM     40  C   UNL A   1      41.675  25.745  28.082  1.00  0.00     0.049 A 
ATOM     41  N   UNL A   1      44.486  26.350  28.979  1.00  0.00    -0.248 NA
ATOM     42  C   UNL A   1      45.151  24.282  28.122  1.00  0.00     0.031 C 
ATOM     43  C   UNL A   1      40.274  25.486  27.741  1.00  0.00     0.029 A 
ATOM     44  N   UNL A   1      41.660  27.023  28.585  1.00  0.00    -0.354 N 
ATOM     45  C   UNL A   1      45.838  26.155  29.230  1.00  0.00     0.074 A 
ATOM     46  C   UNL A   1      46.175  24.833  28.753  1.00  0.00     0.031 C 
ATOM     47  C   UNL A   1      39.542  26.578  28.020  1.00  0.00     0.029 A 
ATOM     48  C   UNL A   1      40.410  27.595  28.604  1.00  0.00     0.049 A 
ATOM     49  H   UNL A   1      42.468  27.486  28.903  1.00  0.00     0.167 HD
ATOM     50  C   UNL A   1      46.729  27.008  29.788  1.00  0.00     0.031 A 
ATOM     51  C   UNL A   1      40.006  28.798  29.054  1.00  0.00     0.031 A 
ATOM     52  C   UNL A   1      46.406  28.338  30.225  1.00  0.00     0.049 A 
ATOM     53  C   UNL A   1      41.016  29.735  29.656  1.00  0.00     0.074 A 
ATOM     54  C   UNL A   1      47.250  29.305  30.742  1.00  0.00     0.029 A 
ATOM     55  N   UNL A   1      45.136  28.891  30.186  1.00  0.00    -0.354 N 
ATOM     56  N   UNL A   1      42.302  29.556  29.840  1.00  0.00    -0.248 NA
ATOM     57  C   UNL A   1      40.519  31.045  30.105  1.00  0.00     0.031 C 
ATOM     58  C   UNL A   1      46.483  30.432  31.051  1.00  0.00     0.029 A 
ATOM     59  C   UNL A   1      45.172  30.183  30.680  1.00  0.00     0.049 A 
ATOM     60  H   UNL A   1      44.329  28.434  29.857  1.00  0.00     0.167 HD
ATOM     61  C   UNL A   1      42.773  30.740  30.393  1.00  0.00     0.074 A 
ATOM     62  C   UNL A   1      41.638  31.633  30.507  1.00  0.00     0.031 C 
ATOM     63  C   UNL A   1      44.034  31.061  30.771  1.00  0.00     0.031 A 
BRANCH  50  64
ATOM     64  C   UNL A   1      48.140  26.519  29.952  1.00  0.00    -0.014 A 
ATOM     65  C   UNL A   1      49.091  26.684  28.932  1.00  0.00     0.009 A 
ATOM     66  C   UNL A   1      48.529  25.897  31.148  1.00  0.00     0.009 A 
ATOM     67  C   UNL A   1      50.390  26.197  29.091  1.00  0.00     0.001 A 
ATOM     68  C   UNL A   1      49.837  25.440  31.317  1.00  0.00     0.001 A 
ATOM     69  C   UNL A   1      50.762  25.580  30.283  1.00  0.00     0.000 A 
ENDBRANCH  50  64
BRANCH  51  70
ATOM     70  C   UNL A   1      38.579  29.200  28.939  1.00  0.00    -0.014 A 
ATOM     71  C   UNL A   1      38.084  29.713  27.730  1.00  0.00     0.009 A 
ATOM     72  C   UNL A   1      37.709  29.086  30.035  1.00  0.00     0.009 A 
ATOM     73  C   UNL A   1      36.755  30.130  27.627  1.00  0.00     0.001 A 
ATOM     74  C   UNL A   1      36.372  29.479  29.921  1.00  0.00     0.001 A 
ATOM     75  C   UNL A   1      35.900  30.009  28.721  1.00  0.00     0.000 A 
ENDBRANCH  51  70
BRANCH  63  76
ATOM     76  C   UNL A   1      44.266  32.450  31.293  1.00  0.00    -0.014 A 
ATOM     77  C   UNL A   1      44.608  33.504  30.434  1.00  0.00     0.009 A 
ATOM     78  C   UNL A   1      44.085  32.712  32.660  1.00  0.00     0.009 A 
ATOM     79  C   UNL A   1      44.791  34.793  30.942  1.00  0.00     0.001 A 
ATOM     80  C   UNL A   1      44.242  34.005  33.160  1.00  0.00     0.001 A 
ATOM     81  C   UNL A   1      44.602  35.042  32.301  1.00  0.00     0.000 A 
ENDBRANCH  63  76
ENDBRANCH  37  38
ENDBRANCH  29  32
ENDBRANCH  27  28
ENDBRANCH  26  27
ENDBRANCH   1  26
TORSDOF 13
ENDMDL
MODEL 2
REMARK VINA RESULT:     -12.0      2.131      7.262
REMARK SMILES O=C(COc1ccccc1/C=C1\C(=O)Nc2ccccc21)NCCCNC(=O)c1ccc(-c2c3nc(c(-c4ccccc4)c4ccc([nH]4)c(-c4ccccc4)c4nc(c(-c5ccccc5)c5ccc2[nH]5)C=C4)C=C3)cc1
REMARK SMILES IDX 23 1 22 2 1 3 2 4 3 6 4 7 5 8 6 9 10 10 7 11 9 12 8 13 11 14
REMARK SMILES IDX 12 15 13 16 21 17 14 18 15 19 16 20 20 21 17 23 19 24 18 25
REMARK SMILES IDX 24 26 25 27 26 28 27 29 28 31 29 32 30 33 76 34 31 35 75 36
REMARK SMILES IDX 32 37 33 38 34 39 69 40 35 41 74 42 68 43 70 44 36 45 73 46
REMARK SMILES IDX 67 47 66 48 37 50 59 51 44 52 58 53 45 54 48 55 57 56 71 57
REMARK SMILES IDX 46 58 47 59 56 61 72 62 49 63 38 64 39 65 43 66 40 67 42 68
REMARK SMILES IDX 41 69 60 70 61 71 65 72 62 73 64 74 63 75 50 76 51 77 55 78
REMARK SMILES IDX 52 79 54 80 53 81
REMARK H PARENT 22 5 15 22 26 30 70 49 48 60
REMARK Flexibility Score: inf
ROOT
ATOM      1  C   UNL A   1      33.306  29.242  24.519  1.00  0.00     0.117 C 
ENDROOT
BRANCH   1   2
ATOM      2  N   UNL A   1      32.554  28.629  23.458  1.00  0.00    -0.353 N 
ATOM      3  O   UNL A   1      34.314  28.200  22.029  1.00  0.00    -0.271 OA
ATOM      4  C   UNL A   1      33.199  27.921  22.452  1.00  0.00     0.257 C 
ATOM      5  H   UNL A   1      31.573  28.711  23.444  1.00  0.00     0.163 HD
BRANCH   4   6
ATOM      6  C   UNL A   1      32.391  26.721  21.969  1.00  0.00     0.329 C 
BRANCH   6   7
ATOM      7  O   UNL A   1      32.766  25.664  22.865  1.00  0.00    -0.483 OA
BRANCH   7   8
ATOM      8  C   UNL A   1      31.909  25.475  23.916  1.00  0.00     0.127 A 
ATOM      9  C   UNL A   1      30.572  25.833  23.698  1.00  0.00     0.047 A 
ATOM     10  C   UNL A   1      32.404  25.190  25.211  1.00  0.00     0.017 A 
ATOM     11  C   UNL A   1      29.708  25.973  24.777  1.00  0.00     0.004 A 
ATOM     12  C   UNL A   1      31.539  25.460  26.277  1.00  0.00     0.012 A 
ATOM     13  C   UNL A   1      30.203  25.823  26.068  1.00  0.00     0.001 A 
BRANCH  10  14
ATOM     14  C   UNL A   1      33.789  24.693  25.446  1.00  0.00     0.026 C 
ATOM     15  C   UNL A   1      34.338  23.477  25.225  1.00  0.00     0.050 C 
ATOM     16  C   UNL A   1      33.680  22.220  24.682  1.00  0.00     0.256 C 
ATOM     17  C   UNL A   1      35.761  23.107  25.441  1.00  0.00     0.011 A 
ATOM     18  O   UNL A   1      32.538  22.043  24.299  1.00  0.00    -0.269 OA
ATOM     19  N   UNL A   1      34.666  21.252  24.679  1.00  0.00    -0.321 N 
ATOM     20  C   UNL A   1      35.886  21.761  25.090  1.00  0.00     0.049 A 
ATOM     21  C   UNL A   1      36.893  23.786  25.851  1.00  0.00     0.011 A 
ATOM     22  H   UNL A   1      34.519  20.315  24.417  1.00  0.00     0.170 HD
ATOM     23  C   UNL A   1      37.085  21.070  25.127  1.00  0.00     0.027 A 
ATOM     24  C   UNL A   1      38.129  23.123  25.875  1.00  0.00     0.001 A 
ATOM     25  C   UNL A   1      38.224  21.773  25.516  1.00  0.00     0.002 A 
ENDBRANCH  10  14
ENDBRANCH   7   8
ENDBRANCH   6   7
ENDBRANCH   4   6
ENDBRANCH   1   2
BRANCH   1  26
ATOM     26  C   UNL A   1      32.566  29.459  25.813  1.00  0.00     0.042 C 
BRANCH  26  27
ATOM     27  C   UNL A   1      33.446  29.367  27.046  1.00  0.00     0.118 C 
BRANCH  27  28
ATOM     28  N   UNL A   1      33.604  30.622  27.782  1.00  0.00    -0.352 N 
ATOM     29  C   UNL A   1      34.691  31.088  28.493  1.00  0.00     0.251 C 
ATOM     30  H   UNL A   1      32.823  31.220  27.767  1.00  0.00     0.163 HD
ATOM     31  O   UNL A   1      34.632  32.151  29.101  1.00  0.00    -0.269 OA
BRANCH  29  32
ATOM     32  C   UNL A   1      35.914  30.261  28.563  1.00  0.00     0.039 A 
ATOM     33  C   UNL A   1      36.810  30.274  27.491  1.00  0.00     0.014 A 
ATOM     34  C   UNL A   1      36.223  29.564  29.730  1.00  0.00     0.014 A 
ATOM     35  C   UNL A   1      38.072  29.693  27.642  1.00  0.00     0.010 A 
ATOM     36  C   UNL A   1      37.516  29.102  29.923  1.00  0.00     0.010 A 
ATOM     37  C   UNL A   1      38.459  29.165  28.884  1.00  0.00    -0.014 A 
BRANCH  37  38
ATOM     38  C   UNL A   1      39.831  28.658  29.142  1.00  0.00     0.031 A 
ATOM     39  C   UNL A   1      40.864  29.586  29.723  1.00  0.00     0.074 A 
ATOM     40  C   UNL A   1      40.184  27.417  28.751  1.00  0.00     0.049 A 
ATOM     41  N   UNL A   1      42.154  29.411  29.857  1.00  0.00    -0.248 NA
ATOM     42  C   UNL A   1      40.387  30.907  30.168  1.00  0.00     0.031 C 
ATOM     43  C   UNL A   1      39.296  26.429  28.134  1.00  0.00     0.029 A 
ATOM     44  N   UNL A   1      41.401  26.782  28.799  1.00  0.00    -0.354 N 
ATOM     45  C   UNL A   1      42.642  30.610  30.359  1.00  0.00     0.074 A 
ATOM     46  C   UNL A   1      41.523  31.520  30.455  1.00  0.00     0.031 C 
ATOM     47  C   UNL A   1      39.991  25.305  27.887  1.00  0.00     0.029 A 
ATOM     48  C   UNL A   1      41.381  25.509  28.281  1.00  0.00     0.049 A 
ATOM     49  H   UNL A   1      42.212  27.199  29.171  1.00  0.00     0.167 HD
ATOM     50  C   UNL A   1      43.906  30.922  30.728  1.00  0.00     0.031 A 
ATOM     51  C   UNL A   1      42.374  24.612  28.126  1.00  0.00     0.031 A 
ATOM     52  C   UNL A   1      45.012  30.006  30.672  1.00  0.00     0.049 A 
ATOM     53  C   UNL A   1      43.767  24.975  28.559  1.00  0.00     0.074 A 
ATOM     54  C   UNL A   1      46.317  30.204  31.086  1.00  0.00     0.029 A 
ATOM     55  N   UNL A   1      44.937  28.713  30.179  1.00  0.00    -0.354 N 
ATOM     56  N   UNL A   1      44.204  26.097  29.079  1.00  0.00    -0.248 NA
ATOM     57  C   UNL A   1      44.803  23.945  28.389  1.00  0.00     0.031 C 
ATOM     58  C   UNL A   1      47.042  29.041  30.809  1.00  0.00     0.029 A 
ATOM     59  C   UNL A   1      46.176  28.105  30.268  1.00  0.00     0.049 A 
ATOM     60  H   UNL A   1      44.124  28.291  29.819  1.00  0.00     0.167 HD
ATOM     61  C   UNL A   1      45.555  25.895  29.331  1.00  0.00     0.074 A 
ATOM     62  C   UNL A   1      45.864  24.543  28.914  1.00  0.00     0.031 C 
ATOM     63  C   UNL A   1      46.459  26.753  29.862  1.00  0.00     0.031 A 
BRANCH  50  64
ATOM     64  C   UNL A   1      44.153  32.318  31.229  1.00  0.00    -0.014 A 
ATOM     65  C   UNL A   1      44.032  32.634  32.592  1.00  0.00     0.009 A 
ATOM     66  C   UNL A   1      44.523  33.327  30.327  1.00  0.00     0.009 A 
ATOM     67  C   UNL A   1      44.236  33.943  33.034  1.00  0.00     0.001 A 
ATOM     68  C   UNL A   1      44.757  34.628  30.777  1.00  0.00     0.001 A 
ATOM     69  C   UNL A   1      44.602  34.936  32.128  1.00  0.00     0.000 A 
ENDBRANCH  50  64
BRANCH  51  70
ATOM     70  C   UNL A   1      42.088  23.272  27.550  1.00  0.00    -0.014 A 
ATOM     71  C   UNL A   1      42.368  23.007  26.200  1.00  0.00     0.009 A 
ATOM     72  C   UNL A   1      41.525  22.255  28.338  1.00  0.00     0.009 A 
ATOM     73  C   UNL A   1      42.065  21.762  25.643  1.00  0.00     0.001 A 
ATOM     74  C   UNL A   1      41.248  21.002  27.785  1.00  0.00     0.001 A 
ATOM     75  C   UNL A   1      41.509  20.760  26.437  1.00  0.00     0.000 A 
ENDBRANCH  51  70
BRANCH  63  76
ATOM     76  C   UNL A   1      47.856  26.241  30.073  1.00  0.00    -0.014 A 
ATOM     77  C   UNL A   1      48.786  26.202  29.024  1.00  0.00     0.009 A 
ATOM     78  C   UNL A   1      48.257  25.844  31.358  1.00  0.00     0.009 A 
ATOM     79  C   UNL A   1      50.086  25.748  29.255  1.00  0.00     0.001 A 
ATOM     80  C   UNL A   1      49.564  25.416  31.591  1.00  0.00     0.001 A 
ATOM     81  C   UNL A   1      50.475  25.362  30.537  1.00  0.00     0.000 A 
ENDBRANCH  63  76
ENDBRANCH  37  38
ENDBRANCH  29  32
ENDBRANCH  27  28
ENDBRANCH  26  27
ENDBRANCH   1  26
TORSDOF 13
ENDMDL
MODEL 3
REMARK VINA RESULT:     -12.0      4.661      9.768
REMARK SMILES O=C(COc1ccccc1/C=C1\C(=O)Nc2ccccc21)NCCCNC(=O)c1ccc(-c2c3nc(c(-c4ccccc4)c4ccc([nH]4)c(-c4ccccc4)c4nc(c(-c5ccccc5)c5ccc2[nH]5)C=C4)C=C3)cc1
REMARK SMILES IDX 23 1 22 2 1 3 2 4 3 6 4 7 5 8 6 9 10 10 7 11 9 12 8 13 11 14
REMARK SMILES IDX 12 15 13 16 21 17 14 18 15 19 16 20 20 21 17 23 19 24 18 25
REMARK SMILES IDX 24 26 25 27 26 28 27 29 28 31 29 32 30 33 76 34 31 35 75 36
REMARK SMILES IDX 32 37 33 38 34 39 69 40 35 41 74 42 68 43 70 44 36 45 73 46
REMARK SMILES IDX 67 47 66 48 37 50 59 51 44 52 58 53 45 54 48 55 57 56 71 57
REMARK SMILES IDX 46 58 47 59 56 61 72 62 49 63 38 64 39 65 43 66 40 67 42 68
REMARK SMILES IDX 41 69 60 70 61 71 65 72 62 73 64 74 63 75 50 76 51 77 55 78
REMARK SMILES IDX 52 79 54 80 53 81
REMARK H PARENT 22 5 15 22 26 30 70 49 48 60
REMARK Flexibility Score: inf
ROOT
ATOM      1  C   UNL A   1      31.890  30.837  25.921  1.00  0.00     0.117 C 
ENDROOT
BRANCH   1   2
ATOM      2  N   UNL A   1      33.003  29.974  26.212  1.00  0.00    -0.353 N 
ATOM      3  O   UNL A   1      31.908  28.508  27.619  1.00  0.00    -0.271 OA
ATOM      4  C   UNL A   1      32.801  28.737  26.811  1.00  0.00     0.257 C 
ATOM      5  H   UNL A   1      33.916  30.261  25.983  1.00  0.00     0.163 HD
BRANCH   4   6
ATOM      6  C   UNL A   1      33.776  27.677  26.311  1.00  0.00     0.329 C 
BRANCH   6   7
ATOM      7  O   UNL A   1      33.030  26.454  26.384  1.00  0.00    -0.483 OA
BRANCH   7   8
ATOM      8  C   UNL A   1      33.329  25.543  25.406  1.00  0.00     0.127 A 
ATOM      9  C   UNL A   1      34.444  24.727  25.639  1.00  0.00     0.047 A 
ATOM     10  C   UNL A   1      32.709  25.613  24.136  1.00  0.00     0.017 A 
ATOM     11  C   UNL A   1      35.005  24.005  24.593  1.00  0.00     0.004 A 
ATOM     12  C   UNL A   1      33.374  24.971  23.086  1.00  0.00     0.012 A 
ATOM     13  C   UNL A   1      34.492  24.158  23.310  1.00  0.00     0.001 A 
BRANCH  10  14
ATOM     14  C   UNL A   1      31.453  26.382  23.900  1.00  0.00     0.026 C 
ATOM     15  C   UNL A   1      31.254  27.584  23.314  1.00  0.00     0.050 C 
ATOM     16  C   UNL A   1      32.279  28.540  22.731  1.00  0.00     0.256 C 
ATOM     17  C   UNL A   1      29.939  28.233  23.075  1.00  0.00     0.011 A 
ATOM     18  O   UNL A   1      33.487  28.422  22.633  1.00  0.00    -0.269 OA
ATOM     19  N   UNL A   1      31.561  29.633  22.284  1.00  0.00    -0.321 N 
ATOM     20  C   UNL A   1      30.198  29.455  22.452  1.00  0.00     0.049 A 
ATOM     21  C   UNL A   1      28.621  27.876  23.297  1.00  0.00     0.011 A 
ATOM     22  H   UNL A   1      31.968  30.440  21.895  1.00  0.00     0.170 HD
ATOM     23  C   UNL A   1      29.207  30.329  22.040  1.00  0.00     0.027 A 
ATOM     24  C   UNL A   1      27.591  28.727  22.869  1.00  0.00     0.001 A 
ATOM     25  C   UNL A   1      27.882  29.946  22.245  1.00  0.00     0.002 A 
ENDBRANCH  10  14
ENDBRANCH   7   8
ENDBRANCH   6   7
ENDBRANCH   4   6
ENDBRANCH   1   2
BRANCH   1  26
ATOM     26  C   UNL A   1      31.572  31.878  26.961  1.00  0.00     0.042 C 
BRANCH  26  27
ATOM     27  C   UNL A   1      32.732  32.804  27.278  1.00  0.00     0.118 C 
BRANCH  27  28
ATOM     28  N   UNL A   1      32.349  34.178  27.605  1.00  0.00    -0.352 N 
ATOM     29  C   UNL A   1      32.916  35.052  28.510  1.00  0.00     0.251 C 
ATOM     30  H   UNL A   1      31.577  34.529  27.106  1.00  0.00     0.163 HD
ATOM     31  O   UNL A   1      32.429  36.161  28.698  1.00  0.00    -0.269 OA
BRANCH  29  32
ATOM     32  C   UNL A   1      34.087  34.614  29.298  1.00  0.00     0.039 A 
ATOM     33  C   UNL A   1      33.893  34.096  30.581  1.00  0.00     0.014 A 
ATOM     34  C   UNL A   1      35.357  34.615  28.723  1.00  0.00     0.014 A 
ATOM     35  C   UNL A   1      34.954  33.462  31.233  1.00  0.00     0.010 A 
ATOM     36  C   UNL A   1      36.371  33.877  29.316  1.00  0.00     0.010 A 
ATOM     37  C   UNL A   1      36.181  33.286  30.575  1.00  0.00    -0.014 A 
BRANCH  37  38
ATOM     38  C   UNL A   1      37.298  32.504  31.165  1.00  0.00     0.031 A 
ATOM     39  C   UNL A   1      37.891  32.939  32.478  1.00  0.00     0.074 A 
ATOM     40  C   UNL A   1      37.855  31.486  30.478  1.00  0.00     0.049 A 
ATOM     41  N   UNL A   1      38.976  32.517  33.077  1.00  0.00    -0.248 NA
ATOM     42  C   UNL A   1      37.196  34.026  33.188  1.00  0.00     0.031 C 
ATOM     43  C   UNL A   1      37.409  30.988  29.174  1.00  0.00     0.029 A 
ATOM     44  N   UNL A   1      38.938  30.697  30.779  1.00  0.00    -0.354 N 
ATOM     45  C   UNL A   1      39.112  33.316  34.205  1.00  0.00     0.074 A 
ATOM     46  C   UNL A   1      38.034  34.279  34.180  1.00  0.00     0.031 C 
ATOM     47  C   UNL A   1      38.194  29.962  28.802  1.00  0.00     0.029 A 
ATOM     48  C   UNL A   1      39.226  29.763  29.813  1.00  0.00     0.049 A 
ATOM     49  H   UNL A   1      39.458  30.791  31.609  1.00  0.00     0.167 HD
ATOM     50  C   UNL A   1      40.039  33.244  35.188  1.00  0.00     0.031 A 
ATOM     51  C   UNL A   1      40.220  28.856  29.742  1.00  0.00     0.031 A 
ATOM     52  C   UNL A   1      41.087  32.262  35.237  1.00  0.00     0.049 A 
ATOM     53  C   UNL A   1      41.229  28.784  30.854  1.00  0.00     0.074 A 
ATOM     54  C   UNL A   1      42.036  32.062  36.224  1.00  0.00     0.029 A 
ATOM     55  N   UNL A   1      41.317  31.309  34.258  1.00  0.00    -0.354 N 
ATOM     56  N   UNL A   1      41.316  29.513  31.940  1.00  0.00    -0.248 NA
ATOM     57  C   UNL A   1      42.274  27.756  30.734  1.00  0.00     0.031 C 
ATOM     58  C   UNL A   1      42.865  31.009  35.824  1.00  0.00     0.029 A 
ATOM     59  C   UNL A   1      42.399  30.523  34.612  1.00  0.00     0.049 A 
ATOM     60  H   UNL A   1      40.789  31.205  33.433  1.00  0.00     0.167 HD
ATOM     61  C   UNL A   1      42.401  29.012  32.648  1.00  0.00     0.074 A 
ATOM     62  C   UNL A   1      42.936  27.911  31.873  1.00  0.00     0.031 C 
ATOM     63  C   UNL A   1      42.907  29.424  33.834  1.00  0.00     0.031 A 
BRANCH  50  64
ATOM     64  C   UNL A   1      39.953  34.260  36.292  1.00  0.00    -0.014 A 
ATOM     65  C   UNL A   1      39.203  34.011  37.453  1.00  0.00     0.009 A 
ATOM     66  C   UNL A   1      40.641  35.477  36.176  1.00  0.00     0.009 A 
ATOM     67  C   UNL A   1      39.110  34.978  38.456  1.00  0.00     0.001 A 
ATOM     68  C   UNL A   1      40.573  36.429  37.195  1.00  0.00     0.001 A 
ATOM     69  C   UNL A   1      39.798  36.184  38.327  1.00  0.00     0.000 A 
ENDBRANCH  50  64
BRANCH  51  70
ATOM     70  C   UNL A   1      40.304  27.927  28.585  1.00  0.00    -0.014 A 
ATOM     71  C   UNL A   1      39.682  26.669  28.641  1.00  0.00     0.009 A 
ATOM     72  C   UNL A   1      41.014  28.281  27.427  1.00  0.00     0.009 A 
ATOM     73  C   UNL A   1      39.792  25.775  27.573  1.00  0.00     0.001 A 
ATOM     74  C   UNL A   1      41.099  27.395  26.350  1.00  0.00     0.001 A 
ATOM     75  C   UNL A   1      40.496  26.140  26.428  1.00  0.00     0.000 A 
ENDBRANCH  51  70
BRANCH  63  76
ATOM     76  C   UNL A   1      44.067  28.651  34.396  1.00  0.00    -0.014 A 
ATOM     77  C   UNL A   1      43.868  27.524  35.207  1.00  0.00     0.009 A 
ATOM     78  C   UNL A   1      45.376  29.030  34.060  1.00  0.00     0.009 A 
ATOM     79  C   UNL A   1      44.964  26.806  35.693  1.00  0.00     0.001 A 
ATOM     80  C   UNL A   1      46.467  28.296  34.525  1.00  0.00     0.001 A 
ATOM     81  C   UNL A   1      46.259  27.189  35.347  1.00  0.00     0.000 A 
ENDBRANCH  63  76
ENDBRANCH  37  38
ENDBRANCH  29  32
ENDBRANCH  27  28
ENDBRANCH  26  27
ENDBRANCH   1  26
TORSDOF 13
ENDMDL
