MODEL 1
REMARK VINA RESULT:     -12.3      0.000      0.000
REMARK SMILES Cc1ccc(NC(=O)NC2CCCC2)cc1/C=C/C(=O)NCCCNC(=O)c1ccc(-c2c3nc(c(-c4ccccc4)c4ccc([nH]4)c(-c4ccccc4)c4nc(c(-c5ccccc5)c5ccc2[nH]5)C=C4)C=C3)cc1
REMARK SMILES IDX 22 1 21 2 19 3 20 4 18 6 17 7 16 8 1 9 2 10 3 11 4 12 15 13
REMARK SMILES IDX 5 14 6 15 7 16 8 18 9 19 10 21 11 22 14 23 12 24 13 25 23 26
REMARK SMILES IDX 24 27 25 28 26 29 27 31 28 32 29 33 75 34 30 35 74 36 31 37
REMARK SMILES IDX 32 38 33 39 68 40 34 41 73 42 67 43 69 44 35 45 72 46 66 47
REMARK SMILES IDX 65 48 36 50 58 51 43 52 57 53 44 54 47 55 56 56 70 57 45 58
REMARK SMILES IDX 46 59 55 61 71 62 48 63 37 64 38 65 42 66 39 67 41 68 40 69
REMARK SMILES IDX 59 70 60 71 64 72 61 73 63 74 62 75 49 76 50 77 54 78 51 79
REMARK SMILES IDX 53 80 52 81
REMARK H PARENT 21 5 6 17 9 20 25 30 69 49 47 60
REMARK Flexibility Score: inf
ROOT
ATOM      1  C   UNL A   1      37.803  22.803  25.992  1.00  0.00     0.118 C 
ENDROOT
BRANCH   1   2
ATOM      2  N   UNL A   1      37.356  22.693  24.610  1.00  0.00    -0.352 N 
ATOM      3  C   UNL A   1      36.291  23.292  24.001  1.00  0.00     0.244 C 
ATOM      4  O   UNL A   1      36.111  23.164  22.791  1.00  0.00    -0.270 OA
ATOM      5  H   UNL A   1      37.897  22.107  24.035  1.00  0.00     0.163 HD
BRANCH   3   6
ATOM      6  C   UNL A   1      35.422  24.195  24.785  1.00  0.00     0.072 C 
ATOM      7  C   UNL A   1      34.389  24.868  24.258  1.00  0.00     0.014 C 
BRANCH   7   8
ATOM      8  C   UNL A   1      33.467  25.619  25.114  1.00  0.00    -0.020 A 
ATOM      9  C   UNL A   1      31.505  24.108  24.476  1.00  0.00     0.045 C 
ATOM     10  C   UNL A   1      32.143  25.177  25.318  1.00  0.00    -0.044 A 
ATOM     11  C   UNL A   1      31.354  25.819  26.276  1.00  0.00     0.006 A 
ATOM     12  C   UNL A   1      31.795  26.996  26.870  1.00  0.00     0.026 A 
ATOM     13  C   UNL A   1      33.890  26.821  25.697  1.00  0.00     0.034 A 
ATOM     14  C   UNL A   1      32.988  27.572  26.450  1.00  0.00     0.043 A 
BRANCH  14  15
ATOM     15  N   UNL A   1      33.279  28.917  26.690  1.00  0.00    -0.308 N 
ATOM     16  C   UNL A   1      32.583  30.044  26.405  1.00  0.00     0.319 C 
ATOM     17  H   UNL A   1      34.139  29.073  27.145  1.00  0.00     0.171 HD
ATOM     18  O   UNL A   1      32.884  31.089  26.987  1.00  0.00    -0.248 OA
ATOM     19  N   UNL A   1      31.660  30.124  25.418  1.00  0.00    -0.335 N 
ATOM     20  H   UNL A   1      31.201  30.994  25.381  1.00  0.00     0.165 HD
BRANCH  19  21
ATOM     21  C   UNL A   1      31.207  29.190  24.403  1.00  0.00     0.083 C 
ATOM     22  C   UNL A   1      29.989  29.654  23.604  1.00  0.00     0.025 C 
ATOM     23  C   UNL A   1      32.193  28.899  23.275  1.00  0.00     0.025 C 
ATOM     24  C   UNL A   1      29.902  28.592  22.506  1.00  0.00     0.002 C 
ATOM     25  C   UNL A   1      31.345  28.140  22.257  1.00  0.00     0.002 C 
ENDBRANCH  19  21
ENDBRANCH  14  15
ENDBRANCH   7   8
ENDBRANCH   3   6
ENDBRANCH   1   2
BRANCH   1  26
ATOM     26  C   UNL A   1      39.320  22.954  26.081  1.00  0.00     0.042 C 
BRANCH  26  27
ATOM     27  C   UNL A   1      39.968  21.869  26.923  1.00  0.00     0.118 C 
BRANCH  27  28
ATOM     28  N   UNL A   1      40.760  20.902  26.164  1.00  0.00    -0.352 N 
ATOM     29  C   UNL A   1      42.138  20.825  26.025  1.00  0.00     0.251 C 
ATOM     30  H   UNL A   1      40.246  20.210  25.687  1.00  0.00     0.163 HD
ATOM     31  O   UNL A   1      42.646  19.940  25.345  1.00  0.00    -0.269 OA
BRANCH  29  32
ATOM     32  C   UNL A   1      42.989  21.720  26.847  1.00  0.00     0.039 A 
ATOM     33  C   UNL A   1      42.836  21.618  28.233  1.00  0.00     0.014 A 
ATOM     34  C   UNL A   1      43.548  22.855  26.275  1.00  0.00     0.014 A 
ATOM     35  C   UNL A   1      42.889  22.778  28.992  1.00  0.00     0.010 A 
ATOM     36  C   UNL A   1      43.491  24.026  26.997  1.00  0.00     0.010 A 
ATOM     37  C   UNL A   1      43.070  23.990  28.329  1.00  0.00    -0.014 A 
BRANCH  37  38
ATOM     38  C   UNL A   1      42.840  25.278  28.954  1.00  0.00     0.031 A 
ATOM     39  C   UNL A   1      41.672  26.048  28.515  1.00  0.00     0.074 A 
ATOM     40  C   UNL A   1      43.683  25.785  29.879  1.00  0.00     0.049 A 
ATOM     41  N   UNL A   1      41.631  27.334  28.470  1.00  0.00    -0.248 NA
ATOM     42  C   UNL A   1      40.468  25.405  28.003  1.00  0.00     0.031 C 
ATOM     43  C   UNL A   1      43.495  26.979  30.698  1.00  0.00     0.029 A 
ATOM     44  N   UNL A   1      44.982  25.421  30.158  1.00  0.00    -0.354 N 
ATOM     45  C   UNL A   1      40.321  27.681  28.251  1.00  0.00     0.074 A 
ATOM     46  C   UNL A   1      39.669  26.462  27.834  1.00  0.00     0.031 C 
ATOM     47  C   UNL A   1      44.692  27.386  31.158  1.00  0.00     0.029 A 
ATOM     48  C   UNL A   1      45.707  26.549  30.549  1.00  0.00     0.049 A 
ATOM     49  H   UNL A   1      45.344  24.508  30.091  1.00  0.00     0.167 HD
ATOM     50  C   UNL A   1      39.899  28.922  28.615  1.00  0.00     0.031 A 
ATOM     51  C   UNL A   1      46.772  27.002  29.819  1.00  0.00     0.031 A 
ATOM     52  C   UNL A   1      41.011  29.739  29.118  1.00  0.00     0.049 A 
ATOM     53  C   UNL A   1      46.521  28.347  29.162  1.00  0.00     0.074 A 
ATOM     54  C   UNL A   1      41.436  30.075  30.394  1.00  0.00     0.029 A 
ATOM     55  N   UNL A   1      42.072  30.037  28.271  1.00  0.00    -0.354 N 
ATOM     56  N   UNL A   1      45.381  28.979  29.184  1.00  0.00    -0.248 NA
ATOM     57  C   UNL A   1      47.519  29.044  28.358  1.00  0.00     0.031 C 
ATOM     58  C   UNL A   1      42.777  30.548  30.307  1.00  0.00     0.029 A 
ATOM     59  C   UNL A   1      43.155  30.538  28.977  1.00  0.00     0.049 A 
ATOM     60  H   UNL A   1      42.056  29.908  27.296  1.00  0.00     0.167 HD
ATOM     61  C   UNL A   1      45.451  30.115  28.417  1.00  0.00     0.074 A 
ATOM     62  C   UNL A   1      46.817  30.102  27.916  1.00  0.00     0.031 C 
ATOM     63  C   UNL A   1      44.366  30.938  28.254  1.00  0.00     0.031 A 
BRANCH  50  64
ATOM     64  C   UNL A   1      38.439  29.259  28.813  1.00  0.00    -0.014 A 
ATOM     65  C   UNL A   1      37.692  29.770  27.739  1.00  0.00     0.009 A 
ATOM     66  C   UNL A   1      37.753  29.158  30.039  1.00  0.00     0.009 A 
ATOM     67  C   UNL A   1      36.381  30.244  27.901  1.00  0.00     0.001 A 
ATOM     68  C   UNL A   1      36.461  29.667  30.222  1.00  0.00     0.001 A 
ATOM     69  C   UNL A   1      35.775  30.221  29.151  1.00  0.00     0.000 A 
ENDBRANCH  50  64
BRANCH  51  70
ATOM     70  C   UNL A   1      47.567  25.882  29.231  1.00  0.00    -0.014 A 
ATOM     71  C   UNL A   1      47.214  25.489  27.923  1.00  0.00     0.009 A 
ATOM     72  C   UNL A   1      48.869  25.635  29.682  1.00  0.00     0.009 A 
ATOM     73  C   UNL A   1      48.201  25.108  27.012  1.00  0.00     0.001 A 
ATOM     74  C   UNL A   1      49.844  25.215  28.772  1.00  0.00     0.001 A 
ATOM     75  C   UNL A   1      49.526  25.028  27.425  1.00  0.00     0.000 A 
ENDBRANCH  51  70
BRANCH  63  76
ATOM     76  C   UNL A   1      44.287  32.202  27.409  1.00  0.00    -0.014 A 
ATOM     77  C   UNL A   1      44.380  32.260  26.016  1.00  0.00     0.009 A 
ATOM     78  C   UNL A   1      44.138  33.453  28.060  1.00  0.00     0.009 A 
ATOM     79  C   UNL A   1      44.249  33.469  25.312  1.00  0.00     0.001 A 
ATOM     80  C   UNL A   1      44.009  34.661  27.369  1.00  0.00     0.001 A 
ATOM     81  C   UNL A   1      44.050  34.667  25.987  1.00  0.00     0.000 A 
ENDBRANCH  63  76
ENDBRANCH  37  38
ENDBRANCH  29  32
ENDBRANCH  27  28
ENDBRANCH  26  27
ENDBRANCH   1  26
TORSDOF 13
ENDMDL
MODEL 2
REMARK VINA RESULT:     -11.9      2.357      3.197
REMARK SMILES Cc1ccc(NC(=O)NC2CCCC2)cc1/C=C/C(=O)NCCCNC(=O)c1ccc(-c2c3nc(c(-c4ccccc4)c4ccc([nH]4)c(-c4ccccc4)c4nc(c(-c5ccccc5)c5ccc2[nH]5)C=C4)C=C3)cc1
REMARK SMILES IDX 22 1 21 2 19 3 20 4 18 6 17 7 16 8 1 9 2 10 3 11 4 12 15 13
REMARK SMILES IDX 5 14 6 15 7 16 8 18 9 19 10 21 11 22 14 23 12 24 13 25 23 26
REMARK SMILES IDX 24 27 25 28 26 29 27 31 28 32 29 33 75 34 30 35 74 36 31 37
REMARK SMILES IDX 32 38 33 39 68 40 34 41 73 42 67 43 69 44 35 45 72 46 66 47
REMARK SMILES IDX 65 48 36 50 58 51 43 52 57 53 44 54 47 55 56 56 70 57 45 58
REMARK SMILES IDX 46 59 55 61 71 62 48 63 37 64 38 65 42 66 39 67 41 68 40 69
REMARK SMILES IDX 59 70 60 71 64 72 61 73 63 74 62 75 49 76 50 77 54 78 51 79
REMARK SMILES IDX 53 80 52 81
REMARK H PARENT 21 5 6 17 9 20 25 30 69 49 47 60
REMARK Flexibility Score: inf
ROOT
ATOM      1  C   UNL A   1      39.793  21.913  26.435  1.00  0.00     0.118 C 
ENDROOT
BRANCH   1   2
ATOM      2  N   UNL A   1      39.611  23.356  26.511  1.00  0.00    -0.352 N 
ATOM      3  C   UNL A   1      38.453  24.079  26.480  1.00  0.00     0.244 C 
ATOM      4  O   UNL A   1      38.473  25.297  26.653  1.00  0.00    -0.270 OA
ATOM      5  H   UNL A   1      40.437  23.883  26.599  1.00  0.00     0.163 HD
BRANCH   3   6
ATOM      6  C   UNL A   1      37.161  23.373  26.354  1.00  0.00     0.072 C 
ATOM      7  C   UNL A   1      36.059  23.935  25.838  1.00  0.00     0.014 C 
BRANCH   7   8
ATOM      8  C   UNL A   1      34.855  23.138  25.590  1.00  0.00    -0.020 A 
ATOM      9  C   UNL A   1      35.453  22.841  23.121  1.00  0.00     0.045 C 
ATOM     10  C   UNL A   1      34.642  22.513  24.343  1.00  0.00    -0.044 A 
ATOM     11  C   UNL A   1      33.575  21.619  24.206  1.00  0.00     0.006 A 
ATOM     12  C   UNL A   1      32.625  21.506  25.213  1.00  0.00     0.026 A 
ATOM     13  C   UNL A   1      33.876  23.037  26.588  1.00  0.00     0.034 A 
ATOM     14  C   UNL A   1      32.698  22.340  26.323  1.00  0.00     0.043 A 
BRANCH  14  15
ATOM     15  N   UNL A   1      31.590  22.569  27.144  1.00  0.00    -0.308 N 
ATOM     16  C   UNL A   1      30.383  23.124  26.878  1.00  0.00     0.319 C 
ATOM     17  H   UNL A   1      31.708  22.274  28.077  1.00  0.00     0.171 HD
ATOM     18  O   UNL A   1      29.458  22.935  27.672  1.00  0.00    -0.248 OA
ATOM     19  N   UNL A   1      30.166  23.988  25.859  1.00  0.00    -0.335 N 
ATOM     20  H   UNL A   1      29.222  24.252  25.765  1.00  0.00     0.165 HD
BRANCH  19  21
ATOM     21  C   UNL A   1      31.037  24.605  24.875  1.00  0.00     0.083 C 
ATOM     22  C   UNL A   1      30.845  24.102  23.445  1.00  0.00     0.025 C 
ATOM     23  C   UNL A   1      30.860  26.107  24.676  1.00  0.00     0.025 C 
ATOM     24  C   UNL A   1      31.717  25.072  22.645  1.00  0.00     0.002 C 
ATOM     25  C   UNL A   1      31.682  26.392  23.421  1.00  0.00     0.002 C 
ENDBRANCH  19  21
ENDBRANCH  14  15
ENDBRANCH   7   8
ENDBRANCH   3   6
ENDBRANCH   1   2
BRANCH   1  26
ATOM     26  C   UNL A   1      41.235  21.512  26.739  1.00  0.00     0.042 C 
BRANCH  26  27
ATOM     27  C   UNL A   1      42.249  22.381  26.019  1.00  0.00     0.118 C 
BRANCH  27  28
ATOM     28  N   UNL A   1      43.044  21.680  25.010  1.00  0.00    -0.352 N 
ATOM     29  C   UNL A   1      44.355  21.913  24.621  1.00  0.00     0.251 C 
ATOM     30  H   UNL A   1      42.587  20.943  24.544  1.00  0.00     0.163 HD
ATOM     31  O   UNL A   1      44.876  21.225  23.750  1.00  0.00    -0.269 OA
BRANCH  29  32
ATOM     32  C   UNL A   1      45.165  22.888  25.391  1.00  0.00     0.039 A 
ATOM     33  C   UNL A   1      45.356  22.600  26.746  1.00  0.00     0.014 A 
ATOM     34  C   UNL A   1      45.331  24.179  24.908  1.00  0.00     0.014 A 
ATOM     35  C   UNL A   1      45.339  23.650  27.654  1.00  0.00     0.010 A 
ATOM     36  C   UNL A   1      45.197  25.216  25.803  1.00  0.00     0.010 A 
ATOM     37  C   UNL A   1      45.108  24.935  27.169  1.00  0.00    -0.014 A 
BRANCH  37  38
ATOM     38  C   UNL A   1      44.764  26.054  28.024  1.00  0.00     0.031 A 
ATOM     39  C   UNL A   1      43.378  26.536  27.990  1.00  0.00     0.074 A 
ATOM     40  C   UNL A   1      45.681  26.671  28.799  1.00  0.00     0.049 A 
ATOM     41  N   UNL A   1      43.038  27.766  28.157  1.00  0.00    -0.248 NA
ATOM     42  C   UNL A   1      42.260  25.656  27.673  1.00  0.00     0.031 C 
ATOM     43  C   UNL A   1      45.448  27.694  29.815  1.00  0.00     0.029 A 
ATOM     44  N   UNL A   1      47.056  26.630  28.713  1.00  0.00    -0.354 N 
ATOM     45  C   UNL A   1      41.673  27.782  28.300  1.00  0.00     0.074 A 
ATOM     46  C   UNL A   1      41.228  26.482  27.859  1.00  0.00     0.031 C 
ATOM     47  C   UNL A   1      46.599  28.350  30.047  1.00  0.00     0.029 A 
ATOM     48  C   UNL A   1      47.583  27.864  29.099  1.00  0.00     0.049 A 
ATOM     49  H   UNL A   1      47.584  25.852  28.423  1.00  0.00     0.167 HD
ATOM     50  C   UNL A   1      41.091  28.833  28.941  1.00  0.00     0.031 A 
ATOM     51  C   UNL A   1      48.290  28.644  28.225  1.00  0.00     0.031 A 
ATOM     52  C   UNL A   1      42.081  29.856  29.298  1.00  0.00     0.049 A 
ATOM     53  C   UNL A   1      47.580  29.935  27.861  1.00  0.00     0.074 A 
ATOM     54  C   UNL A   1      42.737  30.168  30.479  1.00  0.00     0.029 A 
ATOM     55  N   UNL A   1      42.790  30.497  28.288  1.00  0.00    -0.354 N 
ATOM     56  N   UNL A   1      46.372  30.247  28.243  1.00  0.00    -0.248 NA
ATOM     57  C   UNL A   1      48.149  30.939  26.969  1.00  0.00     0.031 C 
ATOM     58  C   UNL A   1      43.865  30.977  30.162  1.00  0.00     0.029 A 
ATOM     59  C   UNL A   1      43.876  31.191  28.796  1.00  0.00     0.049 A 
ATOM     60  H   UNL A   1      42.549  30.462  27.334  1.00  0.00     0.167 HD
ATOM     61  C   UNL A   1      45.981  31.430  27.667  1.00  0.00     0.074 A 
ATOM     62  C   UNL A   1      47.137  31.818  26.871  1.00  0.00     0.031 C 
ATOM     63  C   UNL A   1      44.735  31.957  27.887  1.00  0.00     0.031 A 
BRANCH  50  64
ATOM     64  C   UNL A   1      39.696  28.761  29.518  1.00  0.00    -0.014 A 
ATOM     65  C   UNL A   1      38.598  29.149  28.732  1.00  0.00     0.009 A 
ATOM     66  C   UNL A   1      39.395  28.383  30.841  1.00  0.00     0.009 A 
ATOM     67  C   UNL A   1      37.303  29.251  29.260  1.00  0.00     0.001 A 
ATOM     68  C   UNL A   1      38.114  28.522  31.390  1.00  0.00     0.001 A 
ATOM     69  C   UNL A   1      37.065  28.967  30.599  1.00  0.00     0.000 A 
ENDBRANCH  50  64
BRANCH  51  70
ATOM     70  C   UNL A   1      49.136  27.828  27.303  1.00  0.00    -0.014 A 
ATOM     71  C   UNL A   1      50.254  27.192  27.884  1.00  0.00     0.009 A 
ATOM     72  C   UNL A   1      48.581  27.285  26.139  1.00  0.00     0.009 A 
ATOM     73  C   UNL A   1      50.632  25.915  27.468  1.00  0.00     0.001 A 
ATOM     74  C   UNL A   1      48.993  26.020  25.705  1.00  0.00     0.001 A 
ATOM     75  C   UNL A   1      49.960  25.306  26.414  1.00  0.00     0.000 A 
ENDBRANCH  51  70
BRANCH  63  76
ATOM     76  C   UNL A   1      44.155  33.232  27.291  1.00  0.00    -0.014 A 
ATOM     77  C   UNL A   1      44.035  33.516  25.928  1.00  0.00     0.009 A 
ATOM     78  C   UNL A   1      43.716  34.258  28.165  1.00  0.00     0.009 A 
ATOM     79  C   UNL A   1      43.444  34.702  25.464  1.00  0.00     0.001 A 
ATOM     80  C   UNL A   1      43.127  35.444  27.715  1.00  0.00     0.001 A 
ATOM     81  C   UNL A   1      42.978  35.660  26.357  1.00  0.00     0.000 A 
ENDBRANCH  63  76
ENDBRANCH  37  38
ENDBRANCH  29  32
ENDBRANCH  27  28
ENDBRANCH  26  27
ENDBRANCH   1  26
TORSDOF 13
ENDMDL
MODEL 3
REMARK VINA RESULT:     -11.8      3.626      9.222
REMARK SMILES Cc1ccc(NC(=O)NC2CCCC2)cc1/C=C/C(=O)NCCCNC(=O)c1ccc(-c2c3nc(c(-c4ccccc4)c4ccc([nH]4)c(-c4ccccc4)c4nc(c(-c5ccccc5)c5ccc2[nH]5)C=C4)C=C3)cc1
REMARK SMILES IDX 22 1 21 2 19 3 20 4 18 6 17 7 16 8 1 9 2 10 3 11 4 12 15 13
REMARK SMILES IDX 5 14 6 15 7 16 8 18 9 19 10 21 11 22 14 23 12 24 13 25 23 26
REMARK SMILES IDX 24 27 25 28 26 29 27 31 28 32 29 33 75 34 30 35 74 36 31 37
REMARK SMILES IDX 32 38 33 39 68 40 34 41 73 42 67 43 69 44 35 45 72 46 66 47
REMARK SMILES IDX 65 48 36 50 58 51 43 52 57 53 44 54 47 55 56 56 70 57 45 58
REMARK SMILES IDX 46 59 55 61 71 62 48 63 37 64 38 65 42 66 39 67 41 68 40 69
REMARK SMILES IDX 59 70 60 71 64 72 61 73 63 74 62 75 49 76 50 77 54 78 51 79
REMARK SMILES IDX 53 80 52 81
REMARK H PARENT 21 5 6 17 9 20 25 30 69 49 47 60
REMARK Flexibility Score: inf
ROOT
ATOM      1  C   UNL A   1      34.221  29.286  26.978  1.00  0.00     0.118 C 
ENDROOT
BRANCH   1   2
ATOM      2  N   UNL A   1      32.894  29.016  27.513  1.00  0.00    -0.352 N 
ATOM      3  C   UNL A   1      32.085  27.937  27.301  1.00  0.00     0.244 C 
ATOM      4  O   UNL A   1      31.024  27.823  27.913  1.00  0.00    -0.270 OA
ATOM      5  H   UNL A   1      32.531  29.706  28.113  1.00  0.00     0.163 HD
BRANCH   3   6
ATOM      6  C   UNL A   1      32.548  26.847  26.418  1.00  0.00     0.072 C 
ATOM      7  C   UNL A   1      31.717  26.024  25.761  1.00  0.00     0.014 C 
BRANCH   7   8
ATOM      8  C   UNL A   1      32.230  25.068  24.776  1.00  0.00    -0.020 A 
ATOM      9  C   UNL A   1      32.364  26.871  22.967  1.00  0.00     0.045 C 
ATOM     10  C   UNL A   1      32.660  25.499  23.503  1.00  0.00    -0.044 A 
ATOM     11  C   UNL A   1      33.305  24.588  22.662  1.00  0.00     0.006 A 
ATOM     12  C   UNL A   1      33.340  23.237  22.990  1.00  0.00     0.026 A 
ATOM     13  C   UNL A   1      32.247  23.701  25.084  1.00  0.00     0.034 A 
ATOM     14  C   UNL A   1      32.665  22.787  24.118  1.00  0.00     0.043 A 
BRANCH  14  15
ATOM     15  N   UNL A   1      32.316  21.443  24.278  1.00  0.00    -0.308 N 
ATOM     16  C   UNL A   1      32.887  20.454  25.007  1.00  0.00     0.319 C 
ATOM     17  H   UNL A   1      31.516  21.168  23.773  1.00  0.00     0.171 HD
ATOM     18  O   UNL A   1      32.228  19.438  25.243  1.00  0.00    -0.248 OA
ATOM     19  N   UNL A   1      34.187  20.457  25.382  1.00  0.00    -0.335 N 
ATOM     20  H   UNL A   1      34.429  19.697  25.959  1.00  0.00     0.165 HD
BRANCH  19  21
ATOM     21  C   UNL A   1      35.299  21.349  25.109  1.00  0.00     0.083 C 
ATOM     22  C   UNL A   1      35.552  22.405  26.184  1.00  0.00     0.025 C 
ATOM     23  C   UNL A   1      36.675  20.695  25.023  1.00  0.00     0.025 C 
ATOM     24  C   UNL A   1      36.877  23.018  25.726  1.00  0.00     0.002 C 
ATOM     25  C   UNL A   1      37.629  21.887  25.016  1.00  0.00     0.002 C 
ENDBRANCH  19  21
ENDBRANCH  14  15
ENDBRANCH   7   8
ENDBRANCH   3   6
ENDBRANCH   1   2
BRANCH   1  26
ATOM     26  C   UNL A   1      35.115  29.972  28.009  1.00  0.00     0.042 C 
BRANCH  26  27
ATOM     27  C   UNL A   1      35.378  31.430  27.679  1.00  0.00     0.118 C 
BRANCH  27  28
ATOM     28  N   UNL A   1      34.326  32.351  28.112  1.00  0.00    -0.352 N 
ATOM     29  C   UNL A   1      34.329  33.232  29.183  1.00  0.00     0.251 C 
ATOM     30  H   UNL A   1      33.505  32.346  27.568  1.00  0.00     0.163 HD
ATOM     31  O   UNL A   1      33.354  33.941  29.407  1.00  0.00    -0.269 OA
BRANCH  29  32
ATOM     32  C   UNL A   1      35.587  33.425  29.944  1.00  0.00     0.039 A 
ATOM     33  C   UNL A   1      36.604  34.127  29.291  1.00  0.00     0.014 A 
ATOM     34  C   UNL A   1      35.874  32.597  31.022  1.00  0.00     0.014 A 
ATOM     35  C   UNL A   1      37.917  33.713  29.471  1.00  0.00     0.010 A 
ATOM     36  C   UNL A   1      37.155  32.102  31.122  1.00  0.00     0.010 A 
ATOM     37  C   UNL A   1      38.150  32.601  30.277  1.00  0.00    -0.014 A 
BRANCH  37  38
ATOM     38  C   UNL A   1      39.414  31.890  30.300  1.00  0.00     0.031 A 
ATOM     39  C   UNL A   1      39.473  30.587  29.630  1.00  0.00     0.074 A 
ATOM     40  C   UNL A   1      40.496  32.376  30.946  1.00  0.00     0.049 A 
ATOM     41  N   UNL A   1      40.211  29.607  30.023  1.00  0.00    -0.248 NA
ATOM     42  C   UNL A   1      38.621  30.260  28.494  1.00  0.00     0.031 C 
ATOM     43  C   UNL A   1      41.859  31.853  30.920  1.00  0.00     0.029 A 
ATOM     44  N   UNL A   1      40.560  33.355  31.913  1.00  0.00    -0.354 N 
ATOM     45  C   UNL A   1      40.184  28.667  29.023  1.00  0.00     0.074 A 
ATOM     46  C   UNL A   1      39.086  29.052  28.167  1.00  0.00     0.031 C 
ATOM     47  C   UNL A   1      42.527  32.321  31.989  1.00  0.00     0.029 A 
ATOM     48  C   UNL A   1      41.585  33.055  32.812  1.00  0.00     0.049 A 
ATOM     49  H   UNL A   1      39.973  34.144  31.963  1.00  0.00     0.167 HD
ATOM     50  C   UNL A   1      41.203  27.769  28.937  1.00  0.00     0.031 A 
ATOM     51  C   UNL A   1      41.327  32.805  34.132  1.00  0.00     0.031 A 
ATOM     52  C   UNL A   1      42.148  27.924  30.049  1.00  0.00     0.049 A 
ATOM     53  C   UNL A   1      41.603  31.369  34.537  1.00  0.00     0.074 A 
ATOM     54  C   UNL A   1      43.387  28.536  30.160  1.00  0.00     0.029 A 
ATOM     55  N   UNL A   1      41.703  27.724  31.351  1.00  0.00    -0.354 N 
ATOM     56  N   UNL A   1      41.948  30.421  33.710  1.00  0.00    -0.248 NA
ATOM     57  C   UNL A   1      41.430  30.872  35.898  1.00  0.00     0.031 C 
ATOM     58  C   UNL A   1      43.666  28.730  31.543  1.00  0.00     0.029 A 
ATOM     59  C   UNL A   1      42.618  28.203  32.276  1.00  0.00     0.049 A 
ATOM     60  H   UNL A   1      40.848  27.297  31.585  1.00  0.00     0.167 HD
ATOM     61  C   UNL A   1      42.026  29.219  34.368  1.00  0.00     0.074 A 
ATOM     62  C   UNL A   1      41.683  29.562  35.741  1.00  0.00     0.031 C 
ATOM     63  C   UNL A   1      42.340  28.059  33.709  1.00  0.00     0.031 A 
BRANCH  50  64
ATOM     64  C   UNL A   1      41.495  26.990  27.674  1.00  0.00    -0.014 A 
ATOM     65  C   UNL A   1      40.942  25.710  27.505  1.00  0.00     0.009 A 
ATOM     66  C   UNL A   1      42.351  27.425  26.645  1.00  0.00     0.009 A 
ATOM     67  C   UNL A   1      41.300  24.880  26.432  1.00  0.00     0.001 A 
ATOM     68  C   UNL A   1      42.748  26.589  25.593  1.00  0.00     0.001 A 
ATOM     69  C   UNL A   1      42.227  25.308  25.491  1.00  0.00     0.000 A 
ENDBRANCH  50  64
BRANCH  51  70
ATOM     70  C   UNL A   1      40.221  33.660  34.659  1.00  0.00    -0.014 A 
ATOM     71  C   UNL A   1      38.965  33.034  34.801  1.00  0.00     0.009 A 
ATOM     72  C   UNL A   1      40.514  34.772  35.457  1.00  0.00     0.009 A 
ATOM     73  C   UNL A   1      38.142  33.343  35.885  1.00  0.00     0.001 A 
ATOM     74  C   UNL A   1      39.664  35.101  36.519  1.00  0.00     0.001 A 
ATOM     75  C   UNL A   1      38.523  34.339  36.777  1.00  0.00     0.000 A 
ENDBRANCH  51  70
BRANCH  63  76
ATOM     76  C   UNL A   1      42.426  26.658  34.297  1.00  0.00    -0.014 A 
ATOM     77  C   UNL A   1      41.505  26.084  35.178  1.00  0.00     0.009 A 
ATOM     78  C   UNL A   1      43.541  25.845  33.971  1.00  0.00     0.009 A 
ATOM     79  C   UNL A   1      41.639  24.764  35.637  1.00  0.00     0.001 A 
ATOM     80  C   UNL A   1      43.685  24.530  34.423  1.00  0.00     0.001 A 
ATOM     81  C   UNL A   1      42.720  23.983  35.250  1.00  0.00     0.000 A 
ENDBRANCH  63  76
ENDBRANCH  37  38
ENDBRANCH  29  32
ENDBRANCH  27  28
ENDBRANCH  26  27
ENDBRANCH   1  26
TORSDOF 13
ENDMDL
