MODEL 1
REMARK VINA RESULT:     -12.8      0.000      0.000
REMARK SMILES O=C(NCCCNC(=O)c1coc2c1/C(=N\Nc1ccccc1)CCC2)c1ccc(-c2c3nc(c(-c4ccccc4)c4ccc([nH]4)c(-c4ccccc4)c4nc(c(-c5ccccc5)c5ccc2[nH]5)C=C4)C=C3)cc1
REMARK SMILES IDX 5 1 4 2 3 3 1 4 2 5 27 7 28 8 74 9 29 10 73 11 30 12 31 13
REMARK SMILES IDX 32 14 67 15 33 16 72 17 66 18 68 19 34 20 71 21 65 22 64 23
REMARK SMILES IDX 35 25 57 26 42 27 56 28 43 29 46 30 55 31 69 32 44 33 45 34
REMARK SMILES IDX 54 36 70 37 47 38 36 39 37 40 41 41 38 42 40 43 39 44 58 45
REMARK SMILES IDX 59 46 63 47 60 48 62 49 61 50 48 51 49 52 53 53 50 54 52 55
REMARK SMILES IDX 51 56 6 57 7 58 8 59 9 61 10 62 11 63 14 64 12 65 13 66
REMARK SMILES IDX 15 67 26 68 16 69 24 70 25 71 17 72 18 74 19 75 23 76 20 77
REMARK SMILES IDX 22 78 21 79
REMARK H PARENT 3 6 68 24 46 35 7 60 17 73
REMARK Flexibility Score: inf
ROOT
ATOM      1  C   UNL A   1      38.485  21.334  25.723  1.00  0.00     0.042 C 
ENDROOT
BRANCH   1   2
ATOM      2  C   UNL A   1      38.421  19.843  25.397  1.00  0.00     0.118 C 
BRANCH   2   3
ATOM      3  N   UNL A   1      39.689  19.140  25.460  1.00  0.00    -0.352 N 
ATOM      4  O   UNL A   1      41.792  18.543  25.784  1.00  0.00    -0.269 OA
ATOM      5  C   UNL A   1      40.941  19.425  25.924  1.00  0.00     0.251 C 
ATOM      6  H   UNL A   1      39.634  18.236  25.072  1.00  0.00     0.163 HD
BRANCH   5   7
ATOM      7  C   UNL A   1      41.361  20.725  26.511  1.00  0.00     0.039 A 
ATOM      8  C   UNL A   1      41.931  21.788  25.811  1.00  0.00     0.014 A 
ATOM      9  C   UNL A   1      41.126  20.875  27.891  1.00  0.00     0.014 A 
ATOM     10  C   UNL A   1      42.345  22.935  26.490  1.00  0.00     0.010 A 
ATOM     11  C   UNL A   1      41.502  22.028  28.566  1.00  0.00     0.010 A 
ATOM     12  C   UNL A   1      42.138  23.051  27.870  1.00  0.00    -0.014 A 
BRANCH  12  13
ATOM     13  C   UNL A   1      42.352  24.353  28.506  1.00  0.00     0.031 A 
ATOM     14  C   UNL A   1      41.285  25.353  28.192  1.00  0.00     0.074 A 
ATOM     15  C   UNL A   1      43.290  24.597  29.446  1.00  0.00     0.049 A 
ATOM     16  N   UNL A   1      41.417  26.520  27.650  1.00  0.00    -0.248 NA
ATOM     17  C   UNL A   1      39.883  24.952  28.407  1.00  0.00     0.031 C 
ATOM     18  C   UNL A   1      44.207  23.641  30.073  1.00  0.00     0.029 A 
ATOM     19  N   UNL A   1      43.540  25.750  30.135  1.00  0.00    -0.354 N 
ATOM     20  C   UNL A   1      40.138  27.072  27.604  1.00  0.00     0.074 A 
ATOM     21  C   UNL A   1      39.222  26.018  27.953  1.00  0.00     0.031 C 
ATOM     22  C   UNL A   1      44.728  24.190  31.196  1.00  0.00     0.029 A 
ATOM     23  C   UNL A   1      44.289  25.572  31.296  1.00  0.00     0.049 A 
ATOM     24  H   UNL A   1      43.217  26.630  29.837  1.00  0.00     0.167 HD
ATOM     25  C   UNL A   1      39.933  28.413  27.492  1.00  0.00     0.031 A 
ATOM     26  C   UNL A   1      44.486  26.475  32.293  1.00  0.00     0.031 A 
ATOM     27  C   UNL A   1      41.102  29.098  27.014  1.00  0.00     0.049 A 
ATOM     28  C   UNL A   1      44.159  27.815  31.758  1.00  0.00     0.074 A 
ATOM     29  C   UNL A   1      41.854  29.045  25.858  1.00  0.00     0.029 A 
ATOM     30  N   UNL A   1      41.887  29.730  27.947  1.00  0.00    -0.354 N 
ATOM     31  N   UNL A   1      44.868  28.417  30.849  1.00  0.00    -0.248 NA
ATOM     32  C   UNL A   1      42.795  28.294  31.910  1.00  0.00     0.031 C 
ATOM     33  C   UNL A   1      43.204  29.185  26.296  1.00  0.00     0.029 A 
ATOM     34  C   UNL A   1      43.187  29.393  27.676  1.00  0.00     0.049 A 
ATOM     35  H   UNL A   1      41.574  30.315  28.673  1.00  0.00     0.167 HD
ATOM     36  C   UNL A   1      43.933  29.010  30.017  1.00  0.00     0.074 A 
ATOM     37  C   UNL A   1      42.680  28.982  30.771  1.00  0.00     0.031 C 
ATOM     38  C   UNL A   1      44.198  29.209  28.692  1.00  0.00     0.031 A 
BRANCH  25  39
ATOM     39  C   UNL A   1      38.816  29.139  28.201  1.00  0.00    -0.014 A 
ATOM     40  C   UNL A   1      38.683  28.993  29.594  1.00  0.00     0.009 A 
ATOM     41  C   UNL A   1      37.726  29.714  27.519  1.00  0.00     0.009 A 
ATOM     42  C   UNL A   1      37.496  29.337  30.253  1.00  0.00     0.001 A 
ATOM     43  C   UNL A   1      36.555  30.095  28.180  1.00  0.00     0.001 A 
ATOM     44  C   UNL A   1      36.430  29.879  29.543  1.00  0.00     0.000 A 
ENDBRANCH  25  39
BRANCH  26  45
ATOM     45  C   UNL A   1      44.653  26.253  33.748  1.00  0.00    -0.014 A 
ATOM     46  C   UNL A   1      45.510  27.065  34.512  1.00  0.00     0.009 A 
ATOM     47  C   UNL A   1      43.748  25.429  34.442  1.00  0.00     0.009 A 
ATOM     48  C   UNL A   1      45.433  27.081  35.914  1.00  0.00     0.001 A 
ATOM     49  C   UNL A   1      43.673  25.445  35.840  1.00  0.00     0.001 A 
ATOM     50  C   UNL A   1      44.506  26.282  36.575  1.00  0.00     0.000 A 
ENDBRANCH  26  45
BRANCH  38  51
ATOM     51  C   UNL A   1      45.608  28.973  28.207  1.00  0.00    -0.014 A 
ATOM     52  C   UNL A   1      46.097  27.708  27.834  1.00  0.00     0.009 A 
ATOM     53  C   UNL A   1      46.421  30.093  27.981  1.00  0.00     0.009 A 
ATOM     54  C   UNL A   1      47.374  27.570  27.278  1.00  0.00     0.001 A 
ATOM     55  C   UNL A   1      47.686  29.957  27.407  1.00  0.00     0.001 A 
ATOM     56  C   UNL A   1      48.165  28.696  27.061  1.00  0.00     0.000 A 
ENDBRANCH  38  51
ENDBRANCH  12  13
ENDBRANCH   5   7
ENDBRANCH   2   3
ENDBRANCH   1   2
BRANCH   1  57
ATOM     57  C   UNL A   1      37.129  22.037  25.700  1.00  0.00     0.118 C 
BRANCH  57  58
ATOM     58  N   UNL A   1      36.779  22.528  24.354  1.00  0.00    -0.352 N 
ATOM     59  C   UNL A   1      35.866  23.385  23.546  1.00  0.00     0.255 C 
ATOM     60  H   UNL A   1      37.415  22.117  23.726  1.00  0.00     0.163 HD
ATOM     61  O   UNL A   1      36.524  23.066  22.464  1.00  0.00    -0.269 OA
BRANCH  59  62
ATOM     62  C   UNL A   1      34.193  24.582  23.831  1.00  0.00     0.087 A 
ATOM     63  C   UNL A   1      33.805  25.938  23.362  1.00  0.00     0.209 A 
ATOM     64  C   UNL A   1      32.796  24.429  24.728  1.00  0.00     0.052 A 
ATOM     65  O   UNL A   1      32.836  26.569  24.051  1.00  0.00    -0.468 OA
ATOM     66  C   UNL A   1      32.300  25.702  24.902  1.00  0.00     0.113 A 
ATOM     67  C   UNL A   1      32.081  23.353  25.480  1.00  0.00     0.072 C 
ATOM     68  C   UNL A   1      31.305  26.202  25.873  1.00  0.00     0.076 C 
ATOM     69  N   UNL A   1      32.208  22.065  25.318  1.00  0.00    -0.179 NA
ATOM     70  C   UNL A   1      31.070  23.786  26.551  1.00  0.00     0.059 C 
ATOM     71  C   UNL A   1      30.329  25.075  26.195  1.00  0.00     0.014 C 
BRANCH  69  72
ATOM     72  N   UNL A   1      33.081  21.608  24.408  1.00  0.00    -0.278 N 
ATOM     73  H   UNL A   1      33.641  22.219  23.876  1.00  0.00     0.190 HD
BRANCH  72  74
ATOM     74  C   UNL A   1      33.155  20.226  24.255  1.00  0.00     0.056 A 
ATOM     75  C   UNL A   1      32.205  19.474  22.888  1.00  0.00     0.027 A 
ATOM     76  C   UNL A   1      34.605  19.354  24.978  1.00  0.00     0.027 A 
ATOM     77  C   UNL A   1      32.552  17.751  22.419  1.00  0.00     0.002 A 
ATOM     78  C   UNL A   1      35.073  17.714  24.330  1.00  0.00     0.002 A 
ATOM     79  C   UNL A   1      33.967  16.856  23.154  1.00  0.00     0.000 A 
ENDBRANCH  72  74
ENDBRANCH  69  72
ENDBRANCH  59  62
ENDBRANCH  57  58
ENDBRANCH   1  57
TORSDOF 12
ENDMDL
MODEL 2
REMARK VINA RESULT:     -12.7      2.835      7.835
REMARK SMILES O=C(NCCCNC(=O)c1coc2c1/C(=N\Nc1ccccc1)CCC2)c1ccc(-c2c3nc(c(-c4ccccc4)c4ccc([nH]4)c(-c4ccccc4)c4nc(c(-c5ccccc5)c5ccc2[nH]5)C=C4)C=C3)cc1
REMARK SMILES IDX 5 1 4 2 3 3 1 4 2 5 27 7 28 8 74 9 29 10 73 11 30 12 31 13
REMARK SMILES IDX 32 14 67 15 33 16 72 17 66 18 68 19 34 20 71 21 65 22 64 23
REMARK SMILES IDX 35 25 57 26 42 27 56 28 43 29 46 30 55 31 69 32 44 33 45 34
REMARK SMILES IDX 54 36 70 37 47 38 36 39 37 40 41 41 38 42 40 43 39 44 58 45
REMARK SMILES IDX 59 46 63 47 60 48 62 49 61 50 48 51 49 52 53 53 50 54 52 55
REMARK SMILES IDX 51 56 6 57 7 58 8 59 9 61 10 62 11 63 14 64 12 65 13 66
REMARK SMILES IDX 15 67 26 68 16 69 24 70 25 71 17 72 18 74 19 75 23 76 20 77
REMARK SMILES IDX 22 78 21 79
REMARK H PARENT 3 6 68 24 46 35 7 60 17 73
REMARK Flexibility Score: inf
ROOT
ATOM      1  C   UNL A   1      33.780  31.237  27.657  1.00  0.00     0.042 C 
ENDROOT
BRANCH   1   2
ATOM      2  C   UNL A   1      34.771  32.235  28.255  1.00  0.00     0.118 C 
BRANCH   2   3
ATOM      3  N   UNL A   1      34.765  32.321  29.704  1.00  0.00    -0.352 N 
ATOM      4  O   UNL A   1      35.227  32.165  31.859  1.00  0.00    -0.269 OA
ATOM      5  C   UNL A   1      35.589  31.904  30.710  1.00  0.00     0.251 C 
ATOM      6  H   UNL A   1      33.973  32.797  30.045  1.00  0.00     0.163 HD
BRANCH   5   7
ATOM      7  C   UNL A   1      36.832  31.111  30.524  1.00  0.00     0.039 A 
ATOM      8  C   UNL A   1      38.127  31.627  30.474  1.00  0.00     0.014 A 
ATOM      9  C   UNL A   1      36.656  29.718  30.417  1.00  0.00     0.014 A 
ATOM     10  C   UNL A   1      39.211  30.782  30.227  1.00  0.00     0.010 A 
ATOM     11  C   UNL A   1      37.735  28.869  30.207  1.00  0.00     0.010 A 
ATOM     12  C   UNL A   1      39.012  29.403  30.085  1.00  0.00    -0.014 A 
BRANCH  12  13
ATOM     13  C   UNL A   1      40.183  28.522  30.076  1.00  0.00     0.031 A 
ATOM     14  C   UNL A   1      40.807  28.347  31.424  1.00  0.00     0.074 A 
ATOM     15  C   UNL A   1      40.561  27.768  29.022  1.00  0.00     0.049 A 
ATOM     16  N   UNL A   1      42.026  28.596  31.779  1.00  0.00    -0.248 NA
ATOM     17  C   UNL A   1      39.931  27.951  32.542  1.00  0.00     0.031 C 
ATOM     18  C   UNL A   1      39.874  27.605  27.738  1.00  0.00     0.029 A 
ATOM     19  N   UNL A   1      41.596  26.881  28.924  1.00  0.00    -0.354 N 
ATOM     20  C   UNL A   1      42.118  28.235  33.122  1.00  0.00     0.074 A 
ATOM     21  C   UNL A   1      40.776  27.976  33.572  1.00  0.00     0.031 C 
ATOM     22  C   UNL A   1      40.365  26.515  27.102  1.00  0.00     0.029 A 
ATOM     23  C   UNL A   1      41.483  25.984  27.865  1.00  0.00     0.049 A 
ATOM     24  H   UNL A   1      42.355  26.877  29.550  1.00  0.00     0.167 HD
ATOM     25  C   UNL A   1      43.313  27.964  33.717  1.00  0.00     0.031 A 
ATOM     26  C   UNL A   1      42.215  24.858  27.661  1.00  0.00     0.031 A 
ATOM     27  C   UNL A   1      44.419  28.490  32.966  1.00  0.00     0.049 A 
ATOM     28  C   UNL A   1      43.440  24.962  28.484  1.00  0.00     0.074 A 
ATOM     29  C   UNL A   1      44.819  29.753  32.580  1.00  0.00     0.029 A 
ATOM     30  N   UNL A   1      45.108  27.614  32.163  1.00  0.00    -0.354 N 
ATOM     31  N   UNL A   1      44.389  25.819  28.252  1.00  0.00    -0.248 NA
ATOM     32  C   UNL A   1      43.403  24.414  29.830  1.00  0.00     0.031 C 
ATOM     33  C   UNL A   1      45.324  29.585  31.257  1.00  0.00     0.029 A 
ATOM     34  C   UNL A   1      45.276  28.225  30.948  1.00  0.00     0.049 A 
ATOM     35  H   UNL A   1      45.422  26.716  32.414  1.00  0.00     0.167 HD
ATOM     36  C   UNL A   1      44.770  26.263  29.508  1.00  0.00     0.074 A 
ATOM     37  C   UNL A   1      44.197  25.295  30.443  1.00  0.00     0.031 C 
ATOM     38  C   UNL A   1      45.269  27.521  29.687  1.00  0.00     0.031 A 
BRANCH  25  39
ATOM     39  C   UNL A   1      43.492  26.879  34.751  1.00  0.00    -0.014 A 
ATOM     40  C   UNL A   1      43.385  25.534  34.354  1.00  0.00     0.009 A 
ATOM     41  C   UNL A   1      43.467  27.133  36.136  1.00  0.00     0.009 A 
ATOM     42  C   UNL A   1      43.190  24.511  35.291  1.00  0.00     0.001 A 
ATOM     43  C   UNL A   1      43.312  26.111  37.075  1.00  0.00     0.001 A 
ATOM     44  C   UNL A   1      43.145  24.803  36.650  1.00  0.00     0.000 A 
ENDBRANCH  25  39
BRANCH  26  45
ATOM     45  C   UNL A   1      41.817  23.572  27.042  1.00  0.00    -0.014 A 
ATOM     46  C   UNL A   1      42.642  22.935  26.098  1.00  0.00     0.009 A 
ATOM     47  C   UNL A   1      40.763  22.823  27.595  1.00  0.00     0.009 A 
ATOM     48  C   UNL A   1      42.442  21.588  25.755  1.00  0.00     0.001 A 
ATOM     49  C   UNL A   1      40.564  21.480  27.251  1.00  0.00     0.001 A 
ATOM     50  C   UNL A   1      41.413  20.859  26.341  1.00  0.00     0.000 A 
ENDBRANCH  26  45
BRANCH  38  51
ATOM     51  C   UNL A   1      45.603  28.333  28.459  1.00  0.00    -0.014 A 
ATOM     52  C   UNL A   1      44.677  29.167  27.806  1.00  0.00     0.009 A 
ATOM     53  C   UNL A   1      46.940  28.368  28.038  1.00  0.00     0.009 A 
ATOM     54  C   UNL A   1      45.077  29.987  26.745  1.00  0.00     0.001 A 
ATOM     55  C   UNL A   1      47.343  29.202  26.994  1.00  0.00     0.001 A 
ATOM     56  C   UNL A   1      46.411  30.007  26.343  1.00  0.00     0.000 A 
ENDBRANCH  38  51
ENDBRANCH  12  13
ENDBRANCH   5   7
ENDBRANCH   2   3
ENDBRANCH   1   2
BRANCH   1  57
ATOM     57  C   UNL A   1      34.406  29.905  27.250  1.00  0.00     0.118 C 
BRANCH  57  58
ATOM     58  N   UNL A   1      34.052  29.523  25.869  1.00  0.00    -0.352 N 
ATOM     59  C   UNL A   1      33.656  28.416  24.953  1.00  0.00     0.255 C 
ATOM     60  H   UNL A   1      34.095  30.342  25.326  1.00  0.00     0.163 HD
ATOM     61  O   UNL A   1      33.582  29.264  23.961  1.00  0.00    -0.269 OA
BRANCH  59  62
ATOM     62  C   UNL A   1      33.362  26.361  25.024  1.00  0.00     0.087 A 
ATOM     63  C   UNL A   1      33.330  25.363  26.125  1.00  0.00     0.209 A 
ATOM     64  C   UNL A   1      33.140  25.180  23.869  1.00  0.00     0.052 A 
ATOM     65  O   UNL A   1      33.512  24.073  25.786  1.00  0.00    -0.468 OA
ATOM     66  C   UNL A   1      33.476  23.984  24.462  1.00  0.00     0.113 A 
ATOM     67  C   UNL A   1      32.849  25.111  22.404  1.00  0.00     0.072 C 
ATOM     68  C   UNL A   1      33.794  22.680  23.842  1.00  0.00     0.076 C 
ATOM     69  N   UNL A   1      32.303  26.040  21.668  1.00  0.00    -0.179 NA
ATOM     70  C   UNL A   1      33.203  23.812  21.669  1.00  0.00     0.059 C 
ATOM     71  C   UNL A   1      33.022  22.562  22.532  1.00  0.00     0.014 C 
BRANCH  69  72
ATOM     72  N   UNL A   1      31.975  27.210  22.237  1.00  0.00    -0.278 N 
ATOM     73  H   UNL A   1      32.661  27.840  22.556  1.00  0.00     0.190 HD
BRANCH  72  74
ATOM     74  C   UNL A   1      30.615  27.486  22.352  1.00  0.00     0.056 A 
ATOM     75  C   UNL A   1      29.612  26.374  23.398  1.00  0.00     0.027 A 
ATOM     76  C   UNL A   1      30.051  29.201  21.998  1.00  0.00     0.027 A 
ATOM     77  C   UNL A   1      27.934  26.892  23.876  1.00  0.00     0.002 A 
ATOM     78  C   UNL A   1      28.461  29.776  22.684  1.00  0.00     0.002 A 
ATOM     79  C   UNL A   1      27.343  28.581  23.501  1.00  0.00     0.000 A 
ENDBRANCH  72  74
ENDBRANCH  69  72
ENDBRANCH  59  62
ENDBRANCH  57  58
ENDBRANCH   1  57
TORSDOF 12
ENDMDL
MODEL 3
REMARK VINA RESULT:     -12.6      2.758      6.479
REMARK SMILES O=C(NCCCNC(=O)c1coc2c1/C(=N\Nc1ccccc1)CCC2)c1ccc(-c2c3nc(c(-c4ccccc4)c4ccc([nH]4)c(-c4ccccc4)c4nc(c(-c5ccccc5)c5ccc2[nH]5)C=C4)C=C3)cc1
REMARK SMILES IDX 5 1 4 2 3 3 1 4 2 5 27 7 28 8 74 9 29 10 73 11 30 12 31 13
REMARK SMILES IDX 32 14 67 15 33 16 72 17 66 18 68 19 34 20 71 21 65 22 64 23
REMARK SMILES IDX 35 25 57 26 42 27 56 28 43 29 46 30 55 31 69 32 44 33 45 34
REMARK SMILES IDX 54 36 70 37 47 38 36 39 37 40 41 41 38 42 40 43 39 44 58 45
REMARK SMILES IDX 59 46 63 47 60 48 62 49 61 50 48 51 49 52 53 53 50 54 52 55
REMARK SMILES IDX 51 56 6 57 7 58 8 59 9 61 10 62 11 63 14 64 12 65 13 66
REMARK SMILES IDX 15 67 26 68 16 69 24 70 25 71 17 72 18 74 19 75 23 76 20 77
REMARK SMILES IDX 22 78 21 79
REMARK H PARENT 3 6 68 24 46 35 7 60 17 73
REMARK Flexibility Score: inf
ROOT
ATOM      1  C   UNL A   1      38.447  21.882  25.761  1.00  0.00     0.042 C 
ENDROOT
BRANCH   1   2
ATOM      2  C   UNL A   1      39.631  22.139  26.691  1.00  0.00     0.118 C 
BRANCH   2   3
ATOM      3  N   UNL A   1      40.893  22.413  26.026  1.00  0.00    -0.352 N 
ATOM      4  O   UNL A   1      42.778  23.305  25.295  1.00  0.00    -0.269 OA
ATOM      5  C   UNL A   1      41.795  23.438  26.027  1.00  0.00     0.251 C 
ATOM      6  H   UNL A   1      41.165  21.679  25.428  1.00  0.00     0.163 HD
BRANCH   5   7
ATOM      7  C   UNL A   1      41.643  24.710  26.781  1.00  0.00     0.039 A 
ATOM      8  C   UNL A   1      42.296  25.036  27.970  1.00  0.00     0.014 A 
ATOM      9  C   UNL A   1      40.775  25.659  26.207  1.00  0.00     0.014 A 
ATOM     10  C   UNL A   1      42.017  26.239  28.618  1.00  0.00     0.010 A 
ATOM     11  C   UNL A   1      40.521  26.874  26.829  1.00  0.00     0.010 A 
ATOM     12  C   UNL A   1      41.122  27.155  28.051  1.00  0.00    -0.014 A 
BRANCH  12  13
ATOM     13  C   UNL A   1      41.040  28.502  28.621  1.00  0.00     0.031 A 
ATOM     14  C   UNL A   1      42.200  29.374  28.259  1.00  0.00     0.074 A 
ATOM     15  C   UNL A   1      39.949  29.003  29.239  1.00  0.00     0.049 A 
ATOM     16  N   UNL A   1      43.021  29.982  29.052  1.00  0.00    -0.248 NA
ATOM     17  C   UNL A   1      42.555  29.490  26.833  1.00  0.00     0.031 C 
ATOM     18  C   UNL A   1      38.636  28.373  29.400  1.00  0.00     0.029 A 
ATOM     19  N   UNL A   1      39.749  30.252  29.755  1.00  0.00    -0.354 N 
ATOM     20  C   UNL A   1      43.898  30.690  28.232  1.00  0.00     0.074 A 
ATOM     21  C   UNL A   1      43.652  30.245  26.886  1.00  0.00     0.031 C 
ATOM     22  C   UNL A   1      37.726  29.315  29.746  1.00  0.00     0.029 A 
ATOM     23  C   UNL A   1      38.410  30.579  29.960  1.00  0.00     0.049 A 
ATOM     24  H   UNL A   1      40.488  30.868  29.964  1.00  0.00     0.167 HD
ATOM     25  C   UNL A   1      44.617  31.752  28.689  1.00  0.00     0.031 A 
ATOM     26  C   UNL A   1      37.897  31.808  30.229  1.00  0.00     0.031 A 
ATOM     27  C   UNL A   1      44.693  31.772  30.124  1.00  0.00     0.049 A 
ATOM     28  C   UNL A   1      39.005  32.664  30.710  1.00  0.00     0.074 A 
ATOM     29  C   UNL A   1      45.207  30.922  31.082  1.00  0.00     0.029 A 
ATOM     30  N   UNL A   1      43.836  32.616  30.788  1.00  0.00    -0.354 N 
ATOM     31  N   UNL A   1      39.606  32.485  31.848  1.00  0.00    -0.248 NA
ATOM     32  C   UNL A   1      39.739  33.442  29.726  1.00  0.00     0.031 C 
ATOM     33  C   UNL A   1      44.265  30.969  32.151  1.00  0.00     0.029 A 
ATOM     34  C   UNL A   1      43.281  31.901  31.816  1.00  0.00     0.049 A 
ATOM     35  H   UNL A   1      43.655  33.557  30.566  1.00  0.00     0.167 HD
ATOM     36  C   UNL A   1      40.945  32.714  31.573  1.00  0.00     0.074 A 
ATOM     37  C   UNL A   1      40.955  33.392  30.277  1.00  0.00     0.031 C 
ATOM     38  C   UNL A   1      41.926  32.084  32.282  1.00  0.00     0.031 A 
BRANCH  25  39
ATOM     39  C   UNL A   1      44.896  32.979  27.857  1.00  0.00    -0.014 A 
ATOM     40  C   UNL A   1      43.834  33.845  27.539  1.00  0.00     0.009 A 
ATOM     41  C   UNL A   1      46.092  33.155  27.133  1.00  0.00     0.009 A 
ATOM     42  C   UNL A   1      43.943  34.783  26.505  1.00  0.00     0.001 A 
ATOM     43  C   UNL A   1      46.217  34.117  26.128  1.00  0.00     0.001 A 
ATOM     44  C   UNL A   1      45.132  34.912  25.795  1.00  0.00     0.000 A 
ENDBRANCH  25  39
BRANCH  26  45
ATOM     45  C   UNL A   1      36.594  32.395  29.835  1.00  0.00    -0.014 A 
ATOM     46  C   UNL A   1      35.793  33.075  30.769  1.00  0.00     0.009 A 
ATOM     47  C   UNL A   1      36.273  32.541  28.473  1.00  0.00     0.009 A 
ATOM     48  C   UNL A   1      34.737  33.901  30.351  1.00  0.00     0.001 A 
ATOM     49  C   UNL A   1      35.219  33.364  28.057  1.00  0.00     0.001 A 
ATOM     50  C   UNL A   1      34.461  34.055  28.996  1.00  0.00     0.000 A 
ENDBRANCH  26  45
BRANCH  38  51
ATOM     51  C   UNL A   1      41.525  31.307  33.513  1.00  0.00    -0.014 A 
ATOM     52  C   UNL A   1      41.143  29.953  33.484  1.00  0.00     0.009 A 
ATOM     53  C   UNL A   1      41.680  31.926  34.760  1.00  0.00     0.009 A 
ATOM     54  C   UNL A   1      40.898  29.253  34.671  1.00  0.00     0.001 A 
ATOM     55  C   UNL A   1      41.456  31.222  35.945  1.00  0.00     0.001 A 
ATOM     56  C   UNL A   1      41.059  29.887  35.900  1.00  0.00     0.000 A 
ENDBRANCH  38  51
ENDBRANCH  12  13
ENDBRANCH   5   7
ENDBRANCH   2   3
ENDBRANCH   1   2
BRANCH   1  57
ATOM     57  C   UNL A   1      37.491  23.065  25.627  1.00  0.00     0.118 C 
BRANCH  57  58
ATOM     58  N   UNL A   1      36.774  23.058  24.337  1.00  0.00    -0.352 N 
ATOM     59  C   UNL A   1      35.624  23.596  23.555  1.00  0.00     0.255 C 
ATOM     60  H   UNL A   1      37.258  22.439  23.745  1.00  0.00     0.163 HD
ATOM     61  O   UNL A   1      36.008  22.902  22.516  1.00  0.00    -0.269 OA
BRANCH  59  62
ATOM     62  C   UNL A   1      33.995  24.851  23.841  1.00  0.00     0.087 A 
ATOM     63  C   UNL A   1      33.689  26.249  23.439  1.00  0.00     0.209 A 
ATOM     64  C   UNL A   1      32.554  24.711  24.668  1.00  0.00     0.052 A 
ATOM     65  O   UNL A   1      32.719  26.883  24.123  1.00  0.00    -0.468 OA
ATOM     66  C   UNL A   1      32.108  25.994  24.897  1.00  0.00     0.113 A 
ATOM     67  C   UNL A   1      31.760  23.628  25.324  1.00  0.00     0.072 C 
ATOM     68  C   UNL A   1      31.094  26.482  25.855  1.00  0.00     0.076 C 
ATOM     69  N   UNL A   1      31.836  22.347  25.090  1.00  0.00    -0.179 NA
ATOM     70  C   UNL A   1      30.723  24.045  26.375  1.00  0.00     0.059 C 
ATOM     71  C   UNL A   1      30.055  25.386  26.067  1.00  0.00     0.014 C 
BRANCH  69  72
ATOM     72  N   UNL A   1      32.728  21.904  24.192  1.00  0.00    -0.278 N 
ATOM     73  H   UNL A   1      33.180  22.515  23.566  1.00  0.00     0.190 HD
BRANCH  72  74
ATOM     74  C   UNL A   1      32.982  20.534  24.191  1.00  0.00     0.056 A 
ATOM     75  C   UNL A   1      32.108  19.513  22.955  1.00  0.00     0.027 A 
ATOM     76  C   UNL A   1      34.554  19.948  24.947  1.00  0.00     0.027 A 
ATOM     77  C   UNL A   1      32.670  17.806  22.667  1.00  0.00     0.002 A 
ATOM     78  C   UNL A   1      35.221  18.320  24.467  1.00  0.00     0.002 A 
ATOM     79  C   UNL A   1      34.210  17.195  23.439  1.00  0.00     0.000 A 
ENDBRANCH  72  74
ENDBRANCH  69  72
ENDBRANCH  59  62
ENDBRANCH  57  58
ENDBRANCH   1  57
TORSDOF 12
ENDMDL
