MODEL 1
REMARK VINA RESULT:     -10.4      0.000      0.000
REMARK SMILES CC(C)Cc1ccc([C@H](CF)C(=O)NCCCNC(=O)c2ccc(-c3c4nc(c(-c5ccccc5)c5ccc([nH]5)c(-c5ccccc5)c5nc(c(-c6ccccc6)c6ccc3[nH]6)C=C5)C=C4)cc2)cc1
REMARK SMILES IDX 15 1 14 2 12 3 13 4 9 6 8 7 5 8 6 9 70 10 7 11 69 12 4 13
REMARK SMILES IDX 2 14 1 15 3 16 10 17 11 18 16 19 17 20 18 21 19 22 20 24
REMARK SMILES IDX 21 25 22 26 68 27 23 28 67 29 24 30 25 31 26 32 61 33 27 34
REMARK SMILES IDX 66 35 60 36 62 37 28 38 65 39 59 40 58 41 29 43 51 44 36 45
REMARK SMILES IDX 50 46 37 47 40 48 49 49 63 50 38 51 39 52 48 54 64 55 41 56
REMARK SMILES IDX 30 57 31 58 35 59 32 60 34 61 33 62 52 63 53 64 57 65 54 66
REMARK SMILES IDX 56 67 55 68 42 69 43 70 47 71 44 72 46 73 45 74
REMARK H PARENT 14 5 18 23 62 42 40 53
REMARK Flexibility Score: inf
ROOT
ATOM      1  C   UNL A   1      36.546  20.671  24.833  1.00  0.00     0.117 C 
ENDROOT
BRANCH   1   2
ATOM      2  N   UNL A   1      35.294  20.172  25.377  1.00  0.00    -0.355 N 
ATOM      3  C   UNL A   1      34.006  20.501  25.078  1.00  0.00     0.230 C 
ATOM      4  O   UNL A   1      33.116  19.887  25.672  1.00  0.00    -0.274 OA
ATOM      5  H   UNL A   1      35.394  19.482  26.073  1.00  0.00     0.163 HD
BRANCH   3   6
ATOM      6  C   UNL A   1      33.665  21.614  24.095  1.00  0.00     0.139 C 
BRANCH   6   7
ATOM      7  C   UNL A   1      33.480  22.985  24.740  1.00  0.00    -0.033 A 
ATOM      8  C   UNL A   1      33.098  25.584  25.801  1.00  0.00    -0.048 A 
ATOM      9  C   UNL A   1      32.181  24.562  26.064  1.00  0.00     0.004 A 
ATOM     10  C   UNL A   1      34.230  25.292  25.034  1.00  0.00     0.004 A 
ATOM     11  C   UNL A   1      32.357  23.287  25.524  1.00  0.00     0.005 A 
ATOM     12  C   UNL A   1      34.414  24.010  24.506  1.00  0.00     0.005 A 
BRANCH   8  13
ATOM     13  C   UNL A   1      32.825  26.992  26.271  1.00  0.00     0.038 C 
BRANCH  13  14
ATOM     14  C   UNL A   1      33.854  28.019  25.747  1.00  0.00    -0.013 C 
ATOM     15  C   UNL A   1      33.290  28.911  24.634  1.00  0.00     0.008 C 
ATOM     16  C   UNL A   1      34.340  28.901  26.899  1.00  0.00     0.008 C 
ENDBRANCH  13  14
ENDBRANCH   8  13
ENDBRANCH   6   7
BRANCH   6  17
ATOM     17  C   UNL A   1      32.533  21.101  23.205  1.00  0.00     0.232 C 
ATOM     18  F   UNL A   1      32.197  22.053  22.289  1.00  0.00    -0.250 F 
ENDBRANCH   6  17
ENDBRANCH   3   6
ENDBRANCH   1   2
BRANCH   1  19
ATOM     19  C   UNL A   1      37.670  19.651  24.955  1.00  0.00     0.042 C 
BRANCH  19  20
ATOM     20  C   UNL A   1      38.879  20.145  25.739  1.00  0.00     0.118 C 
BRANCH  20  21
ATOM     21  N   UNL A   1      39.961  19.172  25.782  1.00  0.00    -0.352 N 
ATOM     22  C   UNL A   1      41.308  19.348  25.982  1.00  0.00     0.251 C 
ATOM     23  H   UNL A   1      39.682  18.238  25.646  1.00  0.00     0.163 HD
ATOM     24  O   UNL A   1      42.073  18.405  25.808  1.00  0.00    -0.269 OA
BRANCH  22  25
ATOM     25  C   UNL A   1      41.849  20.667  26.378  1.00  0.00     0.039 A 
ATOM     26  C   UNL A   1      42.220  21.566  25.373  1.00  0.00     0.014 A 
ATOM     27  C   UNL A   1      42.024  21.014  27.721  1.00  0.00     0.014 A 
ATOM     28  C   UNL A   1      42.701  22.830  25.714  1.00  0.00     0.010 A 
ATOM     29  C   UNL A   1      42.426  22.305  28.060  1.00  0.00     0.010 A 
ATOM     30  C   UNL A   1      42.773  23.225  27.060  1.00  0.00    -0.014 A 
BRANCH  30  31
ATOM     31  C   UNL A   1      43.196  24.600  27.429  1.00  0.00     0.031 A 
ATOM     32  C   UNL A   1      44.646  24.998  27.368  1.00  0.00     0.074 A 
ATOM     33  C   UNL A   1      42.275  25.480  27.864  1.00  0.00     0.049 A 
ATOM     34  N   UNL A   1      45.196  26.150  27.659  1.00  0.00    -0.248 NA
ATOM     35  C   UNL A   1      45.605  23.965  26.946  1.00  0.00     0.031 C 
ATOM     36  C   UNL A   1      40.844  25.204  28.020  1.00  0.00     0.029 A 
ATOM     37  N   UNL A   1      42.404  26.788  28.256  1.00  0.00    -0.354 N 
ATOM     38  C   UNL A   1      46.562  25.975  27.471  1.00  0.00     0.074 A 
ATOM     39  C   UNL A   1      46.762  24.595  27.087  1.00  0.00     0.031 C 
ATOM     40  C   UNL A   1      40.225  26.318  28.440  1.00  0.00     0.029 A 
ATOM     41  C   UNL A   1      41.215  27.374  28.617  1.00  0.00     0.049 A 
ATOM     42  H   UNL A   1      43.267  27.262  28.278  1.00  0.00     0.167 HD
ATOM     43  C   UNL A   1      47.557  26.885  27.587  1.00  0.00     0.031 A 
ATOM     44  C   UNL A   1      40.950  28.624  29.041  1.00  0.00     0.031 A 
ATOM     45  C   UNL A   1      47.361  28.261  27.957  1.00  0.00     0.049 A 
ATOM     46  C   UNL A   1      42.072  29.615  29.156  1.00  0.00     0.074 A 
ATOM     47  C   UNL A   1      48.300  29.274  28.041  1.00  0.00     0.029 A 
ATOM     48  N   UNL A   1      46.141  28.818  28.307  1.00  0.00    -0.354 N 
ATOM     49  N   UNL A   1      43.347  29.453  28.899  1.00  0.00    -0.248 NA
ATOM     50  C   UNL A   1      41.714  30.968  29.607  1.00  0.00     0.031 C 
ATOM     51  C   UNL A   1      47.656  30.433  28.488  1.00  0.00     0.029 A 
ATOM     52  C   UNL A   1      46.306  30.153  28.631  1.00  0.00     0.049 A 
ATOM     53  H   UNL A   1      45.284  28.334  28.323  1.00  0.00     0.167 HD
ATOM     54  C   UNL A   1      43.940  30.686  29.136  1.00  0.00     0.074 A 
ATOM     55  C   UNL A   1      42.881  31.591  29.534  1.00  0.00     0.031 C 
ATOM     56  C   UNL A   1      45.245  31.038  29.035  1.00  0.00     0.031 A 
BRANCH  43  57
ATOM     57  C   UNL A   1      48.960  26.416  27.313  1.00  0.00    -0.014 A 
ATOM     58  C   UNL A   1      49.491  26.436  26.013  1.00  0.00     0.009 A 
ATOM     59  C   UNL A   1      49.774  25.985  28.372  1.00  0.00     0.009 A 
ATOM     60  C   UNL A   1      50.797  26.002  25.776  1.00  0.00     0.001 A 
ATOM     61  C   UNL A   1      51.088  25.579  28.135  1.00  0.00     0.001 A 
ATOM     62  C   UNL A   1      51.596  25.580  26.838  1.00  0.00     0.000 A 
ENDBRANCH  43  57
BRANCH  44  63
ATOM     63  C   UNL A   1      39.555  29.018  29.369  1.00  0.00    -0.014 A 
ATOM     64  C   UNL A   1      39.035  28.791  30.652  1.00  0.00     0.009 A 
ATOM     65  C   UNL A   1      38.734  29.614  28.400  1.00  0.00     0.009 A 
ATOM     66  C   UNL A   1      37.714  29.127  30.951  1.00  0.00     0.001 A 
ATOM     67  C   UNL A   1      37.421  29.975  28.709  1.00  0.00     0.001 A 
ATOM     68  C   UNL A   1      36.909  29.722  29.980  1.00  0.00     0.000 A 
ENDBRANCH  44  63
BRANCH  56  69
ATOM     69  C   UNL A   1      45.591  32.468  29.340  1.00  0.00    -0.014 A 
ATOM     70  C   UNL A   1      45.963  32.866  30.634  1.00  0.00     0.009 A 
ATOM     71  C   UNL A   1      45.560  33.426  28.315  1.00  0.00     0.009 A 
ATOM     72  C   UNL A   1      46.258  34.204  30.902  1.00  0.00     0.001 A 
ATOM     73  C   UNL A   1      45.884  34.757  28.580  1.00  0.00     0.001 A 
ATOM     74  C   UNL A   1      46.222  35.147  29.875  1.00  0.00     0.000 A 
ENDBRANCH  56  69
ENDBRANCH  30  31
ENDBRANCH  22  25
ENDBRANCH  20  21
ENDBRANCH  19  20
ENDBRANCH   1  19
TORSDOF 14
ENDMDL
MODEL 2
REMARK VINA RESULT:     -10.3      4.933      9.243
REMARK SMILES CC(C)Cc1ccc([C@H](CF)C(=O)NCCCNC(=O)c2ccc(-c3c4nc(c(-c5ccccc5)c5ccc([nH]5)c(-c5ccccc5)c5nc(c(-c6ccccc6)c6ccc3[nH]6)C=C5)C=C4)cc2)cc1
REMARK SMILES IDX 15 1 14 2 12 3 13 4 9 6 8 7 5 8 6 9 70 10 7 11 69 12 4 13
REMARK SMILES IDX 2 14 1 15 3 16 10 17 11 18 16 19 17 20 18 21 19 22 20 24
REMARK SMILES IDX 21 25 22 26 68 27 23 28 67 29 24 30 25 31 26 32 61 33 27 34
REMARK SMILES IDX 66 35 60 36 62 37 28 38 65 39 59 40 58 41 29 43 51 44 36 45
REMARK SMILES IDX 50 46 37 47 40 48 49 49 63 50 38 51 39 52 48 54 64 55 41 56
REMARK SMILES IDX 30 57 31 58 35 59 32 60 34 61 33 62 52 63 53 64 57 65 54 66
REMARK SMILES IDX 56 67 55 68 42 69 43 70 47 71 44 72 46 73 45 74
REMARK H PARENT 14 5 18 23 62 42 40 53
REMARK Flexibility Score: inf
ROOT
ATOM      1  C   UNL A   1      31.562  30.258  26.101  1.00  0.00     0.117 C 
ENDROOT
BRANCH   1   2
ATOM      2  N   UNL A   1      31.422  30.081  24.666  1.00  0.00    -0.355 N 
ATOM      3  C   UNL A   1      30.995  29.006  23.945  1.00  0.00     0.230 C 
ATOM      4  O   UNL A   1      30.936  29.139  22.719  1.00  0.00    -0.274 OA
ATOM      5  H   UNL A   1      31.675  30.865  24.127  1.00  0.00     0.163 HD
BRANCH   3   6
ATOM      6  C   UNL A   1      30.654  27.676  24.604  1.00  0.00     0.139 C 
BRANCH   6   7
ATOM      7  C   UNL A   1      31.867  26.812  24.937  1.00  0.00    -0.033 A 
ATOM      8  C   UNL A   1      34.054  25.095  25.480  1.00  0.00    -0.048 A 
ATOM      9  C   UNL A   1      34.179  26.146  24.565  1.00  0.00     0.004 A 
ATOM     10  C   UNL A   1      32.840  24.928  26.152  1.00  0.00     0.004 A 
ATOM     11  C   UNL A   1      33.095  26.978  24.282  1.00  0.00     0.005 A 
ATOM     12  C   UNL A   1      31.760  25.773  25.879  1.00  0.00     0.005 A 
BRANCH   8  13
ATOM     13  C   UNL A   1      35.186  24.116  25.673  1.00  0.00     0.038 C 
BRANCH  13  14
ATOM     14  C   UNL A   1      35.748  23.563  24.344  1.00  0.00    -0.013 C 
ATOM     15  C   UNL A   1      37.084  22.833  24.519  1.00  0.00     0.008 C 
ATOM     16  C   UNL A   1      34.734  22.610  23.709  1.00  0.00     0.008 C 
ENDBRANCH  13  14
ENDBRANCH   8  13
ENDBRANCH   6   7
BRANCH   6  17
ATOM     17  C   UNL A   1      29.542  27.031  23.775  1.00  0.00     0.232 C 
ATOM     18  F   UNL A   1      30.055  26.013  23.028  1.00  0.00    -0.250 F 
ENDBRANCH   6  17
ENDBRANCH   3   6
ENDBRANCH   1   2
BRANCH   1  19
ATOM     19  C   UNL A   1      31.418  31.716  26.515  1.00  0.00     0.042 C 
BRANCH  19  20
ATOM     20  C   UNL A   1      32.663  32.307  27.165  1.00  0.00     0.118 C 
BRANCH  20  21
ATOM     21  N   UNL A   1      32.477  33.685  27.594  1.00  0.00    -0.352 N 
ATOM     22  C   UNL A   1      33.201  34.447  28.478  1.00  0.00     0.251 C 
ATOM     23  H   UNL A   1      31.709  34.145  27.186  1.00  0.00     0.163 HD
ATOM     24  O   UNL A   1      32.769  35.539  28.829  1.00  0.00    -0.269 OA
BRANCH  22  25
ATOM     25  C   UNL A   1      34.482  33.953  29.031  1.00  0.00     0.039 A 
ATOM     26  C   UNL A   1      34.455  33.210  30.215  1.00  0.00     0.014 A 
ATOM     27  C   UNL A   1      35.704  34.240  28.417  1.00  0.00     0.014 A 
ATOM     28  C   UNL A   1      35.642  32.701  30.744  1.00  0.00     0.010 A 
ATOM     29  C   UNL A   1      36.878  33.663  28.899  1.00  0.00     0.010 A 
ATOM     30  C   UNL A   1      36.860  32.892  30.070  1.00  0.00    -0.014 A 
BRANCH  30  31
ATOM     31  C   UNL A   1      38.113  32.277  30.575  1.00  0.00     0.031 A 
ATOM     32  C   UNL A   1      38.620  30.984  29.995  1.00  0.00     0.074 A 
ATOM     33  C   UNL A   1      38.774  32.862  31.592  1.00  0.00     0.049 A 
ATOM     34  N   UNL A   1      39.689  30.300  30.317  1.00  0.00    -0.248 NA
ATOM     35  C   UNL A   1      37.811  30.367  28.932  1.00  0.00     0.031 C 
ATOM     36  C   UNL A   1      38.360  34.089  32.279  1.00  0.00     0.029 A 
ATOM     37  N   UNL A   1      39.935  32.502  32.228  1.00  0.00    -0.354 N 
ATOM     38  C   UNL A   1      39.673  29.170  29.509  1.00  0.00     0.074 A 
ATOM     39  C   UNL A   1      38.465  29.235  28.716  1.00  0.00     0.031 C 
ATOM     40  C   UNL A   1      39.273  34.398  33.214  1.00  0.00     0.029 A 
ATOM     41  C   UNL A   1      40.313  33.376  33.219  1.00  0.00     0.049 A 
ATOM     42  H   UNL A   1      40.449  31.695  31.997  1.00  0.00     0.167 HD
ATOM     43  C   UNL A   1      40.590  28.178  29.420  1.00  0.00     0.031 A 
ATOM     44  C   UNL A   1      41.381  33.359  34.038  1.00  0.00     0.031 A 
ATOM     45  C   UNL A   1      41.798  28.116  30.198  1.00  0.00     0.049 A 
ATOM     46  C   UNL A   1      42.385  32.249  33.915  1.00  0.00     0.074 A 
ATOM     47  C   UNL A   1      42.819  27.183  30.134  1.00  0.00     0.029 A 
ATOM     48  N   UNL A   1      42.148  29.024  31.185  1.00  0.00    -0.354 N 
ATOM     49  N   UNL A   1      42.392  31.230  33.091  1.00  0.00    -0.248 NA
ATOM     50  C   UNL A   1      43.537  32.298  34.827  1.00  0.00     0.031 C 
ATOM     51  C   UNL A   1      43.764  27.500  31.116  1.00  0.00     0.029 A 
ATOM     52  C   UNL A   1      43.357  28.660  31.754  1.00  0.00     0.049 A 
ATOM     53  H   UNL A   1      41.615  29.811  31.443  1.00  0.00     0.167 HD
ATOM     54  C   UNL A   1      43.557  30.527  33.370  1.00  0.00     0.074 A 
ATOM     55  C   UNL A   1      44.242  31.251  34.423  1.00  0.00     0.031 C 
ATOM     56  C   UNL A   1      44.019  29.385  32.807  1.00  0.00     0.031 A 
BRANCH  43  57
ATOM     57  C   UNL A   1      40.317  27.068  28.441  1.00  0.00    -0.014 A 
ATOM     58  C   UNL A   1      39.523  25.966  28.796  1.00  0.00     0.009 A 
ATOM     59  C   UNL A   1      40.828  27.145  27.137  1.00  0.00     0.009 A 
ATOM     60  C   UNL A   1      39.274  24.948  27.873  1.00  0.00     0.001 A 
ATOM     61  C   UNL A   1      40.554  26.139  26.209  1.00  0.00     0.001 A 
ATOM     62  C   UNL A   1      39.785  25.037  26.579  1.00  0.00     0.000 A 
ENDBRANCH  43  57
BRANCH  44  63
ATOM     63  C   UNL A   1      41.568  34.441  35.039  1.00  0.00    -0.014 A 
ATOM     64  C   UNL A   1      41.033  34.316  36.330  1.00  0.00     0.009 A 
ATOM     65  C   UNL A   1      42.273  35.608  34.707  1.00  0.00     0.009 A 
ATOM     66  C   UNL A   1      41.176  35.348  37.260  1.00  0.00     0.001 A 
ATOM     67  C   UNL A   1      42.439  36.627  35.646  1.00  0.00     0.001 A 
ATOM     68  C   UNL A   1      41.882  36.501  36.918  1.00  0.00     0.000 A 
ENDBRANCH  44  63
BRANCH  56  69
ATOM     69  C   UNL A   1      45.337  28.863  33.307  1.00  0.00    -0.014 A 
ATOM     70  C   UNL A   1      45.401  27.944  34.366  1.00  0.00     0.009 A 
ATOM     71  C   UNL A   1      46.529  29.283  32.696  1.00  0.00     0.009 A 
ATOM     72  C   UNL A   1      46.636  27.489  34.831  1.00  0.00     0.001 A 
ATOM     73  C   UNL A   1      47.760  28.804  33.144  1.00  0.00     0.001 A 
ATOM     74  C   UNL A   1      47.814  27.916  34.218  1.00  0.00     0.000 A 
ENDBRANCH  56  69
ENDBRANCH  30  31
ENDBRANCH  22  25
ENDBRANCH  20  21
ENDBRANCH  19  20
ENDBRANCH   1  19
TORSDOF 14
ENDMDL
MODEL 3
REMARK VINA RESULT:     -10.3      3.416      7.891
REMARK SMILES CC(C)Cc1ccc([C@H](CF)C(=O)NCCCNC(=O)c2ccc(-c3c4nc(c(-c5ccccc5)c5ccc([nH]5)c(-c5ccccc5)c5nc(c(-c6ccccc6)c6ccc3[nH]6)C=C5)C=C4)cc2)cc1
REMARK SMILES IDX 15 1 14 2 12 3 13 4 9 6 8 7 5 8 6 9 70 10 7 11 69 12 4 13
REMARK SMILES IDX 2 14 1 15 3 16 10 17 11 18 16 19 17 20 18 21 19 22 20 24
REMARK SMILES IDX 21 25 22 26 68 27 23 28 67 29 24 30 25 31 26 32 61 33 27 34
REMARK SMILES IDX 66 35 60 36 62 37 28 38 65 39 59 40 58 41 29 43 51 44 36 45
REMARK SMILES IDX 50 46 37 47 40 48 49 49 63 50 38 51 39 52 48 54 64 55 41 56
REMARK SMILES IDX 30 57 31 58 35 59 32 60 34 61 33 62 52 63 53 64 57 65 54 66
REMARK SMILES IDX 56 67 55 68 42 69 43 70 47 71 44 72 46 73 45 74
REMARK H PARENT 14 5 18 23 62 42 40 53
REMARK Flexibility Score: inf
ROOT
ATOM      1  C   UNL A   1      33.395  27.453  25.188  1.00  0.00     0.117 C 
ENDROOT
BRANCH   1   2
ATOM      2  N   UNL A   1      32.324  26.840  25.955  1.00  0.00    -0.355 N 
ATOM      3  C   UNL A   1      31.238  26.128  25.544  1.00  0.00     0.230 C 
ATOM      4  O   UNL A   1      30.492  25.682  26.420  1.00  0.00    -0.274 OA
ATOM      5  H   UNL A   1      32.395  26.959  26.930  1.00  0.00     0.163 HD
BRANCH   3   6
ATOM      6  C   UNL A   1      30.915  25.928  24.068  1.00  0.00     0.139 C 
BRANCH   6   7
ATOM      7  C   UNL A   1      30.122  27.070  23.440  1.00  0.00    -0.033 A 
ATOM      8  C   UNL A   1      28.636  29.252  22.411  1.00  0.00    -0.048 A 
ATOM      9  C   UNL A   1      30.010  29.147  22.174  1.00  0.00     0.004 A 
ATOM     10  C   UNL A   1      27.999  28.240  23.135  1.00  0.00     0.004 A 
ATOM     11  C   UNL A   1      30.746  28.084  22.699  1.00  0.00     0.005 A 
ATOM     12  C   UNL A   1      28.734  27.167  23.646  1.00  0.00     0.005 A 
BRANCH   8  13
ATOM     13  C   UNL A   1      27.877  30.476  21.961  1.00  0.00     0.038 C 
BRANCH  13  14
ATOM     14  C   UNL A   1      28.007  31.667  22.937  1.00  0.00    -0.013 C 
ATOM     15  C   UNL A   1      29.022  31.412  24.057  1.00  0.00     0.008 C 
ATOM     16  C   UNL A   1      28.413  32.926  22.168  1.00  0.00     0.008 C 
ENDBRANCH  13  14
ENDBRANCH   8  13
ENDBRANCH   6   7
BRANCH   6  17
ATOM     17  C   UNL A   1      30.349  24.516  23.915  1.00  0.00     0.232 C 
ATOM     18  F   UNL A   1      30.932  23.897  22.850  1.00  0.00    -0.250 F 
ENDBRANCH   6  17
ENDBRANCH   3   6
ENDBRANCH   1   2
BRANCH   1  19
ATOM     19  C   UNL A   1      34.092  28.563  25.965  1.00  0.00     0.042 C 
BRANCH  19  20
ATOM     20  C   UNL A   1      33.555  28.769  27.376  1.00  0.00     0.118 C 
BRANCH  20  21
ATOM     21  N   UNL A   1      33.594  30.161  27.798  1.00  0.00    -0.352 N 
ATOM     22  C   UNL A   1      34.590  30.876  28.416  1.00  0.00     0.251 C 
ATOM     23  H   UNL A   1      32.773  30.672  27.611  1.00  0.00     0.163 HD
ATOM     24  O   UNL A   1      34.351  32.002  28.841  1.00  0.00    -0.269 OA
BRANCH  22  25
ATOM     25  C   UNL A   1      35.938  30.295  28.598  1.00  0.00     0.039 A 
ATOM     26  C   UNL A   1      36.860  30.406  27.552  1.00  0.00     0.014 A 
ATOM     27  C   UNL A   1      36.293  29.618  29.769  1.00  0.00     0.014 A 
ATOM     28  C   UNL A   1      38.150  29.898  27.706  1.00  0.00     0.010 A 
ATOM     29  C   UNL A   1      37.604  29.186  29.953  1.00  0.00     0.010 A 
ATOM     30  C   UNL A   1      38.545  29.317  28.922  1.00  0.00    -0.014 A 
BRANCH  30  31
ATOM     31  C   UNL A   1      39.943  28.858  29.127  1.00  0.00     0.031 A 
ATOM     32  C   UNL A   1      40.967  29.772  29.744  1.00  0.00     0.074 A 
ATOM     33  C   UNL A   1      40.302  27.627  28.714  1.00  0.00     0.049 A 
ATOM     34  N   UNL A   1      42.232  29.543  29.991  1.00  0.00    -0.248 NA
ATOM     35  C   UNL A   1      40.519  31.125  30.111  1.00  0.00     0.031 C 
ATOM     36  C   UNL A   1      39.419  26.663  28.053  1.00  0.00     0.029 A 
ATOM     37  N   UNL A   1      41.508  26.977  28.788  1.00  0.00    -0.354 N 
ATOM     38  C   UNL A   1      42.732  30.724  30.526  1.00  0.00     0.074 A 
ATOM     39  C   UNL A   1      41.648  31.681  30.524  1.00  0.00     0.031 C 
ATOM     40  C   UNL A   1      40.103  25.532  27.816  1.00  0.00     0.029 A 
ATOM     41  C   UNL A   1      41.477  25.703  28.273  1.00  0.00     0.049 A 
ATOM     42  H   UNL A   1      42.317  27.383  29.173  1.00  0.00     0.167 HD
ATOM     43  C   UNL A   1      43.975  30.982  30.997  1.00  0.00     0.031 A 
ATOM     44  C   UNL A   1      42.447  24.775  28.181  1.00  0.00     0.031 A 
ATOM     45  C   UNL A   1      45.052  30.029  31.012  1.00  0.00     0.049 A 
ATOM     46  C   UNL A   1      43.817  25.086  28.714  1.00  0.00     0.074 A 
ATOM     47  C   UNL A   1      46.330  30.178  31.524  1.00  0.00     0.029 A 
ATOM     48  N   UNL A   1      44.980  28.748  30.488  1.00  0.00    -0.354 N 
ATOM     49  N   UNL A   1      44.250  26.182  29.288  1.00  0.00    -0.248 NA
ATOM     50  C   UNL A   1      44.826  24.023  28.599  1.00  0.00     0.031 C 
ATOM     51  C   UNL A   1      47.045  29.003  31.268  1.00  0.00     0.029 A 
ATOM     52  C   UNL A   1      46.195  28.104  30.643  1.00  0.00     0.049 A 
ATOM     53  H   UNL A   1      44.181  28.355  30.068  1.00  0.00     0.167 HD
ATOM     54  C   UNL A   1      45.575  25.934  29.622  1.00  0.00     0.074 A 
ATOM     55  C   UNL A   1      45.866  24.577  29.207  1.00  0.00     0.031 C 
ATOM     56  C   UNL A   1      46.472  26.757  30.216  1.00  0.00     0.031 A 
BRANCH  43  57
ATOM     57  C   UNL A   1      44.240  32.362  31.534  1.00  0.00    -0.014 A 
ATOM     58  C   UNL A   1      44.733  33.382  30.705  1.00  0.00     0.009 A 
ATOM     59  C   UNL A   1      43.955  32.656  32.876  1.00  0.00     0.009 A 
ATOM     60  C   UNL A   1      44.967  34.660  31.219  1.00  0.00     0.001 A 
ATOM     61  C   UNL A   1      44.164  33.942  33.379  1.00  0.00     0.001 A 
ATOM     62  C   UNL A   1      44.677  34.940  32.553  1.00  0.00     0.000 A 
ENDBRANCH  43  57
BRANCH  44  63
ATOM     63  C   UNL A   1      42.154  23.450  27.575  1.00  0.00    -0.014 A 
ATOM     64  C   UNL A   1      41.600  22.420  28.350  1.00  0.00     0.009 A 
ATOM     65  C   UNL A   1      42.435  23.205  26.222  1.00  0.00     0.009 A 
ATOM     66  C   UNL A   1      41.359  21.164  27.791  1.00  0.00     0.001 A 
ATOM     67  C   UNL A   1      42.167  21.956  25.658  1.00  0.00     0.001 A 
ATOM     68  C   UNL A   1      41.639  20.935  26.444  1.00  0.00     0.000 A 
ENDBRANCH  44  63
BRANCH  56  69
ATOM     69  C   UNL A   1      47.844  26.200  30.471  1.00  0.00    -0.014 A 
ATOM     70  C   UNL A   1      48.203  25.700  31.733  1.00  0.00     0.009 A 
ATOM     71  C   UNL A   1      48.784  26.160  29.430  1.00  0.00     0.009 A 
ATOM     72  C   UNL A   1      49.490  25.208  31.956  1.00  0.00     0.001 A 
ATOM     73  C   UNL A   1      50.060  25.641  29.649  1.00  0.00     0.001 A 
ATOM     74  C   UNL A   1      50.416  25.176  30.914  1.00  0.00     0.000 A 
ENDBRANCH  56  69
ENDBRANCH  30  31
ENDBRANCH  22  25
ENDBRANCH  20  21
ENDBRANCH  19  20
ENDBRANCH   1  19
TORSDOF 14
ENDMDL
