MODEL 1
REMARK VINA RESULT:     -11.5      0.000      0.000
REMARK SMILES C[C@H](C(=O)NCCCNC(=O)c1ccc(-c2c3nc(c(-c4ccccc4)c4ccc([nH]4)c(-c4ccccc4)c4nc(c(-c5ccccc5)c5ccc2[nH]5)C=C4)C=C3)cc1)[C@H](C)[N@@H+]1CC[C@H]([NH+]2CCCCC2)C1
REMARK SMILES IDX 6 1 5 2 3 3 4 4 2 6 1 7 60 8 61 9 62 10 63 11 72 12 64 14
REMARK SMILES IDX 65 15 66 16 67 17 71 18 68 20 70 21 69 22 7 23 8 24 9 25
REMARK SMILES IDX 10 26 11 28 12 29 13 30 59 31 14 32 58 33 15 34 16 35 17 36
REMARK SMILES IDX 52 37 18 38 57 39 51 40 53 41 19 42 56 43 50 44 49 45 20 47
REMARK SMILES IDX 42 48 27 49 41 50 28 51 31 52 40 53 54 54 29 55 30 56 39 58
REMARK SMILES IDX 55 59 32 60 21 61 22 62 26 63 23 64 25 65 24 66 43 67 44 68
REMARK SMILES IDX 48 69 45 70 47 71 46 72 33 73 34 74 38 75 35 76 37 77 36 78
REMARK H PARENT 5 5 62 13 66 19 9 27 53 46 31 57
REMARK Flexibility Score: inf
ROOT
ATOM      1  C   UNL A   1      36.774  20.762  25.002  1.00  0.00     0.117 C 
ENDROOT
BRANCH   1   2
ATOM      2  N   UNL A   1      37.095  22.015  24.353  1.00  0.00    -0.356 N 
ATOM      3  C   UNL A   1      36.261  22.750  23.568  1.00  0.00     0.228 C 
ATOM      4  O   UNL A   1      36.654  22.953  22.416  1.00  0.00    -0.275 OA
ATOM      5  H   UNL A   1      38.003  22.369  24.492  1.00  0.00     0.163 HD
BRANCH   3   6
ATOM      6  C   UNL A   1      34.941  23.322  24.107  1.00  0.00     0.133 C 
ATOM      7  C   UNL A   1      34.731  24.831  23.941  1.00  0.00     0.024 C 
BRANCH   6   8
ATOM      8  C   UNL A   1      33.681  22.519  23.583  1.00  0.00     0.193 C 
ATOM      9  C   UNL A   1      33.114  23.119  22.279  1.00  0.00     0.076 C 
BRANCH   8  10
ATOM     10  N   UNL A   1      32.694  22.022  24.578  1.00  0.00    -0.327 N 
ATOM     11  C   UNL A   1      33.001  22.265  25.992  1.00  0.00     0.269 C 
ATOM     12  C   UNL A   1      32.253  20.622  24.517  1.00  0.00     0.328 C 
ATOM     13  H   UNL A   1      31.938  22.620  24.244  1.00  0.00     0.348 HD
ATOM     14  C   UNL A   1      33.600  20.960  26.501  1.00  0.00     0.132 C 
ATOM     15  C   UNL A   1      32.781  19.887  25.777  1.00  0.00     0.245 C 
BRANCH  15  16
ATOM     16  N   UNL A   1      33.407  18.564  25.555  1.00  0.00    -0.328 N 
ATOM     17  C   UNL A   1      32.478  17.446  25.754  1.00  0.00     0.262 C 
ATOM     18  C   UNL A   1      34.076  18.477  24.251  1.00  0.00     0.262 C 
ATOM     19  H   UNL A   1      34.124  18.476  26.276  1.00  0.00     0.348 HD
ATOM     20  C   UNL A   1      33.124  16.074  25.582  1.00  0.00     0.062 C 
ATOM     21  C   UNL A   1      34.779  17.128  24.063  1.00  0.00     0.062 C 
ATOM     22  C   UNL A   1      33.805  15.968  24.230  1.00  0.00     0.012 C 
ENDBRANCH  15  16
ENDBRANCH   8  10
ENDBRANCH   6   8
ENDBRANCH   3   6
ENDBRANCH   1   2
BRANCH   1  23
ATOM     23  C   UNL A   1      37.955  19.795  24.927  1.00  0.00     0.042 C 
BRANCH  23  24
ATOM     24  C   UNL A   1      39.167  20.211  25.755  1.00  0.00     0.118 C 
BRANCH  24  25
ATOM     25  N   UNL A   1      40.146  19.143  25.902  1.00  0.00    -0.352 N 
ATOM     26  C   UNL A   1      41.505  19.216  26.103  1.00  0.00     0.251 C 
ATOM     27  H   UNL A   1      39.781  18.231  25.849  1.00  0.00     0.163 HD
ATOM     28  O   UNL A   1      42.197  18.212  25.998  1.00  0.00    -0.269 OA
BRANCH  26  29
ATOM     29  C   UNL A   1      42.135  20.516  26.421  1.00  0.00     0.039 A 
ATOM     30  C   UNL A   1      42.632  21.301  25.378  1.00  0.00     0.014 A 
ATOM     31  C   UNL A   1      42.239  20.958  27.742  1.00  0.00     0.014 A 
ATOM     32  C   UNL A   1      43.164  22.562  25.655  1.00  0.00     0.010 A 
ATOM     33  C   UNL A   1      42.682  22.248  28.007  1.00  0.00     0.010 A 
ATOM     34  C   UNL A   1      43.156  23.063  26.968  1.00  0.00    -0.014 A 
BRANCH  34  35
ATOM     35  C   UNL A   1      43.639  24.434  27.274  1.00  0.00     0.031 A 
ATOM     36  C   UNL A   1      42.669  25.498  27.713  1.00  0.00     0.074 A 
ATOM     37  C   UNL A   1      44.939  24.741  27.095  1.00  0.00     0.049 A 
ATOM     38  N   UNL A   1      42.892  26.763  27.968  1.00  0.00    -0.248 NA
ATOM     39  C   UNL A   1      41.262  25.095  27.859  1.00  0.00     0.031 C 
ATOM     40  C   UNL A   1      45.975  23.813  26.636  1.00  0.00     0.029 A 
ATOM     41  N   UNL A   1      45.611  25.924  27.274  1.00  0.00    -0.354 N 
ATOM     42  C   UNL A   1      41.652  27.306  28.286  1.00  0.00     0.074 A 
ATOM     43  C   UNL A   1      40.677  26.250  28.136  1.00  0.00     0.031 C 
ATOM     44  C   UNL A   1      47.155  24.453  26.602  1.00  0.00     0.029 A 
ATOM     45  C   UNL A   1      46.952  25.845  26.988  1.00  0.00     0.049 A 
ATOM     46  H   UNL A   1      45.172  26.751  27.579  1.00  0.00     0.167 HD
ATOM     47  C   UNL A   1      41.354  28.565  28.686  1.00  0.00     0.031 A 
ATOM     48  C   UNL A   1      47.912  26.789  27.024  1.00  0.00     0.031 A 
ATOM     49  C   UNL A   1      42.326  29.615  28.839  1.00  0.00     0.049 A 
ATOM     50  C   UNL A   1      47.552  28.188  27.445  1.00  0.00     0.074 A 
ATOM     51  C   UNL A   1      42.131  30.909  29.292  1.00  0.00     0.029 A 
ATOM     52  N   UNL A   1      43.673  29.494  28.536  1.00  0.00    -0.354 N 
ATOM     53  N   UNL A   1      46.387  28.666  27.812  1.00  0.00    -0.248 NA
ATOM     54  C   UNL A   1      48.642  29.172  27.468  1.00  0.00     0.031 C 
ATOM     55  C   UNL A   1      43.350  31.589  29.204  1.00  0.00     0.029 A 
ATOM     56  C   UNL A   1      44.317  30.699  28.763  1.00  0.00     0.049 A 
ATOM     57  H   UNL A   1      44.107  28.673  28.209  1.00  0.00     0.167 HD
ATOM     58  C   UNL A   1      46.610  29.998  28.137  1.00  0.00     0.074 A 
ATOM     59  C   UNL A   1      48.024  30.245  27.942  1.00  0.00     0.031 C 
ATOM     60  C   UNL A   1      45.725  30.931  28.561  1.00  0.00     0.031 A 
BRANCH  47  61
ATOM     61  C   UNL A   1      39.910  28.876  28.976  1.00  0.00    -0.014 A 
ATOM     62  C   UNL A   1      39.044  29.332  27.970  1.00  0.00     0.009 A 
ATOM     63  C   UNL A   1      39.401  28.682  30.270  1.00  0.00     0.009 A 
ATOM     64  C   UNL A   1      37.711  29.629  28.262  1.00  0.00     0.001 A 
ATOM     65  C   UNL A   1      38.060  28.946  30.552  1.00  0.00     0.001 A 
ATOM     66  C   UNL A   1      37.219  29.431  29.551  1.00  0.00     0.000 A 
ENDBRANCH  47  61
BRANCH  48  67
ATOM     67  C   UNL A   1      49.312  26.444  26.659  1.00  0.00    -0.014 A 
ATOM     68  C   UNL A   1      49.780  26.649  25.351  1.00  0.00     0.009 A 
ATOM     69  C   UNL A   1      50.186  25.903  27.614  1.00  0.00     0.009 A 
ATOM     70  C   UNL A   1      51.084  26.292  25.001  1.00  0.00     0.001 A 
ATOM     71  C   UNL A   1      51.500  25.577  27.269  1.00  0.00     0.001 A 
ATOM     72  C   UNL A   1      51.945  25.761  25.961  1.00  0.00     0.000 A 
ENDBRANCH  48  67
BRANCH  60  73
ATOM     73  C   UNL A   1      46.264  32.299  28.880  1.00  0.00    -0.014 A 
ATOM     74  C   UNL A   1      46.789  32.605  30.145  1.00  0.00     0.009 A 
ATOM     75  C   UNL A   1      46.282  33.285  27.881  1.00  0.00     0.009 A 
ATOM     76  C   UNL A   1      47.288  33.880  30.414  1.00  0.00     0.001 A 
ATOM     77  C   UNL A   1      46.814  34.550  28.142  1.00  0.00     0.001 A 
ATOM     78  C   UNL A   1      47.306  34.849  29.410  1.00  0.00     0.000 A 
ENDBRANCH  60  73
ENDBRANCH  34  35
ENDBRANCH  26  29
ENDBRANCH  24  25
ENDBRANCH  23  24
ENDBRANCH   1  23
TORSDOF 13
ENDMDL
MODEL 2
REMARK VINA RESULT:     -11.4      2.285      7.110
REMARK SMILES C[C@H](C(=O)NCCCNC(=O)c1ccc(-c2c3nc(c(-c4ccccc4)c4ccc([nH]4)c(-c4ccccc4)c4nc(c(-c5ccccc5)c5ccc2[nH]5)C=C4)C=C3)cc1)[C@H](C)[N@@H+]1CC[C@H]([NH+]2CCCCC2)C1
REMARK SMILES IDX 6 1 5 2 3 3 4 4 2 6 1 7 60 8 61 9 62 10 63 11 72 12 64 14
REMARK SMILES IDX 65 15 66 16 67 17 71 18 68 20 70 21 69 22 7 23 8 24 9 25
REMARK SMILES IDX 10 26 11 28 12 29 13 30 59 31 14 32 58 33 15 34 16 35 17 36
REMARK SMILES IDX 52 37 18 38 57 39 51 40 53 41 19 42 56 43 50 44 49 45 20 47
REMARK SMILES IDX 42 48 27 49 41 50 28 51 31 52 40 53 54 54 29 55 30 56 39 58
REMARK SMILES IDX 55 59 32 60 21 61 22 62 26 63 23 64 25 65 24 66 43 67 44 68
REMARK SMILES IDX 48 69 45 70 47 71 46 72 33 73 34 74 38 75 35 76 37 77 36 78
REMARK H PARENT 5 5 62 13 66 19 9 27 53 46 31 57
REMARK Flexibility Score: inf
ROOT
ATOM      1  C   UNL A   1      36.409  20.673  24.966  1.00  0.00     0.117 C 
ENDROOT
BRANCH   1   2
ATOM      2  N   UNL A   1      35.183  19.905  25.020  1.00  0.00    -0.356 N 
ATOM      3  C   UNL A   1      33.919  20.407  25.004  1.00  0.00     0.228 C 
ATOM      4  O   UNL A   1      33.220  20.122  25.980  1.00  0.00    -0.275 OA
ATOM      5  H   UNL A   1      35.273  18.926  25.072  1.00  0.00     0.163 HD
BRANCH   3   6
ATOM      6  C   UNL A   1      33.395  21.236  23.822  1.00  0.00     0.133 C 
ATOM      7  C   UNL A   1      32.199  20.658  23.058  1.00  0.00     0.024 C 
BRANCH   6   8
ATOM      8  C   UNL A   1      33.130  22.746  24.218  1.00  0.00     0.193 C 
ATOM      9  C   UNL A   1      34.240  23.684  23.700  1.00  0.00     0.076 C 
BRANCH   8  10
ATOM     10  N   UNL A   1      32.581  23.038  25.570  1.00  0.00    -0.327 N 
ATOM     11  C   UNL A   1      31.120  23.057  25.700  1.00  0.00     0.269 C 
ATOM     12  C   UNL A   1      33.046  24.229  26.293  1.00  0.00     0.328 C 
ATOM     13  H   UNL A   1      32.991  22.210  26.002  1.00  0.00     0.348 HD
ATOM     14  C   UNL A   1      30.732  24.529  25.642  1.00  0.00     0.132 C 
ATOM     15  C   UNL A   1      31.861  25.223  26.410  1.00  0.00     0.245 C 
BRANCH  15  16
ATOM     16  N   UNL A   1      32.154  26.639  26.089  1.00  0.00    -0.328 N 
ATOM     17  C   UNL A   1      31.546  27.582  27.034  1.00  0.00     0.262 C 
ATOM     18  C   UNL A   1      33.593  26.889  25.937  1.00  0.00     0.262 C 
ATOM     19  H   UNL A   1      31.714  26.812  25.185  1.00  0.00     0.348 HD
ATOM     20  C   UNL A   1      31.794  29.046  26.685  1.00  0.00     0.062 C 
ATOM     21  C   UNL A   1      33.878  28.341  25.537  1.00  0.00     0.062 C 
ATOM     22  C   UNL A   1      33.279  29.319  26.540  1.00  0.00     0.012 C 
ENDBRANCH  15  16
ENDBRANCH   8  10
ENDBRANCH   6   8
ENDBRANCH   3   6
ENDBRANCH   1   2
BRANCH   1  23
ATOM     23  C   UNL A   1      37.627  19.750  24.947  1.00  0.00     0.042 C 
BRANCH  23  24
ATOM     24  C   UNL A   1      38.853  20.305  25.667  1.00  0.00     0.118 C 
BRANCH  24  25
ATOM     25  N   UNL A   1      39.941  19.343  25.756  1.00  0.00    -0.352 N 
ATOM     26  C   UNL A   1      41.267  19.540  26.065  1.00  0.00     0.251 C 
ATOM     27  H   UNL A   1      39.691  18.410  25.566  1.00  0.00     0.163 HD
ATOM     28  O   UNL A   1      42.079  18.640  25.891  1.00  0.00    -0.269 OA
BRANCH  26  29
ATOM     29  C   UNL A   1      41.717  20.849  26.583  1.00  0.00     0.039 A 
ATOM     30  C   UNL A   1      42.248  21.784  25.692  1.00  0.00     0.014 A 
ATOM     31  C   UNL A   1      41.620  21.153  27.943  1.00  0.00     0.014 A 
ATOM     32  C   UNL A   1      42.610  23.051  26.155  1.00  0.00     0.010 A 
ATOM     33  C   UNL A   1      41.893  22.443  28.385  1.00  0.00     0.010 A 
ATOM     34  C   UNL A   1      42.397  23.405  27.497  1.00  0.00    -0.014 A 
BRANCH  34  35
ATOM     35  C   UNL A   1      42.696  24.773  27.993  1.00  0.00     0.031 A 
ATOM     36  C   UNL A   1      44.104  25.150  28.372  1.00  0.00     0.074 A 
ATOM     37  C   UNL A   1      41.693  25.656  28.166  1.00  0.00     0.049 A 
ATOM     38  N   UNL A   1      44.549  26.273  28.877  1.00  0.00    -0.248 NA
ATOM     39  C   UNL A   1      45.141  24.124  28.181  1.00  0.00     0.031 C 
ATOM     40  C   UNL A   1      40.281  25.404  27.875  1.00  0.00     0.029 A 
ATOM     41  N   UNL A   1      41.710  26.947  28.633  1.00  0.00    -0.354 N 
ATOM     42  C   UNL A   1      45.911  26.079  29.080  1.00  0.00     0.074 A 
ATOM     43  C   UNL A   1      46.206  24.716  28.698  1.00  0.00     0.031 C 
ATOM     44  C   UNL A   1      39.572  26.514  28.139  1.00  0.00     0.029 A 
ATOM     45  C   UNL A   1      40.470  27.538  28.662  1.00  0.00     0.049 A 
ATOM     46  H   UNL A   1      42.533  27.405  28.919  1.00  0.00     0.167 HD
ATOM     47  C   UNL A   1      46.837  26.962  29.525  1.00  0.00     0.031 A 
ATOM     48  C   UNL A   1      40.094  28.765  29.072  1.00  0.00     0.031 A 
ATOM     49  C   UNL A   1      46.544  28.319  29.901  1.00  0.00     0.049 A 
ATOM     50  C   UNL A   1      41.137  29.718  29.588  1.00  0.00     0.074 A 
ATOM     51  C   UNL A   1      47.422  29.307  30.312  1.00  0.00     0.029 A 
ATOM     52  N   UNL A   1      45.275  28.877  29.919  1.00  0.00    -0.354 N 
ATOM     53  N   UNL A   1      42.432  29.543  29.706  1.00  0.00    -0.248 NA
ATOM     54  C   UNL A   1      40.667  31.042  30.017  1.00  0.00     0.031 C 
ATOM     55  C   UNL A   1      46.677  30.445  30.638  1.00  0.00     0.029 A 
ATOM     56  C   UNL A   1      45.343  30.186  30.363  1.00  0.00     0.049 A 
ATOM     57  H   UNL A   1      44.449  28.411  29.654  1.00  0.00     0.167 HD
ATOM     58  C   UNL A   1      42.934  30.742  30.194  1.00  0.00     0.074 A 
ATOM     59  C   UNL A   1      41.807  31.642  30.332  1.00  0.00     0.031 C 
ATOM     60  C   UNL A   1      44.213  31.070  30.498  1.00  0.00     0.031 A 
BRANCH  47  61
ATOM     61  C   UNL A   1      48.257  26.476  29.639  1.00  0.00    -0.014 A 
ATOM     62  C   UNL A   1      48.729  25.865  30.812  1.00  0.00     0.009 A 
ATOM     63  C   UNL A   1      49.129  26.605  28.547  1.00  0.00     0.009 A 
ATOM     64  C   UNL A   1      50.054  25.434  30.904  1.00  0.00     0.001 A 
ATOM     65  C   UNL A   1      50.443  26.143  28.628  1.00  0.00     0.001 A 
ATOM     66  C   UNL A   1      50.908  25.569  29.810  1.00  0.00     0.000 A 
ENDBRANCH  47  61
BRANCH  48  67
ATOM     67  C   UNL A   1      38.665  29.169  29.003  1.00  0.00    -0.014 A 
ATOM     68  C   UNL A   1      38.128  29.688  27.814  1.00  0.00     0.009 A 
ATOM     69  C   UNL A   1      37.831  29.045  30.125  1.00  0.00     0.009 A 
ATOM     70  C   UNL A   1      36.794  30.100  27.759  1.00  0.00     0.001 A 
ATOM     71  C   UNL A   1      36.490  29.428  30.058  1.00  0.00     0.001 A 
ATOM     72  C   UNL A   1      35.975  29.964  28.880  1.00  0.00     0.000 A 
ENDBRANCH  48  67
BRANCH  60  73
ATOM     73  C   UNL A   1      44.470  32.473  30.975  1.00  0.00    -0.014 A 
ATOM     74  C   UNL A   1      44.482  32.793  32.342  1.00  0.00     0.009 A 
ATOM     75  C   UNL A   1      44.746  33.482  30.039  1.00  0.00     0.009 A 
ATOM     76  C   UNL A   1      44.729  34.102  32.758  1.00  0.00     0.001 A 
ATOM     77  C   UNL A   1      45.027  34.783  30.460  1.00  0.00     0.001 A 
ATOM     78  C   UNL A   1      45.007  35.094  31.818  1.00  0.00     0.000 A 
ENDBRANCH  60  73
ENDBRANCH  34  35
ENDBRANCH  26  29
ENDBRANCH  24  25
ENDBRANCH  23  24
ENDBRANCH   1  23
TORSDOF 13
ENDMDL
MODEL 3
REMARK VINA RESULT:     -11.4      1.552      6.182
REMARK SMILES C[C@H](C(=O)NCCCNC(=O)c1ccc(-c2c3nc(c(-c4ccccc4)c4ccc([nH]4)c(-c4ccccc4)c4nc(c(-c5ccccc5)c5ccc2[nH]5)C=C4)C=C3)cc1)[C@H](C)[N@@H+]1CC[C@H]([NH+]2CCCCC2)C1
REMARK SMILES IDX 6 1 5 2 3 3 4 4 2 6 1 7 60 8 61 9 62 10 63 11 72 12 64 14
REMARK SMILES IDX 65 15 66 16 67 17 71 18 68 20 70 21 69 22 7 23 8 24 9 25
REMARK SMILES IDX 10 26 11 28 12 29 13 30 59 31 14 32 58 33 15 34 16 35 17 36
REMARK SMILES IDX 52 37 18 38 57 39 51 40 53 41 19 42 56 43 50 44 49 45 20 47
REMARK SMILES IDX 42 48 27 49 41 50 28 51 31 52 40 53 54 54 29 55 30 56 39 58
REMARK SMILES IDX 55 59 32 60 21 61 22 62 26 63 23 64 25 65 24 66 43 67 44 68
REMARK SMILES IDX 48 69 45 70 47 71 46 72 33 73 34 74 38 75 35 76 37 77 36 78
REMARK H PARENT 5 5 62 13 66 19 9 27 53 46 31 57
REMARK Flexibility Score: inf
ROOT
ATOM      1  C   UNL A   1      36.548  20.557  24.976  1.00  0.00     0.117 C 
ENDROOT
BRANCH   1   2
ATOM      2  N   UNL A   1      36.892  21.868  24.468  1.00  0.00    -0.356 N 
ATOM      3  C   UNL A   1      36.084  22.683  23.737  1.00  0.00     0.228 C 
ATOM      4  O   UNL A   1      36.513  22.999  22.624  1.00  0.00    -0.275 OA
ATOM      5  H   UNL A   1      37.796  22.201  24.670  1.00  0.00     0.163 HD
BRANCH   3   6
ATOM      6  C   UNL A   1      34.750  23.205  24.292  1.00  0.00     0.133 C 
ATOM      7  C   UNL A   1      34.805  24.513  25.088  1.00  0.00     0.024 C 
BRANCH   6   8
ATOM      8  C   UNL A   1      33.624  23.271  23.181  1.00  0.00     0.193 C 
ATOM      9  C   UNL A   1      33.496  24.683  22.570  1.00  0.00     0.076 C 
BRANCH   8  10
ATOM     10  N   UNL A   1      32.359  22.522  23.409  1.00  0.00    -0.327 N 
ATOM     11  C   UNL A   1      31.829  22.521  24.777  1.00  0.00     0.269 C 
ATOM     12  C   UNL A   1      32.259  21.127  22.958  1.00  0.00     0.328 C 
ATOM     13  H   UNL A   1      31.806  23.109  22.785  1.00  0.00     0.348 HD
ATOM     14  C   UNL A   1      32.277  21.196  25.379  1.00  0.00     0.132 C 
ATOM     15  C   UNL A   1      32.156  20.215  24.208  1.00  0.00     0.245 C 
BRANCH  15  16
ATOM     16  N   UNL A   1      33.016  19.009  24.218  1.00  0.00    -0.328 N 
ATOM     17  C   UNL A   1      32.851  18.193  25.426  1.00  0.00     0.262 C 
ATOM     18  C   UNL A   1      32.856  18.202  23.002  1.00  0.00     0.262 C 
ATOM     19  H   UNL A   1      33.976  19.357  24.233  1.00  0.00     0.348 HD
ATOM     20  C   UNL A   1      33.770  16.977  25.474  1.00  0.00     0.062 C 
ATOM     21  C   UNL A   1      33.802  16.996  22.993  1.00  0.00     0.062 C 
ATOM     22  C   UNL A   1      33.602  16.127  24.229  1.00  0.00     0.012 C 
ENDBRANCH  15  16
ENDBRANCH   8  10
ENDBRANCH   6   8
ENDBRANCH   3   6
ENDBRANCH   1   2
BRANCH   1  23
ATOM     23  C   UNL A   1      37.771  19.641  24.987  1.00  0.00     0.042 C 
BRANCH  23  24
ATOM     24  C   UNL A   1      38.977  20.204  25.735  1.00  0.00     0.118 C 
BRANCH  24  25
ATOM     25  N   UNL A   1      40.076  19.255  25.834  1.00  0.00    -0.352 N 
ATOM     26  C   UNL A   1      41.402  19.471  26.126  1.00  0.00     0.251 C 
ATOM     27  H   UNL A   1      39.833  18.316  25.666  1.00  0.00     0.163 HD
ATOM     28  O   UNL A   1      42.222  18.577  25.963  1.00  0.00    -0.269 OA
BRANCH  26  29
ATOM     29  C   UNL A   1      41.844  20.796  26.611  1.00  0.00     0.039 A 
ATOM     30  C   UNL A   1      42.306  21.737  25.688  1.00  0.00     0.014 A 
ATOM     31  C   UNL A   1      41.807  21.109  27.973  1.00  0.00     0.014 A 
ATOM     32  C   UNL A   1      42.659  23.016  26.123  1.00  0.00     0.010 A 
ATOM     33  C   UNL A   1      42.068  22.409  28.391  1.00  0.00     0.010 A 
ATOM     34  C   UNL A   1      42.504  23.376  27.473  1.00  0.00    -0.014 A 
BRANCH  34  35
ATOM     35  C   UNL A   1      42.792  24.755  27.943  1.00  0.00     0.031 A 
ATOM     36  C   UNL A   1      44.199  25.155  28.298  1.00  0.00     0.074 A 
ATOM     37  C   UNL A   1      41.780  25.629  28.113  1.00  0.00     0.049 A 
ATOM     38  N   UNL A   1      44.637  26.291  28.780  1.00  0.00    -0.248 NA
ATOM     39  C   UNL A   1      45.246  24.138  28.112  1.00  0.00     0.031 C 
ATOM     40  C   UNL A   1      40.368  25.356  27.844  1.00  0.00     0.029 A 
ATOM     41  N   UNL A   1      41.787  26.927  28.559  1.00  0.00    -0.354 N 
ATOM     42  C   UNL A   1      46.003  26.116  28.970  1.00  0.00     0.074 A 
ATOM     43  C   UNL A   1      46.310  24.751  28.607  1.00  0.00     0.031 C 
ATOM     44  C   UNL A   1      39.649  26.461  28.098  1.00  0.00     0.029 A 
ATOM     45  C   UNL A   1      40.541  27.504  28.594  1.00  0.00     0.049 A 
ATOM     46  H   UNL A   1      42.607  27.400  28.829  1.00  0.00     0.167 HD
ATOM     47  C   UNL A   1      46.924  27.017  29.391  1.00  0.00     0.031 A 
ATOM     48  C   UNL A   1      40.155  28.732  28.989  1.00  0.00     0.031 A 
ATOM     49  C   UNL A   1      46.619  28.376  29.748  1.00  0.00     0.049 A 
ATOM     50  C   UNL A   1      41.192  29.706  29.478  1.00  0.00     0.074 A 
ATOM     51  C   UNL A   1      47.490  29.381  30.133  1.00  0.00     0.029 A 
ATOM     52  N   UNL A   1      45.343  28.919  29.772  1.00  0.00    -0.354 N 
ATOM     53  N   UNL A   1      42.490  29.548  29.583  1.00  0.00    -0.248 NA
ATOM     54  C   UNL A   1      40.711  31.031  29.891  1.00  0.00     0.031 C 
ATOM     55  C   UNL A   1      46.734  30.515  30.450  1.00  0.00     0.029 A 
ATOM     56  C   UNL A   1      45.400  30.237  30.195  1.00  0.00     0.049 A 
ATOM     57  H   UNL A   1      44.520  28.439  29.525  1.00  0.00     0.167 HD
ATOM     58  C   UNL A   1      42.983  30.761  30.046  1.00  0.00     0.074 A 
ATOM     59  C   UNL A   1      41.847  31.650  30.183  1.00  0.00     0.031 C 
ATOM     60  C   UNL A   1      44.261  31.109  30.329  1.00  0.00     0.031 A 
BRANCH  47  61
ATOM     61  C   UNL A   1      48.351  26.549  29.495  1.00  0.00    -0.014 A 
ATOM     62  C   UNL A   1      48.830  25.915  30.653  1.00  0.00     0.009 A 
ATOM     63  C   UNL A   1      49.223  26.721  28.409  1.00  0.00     0.009 A 
ATOM     64  C   UNL A   1      50.161  25.503  30.737  1.00  0.00     0.001 A 
ATOM     65  C   UNL A   1      50.544  26.277  28.482  1.00  0.00     0.001 A 
ATOM     66  C   UNL A   1      51.015  25.679  29.649  1.00  0.00     0.000 A 
ENDBRANCH  47  61
BRANCH  48  67
ATOM     67  C   UNL A   1      38.720  29.119  28.930  1.00  0.00    -0.014 A 
ATOM     68  C   UNL A   1      38.159  29.599  27.736  1.00  0.00     0.009 A 
ATOM     69  C   UNL A   1      37.904  29.016  30.068  1.00  0.00     0.009 A 
ATOM     70  C   UNL A   1      36.820  29.994  27.691  1.00  0.00     0.001 A 
ATOM     71  C   UNL A   1      36.558  29.381  30.011  1.00  0.00     0.001 A 
ATOM     72  C   UNL A   1      36.019  29.880  28.826  1.00  0.00     0.000 A 
ENDBRANCH  48  67
BRANCH  60  73
ATOM     73  C   UNL A   1      44.508  32.522  30.781  1.00  0.00    -0.014 A 
ATOM     74  C   UNL A   1      44.508  32.869  32.141  1.00  0.00     0.009 A 
ATOM     75  C   UNL A   1      44.784  33.515  29.828  1.00  0.00     0.009 A 
ATOM     76  C   UNL A   1      44.745  34.187  32.534  1.00  0.00     0.001 A 
ATOM     77  C   UNL A   1      45.055  34.826  30.225  1.00  0.00     0.001 A 
ATOM     78  C   UNL A   1      45.024  35.163  31.577  1.00  0.00     0.000 A 
ENDBRANCH  60  73
ENDBRANCH  34  35
ENDBRANCH  26  29
ENDBRANCH  24  25
ENDBRANCH  23  24
ENDBRANCH   1  23
TORSDOF 13
ENDMDL
