MODEL 1
REMARK VINA RESULT:      -9.2      0.000      0.000
REMARK SMILES Cc1ccc(-c2cnnc(-n3nc(C)c4c3NC(=O)C[C@@H]4c3ccc(C(=O)NCCCNC(=O)c4ccc(-c5c6nc(c(-c7ccccc7)c7ccc([nH]7)c(-c7ccccc7)c7nc(c(-c8ccccc8)c8ccc5[nH]8)C=C7)C=C6)cc4)cc3)n2)cc1
REMARK SMILES IDX 29 1 28 2 26 3 27 4 25 6 22 7 23 8 84 9 24 10 83 11 21 12
REMARK SMILES IDX 11 13 12 14 16 15 13 16 15 17 17 18 14 19 18 20 20 22 19 23
REMARK SMILES IDX 10 24 6 25 7 26 85 27 8 28 9 29 5 30 1 31 2 32 3 33 87 34
REMARK SMILES IDX 4 35 86 36 30 37 31 38 32 39 33 40 34 42 35 43 36 44 82 45
REMARK SMILES IDX 37 46 81 47 38 48 39 49 40 50 75 51 41 52 80 53 74 54 76 55
REMARK SMILES IDX 42 56 79 57 73 58 72 59 43 61 65 62 50 63 64 64 51 65 54 66
REMARK SMILES IDX 63 67 77 68 52 69 53 70 62 72 78 73 55 74 44 75 45 76 49 77
REMARK SMILES IDX 46 78 48 79 47 80 66 81 67 82 71 83 68 84 70 85 69 86 56 87
REMARK SMILES IDX 57 88 61 89 58 90 60 91 59 92
REMARK H PARENT 28 5 17 21 32 41 76 60 54 71
REMARK Flexibility Score: inf
ROOT
ATOM      1  C   UNL A   1      36.690  29.326  28.811  1.00  0.00     0.118 C 
ENDROOT
BRANCH   1   2
ATOM      2  N   UNL A   1      37.906  29.232  28.006  1.00  0.00    -0.352 N 
ATOM      3  C   UNL A   1      39.195  28.957  28.409  1.00  0.00     0.251 C 
ATOM      4  O   UNL A   1      40.064  28.677  27.591  1.00  0.00    -0.269 OA
ATOM      5  H   UNL A   1      37.789  29.387  27.041  1.00  0.00     0.163 HD
BRANCH   3   6
ATOM      6  C   UNL A   1      39.522  28.946  29.849  1.00  0.00     0.039 A 
ATOM      7  C   UNL A   1      40.381  28.629  32.497  1.00  0.00    -0.040 A 
ATOM      8  C   UNL A   1      41.048  29.511  31.620  1.00  0.00     0.005 A 
ATOM      9  C   UNL A   1      39.180  28.050  32.069  1.00  0.00     0.005 A 
ATOM     10  C   UNL A   1      40.623  29.670  30.302  1.00  0.00     0.014 A 
ATOM     11  C   UNL A   1      38.754  28.214  30.753  1.00  0.00     0.014 A 
BRANCH   7  12
ATOM     12  C   UNL A   1      41.030  28.343  33.834  1.00  0.00     0.064 C 
ATOM     13  N   UNL A   1      41.917  31.013  36.110  1.00  0.00    -0.180 N 
ATOM     14  N   UNL A   1      40.643  31.442  35.886  1.00  0.00    -0.168 NA
ATOM     15  C   UNL A   1      42.285  30.126  35.114  1.00  0.00     0.143 A 
ATOM     16  C   UNL A   1      40.113  30.518  35.080  1.00  0.00     0.066 A 
ATOM     17  C   UNL A   1      41.101  29.593  34.644  1.00  0.00     0.026 A 
ATOM     18  N   UNL A   1      43.504  29.702  34.623  1.00  0.00    -0.310 N 
ATOM     19  C   UNL A   1      38.675  30.627  34.729  1.00  0.00     0.069 C 
ATOM     20  C   UNL A   1      43.524  28.626  33.680  1.00  0.00     0.226 C 
ATOM     21  H   UNL A   1      44.341  30.130  34.915  1.00  0.00     0.171 HD
ATOM     22  C   UNL A   1      42.384  27.647  33.729  1.00  0.00     0.113 C 
ATOM     23  O   UNL A   1      44.540  28.496  33.004  1.00  0.00    -0.275 OA
BRANCH  13  24
ATOM     24  C   UNL A   1      42.551  31.218  37.370  1.00  0.00     0.272 A 
ATOM     25  C   UNL A   1      43.167  32.533  39.132  1.00  0.00     0.095 A 
ATOM     26  C   UNL A   1      44.209  31.661  39.399  1.00  0.00     0.164 A 
ATOM     27  N   UNL A   1      42.330  32.356  38.070  1.00  0.00    -0.208 NA
ATOM     28  N   UNL A   1      44.385  30.550  38.673  1.00  0.00    -0.153 NA
ATOM     29  N   UNL A   1      43.516  30.309  37.670  1.00  0.00    -0.109 NA
BRANCH  25  30
ATOM     30  C   UNL A   1      42.861  33.617  40.073  1.00  0.00     0.002 A 
ATOM     31  C   UNL A   1      41.530  36.879  42.590  1.00  0.00     0.044 C 
ATOM     32  C   UNL A   1      42.006  35.754  41.720  1.00  0.00    -0.051 A 
ATOM     33  C   UNL A   1      41.810  34.428  42.120  1.00  0.00     0.004 A 
ATOM     34  C   UNL A   1      42.647  36.007  40.505  1.00  0.00     0.004 A 
ATOM     35  C   UNL A   1      42.233  33.371  41.306  1.00  0.00     0.011 A 
ATOM     36  C   UNL A   1      43.074  34.951  39.695  1.00  0.00     0.011 A 
ENDBRANCH  25  30
ENDBRANCH  13  24
ENDBRANCH   7  12
ENDBRANCH   3   6
ENDBRANCH   1   2
BRANCH   1  37
ATOM     37  C   UNL A   1      35.494  29.866  28.034  1.00  0.00     0.042 C 
BRANCH  37  38
ATOM     38  C   UNL A   1      35.624  31.323  27.626  1.00  0.00     0.118 C 
BRANCH  38  39
ATOM     39  N   UNL A   1      34.962  32.262  28.524  1.00  0.00    -0.352 N 
ATOM     40  C   UNL A   1      35.460  32.914  29.639  1.00  0.00     0.251 C 
ATOM     41  H   UNL A   1      34.024  32.461  28.305  1.00  0.00     0.163 HD
ATOM     42  O   UNL A   1      34.715  33.632  30.300  1.00  0.00    -0.269 OA
BRANCH  40  43
ATOM     43  C   UNL A   1      36.914  32.881  29.936  1.00  0.00     0.039 A 
ATOM     44  C   UNL A   1      37.374  31.853  30.767  1.00  0.00     0.014 A 
ATOM     45  C   UNL A   1      37.738  33.962  29.647  1.00  0.00     0.014 A 
ATOM     46  C   UNL A   1      38.511  32.061  31.538  1.00  0.00     0.010 A 
ATOM     47  C   UNL A   1      38.789  34.230  30.493  1.00  0.00     0.010 A 
ATOM     48  C   UNL A   1      39.124  33.308  31.484  1.00  0.00    -0.014 A 
BRANCH  48  49
ATOM     49  C   UNL A   1      40.079  33.779  32.467  1.00  0.00     0.031 A 
ATOM     50  C   UNL A   1      39.592  34.418  33.696  1.00  0.00     0.074 A 
ATOM     51  C   UNL A   1      41.395  33.539  32.278  1.00  0.00     0.049 A 
ATOM     52  N   UNL A   1      40.276  35.263  34.385  1.00  0.00    -0.248 NA
ATOM     53  C   UNL A   1      38.253  34.180  34.226  1.00  0.00     0.031 C 
ATOM     54  C   UNL A   1      42.482  33.680  33.240  1.00  0.00     0.029 A 
ATOM     55  N   UNL A   1      42.036  33.302  31.065  1.00  0.00    -0.354 N 
ATOM     56  C   UNL A   1      39.616  35.434  35.577  1.00  0.00     0.074 A 
ATOM     57  C   UNL A   1      38.323  34.818  35.397  1.00  0.00     0.031 C 
ATOM     58  C   UNL A   1      43.643  33.778  32.569  1.00  0.00     0.029 A 
ATOM     59  C   UNL A   1      43.323  33.859  31.153  1.00  0.00     0.049 A 
ATOM     60  H   UNL A   1      41.657  32.831  30.289  1.00  0.00     0.167 HD
ATOM     61  C   UNL A   1      40.292  35.930  36.648  1.00  0.00     0.031 A 
ATOM     62  C   UNL A   1      43.680  34.891  30.333  1.00  0.00     0.031 A 
ATOM     63  C   UNL A   1      41.672  36.259  36.306  1.00  0.00     0.049 A 
ATOM     64  C   UNL A   1      43.963  36.176  31.082  1.00  0.00     0.074 A 
ATOM     65  C   UNL A   1      42.867  35.577  36.473  1.00  0.00     0.029 A 
ATOM     66  N   UNL A   1      41.919  37.267  35.381  1.00  0.00    -0.354 N 
ATOM     67  N   UNL A   1      43.554  36.417  32.298  1.00  0.00    -0.248 NA
ATOM     68  C   UNL A   1      44.719  37.293  30.521  1.00  0.00     0.031 C 
ATOM     69  C   UNL A   1      43.821  36.142  35.585  1.00  0.00     0.029 A 
ATOM     70  C   UNL A   1      43.214  37.184  34.907  1.00  0.00     0.049 A 
ATOM     71  H   UNL A   1      41.262  37.946  35.103  1.00  0.00     0.167 HD
ATOM     72  C   UNL A   1      43.984  37.658  32.695  1.00  0.00     0.074 A 
ATOM     73  C   UNL A   1      44.709  38.167  31.544  1.00  0.00     0.031 C 
ATOM     74  C   UNL A   1      43.704  38.154  33.937  1.00  0.00     0.031 A 
BRANCH  61  75
ATOM     75  C   UNL A   1      39.774  35.794  38.053  1.00  0.00    -0.014 A 
ATOM     76  C   UNL A   1      39.527  34.514  38.582  1.00  0.00     0.009 A 
ATOM     77  C   UNL A   1      39.463  36.884  38.884  1.00  0.00     0.009 A 
ATOM     78  C   UNL A   1      38.915  34.335  39.828  1.00  0.00     0.001 A 
ATOM     79  C   UNL A   1      38.814  36.713  40.115  1.00  0.00     0.001 A 
ATOM     80  C   UNL A   1      38.531  35.436  40.582  1.00  0.00     0.000 A 
ENDBRANCH  61  75
BRANCH  62  81
ATOM     81  C   UNL A   1      43.059  34.795  28.979  1.00  0.00    -0.014 A 
ATOM     82  C   UNL A   1      42.040  35.717  28.656  1.00  0.00     0.009 A 
ATOM     83  C   UNL A   1      43.718  34.137  27.930  1.00  0.00     0.009 A 
ATOM     84  C   UNL A   1      41.792  36.078  27.328  1.00  0.00     0.001 A 
ATOM     85  C   UNL A   1      43.452  34.490  26.600  1.00  0.00     0.001 A 
ATOM     86  C   UNL A   1      42.525  35.489  26.302  1.00  0.00     0.000 A 
ENDBRANCH  62  81
BRANCH  74  87
ATOM     87  C   UNL A   1      43.913  39.574  34.417  1.00  0.00    -0.014 A 
ATOM     88  C   UNL A   1      43.365  40.711  33.813  1.00  0.00     0.009 A 
ATOM     89  C   UNL A   1      44.600  39.783  35.638  1.00  0.00     0.009 A 
ATOM     90  C   UNL A   1      43.523  41.986  34.377  1.00  0.00     0.001 A 
ATOM     91  C   UNL A   1      44.713  41.041  36.232  1.00  0.00     0.001 A 
ATOM     92  C   UNL A   1      44.183  42.149  35.592  1.00  0.00     0.000 A 
ENDBRANCH  74  87
ENDBRANCH  48  49
ENDBRANCH  40  43
ENDBRANCH  38  39
ENDBRANCH  37  38
ENDBRANCH   1  37
TORSDOF 13
ENDMDL
MODEL 2
REMARK VINA RESULT:      -9.1      4.758     12.382
REMARK SMILES Cc1ccc(-c2cnnc(-n3nc(C)c4c3NC(=O)C[C@@H]4c3ccc(C(=O)NCCCNC(=O)c4ccc(-c5c6nc(c(-c7ccccc7)c7ccc([nH]7)c(-c7ccccc7)c7nc(c(-c8ccccc8)c8ccc5[nH]8)C=C7)C=C6)cc4)cc3)n2)cc1
REMARK SMILES IDX 29 1 28 2 26 3 27 4 25 6 22 7 23 8 84 9 24 10 83 11 21 12
REMARK SMILES IDX 11 13 12 14 16 15 13 16 15 17 17 18 14 19 18 20 20 22 19 23
REMARK SMILES IDX 10 24 6 25 7 26 85 27 8 28 9 29 5 30 1 31 2 32 3 33 87 34
REMARK SMILES IDX 4 35 86 36 30 37 31 38 32 39 33 40 34 42 35 43 36 44 82 45
REMARK SMILES IDX 37 46 81 47 38 48 39 49 40 50 75 51 41 52 80 53 74 54 76 55
REMARK SMILES IDX 42 56 79 57 73 58 72 59 43 61 65 62 50 63 64 64 51 65 54 66
REMARK SMILES IDX 63 67 77 68 52 69 53 70 62 72 78 73 55 74 44 75 45 76 49 77
REMARK SMILES IDX 46 78 48 79 47 80 66 81 67 82 71 83 68 84 70 85 69 86 56 87
REMARK SMILES IDX 57 88 61 89 58 90 60 91 59 92
REMARK H PARENT 28 5 17 21 32 41 76 60 54 71
REMARK Flexibility Score: inf
ROOT
ATOM      1  C   UNL A   1      35.581  34.032  34.408  1.00  0.00     0.118 C 
ENDROOT
BRANCH   1   2
ATOM      2  N   UNL A   1      34.350  34.683  33.965  1.00  0.00    -0.352 N 
ATOM      3  C   UNL A   1      33.709  34.592  32.748  1.00  0.00     0.251 C 
ATOM      4  O   UNL A   1      32.564  35.006  32.608  1.00  0.00    -0.269 OA
ATOM      5  H   UNL A   1      33.918  35.268  34.629  1.00  0.00     0.163 HD
BRANCH   3   6
ATOM      6  C   UNL A   1      34.391  33.940  31.612  1.00  0.00     0.039 A 
ATOM      7  C   UNL A   1      35.327  32.625  29.322  1.00  0.00    -0.040 A 
ATOM      8  C   UNL A   1      35.104  34.018  29.317  1.00  0.00     0.005 A 
ATOM      9  C   UNL A   1      35.238  31.944  30.542  1.00  0.00     0.005 A 
ATOM     10  C   UNL A   1      34.638  34.675  30.455  1.00  0.00     0.014 A 
ATOM     11  C   UNL A   1      34.777  32.602  31.679  1.00  0.00     0.014 A 
BRANCH   7  12
ATOM     12  C   UNL A   1      35.617  31.955  27.997  1.00  0.00     0.064 C 
ATOM     13  N   UNL A   1      33.298  29.598  26.527  1.00  0.00    -0.180 N 
ATOM     14  N   UNL A   1      32.370  30.564  26.777  1.00  0.00    -0.168 NA
ATOM     15  C   UNL A   1      34.429  29.840  27.285  1.00  0.00     0.143 A 
ATOM     16  C   UNL A   1      33.071  31.579  27.290  1.00  0.00     0.066 A 
ATOM     17  C   UNL A   1      34.418  31.197  27.535  1.00  0.00     0.026 A 
ATOM     18  N   UNL A   1      35.467  29.040  27.723  1.00  0.00    -0.310 N 
ATOM     19  C   UNL A   1      32.364  32.854  27.573  1.00  0.00     0.069 C 
ATOM     20  C   UNL A   1      36.586  29.663  28.362  1.00  0.00     0.226 C 
ATOM     21  H   UNL A   1      35.439  28.065  27.598  1.00  0.00     0.171 HD
ATOM     22  C   UNL A   1      36.877  31.093  28.001  1.00  0.00     0.113 C 
ATOM     23  O   UNL A   1      37.311  28.943  29.042  1.00  0.00    -0.275 OA
BRANCH  13  24
ATOM     24  C   UNL A   1      33.174  28.735  25.399  1.00  0.00     0.272 A 
ATOM     25  C   UNL A   1      33.692  26.837  24.240  1.00  0.00     0.095 A 
ATOM     26  C   UNL A   1      33.341  27.477  23.064  1.00  0.00     0.164 A 
ATOM     27  N   UNL A   1      33.661  27.473  25.446  1.00  0.00    -0.208 NA
ATOM     28  N   UNL A   1      32.866  28.728  23.072  1.00  0.00    -0.153 NA
ATOM     29  N   UNL A   1      32.745  29.348  24.264  1.00  0.00    -0.109 NA
BRANCH  25  30
ATOM     30  C   UNL A   1      33.994  25.401  24.230  1.00  0.00     0.002 A 
ATOM     31  C   UNL A   1      34.455  21.101  24.458  1.00  0.00     0.044 C 
ATOM     32  C   UNL A   1      34.311  22.592  24.379  1.00  0.00    -0.051 A 
ATOM     33  C   UNL A   1      33.774  23.185  23.232  1.00  0.00     0.004 A 
ATOM     34  C   UNL A   1      34.706  23.409  25.442  1.00  0.00     0.004 A 
ATOM     35  C   UNL A   1      33.617  24.573  23.157  1.00  0.00     0.011 A 
ATOM     36  C   UNL A   1      34.555  24.796  25.365  1.00  0.00     0.011 A 
ENDBRANCH  25  30
ENDBRANCH  13  24
ENDBRANCH   7  12
ENDBRANCH   3   6
ENDBRANCH   1   2
BRANCH   1  37
ATOM     37  C   UNL A   1      36.843  34.766  33.966  1.00  0.00     0.042 C 
BRANCH  37  38
ATOM     38  C   UNL A   1      38.100  33.914  33.999  1.00  0.00     0.118 C 
BRANCH  38  39
ATOM     39  N   UNL A   1      37.860  32.494  34.227  1.00  0.00    -0.352 N 
ATOM     40  C   UNL A   1      38.304  31.399  33.505  1.00  0.00     0.251 C 
ATOM     41  H   UNL A   1      37.301  32.283  35.008  1.00  0.00     0.163 HD
ATOM     42  O   UNL A   1      37.942  30.273  33.834  1.00  0.00    -0.269 OA
BRANCH  40  43
ATOM     43  C   UNL A   1      39.337  31.568  32.453  1.00  0.00     0.039 A 
ATOM     44  C   UNL A   1      38.889  31.748  31.139  1.00  0.00     0.014 A 
ATOM     45  C   UNL A   1      40.675  31.282  32.698  1.00  0.00     0.014 A 
ATOM     46  C   UNL A   1      39.697  31.341  30.085  1.00  0.00     0.010 A 
ATOM     47  C   UNL A   1      41.432  30.760  31.675  1.00  0.00     0.010 A 
ATOM     48  C   UNL A   1      40.908  30.726  30.383  1.00  0.00    -0.014 A 
BRANCH  48  49
ATOM     49  C   UNL A   1      41.673  29.949  29.428  1.00  0.00     0.031 A 
ATOM     50  C   UNL A   1      41.556  28.485  29.429  1.00  0.00     0.074 A 
ATOM     51  C   UNL A   1      42.409  30.590  28.494  1.00  0.00     0.049 A 
ATOM     52  N   UNL A   1      42.473  27.692  29.000  1.00  0.00    -0.248 NA
ATOM     53  C   UNL A   1      40.389  27.794  29.967  1.00  0.00     0.031 C 
ATOM     54  C   UNL A   1      43.029  30.031  27.298  1.00  0.00     0.029 A 
ATOM     55  N   UNL A   1      42.915  31.885  28.571  1.00  0.00    -0.354 N 
ATOM     56  C   UNL A   1      41.911  26.441  28.914  1.00  0.00     0.074 A 
ATOM     57  C   UNL A   1      40.650  26.533  29.611  1.00  0.00     0.031 C 
ATOM     58  C   UNL A   1      44.006  30.859  26.890  1.00  0.00     0.029 A 
ATOM     59  C   UNL A   1      44.148  31.896  27.899  1.00  0.00     0.049 A 
ATOM     60  H   UNL A   1      42.487  32.652  29.016  1.00  0.00     0.167 HD
ATOM     61  C   UNL A   1      42.492  25.503  28.119  1.00  0.00     0.031 A 
ATOM     62  C   UNL A   1      45.300  32.161  28.584  1.00  0.00     0.031 A 
ATOM     63  C   UNL A   1      43.712  26.006  27.498  1.00  0.00     0.049 A 
ATOM     64  C   UNL A   1      46.257  30.988  28.616  1.00  0.00     0.074 A 
ATOM     65  C   UNL A   1      43.976  26.539  26.246  1.00  0.00     0.029 A 
ATOM     66  N   UNL A   1      44.796  26.339  28.303  1.00  0.00    -0.354 N 
ATOM     67  N   UNL A   1      45.907  29.754  28.377  1.00  0.00    -0.248 NA
ATOM     68  C   UNL A   1      47.679  31.110  28.928  1.00  0.00     0.031 C 
ATOM     69  C   UNL A   1      45.198  27.257  26.324  1.00  0.00     0.029 A 
ATOM     70  C   UNL A   1      45.690  27.131  27.611  1.00  0.00     0.049 A 
ATOM     71  H   UNL A   1      44.909  26.050  29.238  1.00  0.00     0.167 HD
ATOM     72  C   UNL A   1      47.003  28.934  28.471  1.00  0.00     0.074 A 
ATOM     73  C   UNL A   1      48.089  29.832  28.820  1.00  0.00     0.031 C 
ATOM     74  C   UNL A   1      46.916  27.588  28.252  1.00  0.00     0.031 A 
BRANCH  61  75
ATOM     75  C   UNL A   1      41.758  24.268  27.673  1.00  0.00    -0.014 A 
ATOM     76  C   UNL A   1      40.616  24.393  26.863  1.00  0.00     0.009 A 
ATOM     77  C   UNL A   1      42.112  22.963  28.058  1.00  0.00     0.009 A 
ATOM     78  C   UNL A   1      39.817  23.292  26.536  1.00  0.00     0.001 A 
ATOM     79  C   UNL A   1      41.294  21.862  27.768  1.00  0.00     0.001 A 
ATOM     80  C   UNL A   1      40.140  22.029  27.014  1.00  0.00     0.000 A 
ENDBRANCH  61  75
BRANCH  62  81
ATOM     81  C   UNL A   1      45.103  33.151  29.684  1.00  0.00    -0.014 A 
ATOM     82  C   UNL A   1      44.883  34.498  29.325  1.00  0.00     0.009 A 
ATOM     83  C   UNL A   1      44.720  32.733  30.967  1.00  0.00     0.009 A 
ATOM     84  C   UNL A   1      44.172  35.359  30.166  1.00  0.00     0.001 A 
ATOM     85  C   UNL A   1      44.022  33.606  31.813  1.00  0.00     0.001 A 
ATOM     86  C   UNL A   1      43.709  34.901  31.396  1.00  0.00     0.000 A 
ENDBRANCH  62  81
BRANCH  74  87
ATOM     87  C   UNL A   1      47.978  26.549  28.544  1.00  0.00    -0.014 A 
ATOM     88  C   UNL A   1      48.635  25.783  27.575  1.00  0.00     0.009 A 
ATOM     89  C   UNL A   1      48.450  26.418  29.873  1.00  0.00     0.009 A 
ATOM     90  C   UNL A   1      49.680  24.912  27.917  1.00  0.00     0.001 A 
ATOM     91  C   UNL A   1      49.525  25.594  30.211  1.00  0.00     0.001 A 
ATOM     92  C   UNL A   1      50.135  24.829  29.231  1.00  0.00     0.000 A 
ENDBRANCH  74  87
ENDBRANCH  48  49
ENDBRANCH  40  43
ENDBRANCH  38  39
ENDBRANCH  37  38
ENDBRANCH   1  37
TORSDOF 13
ENDMDL
MODEL 3
REMARK VINA RESULT:      -9.1      4.758      9.215
REMARK SMILES Cc1ccc(-c2cnnc(-n3nc(C)c4c3NC(=O)C[C@@H]4c3ccc(C(=O)NCCCNC(=O)c4ccc(-c5c6nc(c(-c7ccccc7)c7ccc([nH]7)c(-c7ccccc7)c7nc(c(-c8ccccc8)c8ccc5[nH]8)C=C7)C=C6)cc4)cc3)n2)cc1
REMARK SMILES IDX 29 1 28 2 26 3 27 4 25 6 22 7 23 8 84 9 24 10 83 11 21 12
REMARK SMILES IDX 11 13 12 14 16 15 13 16 15 17 17 18 14 19 18 20 20 22 19 23
REMARK SMILES IDX 10 24 6 25 7 26 85 27 8 28 9 29 5 30 1 31 2 32 3 33 87 34
REMARK SMILES IDX 4 35 86 36 30 37 31 38 32 39 33 40 34 42 35 43 36 44 82 45
REMARK SMILES IDX 37 46 81 47 38 48 39 49 40 50 75 51 41 52 80 53 74 54 76 55
REMARK SMILES IDX 42 56 79 57 73 58 72 59 43 61 65 62 50 63 64 64 51 65 54 66
REMARK SMILES IDX 63 67 77 68 52 69 53 70 62 72 78 73 55 74 44 75 45 76 49 77
REMARK SMILES IDX 46 78 48 79 47 80 66 81 67 82 71 83 68 84 70 85 69 86 56 87
REMARK SMILES IDX 57 88 61 89 58 90 60 91 59 92
REMARK H PARENT 28 5 17 21 32 41 76 60 54 71
REMARK Flexibility Score: inf
ROOT
ATOM      1  C   UNL A   1      43.096  22.505  25.004  1.00  0.00     0.118 C 
ENDROOT
BRANCH   1   2
ATOM      2  N   UNL A   1      44.229  21.629  24.717  1.00  0.00    -0.352 N 
ATOM      3  C   UNL A   1      45.511  21.671  25.223  1.00  0.00     0.251 C 
ATOM      4  O   UNL A   1      46.279  20.729  25.070  1.00  0.00    -0.269 OA
ATOM      5  H   UNL A   1      44.052  20.906  24.072  1.00  0.00     0.163 HD
BRANCH   3   6
ATOM      6  C   UNL A   1      45.947  22.846  26.004  1.00  0.00     0.039 A 
ATOM      7  C   UNL A   1      46.440  25.240  27.374  1.00  0.00    -0.040 A 
ATOM      8  C   UNL A   1      45.782  24.165  28.008  1.00  0.00     0.005 A 
ATOM      9  C   UNL A   1      46.995  25.023  26.107  1.00  0.00     0.005 A 
ATOM     10  C   UNL A   1      45.535  22.973  27.329  1.00  0.00     0.014 A 
ATOM     11  C   UNL A   1      46.751  23.830  25.431  1.00  0.00     0.014 A 
BRANCH   7  12
ATOM     12  C   UNL A   1      46.473  26.569  28.097  1.00  0.00     0.064 C 
ATOM     13  N   UNL A   1      46.678  29.697  26.289  1.00  0.00    -0.180 N 
ATOM     14  N   UNL A   1      45.651  29.182  25.556  1.00  0.00    -0.168 NA
ATOM     15  C   UNL A   1      47.309  28.676  26.977  1.00  0.00     0.143 A 
ATOM     16  C   UNL A   1      45.384  28.005  26.129  1.00  0.00     0.066 A 
ATOM     17  C   UNL A   1      46.356  27.686  27.117  1.00  0.00     0.026 A 
ATOM     18  N   UNL A   1      48.569  28.538  27.527  1.00  0.00    -0.310 N 
ATOM     19  C   UNL A   1      44.223  27.225  25.633  1.00  0.00     0.069 C 
ATOM     20  C   UNL A   1      48.840  27.385  28.331  1.00  0.00     0.226 C 
ATOM     21  H   UNL A   1      49.263  29.216  27.370  1.00  0.00     0.171 HD
ATOM     22  C   UNL A   1      47.673  26.739  29.025  1.00  0.00     0.113 C 
ATOM     23  O   UNL A   1      50.020  27.100  28.514  1.00  0.00    -0.275 OA
BRANCH  13  24
ATOM     24  C   UNL A   1      46.782  31.098  26.526  1.00  0.00     0.272 A 
ATOM     25  C   UNL A   1      45.891  33.196  26.663  1.00  0.00     0.095 A 
ATOM     26  C   UNL A   1      47.145  33.729  26.417  1.00  0.00     0.164 A 
ATOM     27  N   UNL A   1      45.667  31.852  26.678  1.00  0.00    -0.208 NA
ATOM     28  N   UNL A   1      48.215  32.939  26.272  1.00  0.00    -0.153 NA
ATOM     29  N   UNL A   1      48.033  31.607  26.369  1.00  0.00    -0.109 NA
BRANCH  25  30
ATOM     30  C   UNL A   1      44.782  34.080  27.040  1.00  0.00     0.002 A 
ATOM     31  C   UNL A   1      41.201  36.336  27.960  1.00  0.00     0.044 C 
ATOM     32  C   UNL A   1      42.449  35.569  27.639  1.00  0.00    -0.051 A 
ATOM     33  C   UNL A   1      43.069  34.794  28.625  1.00  0.00     0.004 A 
ATOM     34  C   UNL A   1      43.010  35.612  26.360  1.00  0.00     0.004 A 
ATOM     35  C   UNL A   1      44.221  34.058  28.329  1.00  0.00     0.011 A 
ATOM     36  C   UNL A   1      44.165  34.881  26.067  1.00  0.00     0.011 A 
ENDBRANCH  25  30
ENDBRANCH  13  24
ENDBRANCH   7  12
ENDBRANCH   3   6
ENDBRANCH   1   2
BRANCH   1  37
ATOM     37  C   UNL A   1      42.266  22.045  26.197  1.00  0.00     0.042 C 
BRANCH  37  38
ATOM     38  C   UNL A   1      41.259  23.072  26.687  1.00  0.00     0.118 C 
BRANCH  38  39
ATOM     39  N   UNL A   1      41.208  24.292  25.891  1.00  0.00    -0.352 N 
ATOM     40  C   UNL A   1      40.940  25.591  26.287  1.00  0.00     0.251 C 
ATOM     41  H   UNL A   1      41.391  24.175  24.931  1.00  0.00     0.163 HD
ATOM     42  O   UNL A   1      40.892  26.481  25.442  1.00  0.00    -0.269 OA
BRANCH  40  43
ATOM     43  C   UNL A   1      40.880  25.934  27.730  1.00  0.00     0.039 A 
ATOM     44  C   UNL A   1      39.659  25.732  28.385  1.00  0.00     0.014 A 
ATOM     45  C   UNL A   1      41.881  26.680  28.341  1.00  0.00     0.014 A 
ATOM     46  C   UNL A   1      39.341  26.520  29.484  1.00  0.00     0.010 A 
ATOM     47  C   UNL A   1      41.531  27.550  29.346  1.00  0.00     0.010 A 
ATOM     48  C   UNL A   1      40.236  27.514  29.863  1.00  0.00    -0.014 A 
BRANCH  48  49
ATOM     49  C   UNL A   1      39.892  28.615  30.741  1.00  0.00     0.031 A 
ATOM     50  C   UNL A   1      39.175  29.775  30.197  1.00  0.00     0.074 A 
ATOM     51  C   UNL A   1      40.156  28.514  32.062  1.00  0.00     0.049 A 
ATOM     52  N   UNL A   1      39.228  30.955  30.705  1.00  0.00    -0.248 NA
ATOM     53  C   UNL A   1      38.363  29.696  28.986  1.00  0.00     0.031 C 
ATOM     54  C   UNL A   1      39.668  29.362  33.144  1.00  0.00     0.029 A 
ATOM     55  N   UNL A   1      41.117  27.706  32.664  1.00  0.00    -0.354 N 
ATOM     56  C   UNL A   1      38.243  31.696  30.100  1.00  0.00     0.074 A 
ATOM     57  C   UNL A   1      37.796  30.905  28.977  1.00  0.00     0.031 C 
ATOM     58  C   UNL A   1      40.480  29.219  34.205  1.00  0.00     0.029 A 
ATOM     59  C   UNL A   1      41.603  28.395  33.787  1.00  0.00     0.049 A 
ATOM     60  H   UNL A   1      41.403  26.815  32.358  1.00  0.00     0.167 HD
ATOM     61  C   UNL A   1      37.790  32.826  30.706  1.00  0.00     0.031 A 
ATOM     62  C   UNL A   1      42.913  28.780  33.841  1.00  0.00     0.031 A 
ATOM     63  C   UNL A   1      38.510  33.095  31.947  1.00  0.00     0.049 A 
ATOM     64  C   UNL A   1      43.091  30.283  33.862  1.00  0.00     0.074 A 
ATOM     65  C   UNL A   1      38.216  32.836  33.276  1.00  0.00     0.029 A 
ATOM     66  N   UNL A   1      39.870  33.382  31.893  1.00  0.00    -0.354 N 
ATOM     67  N   UNL A   1      42.174  31.132  33.485  1.00  0.00    -0.248 NA
ATOM     68  C   UNL A   1      44.315  30.949  34.299  1.00  0.00     0.031 C 
ATOM     69  C   UNL A   1      39.428  32.903  34.014  1.00  0.00     0.029 A 
ATOM     70  C   UNL A   1      40.447  33.233  33.139  1.00  0.00     0.049 A 
ATOM     71  H   UNL A   1      40.354  33.653  31.079  1.00  0.00     0.167 HD
ATOM     72  C   UNL A   1      42.637  32.414  33.636  1.00  0.00     0.074 A 
ATOM     73  C   UNL A   1      43.985  32.245  34.149  1.00  0.00     0.031 C 
ATOM     74  C   UNL A   1      41.867  33.500  33.326  1.00  0.00     0.031 A 
BRANCH  61  75
ATOM     75  C   UNL A   1      36.487  33.473  30.323  1.00  0.00    -0.014 A 
ATOM     76  C   UNL A   1      36.265  33.849  28.986  1.00  0.00     0.009 A 
ATOM     77  C   UNL A   1      35.466  33.782  31.238  1.00  0.00     0.009 A 
ATOM     78  C   UNL A   1      35.134  34.578  28.602  1.00  0.00     0.001 A 
ATOM     79  C   UNL A   1      34.351  34.546  30.867  1.00  0.00     0.001 A 
ATOM     80  C   UNL A   1      34.190  34.952  29.549  1.00  0.00     0.000 A 
ENDBRANCH  61  75
BRANCH  62  81
ATOM     81  C   UNL A   1      43.829  27.807  33.176  1.00  0.00    -0.014 A 
ATOM     82  C   UNL A   1      44.005  26.546  33.788  1.00  0.00     0.009 A 
ATOM     83  C   UNL A   1      44.157  27.940  31.819  1.00  0.00     0.009 A 
ATOM     84  C   UNL A   1      44.358  25.424  33.032  1.00  0.00     0.001 A 
ATOM     85  C   UNL A   1      44.527  26.814  31.071  1.00  0.00     0.001 A 
ATOM     86  C   UNL A   1      44.583  25.553  31.665  1.00  0.00     0.000 A 
ENDBRANCH  62  81
BRANCH  74  87
ATOM     87  C   UNL A   1      42.324  34.939  33.227  1.00  0.00    -0.014 A 
ATOM     88  C   UNL A   1      42.194  35.892  34.243  1.00  0.00     0.009 A 
ATOM     89  C   UNL A   1      43.056  35.340  32.082  1.00  0.00     0.009 A 
ATOM     90  C   UNL A   1      42.734  37.180  34.110  1.00  0.00     0.001 A 
ATOM     91  C   UNL A   1      43.642  36.602  31.968  1.00  0.00     0.001 A 
ATOM     92  C   UNL A   1      43.469  37.530  32.981  1.00  0.00     0.000 A 
ENDBRANCH  74  87
ENDBRANCH  48  49
ENDBRANCH  40  43
ENDBRANCH  38  39
ENDBRANCH  37  38
ENDBRANCH   1  37
TORSDOF 13
ENDMDL
