MODEL 1
REMARK VINA RESULT:     -11.9      0.000      0.000
REMARK SMILES C=C(C)COc1cc2oc(=O)c(CC(=O)N3CCC[C@H](C(=O)NCCCNC(=O)c4ccc(-c5c6nc(c(-c7ccccc7)c7ccc([nH]7)c(-c7ccccc7)c7nc(c(-c8ccccc8)c8ccc5[nH]8)C=C7)C=C6)cc4)C3)c(C)c2cc1Cl
REMARK SMILES IDX 21 1 22 2 23 3 20 5 16 6 17 7 78 8 18 9 19 10 14 11 15 12
REMARK SMILES IDX 13 13 12 14 6 15 7 16 83 17 8 18 82 19 84 20 9 21 81 22
REMARK SMILES IDX 10 23 79 24 11 25 80 26 5 27 4 28 2 29 1 30 3 31 24 32 25 33
REMARK SMILES IDX 26 34 27 35 28 36 29 38 30 39 31 40 77 41 32 42 76 43 33 44
REMARK SMILES IDX 34 45 35 46 70 47 36 48 75 49 69 50 71 51 37 52 74 53 68 54
REMARK SMILES IDX 67 55 38 57 60 58 45 59 59 60 46 61 49 62 58 63 72 64 47 65
REMARK SMILES IDX 48 66 57 68 73 69 50 70 39 71 40 72 44 73 41 74 43 75 42 76
REMARK SMILES IDX 61 77 62 78 66 79 63 80 65 81 64 82 51 83 52 84 56 85 53 86
REMARK SMILES IDX 55 87 54 88
REMARK H PARENT 23 4 27 37 71 56 49 67
REMARK Flexibility Score: inf
ROOT
ATOM      1  C   UNL A   1      35.638  22.747  26.108  1.00  0.00     0.224 C 
ATOM      2  O   UNL A   1      35.920  23.947  26.209  1.00  0.00    -0.275 OA
ATOM      3  N   UNL A   1      36.462  22.012  25.319  1.00  0.00    -0.356 N 
ATOM      4  H   UNL A   1      37.108  22.546  24.803  1.00  0.00     0.163 HD
ENDROOT
BRANCH   1   5
ATOM      5  C   UNL A   1      34.418  22.198  26.861  1.00  0.00     0.098 C 
ATOM      6  N   UNL A   1      32.598  21.333  25.356  1.00  0.00    -0.342 N 
ATOM      7  C   UNL A   1      31.609  22.209  25.999  1.00  0.00     0.119 C 
ATOM      8  C   UNL A   1      33.742  20.997  26.196  1.00  0.00     0.133 C 
ATOM      9  C   UNL A   1      32.215  23.490  26.567  1.00  0.00     0.022 C 
ATOM     10  C   UNL A   1      33.458  23.249  27.412  1.00  0.00     0.017 C 
BRANCH   6  11
ATOM     11  C   UNL A   1      32.374  20.945  24.040  1.00  0.00     0.227 C 
ATOM     12  O   UNL A   1      32.093  19.761  23.795  1.00  0.00    -0.275 OA
BRANCH  11  13
ATOM     13  C   UNL A   1      32.552  21.875  22.822  1.00  0.00     0.143 C 
BRANCH  13  14
ATOM     14  C   UNL A   1      32.727  23.360  22.977  1.00  0.00     0.051 A 
ATOM     15  C   UNL A   1      32.803  28.297  24.060  1.00  0.00     0.142 A 
ATOM     16  C   UNL A   1      33.776  27.313  23.915  1.00  0.00     0.096 A 
ATOM     17  C   UNL A   1      31.472  28.004  23.752  1.00  0.00     0.083 A 
ATOM     18  C   UNL A   1      33.389  26.024  23.547  1.00  0.00     0.142 A 
ATOM     19  C   UNL A   1      31.102  26.695  23.418  1.00  0.00     0.036 A 
ATOM     20  Cl  UNL A   1      30.240  29.211  23.752  1.00  0.00    -0.080 Cl
ATOM     21  O   UNL A   1      34.420  25.089  23.387  1.00  0.00    -0.422 OA
ATOM     22  C   UNL A   1      32.057  25.674  23.334  1.00  0.00     0.023 A 
ATOM     23  C   UNL A   1      34.158  23.784  23.013  1.00  0.00     0.340 A 
ATOM     24  C   UNL A   1      31.721  24.257  23.086  1.00  0.00    -0.029 A 
ATOM     25  O   UNL A   1      35.073  22.995  22.805  1.00  0.00    -0.246 OA
ATOM     26  C   UNL A   1      30.259  23.895  23.068  1.00  0.00     0.046 C 
BRANCH  15  27
ATOM     27  O   UNL A   1      33.190  29.556  24.434  1.00  0.00    -0.488 OA
BRANCH  27  28
ATOM     28  C   UNL A   1      33.548  29.609  25.828  1.00  0.00     0.260 C 
BRANCH  28  29
ATOM     29  C   UNL A   1      32.314  29.763  26.684  1.00  0.00    -0.043 C 
ATOM     30  C   UNL A   1      31.877  28.770  27.479  1.00  0.00     0.011 C 
ATOM     31  C   UNL A   1      31.625  31.096  26.634  1.00  0.00     0.042 C 
ENDBRANCH  28  29
ENDBRANCH  27  28
ENDBRANCH  15  27
ENDBRANCH  13  14
ENDBRANCH  11  13
ENDBRANCH   6  11
ENDBRANCH   1   5
BRANCH   3  32
ATOM     32  C   UNL A   1      36.562  20.586  25.099  1.00  0.00     0.117 C 
BRANCH  32  33
ATOM     33  C   UNL A   1      37.953  20.123  24.713  1.00  0.00     0.042 C 
BRANCH  33  34
ATOM     34  C   UNL A   1      38.987  20.431  25.779  1.00  0.00     0.118 C 
BRANCH  34  35
ATOM     35  N   UNL A   1      40.051  19.430  25.851  1.00  0.00    -0.352 N 
ATOM     36  C   UNL A   1      41.392  19.542  26.157  1.00  0.00     0.251 C 
ATOM     37  H   UNL A   1      39.759  18.513  25.644  1.00  0.00     0.163 HD
ATOM     38  O   UNL A   1      42.129  18.579  26.023  1.00  0.00    -0.269 OA
BRANCH  36  39
ATOM     39  C   UNL A   1      41.945  20.839  26.612  1.00  0.00     0.039 A 
ATOM     40  C   UNL A   1      42.048  21.129  27.967  1.00  0.00     0.014 A 
ATOM     41  C   UNL A   1      42.349  21.786  25.664  1.00  0.00     0.014 A 
ATOM     42  C   UNL A   1      42.302  22.431  28.372  1.00  0.00     0.010 A 
ATOM     43  C   UNL A   1      42.747  23.061  26.084  1.00  0.00     0.010 A 
ATOM     44  C   UNL A   1      42.664  23.414  27.438  1.00  0.00    -0.014 A 
BRANCH  44  45
ATOM     45  C   UNL A   1      42.957  24.791  27.921  1.00  0.00     0.031 A 
ATOM     46  C   UNL A   1      41.848  25.778  28.176  1.00  0.00     0.074 A 
ATOM     47  C   UNL A   1      44.231  25.120  28.214  1.00  0.00     0.049 A 
ATOM     48  N   UNL A   1      41.932  27.006  28.625  1.00  0.00    -0.248 NA
ATOM     49  C   UNL A   1      40.471  25.343  27.889  1.00  0.00     0.031 C 
ATOM     50  C   UNL A   1      45.390  24.240  28.034  1.00  0.00     0.029 A 
ATOM     51  N   UNL A   1      44.763  26.256  28.769  1.00  0.00    -0.354 N 
ATOM     52  C   UNL A   1      40.632  27.497  28.643  1.00  0.00     0.074 A 
ATOM     53  C   UNL A   1      39.776  26.444  28.144  1.00  0.00     0.031 C 
ATOM     54  C   UNL A   1      46.475  24.830  28.551  1.00  0.00     0.029 A 
ATOM     55  C   UNL A   1      46.113  26.166  29.011  1.00  0.00     0.049 A 
ATOM     56  H   UNL A   1      44.231  27.058  28.974  1.00  0.00     0.167 HD
ATOM     57  C   UNL A   1      40.194  28.713  29.045  1.00  0.00     0.031 A 
ATOM     58  C   UNL A   1      46.977  27.059  29.528  1.00  0.00     0.031 A 
ATOM     59  C   UNL A   1      41.047  29.749  29.565  1.00  0.00     0.049 A 
ATOM     60  C   UNL A   1      46.471  28.410  29.933  1.00  0.00     0.074 A 
ATOM     61  C   UNL A   1      40.690  31.011  30.009  1.00  0.00     0.029 A 
ATOM     62  N   UNL A   1      42.420  29.642  29.721  1.00  0.00    -0.354 N 
ATOM     63  N   UNL A   1      45.241  28.861  29.922  1.00  0.00    -0.248 NA
ATOM     64  C   UNL A   1      47.467  29.379  30.408  1.00  0.00     0.031 C 
ATOM     65  C   UNL A   1      41.853  31.686  30.383  1.00  0.00     0.029 A 
ATOM     66  C   UNL A   1      42.927  30.823  30.233  1.00  0.00     0.049 A 
ATOM     67  H   UNL A   1      42.954  28.845  29.501  1.00  0.00     0.167 HD
ATOM     68  C   UNL A   1      45.313  30.166  30.387  1.00  0.00     0.074 A 
ATOM     69  C   UNL A   1      46.703  30.424  30.699  1.00  0.00     0.031 C 
ATOM     70  C   UNL A   1      44.315  31.069  30.532  1.00  0.00     0.031 A 
BRANCH  57  71
ATOM     71  C   UNL A   1      38.725  29.014  28.928  1.00  0.00    -0.014 A 
ATOM     72  C   UNL A   1      38.213  29.513  27.718  1.00  0.00     0.009 A 
ATOM     73  C   UNL A   1      37.867  28.905  30.033  1.00  0.00     0.009 A 
ATOM     74  C   UNL A   1      36.879  29.910  27.621  1.00  0.00     0.001 A 
ATOM     75  C   UNL A   1      36.525  29.280  29.924  1.00  0.00     0.001 A 
ATOM     76  C   UNL A   1      36.035  29.791  28.723  1.00  0.00     0.000 A 
ENDBRANCH  57  71
BRANCH  58  77
ATOM     77  C   UNL A   1      48.410  26.686  29.667  1.00  0.00    -0.014 A 
ATOM     78  C   UNL A   1      49.313  26.925  28.616  1.00  0.00     0.009 A 
ATOM     79  C   UNL A   1      48.868  26.025  30.816  1.00  0.00     0.009 A 
ATOM     80  C   UNL A   1      50.631  26.476  28.696  1.00  0.00     0.001 A 
ATOM     81  C   UNL A   1      50.197  25.605  30.906  1.00  0.00     0.001 A 
ATOM     82  C   UNL A   1      51.073  25.819  29.842  1.00  0.00     0.000 A 
ENDBRANCH  58  77
BRANCH  70  83
ATOM     83  C   UNL A   1      44.675  32.429  31.057  1.00  0.00    -0.014 A 
ATOM     84  C   UNL A   1      44.624  32.680  32.437  1.00  0.00     0.009 A 
ATOM     85  C   UNL A   1      44.967  33.485  30.179  1.00  0.00     0.009 A 
ATOM     86  C   UNL A   1      44.843  33.967  32.928  1.00  0.00     0.001 A 
ATOM     87  C   UNL A   1      45.212  34.765  30.678  1.00  0.00     0.001 A 
ATOM     88  C   UNL A   1      45.140  35.008  32.049  1.00  0.00     0.000 A 
ENDBRANCH  70  83
ENDBRANCH  44  45
ENDBRANCH  36  39
ENDBRANCH  34  35
ENDBRANCH  33  34
ENDBRANCH  32  33
ENDBRANCH   3  32
TORSDOF 16
ENDMDL
MODEL 2
REMARK VINA RESULT:     -11.8      0.158      5.593
REMARK SMILES C=C(C)COc1cc2oc(=O)c(CC(=O)N3CCC[C@H](C(=O)NCCCNC(=O)c4ccc(-c5c6nc(c(-c7ccccc7)c7ccc([nH]7)c(-c7ccccc7)c7nc(c(-c8ccccc8)c8ccc5[nH]8)C=C7)C=C6)cc4)C3)c(C)c2cc1Cl
REMARK SMILES IDX 21 1 22 2 23 3 20 5 16 6 17 7 78 8 18 9 19 10 14 11 15 12
REMARK SMILES IDX 13 13 12 14 6 15 7 16 83 17 8 18 82 19 84 20 9 21 81 22
REMARK SMILES IDX 10 23 79 24 11 25 80 26 5 27 4 28 2 29 1 30 3 31 24 32 25 33
REMARK SMILES IDX 26 34 27 35 28 36 29 38 30 39 31 40 77 41 32 42 76 43 33 44
REMARK SMILES IDX 34 45 35 46 70 47 36 48 75 49 69 50 71 51 37 52 74 53 68 54
REMARK SMILES IDX 67 55 38 57 60 58 45 59 59 60 46 61 49 62 58 63 72 64 47 65
REMARK SMILES IDX 48 66 57 68 73 69 50 70 39 71 40 72 44 73 41 74 43 75 42 76
REMARK SMILES IDX 61 77 62 78 66 79 63 80 65 81 64 82 51 83 52 84 56 85 53 86
REMARK SMILES IDX 55 87 54 88
REMARK H PARENT 23 4 27 37 71 56 49 67
REMARK Flexibility Score: inf
ROOT
ATOM      1  C   UNL A   1      35.546  22.861  26.048  1.00  0.00     0.224 C 
ATOM      2  O   UNL A   1      35.759  24.076  26.146  1.00  0.00    -0.275 OA
ATOM      3  N   UNL A   1      36.421  22.170  25.274  1.00  0.00    -0.356 N 
ATOM      4  H   UNL A   1      37.043  22.737  24.763  1.00  0.00     0.163 HD
ENDROOT
BRANCH   1   5
ATOM      5  C   UNL A   1      34.349  22.248  26.788  1.00  0.00     0.098 C 
ATOM      6  N   UNL A   1      32.572  21.329  25.263  1.00  0.00    -0.342 N 
ATOM      7  C   UNL A   1      31.545  22.151  25.916  1.00  0.00     0.119 C 
ATOM      8  C   UNL A   1      33.728  21.029  26.101  1.00  0.00     0.133 C 
ATOM      9  C   UNL A   1      32.093  23.448  26.506  1.00  0.00     0.022 C 
ATOM     10  C   UNL A   1      33.342  23.248  27.351  1.00  0.00     0.017 C 
BRANCH   6  11
ATOM     11  C   UNL A   1      32.370  20.952  23.941  1.00  0.00     0.227 C 
ATOM     12  O   UNL A   1      32.148  19.760  23.675  1.00  0.00    -0.275 OA
BRANCH  11  13
ATOM     13  C   UNL A   1      32.504  21.909  22.738  1.00  0.00     0.143 C 
BRANCH  13  14
ATOM     14  C   UNL A   1      32.686  23.390  22.920  1.00  0.00     0.051 A 
ATOM     15  C   UNL A   1      32.795  28.303  24.103  1.00  0.00     0.142 A 
ATOM     16  C   UNL A   1      33.763  27.321  23.920  1.00  0.00     0.096 A 
ATOM     17  C   UNL A   1      31.457  28.020  23.813  1.00  0.00     0.083 A 
ATOM     18  C   UNL A   1      33.365  26.040  23.532  1.00  0.00     0.142 A 
ATOM     19  C   UNL A   1      31.078  26.719  23.458  1.00  0.00     0.036 A 
ATOM     20  Cl  UNL A   1      30.229  29.230  23.860  1.00  0.00    -0.080 Cl
ATOM     21  O   UNL A   1      34.391  25.106  23.335  1.00  0.00    -0.422 OA
ATOM     22  C   UNL A   1      32.029  25.698  23.337  1.00  0.00     0.023 A 
ATOM     23  C   UNL A   1      34.119  23.810  22.939  1.00  0.00     0.340 A 
ATOM     24  C   UNL A   1      31.685  24.288  23.066  1.00  0.00    -0.029 A 
ATOM     25  O   UNL A   1      35.027  23.024  22.699  1.00  0.00    -0.246 OA
ATOM     26  C   UNL A   1      30.222  23.929  23.066  1.00  0.00     0.046 C 
BRANCH  15  27
ATOM     27  O   UNL A   1      33.192  29.554  24.495  1.00  0.00    -0.488 OA
BRANCH  27  28
ATOM     28  C   UNL A   1      33.523  29.590  25.896  1.00  0.00     0.260 C 
BRANCH  28  29
ATOM     29  C   UNL A   1      32.295  29.892  26.721  1.00  0.00    -0.043 C 
ATOM     30  C   UNL A   1      31.732  31.113  26.730  1.00  0.00     0.011 C 
ATOM     31  C   UNL A   1      31.710  28.747  27.496  1.00  0.00     0.042 C 
ENDBRANCH  28  29
ENDBRANCH  27  28
ENDBRANCH  15  27
ENDBRANCH  13  14
ENDBRANCH  11  13
ENDBRANCH   6  11
ENDBRANCH   1   5
BRANCH   3  32
ATOM     32  C   UNL A   1      36.604  20.751  25.063  1.00  0.00     0.117 C 
BRANCH  32  33
ATOM     33  C   UNL A   1      38.030  20.361  24.726  1.00  0.00     0.042 C 
BRANCH  33  34
ATOM     34  C   UNL A   1      38.947  20.405  25.934  1.00  0.00     0.118 C 
BRANCH  34  35
ATOM     35  N   UNL A   1      40.050  19.447  25.850  1.00  0.00    -0.352 N 
ATOM     36  C   UNL A   1      41.403  19.591  26.078  1.00  0.00     0.251 C 
ATOM     37  H   UNL A   1      39.779  18.540  25.583  1.00  0.00     0.163 HD
ATOM     38  O   UNL A   1      42.165  18.674  25.814  1.00  0.00    -0.269 OA
BRANCH  36  39
ATOM     39  C   UNL A   1      41.938  20.867  26.606  1.00  0.00     0.039 A 
ATOM     40  C   UNL A   1      42.127  21.045  27.972  1.00  0.00     0.014 A 
ATOM     41  C   UNL A   1      42.236  21.909  25.721  1.00  0.00     0.014 A 
ATOM     42  C   UNL A   1      42.359  22.317  28.472  1.00  0.00     0.010 A 
ATOM     43  C   UNL A   1      42.613  23.160  26.224  1.00  0.00     0.010 A 
ATOM     44  C   UNL A   1      42.615  23.392  27.607  1.00  0.00    -0.014 A 
BRANCH  44  45
ATOM     45  C   UNL A   1      42.889  24.733  28.189  1.00  0.00     0.031 A 
ATOM     46  C   UNL A   1      44.297  25.184  28.476  1.00  0.00     0.074 A 
ATOM     47  C   UNL A   1      41.860  25.584  28.376  1.00  0.00     0.049 A 
ATOM     48  N   UNL A   1      44.708  26.333  28.956  1.00  0.00    -0.248 NA
ATOM     49  C   UNL A   1      45.385  24.232  28.200  1.00  0.00     0.031 C 
ATOM     50  C   UNL A   1      40.452  25.271  28.110  1.00  0.00     0.029 A 
ATOM     51  N   UNL A   1      41.835  26.893  28.783  1.00  0.00    -0.354 N 
ATOM     52  C   UNL A   1      46.089  26.228  29.068  1.00  0.00     0.074 A 
ATOM     53  C   UNL A   1      46.450  24.901  28.624  1.00  0.00     0.031 C 
ATOM     54  C   UNL A   1      39.717  26.379  28.273  1.00  0.00     0.029 A 
ATOM     55  C   UNL A   1      40.580  27.453  28.747  1.00  0.00     0.049 A 
ATOM     56  H   UNL A   1      42.637  27.384  29.074  1.00  0.00     0.167 HD
ATOM     57  C   UNL A   1      46.974  27.159  29.495  1.00  0.00     0.031 A 
ATOM     58  C   UNL A   1      40.157  28.689  29.075  1.00  0.00     0.031 A 
ATOM     59  C   UNL A   1      46.613  28.488  29.912  1.00  0.00     0.049 A 
ATOM     60  C   UNL A   1      41.154  29.688  29.578  1.00  0.00     0.074 A 
ATOM     61  C   UNL A   1      47.444  29.505  30.351  1.00  0.00     0.029 A 
ATOM     62  N   UNL A   1      45.320  28.989  29.932  1.00  0.00    -0.354 N 
ATOM     63  N   UNL A   1      42.453  29.563  29.697  1.00  0.00    -0.248 NA
ATOM     64  C   UNL A   1      40.630  30.992  30.006  1.00  0.00     0.031 C 
ATOM     65  C   UNL A   1      46.649  30.603  30.687  1.00  0.00     0.029 A 
ATOM     66  C   UNL A   1      45.329  30.292  30.397  1.00  0.00     0.049 A 
ATOM     67  H   UNL A   1      44.516  28.492  29.656  1.00  0.00     0.167 HD
ATOM     68  C   UNL A   1      42.904  30.769  30.212  1.00  0.00     0.074 A 
ATOM     69  C   UNL A   1      41.743  31.624  30.356  1.00  0.00     0.031 C 
ATOM     70  C   UNL A   1      44.166  31.129  30.543  1.00  0.00     0.031 A 
BRANCH  57  71
ATOM     71  C   UNL A   1      48.429  26.781  29.559  1.00  0.00    -0.014 A 
ATOM     72  C   UNL A   1      49.260  27.036  28.455  1.00  0.00     0.009 A 
ATOM     73  C   UNL A   1      48.955  26.087  30.658  1.00  0.00     0.009 A 
ATOM     74  C   UNL A   1      50.582  26.589  28.444  1.00  0.00     0.001 A 
ATOM     75  C   UNL A   1      50.287  25.664  30.654  1.00  0.00     0.001 A 
ATOM     76  C   UNL A   1      51.096  25.906  29.545  1.00  0.00     0.000 A 
ENDBRANCH  57  71
BRANCH  58  77
ATOM     77  C   UNL A   1      38.714  29.020  28.943  1.00  0.00    -0.014 A 
ATOM     78  C   UNL A   1      38.204  29.509  27.727  1.00  0.00     0.009 A 
ATOM     79  C   UNL A   1      37.854  28.921  30.047  1.00  0.00     0.009 A 
ATOM     80  C   UNL A   1      36.877  29.927  27.630  1.00  0.00     0.001 A 
ATOM     81  C   UNL A   1      36.518  29.310  29.937  1.00  0.00     0.001 A 
ATOM     82  C   UNL A   1      36.034  29.825  28.734  1.00  0.00     0.000 A 
ENDBRANCH  58  77
BRANCH  70  83
ATOM     83  C   UNL A   1      44.375  32.510  31.093  1.00  0.00    -0.014 A 
ATOM     84  C   UNL A   1      44.675  33.570  30.223  1.00  0.00     0.009 A 
ATOM     85  C   UNL A   1      44.377  32.741  32.478  1.00  0.00     0.009 A 
ATOM     86  C   UNL A   1      44.986  34.832  30.728  1.00  0.00     0.001 A 
ATOM     87  C   UNL A   1      44.663  34.012  32.978  1.00  0.00     0.001 A 
ATOM     88  C   UNL A   1      44.977  35.053  32.105  1.00  0.00     0.000 A 
ENDBRANCH  70  83
ENDBRANCH  44  45
ENDBRANCH  36  39
ENDBRANCH  34  35
ENDBRANCH  33  34
ENDBRANCH  32  33
ENDBRANCH   3  32
TORSDOF 16
ENDMDL
MODEL 3
REMARK VINA RESULT:     -11.6      3.970      9.000
REMARK SMILES C=C(C)COc1cc2oc(=O)c(CC(=O)N3CCC[C@H](C(=O)NCCCNC(=O)c4ccc(-c5c6nc(c(-c7ccccc7)c7ccc([nH]7)c(-c7ccccc7)c7nc(c(-c8ccccc8)c8ccc5[nH]8)C=C7)C=C6)cc4)C3)c(C)c2cc1Cl
REMARK SMILES IDX 21 1 22 2 23 3 20 5 16 6 17 7 78 8 18 9 19 10 14 11 15 12
REMARK SMILES IDX 13 13 12 14 6 15 7 16 83 17 8 18 82 19 84 20 9 21 81 22
REMARK SMILES IDX 10 23 79 24 11 25 80 26 5 27 4 28 2 29 1 30 3 31 24 32 25 33
REMARK SMILES IDX 26 34 27 35 28 36 29 38 30 39 31 40 77 41 32 42 76 43 33 44
REMARK SMILES IDX 34 45 35 46 70 47 36 48 75 49 69 50 71 51 37 52 74 53 68 54
REMARK SMILES IDX 67 55 38 57 60 58 45 59 59 60 46 61 49 62 58 63 72 64 47 65
REMARK SMILES IDX 48 66 57 68 73 69 50 70 39 71 40 72 44 73 41 74 43 75 42 76
REMARK SMILES IDX 61 77 62 78 66 79 63 80 65 81 64 82 51 83 52 84 56 85 53 86
REMARK SMILES IDX 55 87 54 88
REMARK H PARENT 23 4 27 37 71 56 49 67
REMARK Flexibility Score: inf
ROOT
ATOM      1  C   UNL A   1      33.423  28.805  25.245  1.00  0.00     0.224 C 
ATOM      2  O   UNL A   1      34.277  28.101  25.799  1.00  0.00    -0.275 OA
ATOM      3  N   UNL A   1      32.663  29.569  26.071  1.00  0.00    -0.356 N 
ATOM      4  H   UNL A   1      32.782  29.369  27.028  1.00  0.00     0.163 HD
ENDROOT
BRANCH   1   5
ATOM      5  C   UNL A   1      33.296  28.764  23.716  1.00  0.00     0.098 C 
ATOM      6  N   UNL A   1      31.127  27.784  22.903  1.00  0.00    -0.342 N 
ATOM      7  C   UNL A   1      31.844  26.803  22.078  1.00  0.00     0.119 C 
ATOM      8  C   UNL A   1      31.879  29.001  23.186  1.00  0.00     0.133 C 
ATOM      9  C   UNL A   1      33.216  26.432  22.636  1.00  0.00     0.022 C 
ATOM     10  C   UNL A   1      34.059  27.639  23.023  1.00  0.00     0.017 C 
BRANCH   6  11
ATOM     11  C   UNL A   1      29.851  27.459  23.349  1.00  0.00     0.227 C 
ATOM     12  O   UNL A   1      28.869  28.039  22.859  1.00  0.00    -0.275 OA
BRANCH  11  13
ATOM     13  C   UNL A   1      29.562  26.480  24.506  1.00  0.00     0.143 C 
BRANCH  13  14
ATOM     14  C   UNL A   1      30.606  25.529  25.019  1.00  0.00     0.051 A 
ATOM     15  C   UNL A   1      34.352  22.284  26.017  1.00  0.00     0.142 A 
ATOM     16  C   UNL A   1      33.959  23.513  26.539  1.00  0.00     0.096 A 
ATOM     17  C   UNL A   1      33.546  21.642  25.073  1.00  0.00     0.083 A 
ATOM     18  C   UNL A   1      32.805  24.123  26.043  1.00  0.00     0.142 A 
ATOM     19  C   UNL A   1      32.411  22.289  24.566  1.00  0.00     0.036 A 
ATOM     20  Cl  UNL A   1      33.884  20.050  24.503  1.00  0.00    -0.080 Cl
ATOM     21  O   UNL A   1      32.446  25.342  26.633  1.00  0.00    -0.422 OA
ATOM     22  C   UNL A   1      32.036  23.557  25.028  1.00  0.00     0.023 A 
ATOM     23  C   UNL A   1      31.317  26.032  26.232  1.00  0.00     0.340 A 
ATOM     24  C   UNL A   1      30.913  24.334  24.465  1.00  0.00    -0.029 A 
ATOM     25  O   UNL A   1      30.974  27.059  26.804  1.00  0.00    -0.246 OA
ATOM     26  C   UNL A   1      30.242  23.774  23.238  1.00  0.00     0.046 C 
BRANCH  15  27
ATOM     27  O   UNL A   1      35.492  21.698  26.500  1.00  0.00    -0.488 OA
BRANCH  27  28
ATOM     28  C   UNL A   1      36.675  22.354  26.006  1.00  0.00     0.260 C 
BRANCH  28  29
ATOM     29  C   UNL A   1      37.095  21.758  24.683  1.00  0.00    -0.043 C 
ATOM     30  C   UNL A   1      37.642  20.532  24.602  1.00  0.00     0.011 C 
ATOM     31  C   UNL A   1      36.830  22.588  23.460  1.00  0.00     0.042 C 
ENDBRANCH  28  29
ENDBRANCH  27  28
ENDBRANCH  15  27
ENDBRANCH  13  14
ENDBRANCH  11  13
ENDBRANCH   6  11
ENDBRANCH   1   5
BRANCH   3  32
ATOM     32  C   UNL A   1      31.710  30.621  25.799  1.00  0.00     0.117 C 
BRANCH  32  33
ATOM     33  C   UNL A   1      31.534  31.599  26.945  1.00  0.00     0.042 C 
BRANCH  33  34
ATOM     34  C   UNL A   1      32.787  32.411  27.216  1.00  0.00     0.118 C 
BRANCH  34  35
ATOM     35  N   UNL A   1      32.501  33.802  27.570  1.00  0.00    -0.352 N 
ATOM     36  C   UNL A   1      33.098  34.654  28.476  1.00  0.00     0.251 C 
ATOM     37  H   UNL A   1      31.749  34.199  27.075  1.00  0.00     0.163 HD
ATOM     38  O   UNL A   1      32.601  35.745  28.703  1.00  0.00    -0.269 OA
BRANCH  36  39
ATOM     39  C   UNL A   1      34.320  34.233  29.200  1.00  0.00     0.039 A 
ATOM     40  C   UNL A   1      35.580  34.560  28.713  1.00  0.00     0.014 A 
ATOM     41  C   UNL A   1      34.201  33.482  30.375  1.00  0.00     0.014 A 
ATOM     42  C   UNL A   1      36.701  33.934  29.237  1.00  0.00     0.010 A 
ATOM     43  C   UNL A   1      35.349  32.969  30.989  1.00  0.00     0.010 A 
ATOM     44  C   UNL A   1      36.604  33.137  30.389  1.00  0.00    -0.014 A 
BRANCH  44  45
ATOM     45  C   UNL A   1      37.838  32.509  30.933  1.00  0.00     0.031 A 
ATOM     46  C   UNL A   1      38.445  32.982  32.228  1.00  0.00     0.074 A 
ATOM     47  C   UNL A   1      38.363  31.444  30.295  1.00  0.00     0.049 A 
ATOM     48  N   UNL A   1      39.501  32.522  32.854  1.00  0.00    -0.248 NA
ATOM     49  C   UNL A   1      37.796  34.114  32.910  1.00  0.00     0.031 C 
ATOM     50  C   UNL A   1      37.848  30.876  29.044  1.00  0.00     0.029 A 
ATOM     51  N   UNL A   1      39.407  30.619  30.626  1.00  0.00    -0.354 N 
ATOM     52  C   UNL A   1      39.660  33.326  33.977  1.00  0.00     0.074 A 
ATOM     53  C   UNL A   1      38.605  34.314  33.943  1.00  0.00     0.031 C 
ATOM     54  C   UNL A   1      38.517  29.750  28.765  1.00  0.00     0.029 A 
ATOM     55  C   UNL A   1      39.568  29.566  29.757  1.00  0.00     0.049 A 
ATOM     56  H   UNL A   1      39.985  30.766  31.409  1.00  0.00     0.167 HD
ATOM     57  C   UNL A   1      40.596  33.240  34.950  1.00  0.00     0.031 A 
ATOM     58  C   UNL A   1      40.471  28.566  29.742  1.00  0.00     0.031 A 
ATOM     59  C   UNL A   1      41.629  32.239  34.994  1.00  0.00     0.049 A 
ATOM     60  C   UNL A   1      41.518  28.517  30.813  1.00  0.00     0.074 A 
ATOM     61  C   UNL A   1      42.617  32.068  35.948  1.00  0.00     0.029 A 
ATOM     62  N   UNL A   1      41.803  31.237  34.052  1.00  0.00    -0.354 N 
ATOM     63  N   UNL A   1      41.663  29.298  31.854  1.00  0.00    -0.248 NA
ATOM     64  C   UNL A   1      42.532  27.460  30.702  1.00  0.00     0.031 C 
ATOM     65  C   UNL A   1      43.421  30.995  35.556  1.00  0.00     0.029 A 
ATOM     66  C   UNL A   1      42.895  30.458  34.391  1.00  0.00     0.049 A 
ATOM     67  H   UNL A   1      41.233  31.099  33.261  1.00  0.00     0.167 HD
ATOM     68  C   UNL A   1      42.784  28.831  32.525  1.00  0.00     0.074 A 
ATOM     69  C   UNL A   1      43.264  27.679  31.788  1.00  0.00     0.031 C 
ATOM     70  C   UNL A   1      43.366  29.320  33.645  1.00  0.00     0.031 A 
BRANCH  57  71
ATOM     71  C   UNL A   1      40.574  34.265  36.051  1.00  0.00    -0.014 A 
ATOM     72  C   UNL A   1      39.829  34.015  37.217  1.00  0.00     0.009 A 
ATOM     73  C   UNL A   1      41.198  35.512  35.900  1.00  0.00     0.009 A 
ATOM     74  C   UNL A   1      39.696  34.997  38.199  1.00  0.00     0.001 A 
ATOM     75  C   UNL A   1      41.084  36.484  36.899  1.00  0.00     0.001 A 
ATOM     76  C   UNL A   1      40.327  36.230  38.041  1.00  0.00     0.000 A 
ENDBRANCH  57  71
BRANCH  58  77
ATOM     77  C   UNL A   1      40.412  27.552  28.656  1.00  0.00    -0.014 A 
ATOM     78  C   UNL A   1      41.059  27.785  27.430  1.00  0.00     0.009 A 
ATOM     79  C   UNL A   1      39.652  26.384  28.810  1.00  0.00     0.009 A 
ATOM     80  C   UNL A   1      40.914  26.890  26.369  1.00  0.00     0.001 A 
ATOM     81  C   UNL A   1      39.536  25.474  27.757  1.00  0.00     0.001 A 
ATOM     82  C   UNL A   1      40.155  25.734  26.534  1.00  0.00     0.000 A 
ENDBRANCH  58  77
BRANCH  70  83
ATOM     83  C   UNL A   1      44.589  28.617  34.159  1.00  0.00    -0.014 A 
ATOM     84  C   UNL A   1      45.857  28.988  33.686  1.00  0.00     0.009 A 
ATOM     85  C   UNL A   1      44.477  27.524  35.033  1.00  0.00     0.009 A 
ATOM     86  C   UNL A   1      46.990  28.268  34.066  1.00  0.00     0.001 A 
ATOM     87  C   UNL A   1      45.616  26.823  35.431  1.00  0.00     0.001 A 
ATOM     88  C   UNL A   1      46.869  27.188  34.941  1.00  0.00     0.000 A 
ENDBRANCH  70  83
ENDBRANCH  44  45
ENDBRANCH  36  39
ENDBRANCH  34  35
ENDBRANCH  33  34
ENDBRANCH  32  33
ENDBRANCH   3  32
TORSDOF 16
ENDMDL
