MODEL 1
REMARK VINA RESULT:     -12.5      0.000      0.000
REMARK SMILES Cc1ccc(Nc2c(Cl)cc(Cl)cc2Cl)c(CC(=O)NCCCNC(=O)c2ccc(-c3c4nc(c(-c5ccccc5)c5ccc([nH]5)c(-c5ccccc5)c5nc(c(-c6ccccc6)c6ccc3[nH]6)C=C5)C=C4)cc2)c1
REMARK SMILES IDX 21 1 20 2 18 3 19 4 17 6 16 7 1 8 2 9 3 10 75 11 4 12 5 13
REMARK SMILES IDX 6 14 7 16 8 17 14 18 9 19 10 20 13 21 15 22 11 23 12 24
REMARK SMILES IDX 22 25 23 26 24 27 25 28 26 30 27 31 28 32 74 33 29 34 73 35
REMARK SMILES IDX 30 36 31 37 32 38 67 39 33 40 72 41 66 42 68 43 34 44 71 45
REMARK SMILES IDX 65 46 64 47 35 49 57 50 42 51 56 52 43 53 46 54 55 55 69 56
REMARK SMILES IDX 44 57 45 58 54 60 70 61 47 62 36 63 37 64 41 65 38 66 40 67
REMARK SMILES IDX 39 68 58 69 59 70 63 71 60 72 62 73 61 74 48 75 49 76 53 77
REMARK SMILES IDX 50 78 52 79 51 80
REMARK H PARENT 20 5 6 15 24 29 68 48 46 59
REMARK Flexibility Score: inf
ROOT
ATOM      1  C   UNL A   1      38.005  22.967  25.670  1.00  0.00     0.117 C 
ENDROOT
BRANCH   1   2
ATOM      2  N   UNL A   1      37.386  23.228  24.380  1.00  0.00    -0.356 N 
ATOM      3  C   UNL A   1      36.071  23.129  24.019  1.00  0.00     0.224 C 
ATOM      4  O   UNL A   1      35.769  23.304  22.836  1.00  0.00    -0.275 OA
ATOM      5  H   UNL A   1      38.000  23.515  23.666  1.00  0.00     0.163 HD
BRANCH   3   6
ATOM      6  C   UNL A   1      34.999  22.770  25.037  1.00  0.00     0.137 C 
BRANCH   6   7
ATOM      7  C   UNL A   1      34.079  21.665  24.561  1.00  0.00    -0.015 A 
ATOM      8  C   UNL A   1      34.207  17.840  24.552  1.00  0.00     0.044 C 
ATOM      9  C   UNL A   1      33.745  19.249  24.328  1.00  0.00    -0.051 A 
ATOM     10  C   UNL A   1      32.620  19.499  23.547  1.00  0.00     0.005 A 
ATOM     11  C   UNL A   1      34.446  20.334  24.862  1.00  0.00     0.009 A 
ATOM     12  C   UNL A   1      32.212  20.810  23.293  1.00  0.00     0.026 A 
ATOM     13  C   UNL A   1      32.930  21.917  23.779  1.00  0.00     0.042 A 
BRANCH  13  14
ATOM     14  N   UNL A   1      32.490  23.237  23.525  1.00  0.00    -0.353 N 
ATOM     15  H   UNL A   1      32.304  23.445  22.581  1.00  0.00     0.167 HD
BRANCH  14  16
ATOM     16  C   UNL A   1      32.282  24.302  24.437  1.00  0.00     0.076 A 
ATOM     17  C   UNL A   1      31.509  24.168  25.610  1.00  0.00     0.067 A 
ATOM     18  C   UNL A   1      32.788  25.584  24.135  1.00  0.00     0.067 A 
ATOM     19  Cl  UNL A   1      30.916  22.633  26.153  1.00  0.00    -0.082 Cl
ATOM     20  C   UNL A   1      31.236  25.272  26.426  1.00  0.00     0.043 A 
ATOM     21  C   UNL A   1      32.523  26.686  24.952  1.00  0.00     0.043 A 
ATOM     22  Cl  UNL A   1      33.726  25.859  22.705  1.00  0.00    -0.082 Cl
ATOM     23  C   UNL A   1      31.740  26.524  26.089  1.00  0.00     0.044 A 
ATOM     24  Cl  UNL A   1      31.387  27.882  27.083  1.00  0.00    -0.084 Cl
ENDBRANCH  14  16
ENDBRANCH  13  14
ENDBRANCH   6   7
ENDBRANCH   3   6
ENDBRANCH   1   2
BRANCH   1  25
ATOM     25  C   UNL A   1      38.657  21.588  25.738  1.00  0.00     0.042 C 
BRANCH  25  26
ATOM     26  C   UNL A   1      40.010  21.560  26.428  1.00  0.00     0.118 C 
BRANCH  26  27
ATOM     27  N   UNL A   1      40.960  20.621  25.836  1.00  0.00    -0.352 N 
ATOM     28  C   UNL A   1      42.344  20.633  25.904  1.00  0.00     0.251 C 
ATOM     29  H   UNL A   1      40.563  19.882  25.320  1.00  0.00     0.163 HD
ATOM     30  O   UNL A   1      43.003  19.750  25.385  1.00  0.00    -0.269 OA
BRANCH  28  31
ATOM     31  C   UNL A   1      43.000  21.670  26.736  1.00  0.00     0.039 A 
ATOM     32  C   UNL A   1      42.770  21.635  28.114  1.00  0.00     0.014 A 
ATOM     33  C   UNL A   1      43.601  22.778  26.144  1.00  0.00     0.014 A 
ATOM     34  C   UNL A   1      42.892  22.809  28.848  1.00  0.00     0.010 A 
ATOM     35  C   UNL A   1      43.626  23.966  26.846  1.00  0.00     0.010 A 
ATOM     36  C   UNL A   1      43.195  23.993  28.177  1.00  0.00    -0.014 A 
BRANCH  36  37
ATOM     37  C   UNL A   1      42.933  25.308  28.746  1.00  0.00     0.031 A 
ATOM     38  C   UNL A   1      41.764  26.096  28.330  1.00  0.00     0.074 A 
ATOM     39  C   UNL A   1      43.747  25.792  29.711  1.00  0.00     0.049 A 
ATOM     40  N   UNL A   1      41.689  27.382  28.426  1.00  0.00    -0.248 NA
ATOM     41  C   UNL A   1      40.591  25.492  27.713  1.00  0.00     0.031 C 
ATOM     42  C   UNL A   1      43.518  26.938  30.585  1.00  0.00     0.029 A 
ATOM     43  N   UNL A   1      45.083  25.450  29.927  1.00  0.00    -0.354 N 
ATOM     44  C   UNL A   1      40.382  27.731  28.199  1.00  0.00     0.074 A 
ATOM     45  C   UNL A   1      39.767  26.542  27.651  1.00  0.00     0.031 C 
ATOM     46  C   UNL A   1      44.702  27.373  31.042  1.00  0.00     0.029 A 
ATOM     47  C   UNL A   1      45.737  26.624  30.351  1.00  0.00     0.049 A 
ATOM     48  H   UNL A   1      45.489  24.562  29.806  1.00  0.00     0.167 HD
ATOM     49  C   UNL A   1      39.926  28.937  28.639  1.00  0.00     0.031 A 
ATOM     50  C   UNL A   1      46.738  27.171  29.600  1.00  0.00     0.031 A 
ATOM     51  C   UNL A   1      40.992  29.766  29.210  1.00  0.00     0.049 A 
ATOM     52  C   UNL A   1      46.454  28.571  29.088  1.00  0.00     0.074 A 
ATOM     53  C   UNL A   1      41.339  30.158  30.494  1.00  0.00     0.029 A 
ATOM     54  N   UNL A   1      42.067  30.114  28.408  1.00  0.00    -0.354 N 
ATOM     55  N   UNL A   1      45.334  29.215  29.270  1.00  0.00    -0.248 NA
ATOM     56  C   UNL A   1      47.381  29.308  28.228  1.00  0.00     0.031 C 
ATOM     57  C   UNL A   1      42.627  30.763  30.446  1.00  0.00     0.029 A 
ATOM     58  C   UNL A   1      43.058  30.745  29.134  1.00  0.00     0.049 A 
ATOM     59  H   UNL A   1      42.118  29.935  27.441  1.00  0.00     0.167 HD
ATOM     60  C   UNL A   1      45.344  30.368  28.529  1.00  0.00     0.074 A 
ATOM     61  C   UNL A   1      46.650  30.388  27.899  1.00  0.00     0.031 C 
ATOM     62  C   UNL A   1      44.256  31.188  28.439  1.00  0.00     0.031 A 
BRANCH  49  63
ATOM     63  C   UNL A   1      38.456  29.260  28.785  1.00  0.00    -0.014 A 
ATOM     64  C   UNL A   1      37.736  29.750  27.681  1.00  0.00     0.009 A 
ATOM     65  C   UNL A   1      37.733  29.158  29.986  1.00  0.00     0.009 A 
ATOM     66  C   UNL A   1      36.418  30.214  27.796  1.00  0.00     0.001 A 
ATOM     67  C   UNL A   1      36.430  29.656  30.122  1.00  0.00     0.001 A 
ATOM     68  C   UNL A   1      35.776  30.197  29.026  1.00  0.00     0.000 A 
ENDBRANCH  49  63
BRANCH  50  69
ATOM     69  C   UNL A   1      47.542  26.153  28.864  1.00  0.00    -0.014 A 
ATOM     70  C   UNL A   1      47.232  25.902  27.511  1.00  0.00     0.009 A 
ATOM     71  C   UNL A   1      48.778  25.716  29.360  1.00  0.00     0.009 A 
ATOM     72  C   UNL A   1      48.180  25.338  26.653  1.00  0.00     0.001 A 
ATOM     73  C   UNL A   1      49.717  25.133  28.500  1.00  0.00     0.001 A 
ATOM     74  C   UNL A   1      49.432  24.980  27.143  1.00  0.00     0.000 A 
ENDBRANCH  50  69
BRANCH  62  75
ATOM     75  C   UNL A   1      44.204  32.465  27.640  1.00  0.00    -0.014 A 
ATOM     76  C   UNL A   1      43.961  33.722  28.208  1.00  0.00     0.009 A 
ATOM     77  C   UNL A   1      44.286  32.413  26.231  1.00  0.00     0.009 A 
ATOM     78  C   UNL A   1      43.878  34.875  27.415  1.00  0.00     0.001 A 
ATOM     79  C   UNL A   1      44.181  33.554  25.435  1.00  0.00     0.001 A 
ATOM     80  C   UNL A   1      43.991  34.791  26.030  1.00  0.00     0.000 A 
ENDBRANCH  62  75
ENDBRANCH  36  37
ENDBRANCH  28  31
ENDBRANCH  26  27
ENDBRANCH  25  26
ENDBRANCH   1  25
TORSDOF 13
ENDMDL
MODEL 2
REMARK VINA RESULT:     -12.5      3.459      8.133
REMARK SMILES Cc1ccc(Nc2c(Cl)cc(Cl)cc2Cl)c(CC(=O)NCCCNC(=O)c2ccc(-c3c4nc(c(-c5ccccc5)c5ccc([nH]5)c(-c5ccccc5)c5nc(c(-c6ccccc6)c6ccc3[nH]6)C=C5)C=C4)cc2)c1
REMARK SMILES IDX 21 1 20 2 18 3 19 4 17 6 16 7 1 8 2 9 3 10 75 11 4 12 5 13
REMARK SMILES IDX 6 14 7 16 8 17 14 18 9 19 10 20 13 21 15 22 11 23 12 24
REMARK SMILES IDX 22 25 23 26 24 27 25 28 26 30 27 31 28 32 74 33 29 34 73 35
REMARK SMILES IDX 30 36 31 37 32 38 67 39 33 40 72 41 66 42 68 43 34 44 71 45
REMARK SMILES IDX 65 46 64 47 35 49 57 50 42 51 56 52 43 53 46 54 55 55 69 56
REMARK SMILES IDX 44 57 45 58 54 60 70 61 47 62 36 63 37 64 41 65 38 66 40 67
REMARK SMILES IDX 39 68 58 69 59 70 63 71 60 72 62 73 61 74 48 75 49 76 53 77
REMARK SMILES IDX 50 78 52 79 51 80
REMARK H PARENT 20 5 6 15 24 29 68 48 46 59
REMARK Flexibility Score: inf
ROOT
ATOM      1  C   UNL A   1      31.781  29.853  25.914  1.00  0.00     0.117 C 
ENDROOT
BRANCH   1   2
ATOM      2  N   UNL A   1      31.542  28.528  26.466  1.00  0.00    -0.356 N 
ATOM      3  C   UNL A   1      32.239  27.370  26.263  1.00  0.00     0.224 C 
ATOM      4  O   UNL A   1      31.806  26.326  26.757  1.00  0.00    -0.275 OA
ATOM      5  H   UNL A   1      30.768  28.455  27.071  1.00  0.00     0.163 HD
BRANCH   3   6
ATOM      6  C   UNL A   1      33.503  27.349  25.415  1.00  0.00     0.137 C 
BRANCH   6   7
ATOM      7  C   UNL A   1      33.833  25.971  24.882  1.00  0.00    -0.015 A 
ATOM      8  C   UNL A   1      36.075  23.086  26.020  1.00  0.00     0.044 C 
ATOM      9  C   UNL A   1      35.124  23.915  25.208  1.00  0.00    -0.051 A 
ATOM     10  C   UNL A   1      34.736  23.491  23.941  1.00  0.00     0.005 A 
ATOM     11  C   UNL A   1      34.640  25.135  25.687  1.00  0.00     0.009 A 
ATOM     12  C   UNL A   1      33.889  24.282  23.160  1.00  0.00     0.026 A 
ATOM     13  C   UNL A   1      33.430  25.535  23.601  1.00  0.00     0.042 A 
BRANCH  13  14
ATOM     14  N   UNL A   1      32.559  26.311  22.802  1.00  0.00    -0.353 N 
ATOM     15  H   UNL A   1      32.918  26.579  21.925  1.00  0.00     0.167 HD
BRANCH  14  16
ATOM     16  C   UNL A   1      31.245  26.760  23.085  1.00  0.00     0.076 A 
ATOM     17  C   UNL A   1      30.210  25.893  23.496  1.00  0.00     0.067 A 
ATOM     18  C   UNL A   1      30.912  28.115  22.872  1.00  0.00     0.067 A 
ATOM     19  Cl  UNL A   1      30.502  24.232  23.893  1.00  0.00    -0.082 Cl
ATOM     20  C   UNL A   1      28.900  26.358  23.659  1.00  0.00     0.043 A 
ATOM     21  C   UNL A   1      29.606  28.583  23.041  1.00  0.00     0.043 A 
ATOM     22  Cl  UNL A   1      32.104  29.254  22.342  1.00  0.00    -0.082 Cl
ATOM     23  C   UNL A   1      28.605  27.697  23.424  1.00  0.00     0.044 A 
ATOM     24  Cl  UNL A   1      26.991  28.261  23.608  1.00  0.00    -0.084 Cl
ENDBRANCH  14  16
ENDBRANCH  13  14
ENDBRANCH   6   7
ENDBRANCH   3   6
ENDBRANCH   1   2
BRANCH   1  25
ATOM     25  C   UNL A   1      32.358  30.821  26.944  1.00  0.00     0.042 C 
BRANCH  25  26
ATOM     26  C   UNL A   1      33.697  30.403  27.527  1.00  0.00     0.118 C 
BRANCH  26  27
ATOM     27  N   UNL A   1      34.320  31.418  28.372  1.00  0.00    -0.352 N 
ATOM     28  C   UNL A   1      35.547  31.374  29.015  1.00  0.00     0.251 C 
ATOM     29  H   UNL A   1      33.798  32.243  28.501  1.00  0.00     0.163 HD
ATOM     30  O   UNL A   1      35.949  32.325  29.660  1.00  0.00    -0.269 OA
BRANCH  28  31
ATOM     31  C   UNL A   1      36.418  30.196  28.791  1.00  0.00     0.039 A 
ATOM     32  C   UNL A   1      36.644  29.343  29.876  1.00  0.00     0.014 A 
ATOM     33  C   UNL A   1      37.183  30.090  27.633  1.00  0.00     0.014 A 
ATOM     34  C   UNL A   1      37.803  28.576  29.900  1.00  0.00     0.010 A 
ATOM     35  C   UNL A   1      38.383  29.410  27.696  1.00  0.00     0.010 A 
ATOM     36  C   UNL A   1      38.724  28.717  28.863  1.00  0.00    -0.014 A 
BRANCH  36  37
ATOM     37  C   UNL A   1      40.117  28.310  28.990  1.00  0.00     0.031 A 
ATOM     38  C   UNL A   1      40.578  27.009  28.485  1.00  0.00     0.074 A 
ATOM     39  C   UNL A   1      41.014  29.163  29.533  1.00  0.00     0.049 A 
ATOM     40  N   UNL A   1      41.625  26.394  28.924  1.00  0.00    -0.248 NA
ATOM     41  C   UNL A   1      39.850  26.261  27.469  1.00  0.00     0.031 C 
ATOM     42  C   UNL A   1      42.470  29.066  29.510  1.00  0.00     0.029 A 
ATOM     43  N   UNL A   1      40.748  30.195  30.435  1.00  0.00    -0.354 N 
ATOM     44  C   UNL A   1      41.887  25.366  28.054  1.00  0.00     0.074 A 
ATOM     45  C   UNL A   1      40.699  25.255  27.237  1.00  0.00     0.031 C 
ATOM     46  C   UNL A   1      42.966  29.795  30.523  1.00  0.00     0.029 A 
ATOM     47  C   UNL A   1      41.841  30.250  31.322  1.00  0.00     0.049 A 
ATOM     48  H   UNL A   1      39.951  30.773  30.447  1.00  0.00     0.167 HD
ATOM     49  C   UNL A   1      43.136  24.821  28.019  1.00  0.00     0.031 A 
ATOM     50  C   UNL A   1      41.668  30.000  32.654  1.00  0.00     0.031 A 
ATOM     51  C   UNL A   1      44.016  25.368  29.056  1.00  0.00     0.049 A 
ATOM     52  C   UNL A   1      42.436  28.801  33.179  1.00  0.00     0.074 A 
ATOM     53  C   UNL A   1      45.098  26.235  29.057  1.00  0.00     0.029 A 
ATOM     54  N   UNL A   1      43.650  25.222  30.385  1.00  0.00    -0.354 N 
ATOM     55  N   UNL A   1      43.164  28.005  32.444  1.00  0.00    -0.248 NA
ATOM     56  C   UNL A   1      42.345  28.342  34.566  1.00  0.00     0.031 C 
ATOM     57  C   UNL A   1      45.388  26.590  30.406  1.00  0.00     0.029 A 
ATOM     58  C   UNL A   1      44.487  25.933  31.222  1.00  0.00     0.049 A 
ATOM     59  H   UNL A   1      42.889  24.679  30.694  1.00  0.00     0.167 HD
ATOM     60  C   UNL A   1      43.565  26.930  33.194  1.00  0.00     0.074 A 
ATOM     61  C   UNL A   1      43.035  27.189  34.519  1.00  0.00     0.031 C 
ATOM     62  C   UNL A   1      44.249  25.879  32.656  1.00  0.00     0.031 A 
BRANCH  49  63
ATOM     63  C   UNL A   1      43.634  23.974  26.870  1.00  0.00    -0.014 A 
ATOM     64  C   UNL A   1      44.282  24.587  25.782  1.00  0.00     0.009 A 
ATOM     65  C   UNL A   1      43.454  22.585  26.766  1.00  0.00     0.009 A 
ATOM     66  C   UNL A   1      44.623  23.878  24.622  1.00  0.00     0.001 A 
ATOM     67  C   UNL A   1      43.753  21.874  25.596  1.00  0.00     0.001 A 
ATOM     68  C   UNL A   1      44.327  22.526  24.516  1.00  0.00     0.000 A 
ENDBRANCH  49  63
BRANCH  50  69
ATOM     69  C   UNL A   1      40.335  30.434  33.162  1.00  0.00    -0.014 A 
ATOM     70  C   UNL A   1      40.055  31.815  33.221  1.00  0.00     0.009 A 
ATOM     71  C   UNL A   1      39.266  29.531  33.241  1.00  0.00     0.009 A 
ATOM     72  C   UNL A   1      38.737  32.278  33.239  1.00  0.00     0.001 A 
ATOM     73  C   UNL A   1      37.947  30.000  33.279  1.00  0.00     0.001 A 
ATOM     74  C   UNL A   1      37.683  31.369  33.239  1.00  0.00     0.000 A 
ENDBRANCH  50  69
BRANCH  62  75
ATOM     75  C   UNL A   1      44.714  24.669  33.425  1.00  0.00    -0.014 A 
ATOM     76  C   UNL A   1      46.051  24.448  33.782  1.00  0.00     0.009 A 
ATOM     77  C   UNL A   1      43.801  23.632  33.718  1.00  0.00     0.009 A 
ATOM     78  C   UNL A   1      46.439  23.285  34.460  1.00  0.00     0.001 A 
ATOM     79  C   UNL A   1      44.187  22.461  34.372  1.00  0.00     0.001 A 
ATOM     80  C   UNL A   1      45.508  22.293  34.757  1.00  0.00     0.000 A 
ENDBRANCH  62  75
ENDBRANCH  36  37
ENDBRANCH  28  31
ENDBRANCH  26  27
ENDBRANCH  25  26
ENDBRANCH   1  25
TORSDOF 13
ENDMDL
MODEL 3
REMARK VINA RESULT:     -12.3      3.651      8.637
REMARK SMILES Cc1ccc(Nc2c(Cl)cc(Cl)cc2Cl)c(CC(=O)NCCCNC(=O)c2ccc(-c3c4nc(c(-c5ccccc5)c5ccc([nH]5)c(-c5ccccc5)c5nc(c(-c6ccccc6)c6ccc3[nH]6)C=C5)C=C4)cc2)c1
REMARK SMILES IDX 21 1 20 2 18 3 19 4 17 6 16 7 1 8 2 9 3 10 75 11 4 12 5 13
REMARK SMILES IDX 6 14 7 16 8 17 14 18 9 19 10 20 13 21 15 22 11 23 12 24
REMARK SMILES IDX 22 25 23 26 24 27 25 28 26 30 27 31 28 32 74 33 29 34 73 35
REMARK SMILES IDX 30 36 31 37 32 38 67 39 33 40 72 41 66 42 68 43 34 44 71 45
REMARK SMILES IDX 65 46 64 47 35 49 57 50 42 51 56 52 43 53 46 54 55 55 69 56
REMARK SMILES IDX 44 57 45 58 54 60 70 61 47 62 36 63 37 64 41 65 38 66 40 67
REMARK SMILES IDX 39 68 58 69 59 70 63 71 60 72 62 73 61 74 48 75 49 76 53 77
REMARK SMILES IDX 50 78 52 79 51 80
REMARK H PARENT 20 5 6 15 24 29 68 48 46 59
REMARK Flexibility Score: inf
ROOT
ATOM      1  C   UNL A   1      33.672  30.108  27.116  1.00  0.00     0.117 C 
ENDROOT
BRANCH   1   2
ATOM      2  N   UNL A   1      32.683  29.177  27.639  1.00  0.00    -0.356 N 
ATOM      3  C   UNL A   1      32.026  28.165  26.996  1.00  0.00     0.224 C 
ATOM      4  O   UNL A   1      31.146  27.552  27.606  1.00  0.00    -0.275 OA
ATOM      5  H   UNL A   1      32.453  29.294  28.589  1.00  0.00     0.163 HD
BRANCH   3   6
ATOM      6  C   UNL A   1      32.337  27.820  25.547  1.00  0.00     0.137 C 
BRANCH   6   7
ATOM      7  C   UNL A   1      31.149  28.012  24.627  1.00  0.00    -0.015 A 
ATOM      8  C   UNL A   1      29.219  31.030  23.280  1.00  0.00     0.044 C 
ATOM      9  C   UNL A   1      29.638  29.617  23.557  1.00  0.00    -0.051 A 
ATOM     10  C   UNL A   1      28.841  28.557  23.135  1.00  0.00     0.005 A 
ATOM     11  C   UNL A   1      30.807  29.336  24.268  1.00  0.00     0.009 A 
ATOM     12  C   UNL A   1      29.200  27.240  23.432  1.00  0.00     0.026 A 
ATOM     13  C   UNL A   1      30.346  26.937  24.188  1.00  0.00     0.042 A 
BRANCH  13  14
ATOM     14  N   UNL A   1      30.701  25.596  24.463  1.00  0.00    -0.353 N 
ATOM     15  H   UNL A   1      29.989  25.044  24.861  1.00  0.00     0.167 HD
BRANCH  14  16
ATOM     16  C   UNL A   1      31.936  24.935  24.247  1.00  0.00     0.076 A 
ATOM     17  C   UNL A   1      32.645  24.278  25.274  1.00  0.00     0.067 A 
ATOM     18  C   UNL A   1      32.544  24.997  22.974  1.00  0.00     0.067 A 
ATOM     19  Cl  UNL A   1      31.971  24.039  26.853  1.00  0.00    -0.082 Cl
ATOM     20  C   UNL A   1      33.914  23.734  25.044  1.00  0.00     0.043 A 
ATOM     21  C   UNL A   1      33.807  24.447  22.739  1.00  0.00     0.043 A 
ATOM     22  Cl  UNL A   1      31.767  25.803  21.652  1.00  0.00    -0.082 Cl
ATOM     23  C   UNL A   1      34.489  23.827  23.780  1.00  0.00     0.044 A 
ATOM     24  Cl  UNL A   1      36.055  23.173  23.504  1.00  0.00    -0.084 Cl
ENDBRANCH  14  16
ENDBRANCH  13  14
ENDBRANCH   6   7
ENDBRANCH   3   6
ENDBRANCH   1   2
BRANCH   1  25
ATOM     25  C   UNL A   1      33.458  31.533  27.621  1.00  0.00     0.042 C 
BRANCH  25  26
ATOM     26  C   UNL A   1      34.733  32.273  27.988  1.00  0.00     0.118 C 
BRANCH  26  27
ATOM     27  N   UNL A   1      34.926  32.448  29.426  1.00  0.00    -0.352 N 
ATOM     28  C   UNL A   1      35.720  31.709  30.288  1.00  0.00     0.251 C 
ATOM     29  H   UNL A   1      34.424  33.190  29.835  1.00  0.00     0.163 HD
ATOM     30  O   UNL A   1      35.807  32.004  31.466  1.00  0.00    -0.269 OA
BRANCH  28  31
ATOM     31  C   UNL A   1      36.566  30.632  29.719  1.00  0.00     0.039 A 
ATOM     32  C   UNL A   1      36.702  29.456  30.462  1.00  0.00     0.014 A 
ATOM     33  C   UNL A   1      37.394  30.884  28.628  1.00  0.00     0.014 A 
ATOM     34  C   UNL A   1      37.833  28.670  30.278  1.00  0.00     0.010 A 
ATOM     35  C   UNL A   1      38.566  30.164  28.512  1.00  0.00     0.010 A 
ATOM     36  C   UNL A   1      38.818  29.105  29.391  1.00  0.00    -0.014 A 
BRANCH  36  37
ATOM     37  C   UNL A   1      40.188  28.612  29.435  1.00  0.00     0.031 A 
ATOM     38  C   UNL A   1      40.550  27.321  28.832  1.00  0.00     0.074 A 
ATOM     39  C   UNL A   1      41.154  29.376  29.992  1.00  0.00     0.049 A 
ATOM     40  N   UNL A   1      41.574  26.620  29.189  1.00  0.00    -0.248 NA
ATOM     41  C   UNL A   1      39.741  26.682  27.803  1.00  0.00     0.031 C 
ATOM     42  C   UNL A   1      42.599  29.198  29.903  1.00  0.00     0.029 A 
ATOM     43  N   UNL A   1      40.984  30.362  30.965  1.00  0.00    -0.354 N 
ATOM     44  C   UNL A   1      41.741  25.636  28.248  1.00  0.00     0.074 A 
ATOM     45  C   UNL A   1      40.519  25.646  27.475  1.00  0.00     0.031 C 
ATOM     46  C   UNL A   1      43.175  29.830  30.937  1.00  0.00     0.029 A 
ATOM     47  C   UNL A   1      42.111  30.298  31.808  1.00  0.00     0.049 A 
ATOM     48  H   UNL A   1      40.223  30.982  31.046  1.00  0.00     0.167 HD
ATOM     49  C   UNL A   1      42.954  25.024  28.128  1.00  0.00     0.031 A 
ATOM     50  C   UNL A   1      41.973  29.974  33.128  1.00  0.00     0.031 A 
ATOM     51  C   UNL A   1      43.903  25.453  29.159  1.00  0.00     0.049 A 
ATOM     52  C   UNL A   1      42.687  28.702  33.547  1.00  0.00     0.074 A 
ATOM     53  C   UNL A   1      45.035  26.255  29.169  1.00  0.00     0.029 A 
ATOM     54  N   UNL A   1      43.580  25.244  30.491  1.00  0.00    -0.354 N 
ATOM     55  N   UNL A   1      43.338  27.914  32.736  1.00  0.00    -0.248 NA
ATOM     56  C   UNL A   1      42.622  28.162  34.905  1.00  0.00     0.031 C 
ATOM     57  C   UNL A   1      45.396  26.506  30.524  1.00  0.00     0.029 A 
ATOM     58  C   UNL A   1      44.489  25.851  31.335  1.00  0.00     0.049 A 
ATOM     59  H   UNL A   1      42.800  24.727  30.798  1.00  0.00     0.167 HD
ATOM     60  C   UNL A   1      43.702  26.772  33.400  1.00  0.00     0.074 A 
ATOM     61  C   UNL A   1      43.239  26.976  34.760  1.00  0.00     0.031 C 
ATOM     62  C   UNL A   1      44.302  25.720  32.771  1.00  0.00     0.031 A 
BRANCH  49  63
ATOM     63  C   UNL A   1      43.357  24.225  26.910  1.00  0.00    -0.014 A 
ATOM     64  C   UNL A   1      44.161  24.820  25.920  1.00  0.00     0.009 A 
ATOM     65  C   UNL A   1      42.941  22.910  26.645  1.00  0.00     0.009 A 
ATOM     66  C   UNL A   1      44.434  24.186  24.701  1.00  0.00     0.001 A 
ATOM     67  C   UNL A   1      43.173  22.282  25.414  1.00  0.00     0.001 A 
ATOM     68  C   UNL A   1      43.911  22.928  24.434  1.00  0.00     0.000 A 
ENDBRANCH  49  63
BRANCH  50  69
ATOM     69  C   UNL A   1      40.688  30.450  33.717  1.00  0.00    -0.014 A 
ATOM     70  C   UNL A   1      40.595  31.797  34.126  1.00  0.00     0.009 A 
ATOM     71  C   UNL A   1      39.505  29.718  33.549  1.00  0.00     0.009 A 
ATOM     72  C   UNL A   1      39.352  32.423  34.248  1.00  0.00     0.001 A 
ATOM     73  C   UNL A   1      38.261  30.346  33.692  1.00  0.00     0.001 A 
ATOM     74  C   UNL A   1      38.186  31.703  34.003  1.00  0.00     0.000 A 
ENDBRANCH  50  69
BRANCH  62  75
ATOM     75  C   UNL A   1      44.723  24.440  33.445  1.00  0.00    -0.014 A 
ATOM     76  C   UNL A   1      43.830  23.411  33.774  1.00  0.00     0.009 A 
ATOM     77  C   UNL A   1      46.057  24.284  33.884  1.00  0.00     0.009 A 
ATOM     78  C   UNL A   1      44.265  22.257  34.441  1.00  0.00     0.001 A 
ATOM     79  C   UNL A   1      46.489  23.148  34.569  1.00  0.00     0.001 A 
ATOM     80  C   UNL A   1      45.593  22.125  34.836  1.00  0.00     0.000 A 
ENDBRANCH  62  75
ENDBRANCH  36  37
ENDBRANCH  28  31
ENDBRANCH  26  27
ENDBRANCH  25  26
ENDBRANCH   1  25
TORSDOF 13
ENDMDL
