MODEL 1
REMARK VINA RESULT:     -11.9      0.000      0.000
REMARK SMILES Cc1oc2cc(OCC(=O)NCCCNC(=O)c3ccc(-c4c5nc(c(-c6ccccc6)c6ccc([nH]6)c(-c6ccccc6)c6nc(c(-c7ccccc7)c7ccc4[nH]7)C=C6)C=C5)cc3)ccc2c(=O)c1Oc1ccc(Cl)cc1Cl
REMARK SMILES IDX 12 1 11 2 9 3 10 4 8 6 7 7 6 8 1 9 2 10 3 11 71 12 4 13
REMARK SMILES IDX 69 14 5 15 68 16 70 17 67 18 66 19 72 20 73 21 74 22 79 23
REMARK SMILES IDX 75 24 78 25 80 26 76 27 77 28 13 29 14 30 15 31 16 32 17 34
REMARK SMILES IDX 18 35 19 36 65 37 20 38 64 39 21 40 22 41 23 42 58 43 24 44
REMARK SMILES IDX 63 45 57 46 59 47 25 48 62 49 56 50 55 51 26 53 48 54 33 55
REMARK SMILES IDX 47 56 34 57 37 58 46 59 60 60 35 61 36 62 45 64 61 65 38 66
REMARK SMILES IDX 27 67 28 68 32 69 29 70 31 71 30 72 49 73 50 74 54 75 51 76
REMARK SMILES IDX 53 77 52 78 39 79 40 80 44 81 41 82 43 83 42 84
REMARK H PARENT 11 5 15 33 59 52 37 63
REMARK Flexibility Score: inf
ROOT
ATOM      1  C   UNL A   1      32.170  29.209  24.869  1.00  0.00     0.117 C 
ENDROOT
BRANCH   1   2
ATOM      2  N   UNL A   1      31.899  29.419  23.461  1.00  0.00    -0.353 N 
ATOM      3  C   UNL A   1      30.722  29.224  22.796  1.00  0.00     0.257 C 
ATOM      4  O   UNL A   1      30.667  29.507  21.598  1.00  0.00    -0.271 OA
ATOM      5  H   UNL A   1      32.654  29.740  22.918  1.00  0.00     0.163 HD
BRANCH   3   6
ATOM      6  C   UNL A   1      29.504  28.689  23.558  1.00  0.00     0.329 C 
BRANCH   6   7
ATOM      7  O   UNL A   1      29.178  27.323  23.318  1.00  0.00    -0.484 OA
BRANCH   7   8
ATOM      8  C   UNL A   1      29.974  26.374  23.899  1.00  0.00     0.123 A 
ATOM      9  C   UNL A   1      34.713  22.923  22.925  1.00  0.00     0.092 C 
ATOM     10  C   UNL A   1      33.695  23.369  23.937  1.00  0.00     0.148 A 
ATOM     11  O   UNL A   1      32.964  24.406  23.383  1.00  0.00    -0.457 OA
ATOM     12  C   UNL A   1      33.470  22.874  25.183  1.00  0.00     0.213 A 
ATOM     13  C   UNL A   1      31.865  24.879  24.026  1.00  0.00     0.142 A 
ATOM     14  C   UNL A   1      32.312  23.448  25.953  1.00  0.00     0.235 A 
ATOM     15  C   UNL A   1      31.120  25.827  23.330  1.00  0.00     0.094 A 
ATOM     16  C   UNL A   1      31.485  24.460  25.285  1.00  0.00     0.069 A 
ATOM     17  O   UNL A   1      32.033  23.076  27.089  1.00  0.00    -0.285 OA
ATOM     18  C   UNL A   1      30.333  24.992  25.870  1.00  0.00     0.020 A 
ATOM     19  C   UNL A   1      29.581  25.948  25.172  1.00  0.00     0.047 A 
BRANCH  12  20
ATOM     20  O   UNL A   1      34.143  21.870  25.874  1.00  0.00    -0.448 OA
BRANCH  20  21
ATOM     21  C   UNL A   1      34.133  20.574  25.435  1.00  0.00     0.146 A 
ATOM     22  C   UNL A   1      32.899  19.915  25.459  1.00  0.00     0.050 A 
ATOM     23  C   UNL A   1      35.282  19.906  24.997  1.00  0.00     0.085 A 
ATOM     24  C   UNL A   1      32.792  18.628  24.933  1.00  0.00     0.024 A 
ATOM     25  C   UNL A   1      35.172  18.621  24.463  1.00  0.00     0.045 A 
ATOM     26  Cl  UNL A   1      36.839  20.645  25.047  1.00  0.00    -0.080 Cl
ATOM     27  C   UNL A   1      33.924  17.998  24.417  1.00  0.00     0.042 A 
ATOM     28  Cl  UNL A   1      33.775  16.441  23.701  1.00  0.00    -0.084 Cl
ENDBRANCH  20  21
ENDBRANCH  12  20
ENDBRANCH   7   8
ENDBRANCH   6   7
ENDBRANCH   3   6
ENDBRANCH   1   2
BRANCH   1  29
ATOM     29  C   UNL A   1      33.336  28.256  25.105  1.00  0.00     0.042 C 
BRANCH  29  30
ATOM     30  C   UNL A   1      34.116  28.531  26.386  1.00  0.00     0.118 C 
BRANCH  30  31
ATOM     31  N   UNL A   1      33.824  29.840  26.960  1.00  0.00    -0.352 N 
ATOM     32  C   UNL A   1      34.541  30.592  27.856  1.00  0.00     0.251 C 
ATOM     33  H   UNL A   1      32.980  30.246  26.659  1.00  0.00     0.163 HD
ATOM     34  O   UNL A   1      34.039  31.597  28.353  1.00  0.00    -0.269 OA
BRANCH  32  35
ATOM     35  C   UNL A   1      35.910  30.188  28.240  1.00  0.00     0.039 A 
ATOM     36  C   UNL A   1      36.132  29.672  29.520  1.00  0.00     0.014 A 
ATOM     37  C   UNL A   1      36.973  30.329  27.346  1.00  0.00     0.014 A 
ATOM     38  C   UNL A   1      37.408  29.226  29.875  1.00  0.00     0.010 A 
ATOM     39  C   UNL A   1      38.222  29.815  27.672  1.00  0.00     0.010 A 
ATOM     40  C   UNL A   1      38.454  29.258  28.940  1.00  0.00    -0.014 A 
BRANCH  40  41
ATOM     41  C   UNL A   1      39.809  28.736  29.253  1.00  0.00     0.031 A 
ATOM     42  C   UNL A   1      40.822  29.639  29.904  1.00  0.00     0.074 A 
ATOM     43  C   UNL A   1      40.158  27.491  28.876  1.00  0.00     0.049 A 
ATOM     44  N   UNL A   1      42.098  29.436  30.110  1.00  0.00    -0.248 NA
ATOM     45  C   UNL A   1      40.338  30.953  30.360  1.00  0.00     0.031 C 
ATOM     46  C   UNL A   1      39.276  26.517  28.228  1.00  0.00     0.029 A 
ATOM     47  N   UNL A   1      41.361  26.836  28.966  1.00  0.00    -0.354 N 
ATOM     48  C   UNL A   1      42.573  30.604  30.696  1.00  0.00     0.074 A 
ATOM     49  C   UNL A   1      41.460  31.525  30.771  1.00  0.00     0.031 C 
ATOM     50  C   UNL A   1      39.964  25.388  27.991  1.00  0.00     0.029 A 
ATOM     51  C   UNL A   1      41.346  25.575  28.420  1.00  0.00     0.049 A 
ATOM     52  H   UNL A   1      42.160  27.233  29.382  1.00  0.00     0.167 HD
ATOM     53  C   UNL A   1      43.819  30.879  31.146  1.00  0.00     0.031 A 
ATOM     54  C   UNL A   1      42.340  24.679  28.262  1.00  0.00     0.031 A 
ATOM     55  C   UNL A   1      44.923  29.960  31.081  1.00  0.00     0.049 A 
ATOM     56  C   UNL A   1      43.727  25.029  28.731  1.00  0.00     0.074 A 
ATOM     57  C   UNL A   1      46.218  30.136  31.536  1.00  0.00     0.029 A 
ATOM     58  N   UNL A   1      44.859  28.689  30.534  1.00  0.00    -0.354 N 
ATOM     59  N   UNL A   1      44.152  26.124  29.314  1.00  0.00    -0.248 NA
ATOM     60  C   UNL A   1      44.771  24.014  28.526  1.00  0.00     0.031 C 
ATOM     61  C   UNL A   1      46.950  28.987  31.225  1.00  0.00     0.029 A 
ATOM     62  C   UNL A   1      46.094  28.074  30.632  1.00  0.00     0.049 A 
ATOM     63  H   UNL A   1      44.055  28.284  30.135  1.00  0.00     0.167 HD
ATOM     64  C   UNL A   1      45.497  25.909  29.588  1.00  0.00     0.074 A 
ATOM     65  C   UNL A   1      45.817  24.580  29.111  1.00  0.00     0.031 C 
ATOM     66  C   UNL A   1      46.387  26.738  30.184  1.00  0.00     0.031 A 
BRANCH  53  67
ATOM     67  C   UNL A   1      44.056  32.233  31.754  1.00  0.00    -0.014 A 
ATOM     68  C   UNL A   1      44.440  33.325  30.960  1.00  0.00     0.009 A 
ATOM     69  C   UNL A   1      43.843  32.432  33.126  1.00  0.00     0.009 A 
ATOM     70  C   UNL A   1      44.635  34.583  31.534  1.00  0.00     0.001 A 
ATOM     71  C   UNL A   1      44.011  33.697  33.693  1.00  0.00     0.001 A 
ATOM     72  C   UNL A   1      44.413  34.770  32.898  1.00  0.00     0.000 A 
ENDBRANCH  53  67
BRANCH  54  73
ATOM     73  C   UNL A   1      42.074  23.359  27.631  1.00  0.00    -0.014 A 
ATOM     74  C   UNL A   1      42.284  23.174  26.255  1.00  0.00     0.009 A 
ATOM     75  C   UNL A   1      41.569  22.290  28.387  1.00  0.00     0.009 A 
ATOM     76  C   UNL A   1      41.955  21.963  25.642  1.00  0.00     0.001 A 
ATOM     77  C   UNL A   1      41.272  21.068  27.778  1.00  0.00     0.001 A 
ATOM     78  C   UNL A   1      41.451  20.910  26.405  1.00  0.00     0.000 A 
ENDBRANCH  54  73
BRANCH  66  79
ATOM     79  C   UNL A   1      47.772  26.210  30.431  1.00  0.00    -0.014 A 
ATOM     80  C   UNL A   1      48.763  26.248  29.441  1.00  0.00     0.009 A 
ATOM     81  C   UNL A   1      48.101  25.723  31.708  1.00  0.00     0.009 A 
ATOM     82  C   UNL A   1      50.052  25.783  29.716  1.00  0.00     0.001 A 
ATOM     83  C   UNL A   1      49.395  25.289  31.989  1.00  0.00     0.001 A 
ATOM     84  C   UNL A   1      50.369  25.312  30.990  1.00  0.00     0.000 A 
ENDBRANCH  66  79
ENDBRANCH  40  41
ENDBRANCH  32  35
ENDBRANCH  30  31
ENDBRANCH  29  30
ENDBRANCH   1  29
TORSDOF 14
ENDMDL
MODEL 2
REMARK VINA RESULT:     -11.7      3.029      8.114
REMARK SMILES Cc1oc2cc(OCC(=O)NCCCNC(=O)c3ccc(-c4c5nc(c(-c6ccccc6)c6ccc([nH]6)c(-c6ccccc6)c6nc(c(-c7ccccc7)c7ccc4[nH]7)C=C6)C=C5)cc3)ccc2c(=O)c1Oc1ccc(Cl)cc1Cl
REMARK SMILES IDX 12 1 11 2 9 3 10 4 8 6 7 7 6 8 1 9 2 10 3 11 71 12 4 13
REMARK SMILES IDX 69 14 5 15 68 16 70 17 67 18 66 19 72 20 73 21 74 22 79 23
REMARK SMILES IDX 75 24 78 25 80 26 76 27 77 28 13 29 14 30 15 31 16 32 17 34
REMARK SMILES IDX 18 35 19 36 65 37 20 38 64 39 21 40 22 41 23 42 58 43 24 44
REMARK SMILES IDX 63 45 57 46 59 47 25 48 62 49 56 50 55 51 26 53 48 54 33 55
REMARK SMILES IDX 47 56 34 57 37 58 46 59 60 60 35 61 36 62 45 64 61 65 38 66
REMARK SMILES IDX 27 67 28 68 32 69 29 70 31 71 30 72 49 73 50 74 54 75 51 76
REMARK SMILES IDX 53 77 52 78 39 79 40 80 44 81 41 82 43 83 42 84
REMARK H PARENT 11 5 15 33 59 52 37 63
REMARK Flexibility Score: inf
ROOT
ATOM      1  C   UNL A   1      35.914  20.657  25.020  1.00  0.00     0.117 C 
ENDROOT
BRANCH   1   2
ATOM      2  N   UNL A   1      35.219  19.385  25.019  1.00  0.00    -0.353 N 
ATOM      3  C   UNL A   1      33.928  19.135  24.652  1.00  0.00     0.257 C 
ATOM      4  O   UNL A   1      33.524  17.971  24.669  1.00  0.00    -0.271 OA
ATOM      5  H   UNL A   1      35.741  18.607  25.320  1.00  0.00     0.163 HD
BRANCH   3   6
ATOM      6  C   UNL A   1      33.031  20.297  24.206  1.00  0.00     0.329 C 
BRANCH   6   7
ATOM      7  O   UNL A   1      32.160  20.820  25.203  1.00  0.00    -0.484 OA
BRANCH   7   8
ATOM      8  C   UNL A   1      32.096  22.181  25.333  1.00  0.00     0.123 A 
ATOM      9  C   UNL A   1      33.631  27.269  22.676  1.00  0.00     0.092 C 
ATOM     10  C   UNL A   1      32.891  26.651  23.828  1.00  0.00     0.148 A 
ATOM     11  O   UNL A   1      32.863  25.280  23.634  1.00  0.00    -0.457 OA
ATOM     12  C   UNL A   1      32.338  27.268  24.906  1.00  0.00     0.213 A 
ATOM     13  C   UNL A   1      32.401  24.466  24.619  1.00  0.00     0.142 A 
ATOM     14  C   UNL A   1      31.736  26.389  25.968  1.00  0.00     0.235 A 
ATOM     15  C   UNL A   1      32.536  23.100  24.387  1.00  0.00     0.094 A 
ATOM     16  C   UNL A   1      31.835  24.936  25.787  1.00  0.00     0.069 A 
ATOM     17  O   UNL A   1      31.205  26.849  26.974  1.00  0.00    -0.285 OA
ATOM     18  C   UNL A   1      31.394  24.028  26.753  1.00  0.00     0.020 A 
ATOM     19  C   UNL A   1      31.528  22.652  26.521  1.00  0.00     0.047 A 
BRANCH  12  20
ATOM     20  O   UNL A   1      32.262  28.625  25.209  1.00  0.00    -0.448 OA
BRANCH  20  21
ATOM     21  C   UNL A   1      31.277  29.416  24.686  1.00  0.00     0.146 A 
ATOM     22  C   UNL A   1      30.604  28.920  23.564  1.00  0.00     0.050 A 
ATOM     23  C   UNL A   1      30.945  30.672  25.210  1.00  0.00     0.085 A 
ATOM     24  C   UNL A   1      29.522  29.626  23.038  1.00  0.00     0.024 A 
ATOM     25  C   UNL A   1      29.857  31.372  24.688  1.00  0.00     0.045 A 
ATOM     26  Cl  UNL A   1      31.815  31.366  26.527  1.00  0.00    -0.080 Cl
ATOM     27  C   UNL A   1      29.140  30.835  23.618  1.00  0.00     0.042 A 
ATOM     28  Cl  UNL A   1      27.759  31.665  23.016  1.00  0.00    -0.084 Cl
ENDBRANCH  20  21
ENDBRANCH  12  20
ENDBRANCH   7   8
ENDBRANCH   6   7
ENDBRANCH   3   6
ENDBRANCH   1   2
BRANCH   1  29
ATOM     29  C   UNL A   1      37.363  20.534  24.567  1.00  0.00     0.042 C 
BRANCH  29  30
ATOM     30  C   UNL A   1      38.383  20.705  25.687  1.00  0.00     0.118 C 
BRANCH  30  31
ATOM     31  N   UNL A   1      39.424  19.683  25.670  1.00  0.00    -0.352 N 
ATOM     32  C   UNL A   1      40.759  19.776  25.970  1.00  0.00     0.251 C 
ATOM     33  H   UNL A   1      39.120  18.787  25.400  1.00  0.00     0.163 HD
ATOM     34  O   UNL A   1      41.509  18.835  25.725  1.00  0.00    -0.269 OA
BRANCH  32  35
ATOM     35  C   UNL A   1      41.304  21.013  26.569  1.00  0.00     0.039 A 
ATOM     36  C   UNL A   1      41.836  21.997  25.732  1.00  0.00     0.014 A 
ATOM     37  C   UNL A   1      41.301  21.195  27.953  1.00  0.00     0.014 A 
ATOM     38  C   UNL A   1      42.295  23.198  26.278  1.00  0.00     0.010 A 
ATOM     39  C   UNL A   1      41.685  22.419  28.489  1.00  0.00     0.010 A 
ATOM     40  C   UNL A   1      42.187  23.434  27.658  1.00  0.00    -0.014 A 
BRANCH  40  41
ATOM     41  C   UNL A   1      42.603  24.720  28.274  1.00  0.00     0.031 A 
ATOM     42  C   UNL A   1      41.584  25.806  28.487  1.00  0.00     0.074 A 
ATOM     43  C   UNL A   1      43.901  24.946  28.555  1.00  0.00     0.049 A 
ATOM     44  N   UNL A   1      41.765  27.049  28.851  1.00  0.00    -0.248 NA
ATOM     45  C   UNL A   1      40.177  25.451  28.231  1.00  0.00     0.031 C 
ATOM     46  C   UNL A   1      44.992  23.983  28.388  1.00  0.00     0.029 A 
ATOM     47  N   UNL A   1      44.527  26.074  29.027  1.00  0.00    -0.354 N 
ATOM     48  C   UNL A   1      40.502  27.630  28.846  1.00  0.00     0.074 A 
ATOM     49  C   UNL A   1      39.571  26.617  28.399  1.00  0.00     0.031 C 
ATOM     50  C   UNL A   1      46.147  24.556  28.762  1.00  0.00     0.029 A 
ATOM     51  C   UNL A   1      45.890  25.940  29.144  1.00  0.00     0.049 A 
ATOM     52  H   UNL A   1      44.045  26.900  29.260  1.00  0.00     0.167 HD
ATOM     53  C   UNL A   1      40.146  28.887  29.196  1.00  0.00     0.031 A 
ATOM     54  C   UNL A   1      46.828  26.839  29.498  1.00  0.00     0.031 A 
ATOM     55  C   UNL A   1      41.069  29.892  29.651  1.00  0.00     0.049 A 
ATOM     56  C   UNL A   1      46.410  28.244  29.840  1.00  0.00     0.074 A 
ATOM     57  C   UNL A   1      40.802  31.188  30.055  1.00  0.00     0.029 A 
ATOM     58  N   UNL A   1      42.437  29.709  29.768  1.00  0.00    -0.354 N 
ATOM     59  N   UNL A   1      45.208  28.767  29.863  1.00  0.00    -0.248 NA
ATOM     60  C   UNL A   1      47.479  29.182  30.213  1.00  0.00     0.031 C 
ATOM     61  C   UNL A   1      42.014  31.803  30.377  1.00  0.00     0.029 A 
ATOM     62  C   UNL A   1      43.028  30.871  30.230  1.00  0.00     0.049 A 
ATOM     63  H   UNL A   1      42.917  28.876  29.554  1.00  0.00     0.167 HD
ATOM     64  C   UNL A   1      45.373  30.077  30.297  1.00  0.00     0.074 A 
ATOM     65  C   UNL A   1      46.789  30.268  30.530  1.00  0.00     0.031 C 
ATOM     66  C   UNL A   1      44.434  31.034  30.489  1.00  0.00     0.031 A 
BRANCH  53  67
ATOM     67  C   UNL A   1      38.690  29.250  29.105  1.00  0.00    -0.014 A 
ATOM     68  C   UNL A   1      37.852  29.165  30.228  1.00  0.00     0.009 A 
ATOM     69  C   UNL A   1      38.162  29.731  27.897  1.00  0.00     0.009 A 
ATOM     70  C   UNL A   1      36.506  29.527  30.134  1.00  0.00     0.001 A 
ATOM     71  C   UNL A   1      36.824  30.119  27.814  1.00  0.00     0.001 A 
ATOM     72  C   UNL A   1      35.995  30.010  28.930  1.00  0.00     0.000 A 
ENDBRANCH  53  67
BRANCH  54  73
ATOM     73  C   UNL A   1      48.264  26.452  29.551  1.00  0.00    -0.014 A 
ATOM     74  C   UNL A   1      48.813  25.915  30.725  1.00  0.00     0.009 A 
ATOM     75  C   UNL A   1      49.103  26.658  28.445  1.00  0.00     0.009 A 
ATOM     76  C   UNL A   1      50.178  25.631  30.807  1.00  0.00     0.001 A 
ATOM     77  C   UNL A   1      50.462  26.342  28.517  1.00  0.00     0.001 A 
ATOM     78  C   UNL A   1      51.001  25.842  29.702  1.00  0.00     0.000 A 
ENDBRANCH  54  73
BRANCH  66  79
ATOM     79  C   UNL A   1      44.889  32.351  31.052  1.00  0.00    -0.014 A 
ATOM     80  C   UNL A   1      45.251  33.422  30.222  1.00  0.00     0.009 A 
ATOM     81  C   UNL A   1      44.891  32.536  32.445  1.00  0.00     0.009 A 
ATOM     82  C   UNL A   1      45.633  34.645  30.778  1.00  0.00     0.001 A 
ATOM     83  C   UNL A   1      45.243  33.767  32.996  1.00  0.00     0.001 A 
ATOM     84  C   UNL A   1      45.621  34.819  32.162  1.00  0.00     0.000 A 
ENDBRANCH  66  79
ENDBRANCH  40  41
ENDBRANCH  32  35
ENDBRANCH  30  31
ENDBRANCH  29  30
ENDBRANCH   1  29
TORSDOF 14
ENDMDL
MODEL 3
REMARK VINA RESULT:     -11.6      3.903      9.062
REMARK SMILES Cc1oc2cc(OCC(=O)NCCCNC(=O)c3ccc(-c4c5nc(c(-c6ccccc6)c6ccc([nH]6)c(-c6ccccc6)c6nc(c(-c7ccccc7)c7ccc4[nH]7)C=C6)C=C5)cc3)ccc2c(=O)c1Oc1ccc(Cl)cc1Cl
REMARK SMILES IDX 12 1 11 2 9 3 10 4 8 6 7 7 6 8 1 9 2 10 3 11 71 12 4 13
REMARK SMILES IDX 69 14 5 15 68 16 70 17 67 18 66 19 72 20 73 21 74 22 79 23
REMARK SMILES IDX 75 24 78 25 80 26 76 27 77 28 13 29 14 30 15 31 16 32 17 34
REMARK SMILES IDX 18 35 19 36 65 37 20 38 64 39 21 40 22 41 23 42 58 43 24 44
REMARK SMILES IDX 63 45 57 46 59 47 25 48 62 49 56 50 55 51 26 53 48 54 33 55
REMARK SMILES IDX 47 56 34 57 37 58 46 59 60 60 35 61 36 62 45 64 61 65 38 66
REMARK SMILES IDX 27 67 28 68 32 69 29 70 31 71 30 72 49 73 50 74 54 75 51 76
REMARK SMILES IDX 53 77 52 78 39 79 40 80 44 81 41 82 43 83 42 84
REMARK H PARENT 11 5 15 33 59 52 37 63
REMARK Flexibility Score: inf
ROOT
ATOM      1  C   UNL A   1      41.077  20.276  26.868  1.00  0.00     0.117 C 
ENDROOT
BRANCH   1   2
ATOM      2  N   UNL A   1      40.511  21.603  26.740  1.00  0.00    -0.353 N 
ATOM      3  C   UNL A   1      39.286  21.949  26.245  1.00  0.00     0.257 C 
ATOM      4  O   UNL A   1      38.955  23.136  26.262  1.00  0.00    -0.271 OA
ATOM      5  H   UNL A   1      41.078  22.347  27.046  1.00  0.00     0.163 HD
BRANCH   3   6
ATOM      6  C   UNL A   1      38.353  20.856  25.710  1.00  0.00     0.329 C 
BRANCH   6   7
ATOM      7  O   UNL A   1      37.681  21.161  24.492  1.00  0.00    -0.484 OA
BRANCH   7   8
ATOM      8  C   UNL A   1      36.515  21.872  24.576  1.00  0.00     0.123 A 
ATOM      9  C   UNL A   1      33.486  26.318  22.052  1.00  0.00     0.092 C 
ATOM     10  C   UNL A   1      33.455  25.236  23.096  1.00  0.00     0.148 A 
ATOM     11  O   UNL A   1      34.584  24.452  22.935  1.00  0.00    -0.457 OA
ATOM     12  C   UNL A   1      32.524  25.022  24.062  1.00  0.00     0.213 A 
ATOM     13  C   UNL A   1      34.888  23.504  23.859  1.00  0.00     0.142 A 
ATOM     14  C   UNL A   1      32.793  23.915  25.045  1.00  0.00     0.235 A 
ATOM     15  C   UNL A   1      36.109  22.859  23.684  1.00  0.00     0.094 A 
ATOM     16  C   UNL A   1      34.060  23.185  24.916  1.00  0.00     0.069 A 
ATOM     17  O   UNL A   1      32.010  23.636  25.947  1.00  0.00    -0.285 OA
ATOM     18  C   UNL A   1      34.454  22.202  25.829  1.00  0.00     0.020 A 
ATOM     19  C   UNL A   1      35.683  21.550  25.654  1.00  0.00     0.047 A 
BRANCH  12  20
ATOM     20  O   UNL A   1      31.335  25.703  24.316  1.00  0.00    -0.448 OA
BRANCH  20  21
ATOM     21  C   UNL A   1      31.336  26.981  24.801  1.00  0.00     0.146 A 
ATOM     22  C   UNL A   1      31.768  27.150  26.121  1.00  0.00     0.050 A 
ATOM     23  C   UNL A   1      30.915  28.085  24.050  1.00  0.00     0.085 A 
ATOM     24  C   UNL A   1      31.892  28.434  26.650  1.00  0.00     0.024 A 
ATOM     25  C   UNL A   1      31.048  29.370  24.577  1.00  0.00     0.045 A 
ATOM     26  Cl  UNL A   1      30.280  27.911  22.456  1.00  0.00    -0.080 Cl
ATOM     27  C   UNL A   1      31.553  29.538  25.867  1.00  0.00     0.042 A 
ATOM     28  Cl  UNL A   1      31.778  31.123  26.494  1.00  0.00    -0.084 Cl
ENDBRANCH  20  21
ENDBRANCH  12  20
ENDBRANCH   7   8
ENDBRANCH   6   7
ENDBRANCH   3   6
ENDBRANCH   1   2
BRANCH   1  29
ATOM     29  C   UNL A   1      42.095  19.966  25.778  1.00  0.00     0.042 C 
BRANCH  29  30
ATOM     30  C   UNL A   1      43.101  18.883  26.152  1.00  0.00     0.118 C 
BRANCH  30  31
ATOM     31  N   UNL A   1      43.976  18.512  25.046  1.00  0.00    -0.352 N 
ATOM     32  C   UNL A   1      44.769  19.295  24.245  1.00  0.00     0.251 C 
ATOM     33  H   UNL A   1      44.001  17.550  24.841  1.00  0.00     0.163 HD
ATOM     34  O   UNL A   1      45.301  18.812  23.249  1.00  0.00    -0.269 OA
BRANCH  32  35
ATOM     35  C   UNL A   1      44.970  20.723  24.566  1.00  0.00     0.039 A 
ATOM     36  C   UNL A   1      44.535  21.692  23.657  1.00  0.00     0.014 A 
ATOM     37  C   UNL A   1      45.598  21.106  25.753  1.00  0.00     0.014 A 
ATOM     38  C   UNL A   1      44.660  23.047  23.975  1.00  0.00     0.010 A 
ATOM     39  C   UNL A   1      45.651  22.451  26.103  1.00  0.00     0.010 A 
ATOM     40  C   UNL A   1      45.184  23.436  25.218  1.00  0.00    -0.014 A 
BRANCH  40  41
ATOM     41  C   UNL A   1      45.276  24.861  25.624  1.00  0.00     0.031 A 
ATOM     42  C   UNL A   1      46.607  25.563  25.578  1.00  0.00     0.074 A 
ATOM     43  C   UNL A   1      44.195  25.496  26.116  1.00  0.00     0.049 A 
ATOM     44  N   UNL A   1      46.936  26.742  26.041  1.00  0.00    -0.248 NA
ATOM     45  C   UNL A   1      47.719  24.828  24.952  1.00  0.00     0.031 C 
ATOM     46  C   UNL A   1      42.848  24.929  26.224  1.00  0.00     0.029 A 
ATOM     47  N   UNL A   1      44.063  26.759  26.638  1.00  0.00    -0.354 N 
ATOM     48  C   UNL A   1      48.294  26.880  25.783  1.00  0.00     0.074 A 
ATOM     49  C   UNL A   1      48.737  25.649  25.165  1.00  0.00     0.031 C 
ATOM     50  C   UNL A   1      42.027  25.843  26.766  1.00  0.00     0.029 A 
ATOM     51  C   UNL A   1      42.796  27.040  27.092  1.00  0.00     0.049 A 
ATOM     52  H   UNL A   1      44.806  27.403  26.683  1.00  0.00     0.167 HD
ATOM     53  C   UNL A   1      49.099  27.942  26.022  1.00  0.00     0.031 A 
ATOM     54  C   UNL A   1      42.315  28.129  27.720  1.00  0.00     0.031 A 
ATOM     55  C   UNL A   1      48.658  29.170  26.626  1.00  0.00     0.049 A 
ATOM     56  C   UNL A   1      43.242  29.278  28.015  1.00  0.00     0.074 A 
ATOM     57  C   UNL A   1      49.391  30.314  26.885  1.00  0.00     0.029 A 
ATOM     58  N   UNL A   1      47.364  29.416  27.056  1.00  0.00    -0.354 N 
ATOM     59  N   UNL A   1      44.516  29.407  27.734  1.00  0.00    -0.248 NA
ATOM     60  C   UNL A   1      42.661  30.437  28.709  1.00  0.00     0.031 C 
ATOM     61  C   UNL A   1      48.551  31.238  27.513  1.00  0.00     0.029 A 
ATOM     62  C   UNL A   1      47.281  30.690  27.588  1.00  0.00     0.049 A 
ATOM     63  H   UNL A   1      46.616  28.778  26.993  1.00  0.00     0.167 HD
ATOM     64  C   UNL A   1      44.874  30.676  28.173  1.00  0.00     0.074 A 
ATOM     65  C   UNL A   1      43.684  31.279  28.735  1.00  0.00     0.031 C 
ATOM     66  C   UNL A   1      46.081  31.287  28.112  1.00  0.00     0.031 A 
BRANCH  53  67
ATOM     67  C   UNL A   1      50.544  27.823  25.627  1.00  0.00    -0.014 A 
ATOM     68  C   UNL A   1      51.504  27.344  26.532  1.00  0.00     0.009 A 
ATOM     69  C   UNL A   1      50.942  28.145  24.321  1.00  0.00     0.009 A 
ATOM     70  C   UNL A   1      52.840  27.218  26.144  1.00  0.00     0.001 A 
ATOM     71  C   UNL A   1      52.272  27.990  23.927  1.00  0.00     0.001 A 
ATOM     72  C   UNL A   1      53.222  27.534  24.841  1.00  0.00     0.000 A 
ENDBRANCH  53  67
BRANCH  54  73
ATOM     73  C   UNL A   1      40.884  28.200  28.122  1.00  0.00    -0.014 A 
ATOM     74  C   UNL A   1      39.970  28.951  27.367  1.00  0.00     0.009 A 
ATOM     75  C   UNL A   1      40.433  27.556  29.285  1.00  0.00     0.009 A 
ATOM     76  C   UNL A   1      38.646  29.091  27.788  1.00  0.00     0.001 A 
ATOM     77  C   UNL A   1      39.099  27.670  29.686  1.00  0.00     0.001 A 
ATOM     78  C   UNL A   1      38.211  28.447  28.945  1.00  0.00     0.000 A 
ENDBRANCH  54  73
BRANCH  66  79
ATOM     79  C   UNL A   1      46.164  32.710  28.590  1.00  0.00    -0.014 A 
ATOM     80  C   UNL A   1      46.485  33.023  29.918  1.00  0.00     0.009 A 
ATOM     81  C   UNL A   1      45.979  33.754  27.668  1.00  0.00     0.009 A 
ATOM     82  C   UNL A   1      46.592  34.357  30.320  1.00  0.00     0.001 A 
ATOM     83  C   UNL A   1      46.117  35.083  28.065  1.00  0.00     0.001 A 
ATOM     84  C   UNL A   1      46.416  35.384  29.393  1.00  0.00     0.000 A 
ENDBRANCH  66  79
ENDBRANCH  40  41
ENDBRANCH  32  35
ENDBRANCH  30  31
ENDBRANCH  29  30
ENDBRANCH   1  29
TORSDOF 14
ENDMDL
