MODEL 1
REMARK VINA RESULT:     -10.9      0.000      0.000
REMARK SMILES Cc1nc(C[N@@H+]2CCC[C@H]2C(=O)NCCCNC(=O)c2ccc(-c3c4nc(c(-c5ccccc5)c5ccc([nH]5)c(-c5ccccc5)c5nc(c(-c6ccccc6)c6ccc3[nH]6)C=C5)C=C4)cc2)cs1
REMARK SMILES IDX 15 1 14 2 13 3 11 4 12 5 10 7 6 8 7 9 8 11 9 12 5 13 4 14
REMARK SMILES IDX 1 15 2 16 3 17 69 18 68 19 16 20 17 21 18 22 19 24 20 25
REMARK SMILES IDX 21 26 67 27 22 28 66 29 23 30 24 31 25 32 60 33 26 34 65 35
REMARK SMILES IDX 59 36 61 37 27 38 64 39 58 40 57 41 28 43 50 44 35 45 49 46
REMARK SMILES IDX 36 47 39 48 48 49 62 50 37 51 38 52 47 54 63 55 40 56 29 57
REMARK SMILES IDX 30 58 34 59 31 60 33 61 32 62 51 63 52 64 56 65 53 66 55 67
REMARK SMILES IDX 54 68 41 69 42 70 46 71 43 72 45 73 44 74
REMARK H PARENT 13 6 6 10 17 23 61 42 39 53
REMARK Flexibility Score: inf
ROOT
ATOM      1  C   UNL A   1      37.869  19.699  25.193  1.00  0.00     0.042 C 
ENDROOT
BRANCH   1   2
ATOM      2  C   UNL A   1      36.979  20.806  24.640  1.00  0.00     0.118 C 
BRANCH   2   3
ATOM      3  N   UNL A   1      36.249  21.493  25.692  1.00  0.00    -0.351 N 
ATOM      4  C   UNL A   1      34.975  21.942  25.817  1.00  0.00     0.278 C 
ATOM      5  O   UNL A   1      34.742  22.554  26.871  1.00  0.00    -0.268 OA
ATOM      6  H   UNL A   1      36.801  21.673  26.488  1.00  0.00     0.163 HD
BRANCH   4   7
ATOM      7  C   UNL A   1      33.846  21.779  24.770  1.00  0.00     0.274 C 
ATOM      8  N   UNL A   1      32.744  20.907  25.199  1.00  0.00    -0.320 N 
ATOM      9  C   UNL A   1      31.665  21.751  25.695  1.00  0.00     0.263 C 
ATOM     10  H   UNL A   1      33.052  20.321  25.975  1.00  0.00     0.349 HD
ATOM     11  C   UNL A   1      31.752  23.042  24.910  1.00  0.00     0.068 C 
ATOM     12  C   UNL A   1      33.213  23.153  24.501  1.00  0.00     0.081 C 
BRANCH   8  13
ATOM     13  C   UNL A   1      32.377  19.860  24.243  1.00  0.00     0.321 C 
BRANCH  13  14
ATOM     14  C   UNL A   1      32.955  18.503  24.519  1.00  0.00     0.106 A 
ATOM     15  C   UNL A   1      32.250  15.138  25.764  1.00  0.00     0.079 C 
ATOM     16  C   UNL A   1      32.816  16.398  25.210  1.00  0.00     0.090 A 
ATOM     17  N   UNL A   1      32.153  17.530  25.105  1.00  0.00    -0.241 NA
ATOM     18  S   UNL A   1      34.440  16.438  24.653  1.00  0.00    -0.127 S 
ATOM     19  C   UNL A   1      34.226  18.070  24.188  1.00  0.00     0.096 A 
ENDBRANCH  13  14
ENDBRANCH   8  13
ENDBRANCH   4   7
ENDBRANCH   2   3
ENDBRANCH   1   2
BRANCH   1  20
ATOM     20  C   UNL A   1      39.184  20.206  25.782  1.00  0.00     0.118 C 
BRANCH  20  21
ATOM     21  N   UNL A   1      40.196  19.160  25.881  1.00  0.00    -0.352 N 
ATOM     22  C   UNL A   1      41.555  19.239  26.057  1.00  0.00     0.251 C 
ATOM     23  H   UNL A   1      39.845  18.243  25.809  1.00  0.00     0.163 HD
ATOM     24  O   UNL A   1      42.245  18.235  25.909  1.00  0.00    -0.269 OA
BRANCH  22  25
ATOM     25  C   UNL A   1      42.197  20.524  26.404  1.00  0.00     0.039 A 
ATOM     26  C   UNL A   1      42.742  21.301  25.377  1.00  0.00     0.014 A 
ATOM     27  C   UNL A   1      42.292  20.955  27.729  1.00  0.00     0.014 A 
ATOM     28  C   UNL A   1      43.303  22.546  25.669  1.00  0.00     0.010 A 
ATOM     29  C   UNL A   1      42.784  22.226  28.012  1.00  0.00     0.010 A 
ATOM     30  C   UNL A   1      43.283  23.039  26.984  1.00  0.00    -0.014 A 
BRANCH  30  31
ATOM     31  C   UNL A   1      43.735  24.418  27.295  1.00  0.00     0.031 A 
ATOM     32  C   UNL A   1      42.748  25.475  27.704  1.00  0.00     0.074 A 
ATOM     33  C   UNL A   1      45.033  24.737  27.129  1.00  0.00     0.049 A 
ATOM     34  N   UNL A   1      42.954  26.747  27.939  1.00  0.00    -0.248 NA
ATOM     35  C   UNL A   1      41.345  25.056  27.846  1.00  0.00     0.031 C 
ATOM     36  C   UNL A   1      46.084  23.813  26.695  1.00  0.00     0.029 A 
ATOM     37  N   UNL A   1      45.689  25.931  27.293  1.00  0.00    -0.354 N 
ATOM     38  C   UNL A   1      41.707  27.281  28.241  1.00  0.00     0.074 A 
ATOM     39  C   UNL A   1      40.746  26.207  28.119  1.00  0.00     0.031 C 
ATOM     40  C   UNL A   1      47.255  24.468  26.651  1.00  0.00     0.029 A 
ATOM     41  C   UNL A   1      47.031  25.864  27.007  1.00  0.00     0.049 A 
ATOM     42  H   UNL A   1      45.241  26.756  27.586  1.00  0.00     0.167 HD
ATOM     43  C   UNL A   1      41.395  28.549  28.602  1.00  0.00     0.031 A 
ATOM     44  C   UNL A   1      47.977  26.823  27.015  1.00  0.00     0.031 A 
ATOM     45  C   UNL A   1      42.351  29.616  28.730  1.00  0.00     0.049 A 
ATOM     46  C   UNL A   1      47.597  28.227  27.390  1.00  0.00     0.074 A 
ATOM     47  C   UNL A   1      42.139  30.916  29.155  1.00  0.00     0.029 A 
ATOM     48  N   UNL A   1      43.698  29.509  28.423  1.00  0.00    -0.354 N 
ATOM     49  N   UNL A   1      46.426  28.698  27.744  1.00  0.00    -0.248 NA
ATOM     50  C   UNL A   1      48.671  29.230  27.366  1.00  0.00     0.031 C 
ATOM     51  C   UNL A   1      43.349  31.611  29.055  1.00  0.00     0.029 A 
ATOM     52  C   UNL A   1      44.324  30.730  28.616  1.00  0.00     0.049 A 
ATOM     53  H   UNL A   1      44.144  28.687  28.114  1.00  0.00     0.167 HD
ATOM     54  C   UNL A   1      46.625  30.048  28.001  1.00  0.00     0.074 A 
ATOM     55  C   UNL A   1      48.031  30.315  27.782  1.00  0.00     0.031 C 
ATOM     56  C   UNL A   1      45.721  30.984  28.379  1.00  0.00     0.031 A 
BRANCH  43  57
ATOM     57  C   UNL A   1      39.949  28.853  28.878  1.00  0.00    -0.014 A 
ATOM     58  C   UNL A   1      39.101  29.334  27.868  1.00  0.00     0.009 A 
ATOM     59  C   UNL A   1      39.416  28.617  30.155  1.00  0.00     0.009 A 
ATOM     60  C   UNL A   1      37.758  29.604  28.138  1.00  0.00     0.001 A 
ATOM     61  C   UNL A   1      38.066  28.862  30.416  1.00  0.00     0.001 A 
ATOM     62  C   UNL A   1      37.242  29.364  29.412  1.00  0.00     0.000 A 
ENDBRANCH  43  57
BRANCH  44  63
ATOM     63  C   UNL A   1      49.378  26.486  26.655  1.00  0.00    -0.014 A 
ATOM     64  C   UNL A   1      49.836  26.664  25.341  1.00  0.00     0.009 A 
ATOM     65  C   UNL A   1      50.263  25.985  27.621  1.00  0.00     0.009 A 
ATOM     66  C   UNL A   1      51.147  26.326  24.997  1.00  0.00     0.001 A 
ATOM     67  C   UNL A   1      51.582  25.675  27.281  1.00  0.00     0.001 A 
ATOM     68  C   UNL A   1      52.019  25.837  25.967  1.00  0.00     0.000 A 
ENDBRANCH  44  63
BRANCH  56  69
ATOM     69  C   UNL A   1      46.231  32.381  28.588  1.00  0.00    -0.014 A 
ATOM     70  C   UNL A   1      46.215  33.321  27.545  1.00  0.00     0.009 A 
ATOM     71  C   UNL A   1      46.701  32.772  29.851  1.00  0.00     0.009 A 
ATOM     72  C   UNL A   1      46.686  34.617  27.757  1.00  0.00     0.001 A 
ATOM     73  C   UNL A   1      47.147  34.076  30.066  1.00  0.00     0.001 A 
ATOM     74  C   UNL A   1      47.147  34.995  29.018  1.00  0.00     0.000 A 
ENDBRANCH  56  69
ENDBRANCH  30  31
ENDBRANCH  22  25
ENDBRANCH  20  21
ENDBRANCH   1  20
TORSDOF 12
ENDMDL
MODEL 2
REMARK VINA RESULT:     -10.9      7.087     11.785
REMARK SMILES Cc1nc(C[N@@H+]2CCC[C@H]2C(=O)NCCCNC(=O)c2ccc(-c3c4nc(c(-c5ccccc5)c5ccc([nH]5)c(-c5ccccc5)c5nc(c(-c6ccccc6)c6ccc3[nH]6)C=C5)C=C4)cc2)cs1
REMARK SMILES IDX 15 1 14 2 13 3 11 4 12 5 10 7 6 8 7 9 8 11 9 12 5 13 4 14
REMARK SMILES IDX 1 15 2 16 3 17 69 18 68 19 16 20 17 21 18 22 19 24 20 25
REMARK SMILES IDX 21 26 67 27 22 28 66 29 23 30 24 31 25 32 60 33 26 34 65 35
REMARK SMILES IDX 59 36 61 37 27 38 64 39 58 40 57 41 28 43 50 44 35 45 49 46
REMARK SMILES IDX 36 47 39 48 48 49 62 50 37 51 38 52 47 54 63 55 40 56 29 57
REMARK SMILES IDX 30 58 34 59 31 60 33 61 32 62 51 63 52 64 56 65 53 66 55 67
REMARK SMILES IDX 54 68 41 69 42 70 46 71 43 72 45 73 44 74
REMARK H PARENT 13 6 6 10 17 23 61 42 39 53
REMARK Flexibility Score: inf
ROOT
ATOM      1  C   UNL A   1      31.456  32.153  26.623  1.00  0.00     0.042 C 
ENDROOT
BRANCH   1   2
ATOM      2  C   UNL A   1      31.404  30.643  26.819  1.00  0.00     0.118 C 
BRANCH   2   3
ATOM      3  N   UNL A   1      32.707  30.026  26.643  1.00  0.00    -0.351 N 
ATOM      4  C   UNL A   1      33.179  29.028  25.855  1.00  0.00     0.278 C 
ATOM      5  O   UNL A   1      34.371  28.738  26.046  1.00  0.00    -0.268 OA
ATOM      6  H   UNL A   1      33.399  30.419  27.223  1.00  0.00     0.163 HD
BRANCH   4   7
ATOM      7  C   UNL A   1      32.365  28.237  24.802  1.00  0.00     0.274 C 
ATOM      8  N   UNL A   1      31.822  29.061  23.714  1.00  0.00    -0.320 N 
ATOM      9  C   UNL A   1      32.717  28.951  22.571  1.00  0.00     0.263 C 
ATOM     10  H   UNL A   1      31.811  30.041  23.998  1.00  0.00     0.349 HD
ATOM     11  C   UNL A   1      33.326  27.568  22.651  1.00  0.00     0.068 C 
ATOM     12  C   UNL A   1      33.287  27.209  24.129  1.00  0.00     0.081 C 
BRANCH   8  13
ATOM     13  C   UNL A   1      30.392  28.875  23.454  1.00  0.00     0.321 C 
BRANCH  13  14
ATOM     14  C   UNL A   1      29.650  30.102  23.014  1.00  0.00     0.106 A 
ATOM     15  C   UNL A   1      28.027  31.780  20.200  1.00  0.00     0.079 C 
ATOM     16  C   UNL A   1      28.599  31.342  21.502  1.00  0.00     0.090 A 
ATOM     17  N   UNL A   1      29.289  30.235  21.678  1.00  0.00    -0.241 NA
ATOM     18  S   UNL A   1      28.372  32.303  22.907  1.00  0.00    -0.127 S 
ATOM     19  C   UNL A   1      29.211  31.130  23.828  1.00  0.00     0.096 A 
ENDBRANCH  13  14
ENDBRANCH   8  13
ENDBRANCH   4   7
ENDBRANCH   2   3
ENDBRANCH   1   2
BRANCH   1  20
ATOM     20  C   UNL A   1      32.683  32.811  27.251  1.00  0.00     0.118 C 
BRANCH  20  21
ATOM     21  N   UNL A   1      32.447  34.202  27.625  1.00  0.00    -0.352 N 
ATOM     22  C   UNL A   1      33.016  34.978  28.603  1.00  0.00     0.251 C 
ATOM     23  H   UNL A   1      31.764  34.661  27.083  1.00  0.00     0.163 HD
ATOM     24  O   UNL A   1      32.523  36.067  28.876  1.00  0.00    -0.269 OA
BRANCH  22  25
ATOM     25  C   UNL A   1      34.205  34.506  29.344  1.00  0.00     0.039 A 
ATOM     26  C   UNL A   1      34.026  33.941  30.611  1.00  0.00     0.014 A 
ATOM     27  C   UNL A   1      35.491  34.641  28.815  1.00  0.00     0.014 A 
ATOM     28  C   UNL A   1      35.125  33.434  31.307  1.00  0.00     0.010 A 
ATOM     29  C   UNL A   1      36.576  34.071  29.476  1.00  0.00     0.010 A 
ATOM     30  C   UNL A   1      36.402  33.451  30.722  1.00  0.00    -0.014 A 
BRANCH  30  31
ATOM     31  C   UNL A   1      37.556  32.785  31.376  1.00  0.00     0.031 A 
ATOM     32  C   UNL A   1      38.218  31.596  30.739  1.00  0.00     0.074 A 
ATOM     33  C   UNL A   1      37.956  33.209  32.591  1.00  0.00     0.049 A 
ATOM     34  N   UNL A   1      39.186  30.846  31.203  1.00  0.00    -0.248 NA
ATOM     35  C   UNL A   1      37.712  31.180  29.421  1.00  0.00     0.031 C 
ATOM     36  C   UNL A   1      37.369  34.325  33.336  1.00  0.00     0.029 A 
ATOM     37  N   UNL A   1      38.944  32.741  33.420  1.00  0.00    -0.354 N 
ATOM     38  C   UNL A   1      39.394  29.863  30.244  1.00  0.00     0.074 A 
ATOM     39  C   UNL A   1      38.426  30.087  29.192  1.00  0.00     0.031 C 
ATOM     40  C   UNL A   1      38.023  34.471  34.499  1.00  0.00     0.029 A 
ATOM     41  C   UNL A   1      39.042  33.433  34.603  1.00  0.00     0.049 A 
ATOM     42  H   UNL A   1      39.527  31.982  33.190  1.00  0.00     0.167 HD
ATOM     43  C   UNL A   1      40.320  28.874  30.232  1.00  0.00     0.031 A 
ATOM     44  C   UNL A   1      39.852  33.245  35.663  1.00  0.00     0.031 A 
ATOM     45  C   UNL A   1      41.287  28.655  31.275  1.00  0.00     0.049 A 
ATOM     46  C   UNL A   1      40.848  32.122  35.637  1.00  0.00     0.074 A 
ATOM     47  C   UNL A   1      42.308  27.721  31.320  1.00  0.00     0.029 A 
ATOM     48  N   UNL A   1      41.347  29.372  32.459  1.00  0.00    -0.354 N 
ATOM     49  N   UNL A   1      41.081  31.248  34.689  1.00  0.00    -0.248 NA
ATOM     50  C   UNL A   1      41.692  31.961  36.829  1.00  0.00     0.031 C 
ATOM     51  C   UNL A   1      42.952  27.838  32.557  1.00  0.00     0.029 A 
ATOM     52  C   UNL A   1      42.365  28.879  33.258  1.00  0.00     0.049 A 
ATOM     53  H   UNL A   1      40.754  30.122  32.697  1.00  0.00     0.167 HD
ATOM     54  C   UNL A   1      42.109  30.444  35.162  1.00  0.00     0.074 A 
ATOM     55  C   UNL A   1      42.467  30.946  36.472  1.00  0.00     0.031 C 
ATOM     56  C   UNL A   1      42.699  29.379  34.566  1.00  0.00     0.031 A 
BRANCH  43  57
ATOM     57  C   UNL A   1      40.323  27.943  29.052  1.00  0.00    -0.014 A 
ATOM     58  C   UNL A   1      41.049  28.245  27.889  1.00  0.00     0.009 A 
ATOM     59  C   UNL A   1      39.625  26.727  29.120  1.00  0.00     0.009 A 
ATOM     60  C   UNL A   1      41.048  27.364  26.805  1.00  0.00     0.001 A 
ATOM     61  C   UNL A   1      39.648  25.836  28.045  1.00  0.00     0.001 A 
ATOM     62  C   UNL A   1      40.351  26.159  26.886  1.00  0.00     0.000 A 
ENDBRANCH  43  57
BRANCH  44  63
ATOM     63  C   UNL A   1      39.752  34.145  36.841  1.00  0.00    -0.014 A 
ATOM     64  C   UNL A   1      40.412  35.384  36.846  1.00  0.00     0.009 A 
ATOM     65  C   UNL A   1      38.999  33.772  37.964  1.00  0.00     0.009 A 
ATOM     66  C   UNL A   1      40.336  36.220  37.962  1.00  0.00     0.001 A 
ATOM     67  C   UNL A   1      38.903  34.622  39.067  1.00  0.00     0.001 A 
ATOM     68  C   UNL A   1      39.579  35.841  39.069  1.00  0.00     0.000 A 
ENDBRANCH  44  63
BRANCH  56  69
ATOM     69  C   UNL A   1      43.800  28.695  35.324  1.00  0.00    -0.014 A 
ATOM     70  C   UNL A   1      43.529  27.608  36.170  1.00  0.00     0.009 A 
ATOM     71  C   UNL A   1      45.128  29.121  35.166  1.00  0.00     0.009 A 
ATOM     72  C   UNL A   1      44.564  26.978  36.863  1.00  0.00     0.001 A 
ATOM     73  C   UNL A   1      46.163  28.473  35.840  1.00  0.00     0.001 A 
ATOM     74  C   UNL A   1      45.880  27.408  36.694  1.00  0.00     0.000 A 
ENDBRANCH  56  69
ENDBRANCH  30  31
ENDBRANCH  22  25
ENDBRANCH  20  21
ENDBRANCH   1  20
TORSDOF 12
ENDMDL
MODEL 3
REMARK VINA RESULT:     -10.8      1.239      6.277
REMARK SMILES Cc1nc(C[N@@H+]2CCC[C@H]2C(=O)NCCCNC(=O)c2ccc(-c3c4nc(c(-c5ccccc5)c5ccc([nH]5)c(-c5ccccc5)c5nc(c(-c6ccccc6)c6ccc3[nH]6)C=C5)C=C4)cc2)cs1
REMARK SMILES IDX 15 1 14 2 13 3 11 4 12 5 10 7 6 8 7 9 8 11 9 12 5 13 4 14
REMARK SMILES IDX 1 15 2 16 3 17 69 18 68 19 16 20 17 21 18 22 19 24 20 25
REMARK SMILES IDX 21 26 67 27 22 28 66 29 23 30 24 31 25 32 60 33 26 34 65 35
REMARK SMILES IDX 59 36 61 37 27 38 64 39 58 40 57 41 28 43 50 44 35 45 49 46
REMARK SMILES IDX 36 47 39 48 48 49 62 50 37 51 38 52 47 54 63 55 40 56 29 57
REMARK SMILES IDX 30 58 34 59 31 60 33 61 32 62 51 63 52 64 56 65 53 66 55 67
REMARK SMILES IDX 54 68 41 69 42 70 46 71 43 72 45 73 44 74
REMARK H PARENT 13 6 6 10 17 23 61 42 39 53
REMARK Flexibility Score: inf
ROOT
ATOM      1  C   UNL A   1      38.097  19.828  24.936  1.00  0.00     0.042 C 
ENDROOT
BRANCH   1   2
ATOM      2  C   UNL A   1      37.286  21.046  24.508  1.00  0.00     0.118 C 
BRANCH   2   3
ATOM      3  N   UNL A   1      36.441  21.540  25.581  1.00  0.00    -0.351 N 
ATOM      4  C   UNL A   1      35.116  21.815  25.687  1.00  0.00     0.278 C 
ATOM      5  O   UNL A   1      34.773  22.297  26.778  1.00  0.00    -0.268 OA
ATOM      6  H   UNL A   1      36.938  21.714  26.413  1.00  0.00     0.163 HD
BRANCH   4   7
ATOM      7  C   UNL A   1      34.052  21.609  24.581  1.00  0.00     0.274 C 
ATOM      8  N   UNL A   1      32.881  20.831  25.006  1.00  0.00    -0.320 N 
ATOM      9  C   UNL A   1      31.817  21.763  25.348  1.00  0.00     0.263 C 
ATOM     10  H   UNL A   1      33.107  20.304  25.849  1.00  0.00     0.349 HD
ATOM     11  C   UNL A   1      32.021  22.973  24.463  1.00  0.00     0.068 C 
ATOM     12  C   UNL A   1      33.510  22.981  24.150  1.00  0.00     0.081 C 
BRANCH   8  13
ATOM     13  C   UNL A   1      32.526  19.719  24.121  1.00  0.00     0.321 C 
BRANCH  13  14
ATOM     14  C   UNL A   1      33.086  18.382  24.507  1.00  0.00     0.106 A 
ATOM     15  C   UNL A   1      32.313  15.098  25.919  1.00  0.00     0.079 C 
ATOM     16  C   UNL A   1      32.909  16.323  25.318  1.00  0.00     0.090 A 
ATOM     17  N   UNL A   1      32.254  17.446  25.111  1.00  0.00    -0.241 NA
ATOM     18  S   UNL A   1      34.558  16.330  24.840  1.00  0.00    -0.127 S 
ATOM     19  C   UNL A   1      34.371  17.930  24.266  1.00  0.00     0.096 A 
ENDBRANCH  13  14
ENDBRANCH   8  13
ENDBRANCH   4   7
ENDBRANCH   2   3
ENDBRANCH   1   2
BRANCH   1  20
ATOM     20  C   UNL A   1      39.129  20.129  26.020  1.00  0.00     0.118 C 
BRANCH  20  21
ATOM     21  N   UNL A   1      40.267  19.215  25.983  1.00  0.00    -0.352 N 
ATOM     22  C   UNL A   1      41.612  19.450  26.120  1.00  0.00     0.251 C 
ATOM     23  H   UNL A   1      40.028  18.271  25.835  1.00  0.00     0.163 HD
ATOM     24  O   UNL A   1      42.413  18.560  25.852  1.00  0.00    -0.269 OA
BRANCH  22  25
ATOM     25  C   UNL A   1      42.106  20.769  26.567  1.00  0.00     0.039 A 
ATOM     26  C   UNL A   1      42.617  21.654  25.613  1.00  0.00     0.014 A 
ATOM     27  C   UNL A   1      42.096  21.129  27.917  1.00  0.00     0.014 A 
ATOM     28  C   UNL A   1      43.036  22.929  26.000  1.00  0.00     0.010 A 
ATOM     29  C   UNL A   1      42.445  22.423  28.293  1.00  0.00     0.010 A 
ATOM     30  C   UNL A   1      42.906  23.340  27.337  1.00  0.00    -0.014 A 
BRANCH  30  31
ATOM     31  C   UNL A   1      43.203  24.736  27.744  1.00  0.00     0.031 A 
ATOM     32  C   UNL A   1      44.617  25.178  27.994  1.00  0.00     0.074 A 
ATOM     33  C   UNL A   1      42.182  25.586  27.966  1.00  0.00     0.049 A 
ATOM     34  N   UNL A   1      45.053  26.335  28.426  1.00  0.00    -0.248 NA
ATOM     35  C   UNL A   1      45.677  24.188  27.748  1.00  0.00     0.031 C 
ATOM     36  C   UNL A   1      40.761  25.267  27.801  1.00  0.00     0.029 A 
ATOM     37  N   UNL A   1      42.181  26.890  28.392  1.00  0.00    -0.354 N 
ATOM     38  C   UNL A   1      46.434  26.206  28.519  1.00  0.00     0.074 A 
ATOM     39  C   UNL A   1      46.758  24.849  28.137  1.00  0.00     0.031 C 
ATOM     40  C   UNL A   1      40.029  26.352  28.098  1.00  0.00     0.029 A 
ATOM     41  C   UNL A   1      40.922  27.426  28.518  1.00  0.00     0.049 A 
ATOM     42  H   UNL A   1      43.003  27.394  28.589  1.00  0.00     0.167 HD
ATOM     43  C   UNL A   1      47.349  27.140  28.874  1.00  0.00     0.031 A 
ATOM     44  C   UNL A   1      40.526  28.642  28.939  1.00  0.00     0.031 A 
ATOM     45  C   UNL A   1      47.027  28.491  29.247  1.00  0.00     0.049 A 
ATOM     46  C   UNL A   1      41.560  29.648  29.356  1.00  0.00     0.074 A 
ATOM     47  C   UNL A   1      47.891  29.528  29.557  1.00  0.00     0.029 A 
ATOM     48  N   UNL A   1      45.741  28.991  29.371  1.00  0.00    -0.354 N 
ATOM     49  N   UNL A   1      42.865  29.533  29.366  1.00  0.00    -0.248 NA
ATOM     50  C   UNL A   1      41.064  30.952  29.819  1.00  0.00     0.031 C 
ATOM     51  C   UNL A   1      47.125  30.641  29.921  1.00  0.00     0.029 A 
ATOM     52  C   UNL A   1      45.785  30.311  29.787  1.00  0.00     0.049 A 
ATOM     53  H   UNL A   1      44.917  28.483  29.189  1.00  0.00     0.167 HD
ATOM     54  C   UNL A   1      43.348  30.753  29.821  1.00  0.00     0.074 A 
ATOM     55  C   UNL A   1      42.196  31.600  30.056  1.00  0.00     0.031 C 
ATOM     56  C   UNL A   1      44.630  31.136  30.031  1.00  0.00     0.031 A 
BRANCH  43  57
ATOM     57  C   UNL A   1      48.794  26.724  28.885  1.00  0.00    -0.014 A 
ATOM     58  C   UNL A   1      49.411  26.268  30.060  1.00  0.00     0.009 A 
ATOM     59  C   UNL A   1      49.536  26.749  27.694  1.00  0.00     0.009 A 
ATOM     60  C   UNL A   1      50.752  25.878  30.051  1.00  0.00     0.001 A 
ATOM     61  C   UNL A   1      50.869  26.333  27.681  1.00  0.00     0.001 A 
ATOM     62  C   UNL A   1      51.478  25.907  28.860  1.00  0.00     0.000 A 
ENDBRANCH  43  57
BRANCH  44  63
ATOM     63  C   UNL A   1      39.079  28.976  28.987  1.00  0.00    -0.014 A 
ATOM     64  C   UNL A   1      38.444  29.544  27.873  1.00  0.00     0.009 A 
ATOM     65  C   UNL A   1      38.327  28.729  30.146  1.00  0.00     0.009 A 
ATOM     66  C   UNL A   1      37.089  29.878  27.926  1.00  0.00     0.001 A 
ATOM     67  C   UNL A   1      36.966  29.038  30.186  1.00  0.00     0.001 A 
ATOM     68  C   UNL A   1      36.350  29.621  29.080  1.00  0.00     0.000 A 
ENDBRANCH  44  63
BRANCH  56  69
ATOM     69  C   UNL A   1      44.854  32.534  30.530  1.00  0.00    -0.014 A 
ATOM     70  C   UNL A   1      44.973  32.802  31.903  1.00  0.00     0.009 A 
ATOM     71  C   UNL A   1      44.980  33.591  29.617  1.00  0.00     0.009 A 
ATOM     72  C   UNL A   1      45.186  34.106  32.352  1.00  0.00     0.001 A 
ATOM     73  C   UNL A   1      45.220  34.890  30.067  1.00  0.00     0.001 A 
ATOM     74  C   UNL A   1      45.314  35.148  31.434  1.00  0.00     0.000 A 
ENDBRANCH  56  69
ENDBRANCH  30  31
ENDBRANCH  22  25
ENDBRANCH  20  21
ENDBRANCH   1  20
TORSDOF 12
ENDMDL
