MODEL 1
REMARK VINA RESULT:     -12.2      0.000      0.000
REMARK SMILES Cc1ccc(C)c(/C=C2\SC(=S)N(CC(=O)NCCCNC(=O)c3ccc(-c4c5nc(c(-c6ccccc6)c6ccc([nH]6)c(-c6ccccc6)c6nc(c(-c7ccccc7)c7ccc4[nH]7)C=C6)C=C5)cc3)C2=O)c1
REMARK SMILES IDX 19 1 18 2 17 3 15 4 16 5 14 7 13 8 8 9 9 10 10 11 72 12
REMARK SMILES IDX 11 13 73 14 12 15 7 16 1 17 2 18 3 19 74 20 4 21 5 22 6 23
REMARK SMILES IDX 20 24 21 25 22 26 23 28 24 29 25 30 71 31 26 32 70 33 27 34
REMARK SMILES IDX 28 35 29 36 64 37 30 38 69 39 63 40 65 41 31 42 68 43 62 44
REMARK SMILES IDX 61 45 32 47 54 48 39 49 53 50 40 51 43 52 52 53 66 54 41 55
REMARK SMILES IDX 42 56 51 58 67 59 44 60 33 61 34 62 38 63 35 64 37 65 36 66
REMARK SMILES IDX 55 67 56 68 60 69 57 70 59 71 58 72 45 73 46 74 50 75 47 76
REMARK SMILES IDX 49 77 48 78
REMARK H PARENT 17 6 21 27 65 46 43 57
REMARK Flexibility Score: inf
ROOT
ATOM      1  C   UNL A   1      37.653  21.168  24.917  1.00  0.00     0.042 C 
ENDROOT
BRANCH   1   2
ATOM      2  C   UNL A   1      36.211  20.752  25.223  1.00  0.00     0.117 C 
BRANCH   2   3
ATOM      3  N   UNL A   1      35.691  21.235  26.491  1.00  0.00    -0.354 N 
ATOM      4  C   UNL A   1      34.416  21.595  26.833  1.00  0.00     0.240 C 
ATOM      5  O   UNL A   1      34.128  21.555  28.033  1.00  0.00    -0.273 OA
ATOM      6  H   UNL A   1      36.356  21.317  27.211  1.00  0.00     0.163 HD
BRANCH   4   7
ATOM      7  C   UNL A   1      33.344  21.902  25.779  1.00  0.00     0.227 C 
BRANCH   7   8
ATOM      8  N   UNL A   1      33.254  23.327  25.468  1.00  0.00    -0.283 N 
ATOM      9  C   UNL A   1      31.749  26.468  26.443  1.00  0.00     0.029 C 
ATOM     10  C   UNL A   1      32.452  25.516  25.811  1.00  0.00     0.081 C 
ATOM     11  S   UNL A   1      33.543  25.688  24.495  1.00  0.00    -0.054 SA
ATOM     12  C   UNL A   1      32.391  24.094  26.234  1.00  0.00     0.266 C 
ATOM     13  C   UNL A   1      33.851  23.960  24.401  1.00  0.00     0.148 C 
ATOM     14  O   UNL A   1      31.680  23.688  27.141  1.00  0.00    -0.268 OA
ATOM     15  S   UNL A   1      34.740  23.295  23.157  1.00  0.00    -0.052 S 
BRANCH   9  16
ATOM     16  C   UNL A   1      31.797  27.910  26.156  1.00  0.00    -0.021 A 
ATOM     17  C   UNL A   1      33.389  31.009  27.723  1.00  0.00     0.044 C 
ATOM     18  C   UNL A   1      32.607  30.130  26.793  1.00  0.00    -0.051 A 
ATOM     19  C   UNL A   1      31.879  30.686  25.743  1.00  0.00     0.004 A 
ATOM     20  C   UNL A   1      32.581  28.743  26.975  1.00  0.00     0.011 A 
ATOM     21  C   UNL A   1      31.134  29.868  24.891  1.00  0.00     0.004 A 
ATOM     22  C   UNL A   1      31.081  28.477  25.084  1.00  0.00    -0.044 A 
ATOM     23  C   UNL A   1      30.238  27.680  24.124  1.00  0.00     0.045 C 
ENDBRANCH   9  16
ENDBRANCH   7   8
ENDBRANCH   4   7
ENDBRANCH   2   3
ENDBRANCH   1   2
BRANCH   1  24
ATOM     24  C   UNL A   1      38.371  21.992  25.986  1.00  0.00     0.118 C 
BRANCH  24  25
ATOM     25  N   UNL A   1      39.834  21.873  25.921  1.00  0.00    -0.352 N 
ATOM     26  C   UNL A   1      40.891  22.727  26.203  1.00  0.00     0.251 C 
ATOM     27  H   UNL A   1      40.130  20.989  25.605  1.00  0.00     0.163 HD
ATOM     28  O   UNL A   1      42.000  22.452  25.785  1.00  0.00    -0.269 OA
BRANCH  26  29
ATOM     29  C   UNL A   1      40.697  23.965  26.997  1.00  0.00     0.039 A 
ATOM     30  C   UNL A   1      39.527  24.736  26.934  1.00  0.00     0.014 A 
ATOM     31  C   UNL A   1      41.724  24.394  27.809  1.00  0.00     0.014 A 
ATOM     32  C   UNL A   1      39.478  25.943  27.643  1.00  0.00     0.010 A 
ATOM     33  C   UNL A   1      41.495  25.303  28.792  1.00  0.00     0.010 A 
ATOM     34  C   UNL A   1      40.507  26.229  28.544  1.00  0.00    -0.014 A 
BRANCH  34  35
ATOM     35  C   UNL A   1      40.702  27.497  29.228  1.00  0.00     0.031 A 
ATOM     36  C   UNL A   1      41.645  28.425  28.579  1.00  0.00     0.074 A 
ATOM     37  C   UNL A   1      39.800  27.982  30.114  1.00  0.00     0.049 A 
ATOM     38  N   UNL A   1      42.806  28.792  29.002  1.00  0.00    -0.248 NA
ATOM     39  C   UNL A   1      41.297  28.922  27.239  1.00  0.00     0.031 C 
ATOM     40  C   UNL A   1      38.516  27.397  30.528  1.00  0.00     0.029 A 
ATOM     41  N   UNL A   1      39.785  29.199  30.726  1.00  0.00    -0.354 N 
ATOM     42  C   UNL A   1      43.264  29.709  28.064  1.00  0.00     0.074 A 
ATOM     43  C   UNL A   1      42.416  29.565  26.910  1.00  0.00     0.031 C 
ATOM     44  C   UNL A   1      37.770  28.338  31.154  1.00  0.00     0.029 A 
ATOM     45  C   UNL A   1      38.570  29.542  31.308  1.00  0.00     0.049 A 
ATOM     46  H   UNL A   1      40.572  29.790  30.754  1.00  0.00     0.167 HD
ATOM     47  C   UNL A   1      44.127  30.707  28.398  1.00  0.00     0.031 A 
ATOM     48  C   UNL A   1      38.237  30.742  31.844  1.00  0.00     0.031 A 
ATOM     49  C   UNL A   1      44.653  30.537  29.730  1.00  0.00     0.049 A 
ATOM     50  C   UNL A   1      39.497  31.491  32.075  1.00  0.00     0.074 A 
ATOM     51  C   UNL A   1      45.353  29.545  30.387  1.00  0.00     0.029 A 
ATOM     52  N   UNL A   1      44.115  31.335  30.715  1.00  0.00    -0.354 N 
ATOM     53  N   UNL A   1      40.383  31.160  32.969  1.00  0.00    -0.248 NA
ATOM     54  C   UNL A   1      39.972  32.391  31.036  1.00  0.00     0.031 C 
ATOM     55  C   UNL A   1      44.816  29.527  31.709  1.00  0.00     0.029 A 
ATOM     56  C   UNL A   1      43.854  30.537  31.798  1.00  0.00     0.049 A 
ATOM     57  H   UNL A   1      43.949  32.304  30.652  1.00  0.00     0.167 HD
ATOM     58  C   UNL A   1      41.606  31.441  32.378  1.00  0.00     0.074 A 
ATOM     59  C   UNL A   1      41.288  32.317  31.255  1.00  0.00     0.031 C 
ATOM     60  C   UNL A   1      42.716  30.703  32.677  1.00  0.00     0.031 A 
BRANCH  47  61
ATOM     61  C   UNL A   1      44.196  32.036  27.685  1.00  0.00    -0.014 A 
ATOM     62  C   UNL A   1      43.704  33.174  28.346  1.00  0.00     0.009 A 
ATOM     63  C   UNL A   1      44.495  32.183  26.317  1.00  0.00     0.009 A 
ATOM     64  C   UNL A   1      43.469  34.371  27.659  1.00  0.00     0.001 A 
ATOM     65  C   UNL A   1      44.312  33.391  25.639  1.00  0.00     0.001 A 
ATOM     66  C   UNL A   1      43.771  34.478  26.306  1.00  0.00     0.000 A 
ENDBRANCH  47  61
BRANCH  48  67
ATOM     67  C   UNL A   1      36.912  31.375  32.015  1.00  0.00    -0.014 A 
ATOM     68  C   UNL A   1      36.554  31.980  33.231  1.00  0.00     0.009 A 
ATOM     69  C   UNL A   1      36.080  31.603  30.904  1.00  0.00     0.009 A 
ATOM     70  C   UNL A   1      35.430  32.814  33.321  1.00  0.00     0.001 A 
ATOM     71  C   UNL A   1      34.954  32.430  30.995  1.00  0.00     0.001 A 
ATOM     72  C   UNL A   1      34.638  33.048  32.200  1.00  0.00     0.000 A 
ENDBRANCH  48  67
BRANCH  60  73
ATOM     73  C   UNL A   1      42.636  29.757  33.852  1.00  0.00    -0.014 A 
ATOM     74  C   UNL A   1      43.004  30.132  35.156  1.00  0.00     0.009 A 
ATOM     75  C   UNL A   1      42.024  28.508  33.669  1.00  0.00     0.009 A 
ATOM     76  C   UNL A   1      42.792  29.273  36.239  1.00  0.00     0.001 A 
ATOM     77  C   UNL A   1      41.791  27.659  34.754  1.00  0.00     0.001 A 
ATOM     78  C   UNL A   1      42.179  28.039  36.037  1.00  0.00     0.000 A 
ENDBRANCH  60  73
ENDBRANCH  34  35
ENDBRANCH  26  29
ENDBRANCH  24  25
ENDBRANCH   1  24
TORSDOF 12
ENDMDL
MODEL 2
REMARK VINA RESULT:     -12.1      1.366      1.982
REMARK SMILES Cc1ccc(C)c(/C=C2\SC(=S)N(CC(=O)NCCCNC(=O)c3ccc(-c4c5nc(c(-c6ccccc6)c6ccc([nH]6)c(-c6ccccc6)c6nc(c(-c7ccccc7)c7ccc4[nH]7)C=C6)C=C5)cc3)C2=O)c1
REMARK SMILES IDX 19 1 18 2 17 3 15 4 16 5 14 7 13 8 8 9 9 10 10 11 72 12
REMARK SMILES IDX 11 13 73 14 12 15 7 16 1 17 2 18 3 19 74 20 4 21 5 22 6 23
REMARK SMILES IDX 20 24 21 25 22 26 23 28 24 29 25 30 71 31 26 32 70 33 27 34
REMARK SMILES IDX 28 35 29 36 64 37 30 38 69 39 63 40 65 41 31 42 68 43 62 44
REMARK SMILES IDX 61 45 32 47 54 48 39 49 53 50 40 51 43 52 52 53 66 54 41 55
REMARK SMILES IDX 42 56 51 58 67 59 44 60 33 61 34 62 38 63 35 64 37 65 36 66
REMARK SMILES IDX 55 67 56 68 60 69 57 70 59 71 58 72 45 73 46 74 50 75 47 76
REMARK SMILES IDX 49 77 48 78
REMARK H PARENT 17 6 21 27 65 46 43 57
REMARK Flexibility Score: inf
ROOT
ATOM      1  C   UNL A   1      36.396  23.100  24.727  1.00  0.00     0.042 C 
ENDROOT
BRANCH   1   2
ATOM      2  C   UNL A   1      34.888  23.367  24.774  1.00  0.00     0.117 C 
BRANCH   2   3
ATOM      3  N   UNL A   1      34.125  22.754  23.700  1.00  0.00    -0.354 N 
ATOM      4  C   UNL A   1      32.907  23.102  23.185  1.00  0.00     0.240 C 
ATOM      5  O   UNL A   1      32.660  22.729  22.033  1.00  0.00    -0.273 OA
ATOM      6  H   UNL A   1      34.548  21.970  23.282  1.00  0.00     0.163 HD
BRANCH   4   7
ATOM      7  C   UNL A   1      31.936  24.025  23.934  1.00  0.00     0.227 C 
BRANCH   7   8
ATOM      8  N   UNL A   1      32.518  25.332  24.227  1.00  0.00    -0.283 N 
ATOM      9  C   UNL A   1      33.291  27.693  26.856  1.00  0.00     0.029 C 
ATOM     10  C   UNL A   1      33.145  27.089  25.667  1.00  0.00     0.081 C 
ATOM     11  S   UNL A   1      33.683  27.621  24.124  1.00  0.00    -0.054 SA
ATOM     12  C   UNL A   1      32.482  25.767  25.542  1.00  0.00     0.266 C 
ATOM     13  C   UNL A   1      32.987  26.235  23.299  1.00  0.00     0.148 C 
ATOM     14  O   UNL A   1      31.993  25.164  26.486  1.00  0.00    -0.268 OA
ATOM     15  S   UNL A   1      32.946  26.136  21.634  1.00  0.00    -0.052 S 
BRANCH   9  16
ATOM     16  C   UNL A   1      33.999  28.960  27.100  1.00  0.00    -0.021 A 
ATOM     17  C   UNL A   1      37.570  30.042  27.914  1.00  0.00     0.044 C 
ATOM     18  C   UNL A   1      36.101  30.099  27.618  1.00  0.00    -0.051 A 
ATOM     19  C   UNL A   1      35.420  31.314  27.663  1.00  0.00     0.004 A 
ATOM     20  C   UNL A   1      35.389  28.936  27.310  1.00  0.00     0.011 A 
ATOM     21  C   UNL A   1      34.049  31.363  27.409  1.00  0.00     0.004 A 
ATOM     22  C   UNL A   1      33.321  30.194  27.126  1.00  0.00    -0.044 A 
ATOM     23  C   UNL A   1      31.842  30.344  26.882  1.00  0.00     0.045 C 
ENDBRANCH   9  16
ENDBRANCH   7   8
ENDBRANCH   4   7
ENDBRANCH   2   3
ENDBRANCH   1   2
BRANCH   1  24
ATOM     24  C   UNL A   1      37.210  23.549  25.941  1.00  0.00     0.118 C 
BRANCH  24  25
ATOM     25  N   UNL A   1      38.209  22.558  26.364  1.00  0.00    -0.352 N 
ATOM     26  C   UNL A   1      39.496  22.636  26.878  1.00  0.00     0.251 C 
ATOM     27  H   UNL A   1      37.894  21.631  26.258  1.00  0.00     0.163 HD
ATOM     28  O   UNL A   1      40.195  21.640  26.873  1.00  0.00    -0.269 OA
BRANCH  26  29
ATOM     29  C   UNL A   1      40.036  23.903  27.429  1.00  0.00     0.039 A 
ATOM     30  C   UNL A   1      41.364  24.044  27.856  1.00  0.00     0.014 A 
ATOM     31  C   UNL A   1      39.188  24.982  27.554  1.00  0.00     0.014 A 
ATOM     32  C   UNL A   1      41.754  25.248  28.457  1.00  0.00     0.010 A 
ATOM     33  C   UNL A   1      39.682  26.234  27.727  1.00  0.00     0.010 A 
ATOM     34  C   UNL A   1      40.869  26.329  28.417  1.00  0.00    -0.014 A 
BRANCH  34  35
ATOM     35  C   UNL A   1      41.038  27.584  29.131  1.00  0.00     0.031 A 
ATOM     36  C   UNL A   1      41.929  28.564  28.484  1.00  0.00     0.074 A 
ATOM     37  C   UNL A   1      40.144  28.012  30.055  1.00  0.00     0.049 A 
ATOM     38  N   UNL A   1      43.087  28.961  28.886  1.00  0.00    -0.248 NA
ATOM     39  C   UNL A   1      41.526  29.084  27.168  1.00  0.00     0.031 C 
ATOM     40  C   UNL A   1      38.893  27.369  30.486  1.00  0.00     0.029 A 
ATOM     41  N   UNL A   1      40.102  29.211  30.701  1.00  0.00    -0.354 N 
ATOM     42  C   UNL A   1      43.486  29.920  27.962  1.00  0.00     0.074 A 
ATOM     43  C   UNL A   1      42.611  29.776  26.828  1.00  0.00     0.031 C 
ATOM     44  C   UNL A   1      38.132  28.265  31.158  1.00  0.00     0.029 A 
ATOM     45  C   UNL A   1      38.893  29.493  31.325  1.00  0.00     0.049 A 
ATOM     46  H   UNL A   1      40.868  29.828  30.725  1.00  0.00     0.167 HD
ATOM     47  C   UNL A   1      44.321  30.939  28.300  1.00  0.00     0.031 A 
ATOM     48  C   UNL A   1      38.532  30.665  31.903  1.00  0.00     0.031 A 
ATOM     49  C   UNL A   1      44.889  30.752  29.612  1.00  0.00     0.049 A 
ATOM     50  C   UNL A   1      39.770  31.452  32.122  1.00  0.00     0.074 A 
ATOM     51  C   UNL A   1      45.642  29.769  30.222  1.00  0.00     0.029 A 
ATOM     52  N   UNL A   1      44.351  31.503  30.634  1.00  0.00    -0.354 N 
ATOM     53  N   UNL A   1      40.692  31.130  32.982  1.00  0.00    -0.248 NA
ATOM     54  C   UNL A   1      40.183  32.398  31.096  1.00  0.00     0.031 C 
ATOM     55  C   UNL A   1      45.143  29.695  31.557  1.00  0.00     0.029 A 
ATOM     56  C   UNL A   1      44.150  30.666  31.700  1.00  0.00     0.049 A 
ATOM     57  H   UNL A   1      44.148  32.466  30.603  1.00  0.00     0.167 HD
ATOM     58  C   UNL A   1      41.887  31.472  32.367  1.00  0.00     0.074 A 
ATOM     59  C   UNL A   1      41.507  32.365  31.277  1.00  0.00     0.031 C 
ATOM     60  C   UNL A   1      43.031  30.766  32.614  1.00  0.00     0.031 A 
BRANCH  47  61
ATOM     61  C   UNL A   1      44.323  32.288  27.624  1.00  0.00    -0.014 A 
ATOM     62  C   UNL A   1      43.706  33.366  28.282  1.00  0.00     0.009 A 
ATOM     63  C   UNL A   1      44.683  32.496  26.279  1.00  0.00     0.009 A 
ATOM     64  C   UNL A   1      43.413  34.559  27.612  1.00  0.00     0.001 A 
ATOM     65  C   UNL A   1      44.441  33.704  25.620  1.00  0.00     0.001 A 
ATOM     66  C   UNL A   1      43.779  34.727  26.281  1.00  0.00     0.000 A 
ENDBRANCH  47  61
BRANCH  48  67
ATOM     67  C   UNL A   1      37.190  31.243  32.128  1.00  0.00    -0.014 A 
ATOM     68  C   UNL A   1      36.864  31.855  33.349  1.00  0.00     0.009 A 
ATOM     69  C   UNL A   1      36.297  31.415  31.055  1.00  0.00     0.009 A 
ATOM     70  C   UNL A   1      35.711  32.642  33.480  1.00  0.00     0.001 A 
ATOM     71  C   UNL A   1      35.142  32.195  31.187  1.00  0.00     0.001 A 
ATOM     72  C   UNL A   1      34.858  32.822  32.395  1.00  0.00     0.000 A 
ENDBRANCH  48  67
BRANCH  60  73
ATOM     73  C   UNL A   1      43.018  29.786  33.764  1.00  0.00    -0.014 A 
ATOM     74  C   UNL A   1      43.271  30.170  35.093  1.00  0.00     0.009 A 
ATOM     75  C   UNL A   1      42.582  28.475  33.523  1.00  0.00     0.009 A 
ATOM     76  C   UNL A   1      43.120  29.262  36.145  1.00  0.00     0.001 A 
ATOM     77  C   UNL A   1      42.410  27.573  34.578  1.00  0.00     0.001 A 
ATOM     78  C   UNL A   1      42.682  27.966  35.887  1.00  0.00     0.000 A 
ENDBRANCH  60  73
ENDBRANCH  34  35
ENDBRANCH  26  29
ENDBRANCH  24  25
ENDBRANCH   1  24
TORSDOF 12
ENDMDL
MODEL 3
REMARK VINA RESULT:     -11.9      1.045      1.783
REMARK SMILES Cc1ccc(C)c(/C=C2\SC(=S)N(CC(=O)NCCCNC(=O)c3ccc(-c4c5nc(c(-c6ccccc6)c6ccc([nH]6)c(-c6ccccc6)c6nc(c(-c7ccccc7)c7ccc4[nH]7)C=C6)C=C5)cc3)C2=O)c1
REMARK SMILES IDX 19 1 18 2 17 3 15 4 16 5 14 7 13 8 8 9 9 10 10 11 72 12
REMARK SMILES IDX 11 13 73 14 12 15 7 16 1 17 2 18 3 19 74 20 4 21 5 22 6 23
REMARK SMILES IDX 20 24 21 25 22 26 23 28 24 29 25 30 71 31 26 32 70 33 27 34
REMARK SMILES IDX 28 35 29 36 64 37 30 38 69 39 63 40 65 41 31 42 68 43 62 44
REMARK SMILES IDX 61 45 32 47 54 48 39 49 53 50 40 51 43 52 52 53 66 54 41 55
REMARK SMILES IDX 42 56 51 58 67 59 44 60 33 61 34 62 38 63 35 64 37 65 36 66
REMARK SMILES IDX 55 67 56 68 60 69 57 70 59 71 58 72 45 73 46 74 50 75 47 76
REMARK SMILES IDX 49 77 48 78
REMARK H PARENT 17 6 21 27 65 46 43 57
REMARK Flexibility Score: inf
ROOT
ATOM      1  C   UNL A   1      37.272  21.514  24.565  1.00  0.00     0.042 C 
ENDROOT
BRANCH   1   2
ATOM      2  C   UNL A   1      36.108  20.647  25.055  1.00  0.00     0.117 C 
BRANCH   2   3
ATOM      3  N   UNL A   1      35.471  21.111  26.277  1.00  0.00    -0.354 N 
ATOM      4  C   UNL A   1      34.206  21.589  26.476  1.00  0.00     0.240 C 
ATOM      5  O   UNL A   1      33.754  21.512  27.622  1.00  0.00    -0.273 OA
ATOM      6  H   UNL A   1      36.037  21.077  27.081  1.00  0.00     0.163 HD
BRANCH   4   7
ATOM      7  C   UNL A   1      33.323  22.074  25.317  1.00  0.00     0.227 C 
BRANCH   7   8
ATOM      8  N   UNL A   1      32.753  23.396  25.560  1.00  0.00    -0.283 N 
ATOM      9  C   UNL A   1      33.403  26.953  25.457  1.00  0.00     0.029 C 
ATOM     10  C   UNL A   1      32.833  25.750  25.629  1.00  0.00     0.081 C 
ATOM     11  S   UNL A   1      31.221  25.388  26.099  1.00  0.00    -0.054 SA
ATOM     12  C   UNL A   1      33.580  24.492  25.376  1.00  0.00     0.266 C 
ATOM     13  C   UNL A   1      31.504  23.654  26.080  1.00  0.00     0.148 C 
ATOM     14  O   UNL A   1      34.755  24.459  25.042  1.00  0.00    -0.268 OA
ATOM     15  S   UNL A   1      30.364  22.574  26.642  1.00  0.00    -0.052 S 
BRANCH   9  16
ATOM     16  C   UNL A   1      32.733  28.254  25.603  1.00  0.00    -0.021 A 
ATOM     17  C   UNL A   1      29.900  30.138  23.865  1.00  0.00     0.044 C 
ATOM     18  C   UNL A   1      31.013  29.806  24.814  1.00  0.00    -0.051 A 
ATOM     19  C   UNL A   1      31.450  30.747  25.745  1.00  0.00     0.004 A 
ATOM     20  C   UNL A   1      31.642  28.558  24.769  1.00  0.00     0.011 A 
ATOM     21  C   UNL A   1      32.500  30.444  26.614  1.00  0.00     0.004 A 
ATOM     22  C   UNL A   1      33.155  29.201  26.556  1.00  0.00    -0.044 A 
ATOM     23  C   UNL A   1      34.287  28.973  27.522  1.00  0.00     0.045 C 
ENDBRANCH   9  16
ENDBRANCH   7   8
ENDBRANCH   4   7
ENDBRANCH   2   3
ENDBRANCH   1   2
BRANCH   1  24
ATOM     24  C   UNL A   1      37.989  22.359  25.618  1.00  0.00     0.118 C 
BRANCH  24  25
ATOM     25  N   UNL A   1      39.395  21.978  25.804  1.00  0.00    -0.352 N 
ATOM     26  C   UNL A   1      40.525  22.634  26.272  1.00  0.00     0.251 C 
ATOM     27  H   UNL A   1      39.576  21.048  25.537  1.00  0.00     0.163 HD
ATOM     28  O   UNL A   1      41.621  22.155  26.049  1.00  0.00    -0.269 OA
BRANCH  26  29
ATOM     29  C   UNL A   1      40.426  23.905  27.031  1.00  0.00     0.039 A 
ATOM     30  C   UNL A   1      39.274  24.704  27.032  1.00  0.00     0.014 A 
ATOM     31  C   UNL A   1      41.524  24.335  27.743  1.00  0.00     0.014 A 
ATOM     32  C   UNL A   1      39.310  25.937  27.696  1.00  0.00     0.010 A 
ATOM     33  C   UNL A   1      41.397  25.284  28.705  1.00  0.00     0.010 A 
ATOM     34  C   UNL A   1      40.415  26.227  28.502  1.00  0.00    -0.014 A 
BRANCH  34  35
ATOM     35  C   UNL A   1      40.695  27.513  29.119  1.00  0.00     0.031 A 
ATOM     36  C   UNL A   1      41.742  28.315  28.462  1.00  0.00     0.074 A 
ATOM     37  C   UNL A   1      39.805  28.128  29.935  1.00  0.00     0.049 A 
ATOM     38  N   UNL A   1      42.913  28.605  28.914  1.00  0.00    -0.248 NA
ATOM     39  C   UNL A   1      41.492  28.756  27.080  1.00  0.00     0.031 C 
ATOM     40  C   UNL A   1      38.459  27.682  30.324  1.00  0.00     0.029 A 
ATOM     41  N   UNL A   1      39.874  29.377  30.475  1.00  0.00    -0.354 N 
ATOM     42  C   UNL A   1      43.487  29.420  27.946  1.00  0.00     0.074 A 
ATOM     43  C   UNL A   1      42.676  29.279  26.766  1.00  0.00     0.031 C 
ATOM     44  C   UNL A   1      37.776  28.720  30.861  1.00  0.00     0.029 A 
ATOM     45  C   UNL A   1      38.673  29.858  30.981  1.00  0.00     0.049 A 
ATOM     46  H   UNL A   1      40.709  29.898  30.504  1.00  0.00     0.167 HD
ATOM     47  C   UNL A   1      44.422  30.359  28.260  1.00  0.00     0.031 A 
ATOM     48  C   UNL A   1      38.427  31.113  31.432  1.00  0.00     0.031 A 
ATOM     49  C   UNL A   1      44.877  30.226  29.622  1.00  0.00     0.049 A 
ATOM     50  C   UNL A   1      39.737  31.763  31.676  1.00  0.00     0.074 A 
ATOM     51  C   UNL A   1      45.459  29.219  30.366  1.00  0.00     0.029 A 
ATOM     52  N   UNL A   1      44.374  31.126  30.534  1.00  0.00    -0.354 N 
ATOM     53  N   UNL A   1      40.555  31.412  32.626  1.00  0.00    -0.248 NA
ATOM     54  C   UNL A   1      40.331  32.554  30.609  1.00  0.00     0.031 C 
ATOM     55  C   UNL A   1      44.871  29.328  31.661  1.00  0.00     0.029 A 
ATOM     56  C   UNL A   1      44.001  30.421  31.648  1.00  0.00     0.049 A 
ATOM     57  H   UNL A   1      44.297  32.100  30.408  1.00  0.00     0.167 HD
ATOM     58  C   UNL A   1      41.820  31.550  32.075  1.00  0.00     0.074 A 
ATOM     59  C   UNL A   1      41.626  32.379  30.890  1.00  0.00     0.031 C 
ATOM     60  C   UNL A   1      42.848  30.738  32.465  1.00  0.00     0.031 A 
BRANCH  47  61
ATOM     61  C   UNL A   1      44.637  31.630  27.476  1.00  0.00    -0.014 A 
ATOM     62  C   UNL A   1      45.876  31.823  26.843  1.00  0.00     0.009 A 
ATOM     63  C   UNL A   1      43.778  32.744  27.529  1.00  0.00     0.009 A 
ATOM     64  C   UNL A   1      46.256  33.076  26.348  1.00  0.00     0.001 A 
ATOM     65  C   UNL A   1      44.130  33.983  26.988  1.00  0.00     0.001 A 
ATOM     66  C   UNL A   1      45.383  34.156  26.423  1.00  0.00     0.000 A 
ENDBRANCH  47  61
BRANCH  48  67
ATOM     67  C   UNL A   1      37.157  31.867  31.507  1.00  0.00    -0.014 A 
ATOM     68  C   UNL A   1      36.246  31.851  30.438  1.00  0.00     0.009 A 
ATOM     69  C   UNL A   1      36.719  32.409  32.728  1.00  0.00     0.009 A 
ATOM     70  C   UNL A   1      34.935  32.324  30.596  1.00  0.00     0.001 A 
ATOM     71  C   UNL A   1      35.412  32.887  32.885  1.00  0.00     0.001 A 
ATOM     72  C   UNL A   1      34.516  32.830  31.824  1.00  0.00     0.000 A 
ENDBRANCH  48  67
BRANCH  60  73
ATOM     73  C   UNL A   1      42.638  29.876  33.688  1.00  0.00    -0.014 A 
ATOM     74  C   UNL A   1      42.010  28.619  33.634  1.00  0.00     0.009 A 
ATOM     75  C   UNL A   1      43.230  30.270  34.897  1.00  0.00     0.009 A 
ATOM     76  C   UNL A   1      41.953  27.794  34.761  1.00  0.00     0.001 A 
ATOM     77  C   UNL A   1      43.192  29.436  36.018  1.00  0.00     0.001 A 
ATOM     78  C   UNL A   1      42.550  28.201  35.951  1.00  0.00     0.000 A 
ENDBRANCH  60  73
ENDBRANCH  34  35
ENDBRANCH  26  29
ENDBRANCH  24  25
ENDBRANCH   1  24
TORSDOF 12
ENDMDL
