MODEL 1
REMARK VINA RESULT:     -12.4      0.000      0.000
REMARK SMILES O=C(NCCCNC(=O)[C@@H]1[C@@H](C(=O)Nc2cccc([N+](=O)[O-])c2)[C@@H]2C=C[C@H]1O2)c1ccc(-c2c3nc(c(-c4ccccc4)c4ccc([nH]4)c(-c4ccccc4)c4nc(c(-c5ccccc5)c5ccc2[nH]5)C=C4)C=C3)cc1
REMARK SMILES IDX 5 1 4 2 3 3 1 4 2 5 29 7 30 8 76 9 31 10 75 11 32 12 33 13
REMARK SMILES IDX 34 14 69 15 35 16 74 17 68 18 70 19 36 20 73 21 67 22 66 23
REMARK SMILES IDX 37 25 59 26 44 27 58 28 45 29 48 30 57 31 71 32 46 33 47 34
REMARK SMILES IDX 56 36 72 37 49 38 38 39 39 40 43 41 40 42 42 43 41 44 60 45
REMARK SMILES IDX 61 46 65 47 62 48 64 49 63 50 50 51 51 52 55 53 52 54 54 55
REMARK SMILES IDX 53 56 6 57 7 58 8 59 9 61 10 62 11 63 27 64 24 65 26 66
REMARK SMILES IDX 28 67 25 68 12 69 13 70 14 71 15 73 16 74 23 75 17 76 19 77
REMARK SMILES IDX 18 78 20 79 21 80 22 81
REMARK H PARENT 3 6 70 24 48 35 7 60 14 72
REMARK Flexibility Score: inf
ROOT
ATOM      1  C   UNL A   1      37.882  19.785  24.863  1.00  0.00     0.042 C 
ENDROOT
BRANCH   1   2
ATOM      2  C   UNL A   1      38.903  20.114  25.945  1.00  0.00     0.118 C 
BRANCH   2   3
ATOM      3  N   UNL A   1      40.105  19.300  25.843  1.00  0.00    -0.352 N 
ATOM      4  O   UNL A   1      42.308  18.874  25.657  1.00  0.00    -0.269 OA
ATOM      5  C   UNL A   1      41.421  19.659  25.991  1.00  0.00     0.251 C 
ATOM      6  H   UNL A   1      39.951  18.351  25.636  1.00  0.00     0.163 HD
BRANCH   5   7
ATOM      7  C   UNL A   1      41.780  20.983  26.542  1.00  0.00     0.039 A 
ATOM      8  C   UNL A   1      42.108  22.045  25.696  1.00  0.00     0.014 A 
ATOM      9  C   UNL A   1      41.743  21.180  27.926  1.00  0.00     0.014 A 
ATOM     10  C   UNL A   1      42.532  23.255  26.233  1.00  0.00     0.010 A 
ATOM     11  C   UNL A   1      42.075  22.427  28.461  1.00  0.00     0.010 A 
ATOM     12  C   UNL A   1      42.494  23.469  27.620  1.00  0.00    -0.014 A 
BRANCH  12  13
ATOM     13  C   UNL A   1      42.812  24.817  28.155  1.00  0.00     0.031 A 
ATOM     14  C   UNL A   1      44.217  25.203  28.520  1.00  0.00     0.074 A 
ATOM     15  C   UNL A   1      41.807  25.704  28.299  1.00  0.00     0.049 A 
ATOM     16  N   UNL A   1      44.658  26.344  28.989  1.00  0.00    -0.248 NA
ATOM     17  C   UNL A   1      45.259  24.180  28.348  1.00  0.00     0.031 C 
ATOM     18  C   UNL A   1      40.399  25.440  27.988  1.00  0.00     0.029 A 
ATOM     19  N   UNL A   1      41.813  27.005  28.728  1.00  0.00    -0.354 N 
ATOM     20  C   UNL A   1      46.023  26.171  29.185  1.00  0.00     0.074 A 
ATOM     21  C   UNL A   1      46.331  24.807  28.811  1.00  0.00     0.031 C 
ATOM     22  C   UNL A   1      39.687  26.556  28.195  1.00  0.00     0.029 A 
ATOM     23  C   UNL A   1      40.570  27.590  28.718  1.00  0.00     0.049 A 
ATOM     24  H   UNL A   1      42.629  27.476  29.015  1.00  0.00     0.167 HD
ATOM     25  C   UNL A   1      46.934  27.069  29.634  1.00  0.00     0.031 A 
ATOM     26  C   UNL A   1      40.174  28.815  29.109  1.00  0.00     0.031 A 
ATOM     27  C   UNL A   1      46.618  28.423  30.014  1.00  0.00     0.049 A 
ATOM     28  C   UNL A   1      41.197  29.774  29.640  1.00  0.00     0.074 A 
ATOM     29  C   UNL A   1      47.477  29.420  30.445  1.00  0.00     0.029 A 
ATOM     30  N   UNL A   1      45.341  28.966  30.022  1.00  0.00    -0.354 N 
ATOM     31  N   UNL A   1      42.491  29.611  29.772  1.00  0.00    -0.248 NA
ATOM     32  C   UNL A   1      40.705  31.089  30.073  1.00  0.00     0.031 C 
ATOM     33  C   UNL A   1      46.712  30.544  30.773  1.00  0.00     0.029 A 
ATOM     34  C   UNL A   1      45.385  30.273  30.482  1.00  0.00     0.049 A 
ATOM     35  H   UNL A   1      44.525  28.493  29.741  1.00  0.00     0.167 HD
ATOM     36  C   UNL A   1      42.972  30.807  30.286  1.00  0.00     0.074 A 
ATOM     37  C   UNL A   1      41.833  31.693  30.418  1.00  0.00     0.031 C 
ATOM     38  C   UNL A   1      44.243  31.139  30.619  1.00  0.00     0.031 A 
BRANCH  25  39
ATOM     39  C   UNL A   1      48.359  26.605  29.773  1.00  0.00    -0.014 A 
ATOM     40  C   UNL A   1      49.308  26.831  28.764  1.00  0.00     0.009 A 
ATOM     41  C   UNL A   1      48.769  25.967  30.956  1.00  0.00     0.009 A 
ATOM     42  C   UNL A   1      50.626  26.394  28.920  1.00  0.00     0.001 A 
ATOM     43  C   UNL A   1      50.093  25.558  31.121  1.00  0.00     0.001 A 
ATOM     44  C   UNL A   1      51.018  25.762  30.099  1.00  0.00     0.000 A 
ENDBRANCH  25  39
BRANCH  26  45
ATOM     45  C   UNL A   1      38.737  29.185  29.031  1.00  0.00    -0.014 A 
ATOM     46  C   UNL A   1      37.894  29.031  30.142  1.00  0.00     0.009 A 
ATOM     47  C   UNL A   1      38.206  29.713  27.842  1.00  0.00     0.009 A 
ATOM     48  C   UNL A   1      36.544  29.378  30.054  1.00  0.00     0.001 A 
ATOM     49  C   UNL A   1      36.865  30.091  27.770  1.00  0.00     0.001 A 
ATOM     50  C   UNL A   1      36.033  29.913  28.873  1.00  0.00     0.000 A 
ENDBRANCH  26  45
BRANCH  38  51
ATOM     51  C   UNL A   1      44.471  32.534  31.131  1.00  0.00    -0.014 A 
ATOM     52  C   UNL A   1      44.425  32.825  32.504  1.00  0.00     0.009 A 
ATOM     53  C   UNL A   1      44.761  33.567  30.226  1.00  0.00     0.009 A 
ATOM     54  C   UNL A   1      44.631  34.130  32.955  1.00  0.00     0.001 A 
ATOM     55  C   UNL A   1      44.998  34.863  30.683  1.00  0.00     0.001 A 
ATOM     56  C   UNL A   1      44.922  35.146  32.046  1.00  0.00     0.000 A 
ENDBRANCH  38  51
ENDBRANCH  12  13
ENDBRANCH   5   7
ENDBRANCH   2   3
ENDBRANCH   1   2
BRANCH   1  57
ATOM     57  C   UNL A   1      36.893  20.912  24.584  1.00  0.00     0.117 C 
BRANCH  57  58
ATOM     58  N   UNL A   1      37.320  22.176  25.153  1.00  0.00    -0.356 N 
ATOM     59  C   UNL A   1      36.629  23.179  25.749  1.00  0.00     0.227 C 
ATOM     60  H   UNL A   1      38.289  22.333  25.097  1.00  0.00     0.163 HD
ATOM     61  O   UNL A   1      37.310  24.074  26.258  1.00  0.00    -0.275 OA
BRANCH  59  62
ATOM     62  C   UNL A   1      35.116  23.146  25.895  1.00  0.00     0.127 C 
ATOM     63  C   UNL A   1      34.335  21.972  25.228  1.00  0.00     0.127 C 
ATOM     64  C   UNL A   1      34.491  24.353  25.154  1.00  0.00     0.155 C 
ATOM     65  C   UNL A   1      33.376  22.704  24.289  1.00  0.00     0.155 C 
ATOM     66  C   UNL A   1      34.824  24.340  23.686  1.00  0.00     0.004 C 
ATOM     67  O   UNL A   1      33.111  23.905  25.057  1.00  0.00    -0.365 OA
ATOM     68  C   UNL A   1      34.151  23.312  23.158  1.00  0.00     0.004 C 
BRANCH  63  69
ATOM     69  C   UNL A   1      33.690  21.036  26.256  1.00  0.00     0.231 C 
ATOM     70  O   UNL A   1      33.772  21.307  27.458  1.00  0.00    -0.274 OA
ATOM     71  N   UNL A   1      32.804  20.069  25.870  1.00  0.00    -0.325 N 
ATOM     72  H   UNL A   1      31.890  20.163  26.225  1.00  0.00     0.169 HD
BRANCH  71  73
ATOM     73  C   UNL A   1      33.017  18.959  25.037  1.00  0.00     0.048 A 
ATOM     74  C   UNL A   1      32.575  19.035  23.711  1.00  0.00     0.026 A 
ATOM     75  C   UNL A   1      33.530  17.758  25.524  1.00  0.00     0.111 A 
ATOM     76  C   UNL A   1      32.720  17.942  22.851  1.00  0.00     0.009 A 
ATOM     77  C   UNL A   1      33.669  16.663  24.661  1.00  0.00     0.271 A 
ATOM     78  C   UNL A   1      33.276  16.752  23.321  1.00  0.00     0.086 A 
BRANCH  77  79
ATOM     79  N   UNL A   1      34.205  15.400  25.183  1.00  0.00     0.062 N 
ATOM     80  O   UNL A   1      35.430  15.320  25.356  1.00  0.00    -0.258 OA
ATOM     81  O   UNL A   1      33.402  14.484  25.409  1.00  0.00    -0.258 OA
ENDBRANCH  77  79
ENDBRANCH  71  73
ENDBRANCH  63  69
ENDBRANCH  59  62
ENDBRANCH  57  58
ENDBRANCH   1  57
TORSDOF 13
ENDMDL
MODEL 2
REMARK VINA RESULT:     -12.4      0.304      5.907
REMARK SMILES O=C(NCCCNC(=O)[C@@H]1[C@@H](C(=O)Nc2cccc([N+](=O)[O-])c2)[C@@H]2C=C[C@H]1O2)c1ccc(-c2c3nc(c(-c4ccccc4)c4ccc([nH]4)c(-c4ccccc4)c4nc(c(-c5ccccc5)c5ccc2[nH]5)C=C4)C=C3)cc1
REMARK SMILES IDX 5 1 4 2 3 3 1 4 2 5 29 7 30 8 76 9 31 10 75 11 32 12 33 13
REMARK SMILES IDX 34 14 69 15 35 16 74 17 68 18 70 19 36 20 73 21 67 22 66 23
REMARK SMILES IDX 37 25 59 26 44 27 58 28 45 29 48 30 57 31 71 32 46 33 47 34
REMARK SMILES IDX 56 36 72 37 49 38 38 39 39 40 43 41 40 42 42 43 41 44 60 45
REMARK SMILES IDX 61 46 65 47 62 48 64 49 63 50 50 51 51 52 55 53 52 54 54 55
REMARK SMILES IDX 53 56 6 57 7 58 8 59 9 61 10 62 11 63 27 64 24 65 26 66
REMARK SMILES IDX 28 67 25 68 12 69 13 70 14 71 15 73 16 74 23 75 17 76 19 77
REMARK SMILES IDX 18 78 20 79 21 80 22 81
REMARK H PARENT 3 6 70 24 48 35 7 60 14 72
REMARK Flexibility Score: inf
ROOT
ATOM      1  C   UNL A   1      37.905  19.725  24.929  1.00  0.00     0.042 C 
ENDROOT
BRANCH   1   2
ATOM      2  C   UNL A   1      38.942  20.076  25.989  1.00  0.00     0.118 C 
BRANCH   2   3
ATOM      3  N   UNL A   1      40.139  19.255  25.891  1.00  0.00    -0.352 N 
ATOM      4  O   UNL A   1      42.338  18.815  25.689  1.00  0.00    -0.269 OA
ATOM      5  C   UNL A   1      41.458  19.611  26.016  1.00  0.00     0.251 C 
ATOM      6  H   UNL A   1      39.979  18.302  25.706  1.00  0.00     0.163 HD
BRANCH   5   7
ATOM      7  C   UNL A   1      41.829  20.946  26.532  1.00  0.00     0.039 A 
ATOM      8  C   UNL A   1      42.154  21.986  25.659  1.00  0.00     0.014 A 
ATOM      9  C   UNL A   1      41.806  21.174  27.912  1.00  0.00     0.014 A 
ATOM     10  C   UNL A   1      42.589  23.206  26.165  1.00  0.00     0.010 A 
ATOM     11  C   UNL A   1      42.150  22.431  28.415  1.00  0.00     0.010 A 
ATOM     12  C   UNL A   1      42.566  23.452  27.546  1.00  0.00    -0.014 A 
BRANCH  12  13
ATOM     13  C   UNL A   1      42.895  24.810  28.047  1.00  0.00     0.031 A 
ATOM     14  C   UNL A   1      41.826  25.837  28.287  1.00  0.00     0.074 A 
ATOM     15  C   UNL A   1      44.186  25.106  28.297  1.00  0.00     0.049 A 
ATOM     16  N   UNL A   1      41.950  27.062  28.732  1.00  0.00    -0.248 NA
ATOM     17  C   UNL A   1      40.441  25.446  27.980  1.00  0.00     0.031 C 
ATOM     18  C   UNL A   1      45.315  24.194  28.092  1.00  0.00     0.029 A 
ATOM     19  N   UNL A   1      44.767  26.246  28.788  1.00  0.00    -0.354 N 
ATOM     20  C   UNL A   1      40.667  27.595  28.742  1.00  0.00     0.074 A 
ATOM     21  C   UNL A   1      39.782  26.569  28.232  1.00  0.00     0.031 C 
ATOM     22  C   UNL A   1      46.444  24.794  28.495  1.00  0.00     0.029 A 
ATOM     23  C   UNL A   1      46.131  26.153  28.919  1.00  0.00     0.049 A 
ATOM     24  H   UNL A   1      44.255  27.054  29.024  1.00  0.00     0.167 HD
ATOM     25  C   UNL A   1      40.265  28.826  29.143  1.00  0.00     0.031 A 
ATOM     26  C   UNL A   1      47.038  27.064  29.312  1.00  0.00     0.031 A 
ATOM     27  C   UNL A   1      41.153  29.847  29.641  1.00  0.00     0.049 A 
ATOM     28  C   UNL A   1      46.569  28.432  29.711  1.00  0.00     0.074 A 
ATOM     29  C   UNL A   1      40.836  31.111  30.106  1.00  0.00     0.029 A 
ATOM     30  N   UNL A   1      42.532  29.724  29.725  1.00  0.00    -0.354 N 
ATOM     31  N   UNL A   1      45.347  28.902  29.761  1.00  0.00    -0.248 NA
ATOM     32  C   UNL A   1      47.606  29.393  30.110  1.00  0.00     0.031 C 
ATOM     33  C   UNL A   1      42.029  31.776  30.413  1.00  0.00     0.029 A 
ATOM     34  C   UNL A   1      43.083  30.902  30.204  1.00  0.00     0.049 A 
ATOM     35  H   UNL A   1      43.043  28.918  29.483  1.00  0.00     0.167 HD
ATOM     36  C   UNL A   1      45.464  30.208  30.215  1.00  0.00     0.074 A 
ATOM     37  C   UNL A   1      46.874  30.446  30.447  1.00  0.00     0.031 C 
ATOM     38  C   UNL A   1      44.489  31.128  30.419  1.00  0.00     0.031 A 
BRANCH  25  39
ATOM     39  C   UNL A   1      38.800  29.153  29.025  1.00  0.00    -0.014 A 
ATOM     40  C   UNL A   1      37.923  29.000  30.111  1.00  0.00     0.009 A 
ATOM     41  C   UNL A   1      38.297  29.663  27.816  1.00  0.00     0.009 A 
ATOM     42  C   UNL A   1      36.569  29.315  29.976  1.00  0.00     0.001 A 
ATOM     43  C   UNL A   1      36.949  30.004  27.694  1.00  0.00     0.001 A 
ATOM     44  C   UNL A   1      36.084  29.820  28.770  1.00  0.00     0.000 A 
ENDBRANCH  25  39
BRANCH  26  45
ATOM     45  C   UNL A   1      48.481  26.711  29.322  1.00  0.00    -0.014 A 
ATOM     46  C   UNL A   1      49.281  26.923  28.190  1.00  0.00     0.009 A 
ATOM     47  C   UNL A   1      49.071  26.173  30.479  1.00  0.00     0.009 A 
ATOM     48  C   UNL A   1      50.636  26.582  28.210  1.00  0.00     0.001 A 
ATOM     49  C   UNL A   1      50.431  25.866  30.506  1.00  0.00     0.001 A 
ATOM     50  C   UNL A   1      51.210  26.061  29.368  1.00  0.00     0.000 A 
ENDBRANCH  26  45
BRANCH  38  51
ATOM     51  C   UNL A   1      44.917  32.468  30.949  1.00  0.00    -0.014 A 
ATOM     52  C   UNL A   1      45.020  32.710  32.329  1.00  0.00     0.009 A 
ATOM     53  C   UNL A   1      45.248  33.496  30.053  1.00  0.00     0.009 A 
ATOM     54  C   UNL A   1      45.411  33.965  32.798  1.00  0.00     0.001 A 
ATOM     55  C   UNL A   1      45.670  34.739  30.524  1.00  0.00     0.001 A 
ATOM     56  C   UNL A   1      45.740  34.976  31.897  1.00  0.00     0.000 A 
ENDBRANCH  38  51
ENDBRANCH  12  13
ENDBRANCH   5   7
ENDBRANCH   2   3
ENDBRANCH   1   2
BRANCH   1  57
ATOM     57  C   UNL A   1      36.853  20.809  24.711  1.00  0.00     0.117 C 
BRANCH  57  58
ATOM     58  N   UNL A   1      37.294  22.108  25.180  1.00  0.00    -0.356 N 
ATOM     59  C   UNL A   1      36.618  23.150  25.726  1.00  0.00     0.227 C 
ATOM     60  H   UNL A   1      38.260  22.262  25.084  1.00  0.00     0.163 HD
ATOM     61  O   UNL A   1      37.312  24.078  26.151  1.00  0.00    -0.275 OA
BRANCH  59  62
ATOM     62  C   UNL A   1      35.110  23.126  25.919  1.00  0.00     0.127 C 
ATOM     63  C   UNL A   1      34.298  21.971  25.254  1.00  0.00     0.127 C 
ATOM     64  C   UNL A   1      34.473  24.352  25.223  1.00  0.00     0.155 C 
ATOM     65  C   UNL A   1      33.316  22.730  24.362  1.00  0.00     0.155 C 
ATOM     66  C   UNL A   1      34.758  24.367  23.745  1.00  0.00     0.004 C 
ATOM     67  O   UNL A   1      33.087  23.917  25.161  1.00  0.00    -0.365 OA
ATOM     68  C   UNL A   1      34.060  23.354  23.218  1.00  0.00     0.004 C 
BRANCH  63  69
ATOM     69  C   UNL A   1      33.679  21.020  26.283  1.00  0.00     0.231 C 
ATOM     70  O   UNL A   1      33.771  21.284  27.487  1.00  0.00    -0.274 OA
ATOM     71  N   UNL A   1      32.801  20.043  25.902  1.00  0.00    -0.325 N 
ATOM     72  H   UNL A   1      31.891  20.123  26.268  1.00  0.00     0.169 HD
BRANCH  71  73
ATOM     73  C   UNL A   1      33.020  18.942  25.059  1.00  0.00     0.048 A 
ATOM     74  C   UNL A   1      32.576  19.027  23.735  1.00  0.00     0.026 A 
ATOM     75  C   UNL A   1      33.540  17.739  25.535  1.00  0.00     0.111 A 
ATOM     76  C   UNL A   1      32.726  17.942  22.865  1.00  0.00     0.009 A 
ATOM     77  C   UNL A   1      33.685  16.653  24.663  1.00  0.00     0.271 A 
ATOM     78  C   UNL A   1      33.289  16.751  23.324  1.00  0.00     0.086 A 
BRANCH  77  79
ATOM     79  N   UNL A   1      34.229  15.389  25.173  1.00  0.00     0.062 N 
ATOM     80  O   UNL A   1      33.437  14.456  25.367  1.00  0.00    -0.258 OA
ATOM     81  O   UNL A   1      35.448  15.333  25.389  1.00  0.00    -0.258 OA
ENDBRANCH  77  79
ENDBRANCH  71  73
ENDBRANCH  63  69
ENDBRANCH  59  62
ENDBRANCH  57  58
ENDBRANCH   1  57
TORSDOF 13
ENDMDL
MODEL 3
REMARK VINA RESULT:     -12.1      5.394     10.247
REMARK SMILES O=C(NCCCNC(=O)[C@@H]1[C@@H](C(=O)Nc2cccc([N+](=O)[O-])c2)[C@@H]2C=C[C@H]1O2)c1ccc(-c2c3nc(c(-c4ccccc4)c4ccc([nH]4)c(-c4ccccc4)c4nc(c(-c5ccccc5)c5ccc2[nH]5)C=C4)C=C3)cc1
REMARK SMILES IDX 5 1 4 2 3 3 1 4 2 5 29 7 30 8 76 9 31 10 75 11 32 12 33 13
REMARK SMILES IDX 34 14 69 15 35 16 74 17 68 18 70 19 36 20 73 21 67 22 66 23
REMARK SMILES IDX 37 25 59 26 44 27 58 28 45 29 48 30 57 31 71 32 46 33 47 34
REMARK SMILES IDX 56 36 72 37 49 38 38 39 39 40 43 41 40 42 42 43 41 44 60 45
REMARK SMILES IDX 61 46 65 47 62 48 64 49 63 50 50 51 51 52 55 53 52 54 54 55
REMARK SMILES IDX 53 56 6 57 7 58 8 59 9 61 10 62 11 63 27 64 24 65 26 66
REMARK SMILES IDX 28 67 25 68 12 69 13 70 14 71 15 73 16 74 23 75 17 76 19 77
REMARK SMILES IDX 18 78 20 79 21 80 22 81
REMARK H PARENT 3 6 70 24 48 35 7 60 14 72
REMARK Flexibility Score: inf
ROOT
ATOM      1  C   UNL A   1      31.482  31.933  26.740  1.00  0.00     0.042 C 
ENDROOT
BRANCH   1   2
ATOM      2  C   UNL A   1      32.762  32.735  26.943  1.00  0.00     0.118 C 
BRANCH   2   3
ATOM      3  N   UNL A   1      32.529  33.990  27.640  1.00  0.00    -0.352 N 
ATOM      4  O   UNL A   1      32.697  35.496  29.306  1.00  0.00    -0.269 OA
ATOM      5  C   UNL A   1      33.176  34.521  28.727  1.00  0.00     0.251 C 
ATOM      6  H   UNL A   1      31.797  34.540  27.279  1.00  0.00     0.163 HD
BRANCH   5   7
ATOM      7  C   UNL A   1      34.439  33.926  29.213  1.00  0.00     0.039 A 
ATOM      8  C   UNL A   1      34.439  33.000  30.258  1.00  0.00     0.014 A 
ATOM      9  C   UNL A   1      35.640  34.267  28.582  1.00  0.00     0.014 A 
ATOM     10  C   UNL A   1      35.643  32.521  30.761  1.00  0.00     0.010 A 
ATOM     11  C   UNL A   1      36.842  33.710  29.027  1.00  0.00     0.010 A 
ATOM     12  C   UNL A   1      36.856  32.849  30.135  1.00  0.00    -0.014 A 
BRANCH  12  13
ATOM     13  C   UNL A   1      38.110  32.208  30.603  1.00  0.00     0.031 A 
ATOM     14  C   UNL A   1      38.928  32.805  31.713  1.00  0.00     0.074 A 
ATOM     15  C   UNL A   1      38.504  31.061  30.014  1.00  0.00     0.049 A 
ATOM     16  N   UNL A   1      40.040  32.361  32.243  1.00  0.00    -0.248 NA
ATOM     17  C   UNL A   1      38.443  34.064  32.299  1.00  0.00     0.031 C 
ATOM     18  C   UNL A   1      37.799  30.392  28.917  1.00  0.00     0.029 A 
ATOM     19  N   UNL A   1      39.580  30.249  30.261  1.00  0.00    -0.354 N 
ATOM     20  C   UNL A   1      40.398  33.292  33.210  1.00  0.00     0.074 A 
ATOM     21  C   UNL A   1      39.400  34.340  33.174  1.00  0.00     0.031 C 
ATOM     22  C   UNL A   1      38.435  29.251  28.617  1.00  0.00     0.029 A 
ATOM     23  C   UNL A   1      39.628  29.143  29.447  1.00  0.00     0.049 A 
ATOM     24  H   UNL A   1      40.253  30.439  30.955  1.00  0.00     0.167 HD
ATOM     25  C   UNL A   1      41.461  33.272  34.051  1.00  0.00     0.031 A 
ATOM     26  C   UNL A   1      40.542  28.160  29.357  1.00  0.00     0.031 A 
ATOM     27  C   UNL A   1      42.457  32.230  34.075  1.00  0.00     0.049 A 
ATOM     28  C   UNL A   1      41.730  28.186  30.272  1.00  0.00     0.074 A 
ATOM     29  C   UNL A   1      43.550  32.102  34.915  1.00  0.00     0.029 A 
ATOM     30  N   UNL A   1      42.489  31.145  33.211  1.00  0.00    -0.354 N 
ATOM     31  N   UNL A   1      42.027  29.048  31.214  1.00  0.00    -0.248 NA
ATOM     32  C   UNL A   1      42.706  27.100  30.114  1.00  0.00     0.031 C 
ATOM     33  C   UNL A   1      44.276  30.974  34.519  1.00  0.00     0.029 A 
ATOM     34  C   UNL A   1      43.600  30.361  33.476  1.00  0.00     0.049 A 
ATOM     35  H   UNL A   1      41.819  30.960  32.514  1.00  0.00     0.167 HD
ATOM     36  C   UNL A   1      43.215  28.600  31.774  1.00  0.00     0.074 A 
ATOM     37  C   UNL A   1      43.569  27.378  31.081  1.00  0.00     0.031 C 
ATOM     38  C   UNL A   1      43.946  29.154  32.772  1.00  0.00     0.031 A 
BRANCH  25  39
ATOM     39  C   UNL A   1      41.624  34.434  34.995  1.00  0.00    -0.014 A 
ATOM     40  C   UNL A   1      41.064  34.419  36.282  1.00  0.00     0.009 A 
ATOM     41  C   UNL A   1      42.389  35.545  34.603  1.00  0.00     0.009 A 
ATOM     42  C   UNL A   1      41.233  35.509  37.140  1.00  0.00     0.001 A 
ATOM     43  C   UNL A   1      42.581  36.619  35.474  1.00  0.00     0.001 A 
ATOM     44  C   UNL A   1      41.995  36.605  36.737  1.00  0.00     0.000 A 
ENDBRANCH  25  39
BRANCH  26  45
ATOM     45  C   UNL A   1      40.373  27.088  28.342  1.00  0.00    -0.014 A 
ATOM     46  C   UNL A   1      39.653  25.922  28.642  1.00  0.00     0.009 A 
ATOM     47  C   UNL A   1      40.921  27.237  27.057  1.00  0.00     0.009 A 
ATOM     48  C   UNL A   1      39.506  24.919  27.681  1.00  0.00     0.001 A 
ATOM     49  C   UNL A   1      40.742  26.248  26.090  1.00  0.00     0.001 A 
ATOM     50  C   UNL A   1      40.043  25.085  26.406  1.00  0.00     0.000 A 
ENDBRANCH  26  45
BRANCH  38  51
ATOM     51  C   UNL A   1      45.189  28.421  33.193  1.00  0.00    -0.014 A 
ATOM     52  C   UNL A   1      46.439  28.715  32.625  1.00  0.00     0.009 A 
ATOM     53  C   UNL A   1      45.111  27.438  34.192  1.00  0.00     0.009 A 
ATOM     54  C   UNL A   1      47.579  28.015  33.025  1.00  0.00     0.001 A 
ATOM     55  C   UNL A   1      46.257  26.763  34.613  1.00  0.00     0.001 A 
ATOM     56  C   UNL A   1      47.488  27.044  34.022  1.00  0.00     0.000 A 
ENDBRANCH  38  51
ENDBRANCH  12  13
ENDBRANCH   5   7
ENDBRANCH   2   3
ENDBRANCH   1   2
BRANCH   1  57
ATOM     57  C   UNL A   1      31.720  30.468  26.388  1.00  0.00     0.117 C 
BRANCH  57  58
ATOM     58  N   UNL A   1      32.982  29.974  26.904  1.00  0.00    -0.356 N 
ATOM     59  C   UNL A   1      33.810  28.988  26.477  1.00  0.00     0.227 C 
ATOM     60  H   UNL A   1      33.295  30.439  27.712  1.00  0.00     0.163 HD
ATOM     61  O   UNL A   1      34.893  28.902  27.064  1.00  0.00    -0.275 OA
BRANCH  59  62
ATOM     62  C   UNL A   1      33.486  28.123  25.270  1.00  0.00     0.127 C 
ATOM     63  C   UNL A   1      32.084  28.281  24.603  1.00  0.00     0.127 C 
ATOM     64  C   UNL A   1      33.426  26.635  25.692  1.00  0.00     0.155 C 
ATOM     65  C   UNL A   1      31.509  26.868  24.702  1.00  0.00     0.155 C 
ATOM     66  C   UNL A   1      32.376  26.393  26.742  1.00  0.00     0.004 C 
ATOM     67  O   UNL A   1      32.714  26.076  24.554  1.00  0.00    -0.365 OA
ATOM     68  C   UNL A   1      31.194  26.556  26.135  1.00  0.00     0.004 C 
BRANCH  63  69
ATOM     69  C   UNL A   1      32.168  28.879  23.195  1.00  0.00     0.231 C 
ATOM     70  O   UNL A   1      33.274  29.131  22.707  1.00  0.00    -0.274 OA
ATOM     71  N   UNL A   1      31.080  28.885  22.365  1.00  0.00    -0.325 N 
ATOM     72  H   UNL A   1      31.175  28.363  21.536  1.00  0.00     0.169 HD
BRANCH  71  73
ATOM     73  C   UNL A   1      29.846  29.533  22.535  1.00  0.00     0.048 A 
ATOM     74  C   UNL A   1      28.736  28.755  22.882  1.00  0.00     0.026 A 
ATOM     75  C   UNL A   1      29.675  30.885  22.243  1.00  0.00     0.111 A 
ATOM     76  C   UNL A   1      27.473  29.342  23.018  1.00  0.00     0.009 A 
ATOM     77  C   UNL A   1      28.409  31.468  22.375  1.00  0.00     0.271 A 
ATOM     78  C   UNL A   1      27.306  30.705  22.772  1.00  0.00     0.086 A 
BRANCH  77  79
ATOM     79  N   UNL A   1      28.237  32.892  22.060  1.00  0.00     0.062 N 
ATOM     80  O   UNL A   1      27.688  33.184  20.988  1.00  0.00    -0.258 OA
ATOM     81  O   UNL A   1      28.661  33.718  22.881  1.00  0.00    -0.258 OA
ENDBRANCH  77  79
ENDBRANCH  71  73
ENDBRANCH  63  69
ENDBRANCH  59  62
ENDBRANCH  57  58
ENDBRANCH   1  57
TORSDOF 13
ENDMDL
