MODEL 1
REMARK VINA RESULT:     -13.0      0.000      0.000
REMARK SMILES Cc1ccc(C(=O)NCCCNC(=O)c2ccc(-c3c4nc(c(-c5ccccc5)c5ccc([nH]5)c(-c5ccccc5)c5nc(c(-c6ccccc6)c6ccc3[nH]6)C=C5)C=C4)cc2)cc1NC(=O)Cc1ccc2ccccc2c1
REMARK SMILES IDX 9 1 8 2 6 3 7 4 5 6 1 7 2 8 3 9 64 10 4 11 63 12 65 13 66 14
REMARK SMILES IDX 67 16 68 17 69 18 70 19 78 20 71 21 77 22 72 23 76 24 73 25
REMARK SMILES IDX 75 26 74 27 10 28 11 29 12 30 13 31 14 33 15 34 16 35 62 36
REMARK SMILES IDX 17 37 61 38 18 39 19 40 20 41 55 42 21 43 60 44 54 45 56 46
REMARK SMILES IDX 22 47 59 48 53 49 52 50 23 52 45 53 30 54 44 55 31 56 34 57
REMARK SMILES IDX 43 58 57 59 32 60 33 61 42 63 58 64 35 65 24 66 25 67 29 68
REMARK SMILES IDX 26 69 28 70 27 71 46 72 47 73 51 74 48 75 50 76 49 77 36 78
REMARK SMILES IDX 37 79 41 80 38 81 40 82 39 83
REMARK H PARENT 8 5 65 15 12 32 56 51 34 62
REMARK Flexibility Score: inf
ROOT
ATOM      1  C   UNL A   1      34.291  30.667  27.437  1.00  0.00     0.118 C 
ENDROOT
BRANCH   1   2
ATOM      2  N   UNL A   1      33.109  30.816  26.609  1.00  0.00    -0.352 N 
ATOM      3  C   UNL A   1      32.209  29.971  26.014  1.00  0.00     0.251 C 
ATOM      4  O   UNL A   1      31.270  30.515  25.426  1.00  0.00    -0.269 OA
ATOM      5  H   UNL A   1      32.902  31.762  26.428  1.00  0.00     0.163 HD
BRANCH   3   6
ATOM      6  C   UNL A   1      32.291  28.477  25.977  1.00  0.00     0.041 A 
ATOM      7  C   UNL A   1      32.300  24.153  26.315  1.00  0.00     0.046 C 
ATOM      8  C   UNL A   1      32.326  25.644  26.089  1.00  0.00    -0.027 A 
ATOM      9  C   UNL A   1      31.596  26.406  27.022  1.00  0.00     0.006 A 
ATOM     10  C   UNL A   1      33.069  26.302  25.081  1.00  0.00     0.044 A 
ATOM     11  C   UNL A   1      31.559  27.796  26.952  1.00  0.00     0.014 A 
ATOM     12  C   UNL A   1      33.071  27.714  25.096  1.00  0.00     0.040 A 
BRANCH  10  13
ATOM     13  N   UNL A   1      33.755  25.513  24.105  1.00  0.00    -0.326 N 
ATOM     14  C   UNL A   1      33.394  24.858  22.936  1.00  0.00     0.228 C 
ATOM     15  H   UNL A   1      34.711  25.407  24.314  1.00  0.00     0.169 HD
ATOM     16  O   UNL A   1      34.251  24.182  22.366  1.00  0.00    -0.274 OA
BRANCH  14  17
ATOM     17  C   UNL A   1      31.995  25.012  22.429  1.00  0.00     0.135 C 
BRANCH  17  18
ATOM     18  C   UNL A   1      31.039  26.135  22.754  1.00  0.00    -0.038 A 
ATOM     19  C   UNL A   1      29.960  25.740  23.562  1.00  0.00     0.005 A 
ATOM     20  C   UNL A   1      31.047  27.455  22.288  1.00  0.00     0.013 A 
ATOM     21  C   UNL A   1      28.865  26.561  23.781  1.00  0.00     0.009 A 
ATOM     22  C   UNL A   1      29.946  28.325  22.543  1.00  0.00    -0.018 A 
ATOM     23  C   UNL A   1      28.812  27.825  23.217  1.00  0.00    -0.018 A 
ATOM     24  C   UNL A   1      29.911  29.679  22.157  1.00  0.00     0.009 A 
ATOM     25  C   UNL A   1      27.642  28.588  23.338  1.00  0.00     0.009 A 
ATOM     26  C   UNL A   1      28.764  30.465  22.359  1.00  0.00     0.001 A 
ATOM     27  C   UNL A   1      27.614  29.906  22.903  1.00  0.00     0.001 A 
ENDBRANCH  17  18
ENDBRANCH  14  17
ENDBRANCH  10  13
ENDBRANCH   3   6
ENDBRANCH   1   2
BRANCH   1  28
ATOM     28  C   UNL A   1      34.771  31.967  28.072  1.00  0.00     0.042 C 
BRANCH  28  29
ATOM     29  C   UNL A   1      35.079  31.807  29.563  1.00  0.00     0.118 C 
BRANCH  29  30
ATOM     30  N   UNL A   1      36.444  32.189  29.941  1.00  0.00    -0.352 N 
ATOM     31  C   UNL A   1      37.650  31.505  29.843  1.00  0.00     0.251 C 
ATOM     32  H   UNL A   1      36.520  33.088  30.334  1.00  0.00     0.163 HD
ATOM     33  O   UNL A   1      38.718  32.030  30.107  1.00  0.00    -0.269 OA
BRANCH  31  34
ATOM     34  C   UNL A   1      37.663  30.173  29.218  1.00  0.00     0.039 A 
ATOM     35  C   UNL A   1      37.917  29.136  30.120  1.00  0.00     0.014 A 
ATOM     36  C   UNL A   1      38.014  30.093  27.879  1.00  0.00     0.014 A 
ATOM     37  C   UNL A   1      38.894  28.222  29.786  1.00  0.00     0.010 A 
ATOM     38  C   UNL A   1      39.056  29.248  27.578  1.00  0.00     0.010 A 
ATOM     39  C   UNL A   1      39.556  28.398  28.571  1.00  0.00    -0.014 A 
BRANCH  39  40
ATOM     40  C   UNL A   1      40.809  27.722  28.298  1.00  0.00     0.031 A 
ATOM     41  C   UNL A   1      40.739  26.267  28.141  1.00  0.00     0.074 A 
ATOM     42  C   UNL A   1      42.005  28.344  28.360  1.00  0.00     0.049 A 
ATOM     43  N   UNL A   1      41.547  25.443  28.714  1.00  0.00    -0.248 NA
ATOM     44  C   UNL A   1      39.649  25.632  27.410  1.00  0.00     0.031 C 
ATOM     45  C   UNL A   1      43.302  27.744  28.068  1.00  0.00     0.029 A 
ATOM     46  N   UNL A   1      42.318  29.578  28.933  1.00  0.00    -0.354 N 
ATOM     47  C   UNL A   1      41.258  24.203  28.205  1.00  0.00     0.074 A 
ATOM     48  C   UNL A   1      40.008  24.352  27.494  1.00  0.00     0.031 C 
ATOM     49  C   UNL A   1      44.249  28.434  28.725  1.00  0.00     0.029 A 
ATOM     50  C   UNL A   1      43.585  29.448  29.528  1.00  0.00     0.049 A 
ATOM     51  H   UNL A   1      41.758  30.388  28.921  1.00  0.00     0.167 HD
ATOM     52  C   UNL A   1      42.180  23.207  28.274  1.00  0.00     0.031 A 
ATOM     53  C   UNL A   1      43.858  29.746  30.829  1.00  0.00     0.031 A 
ATOM     54  C   UNL A   1      43.407  23.641  28.934  1.00  0.00     0.049 A 
ATOM     55  C   UNL A   1      44.394  28.563  31.605  1.00  0.00     0.074 A 
ATOM     56  C   UNL A   1      44.609  24.115  28.434  1.00  0.00     0.029 A 
ATOM     57  N   UNL A   1      43.396  23.951  30.290  1.00  0.00    -0.354 N 
ATOM     58  N   UNL A   1      44.368  27.337  31.162  1.00  0.00    -0.248 NA
ATOM     59  C   UNL A   1      44.898  28.650  32.975  1.00  0.00     0.031 C 
ATOM     60  C   UNL A   1      45.303  24.761  29.487  1.00  0.00     0.029 A 
ATOM     61  C   UNL A   1      44.532  24.662  30.632  1.00  0.00     0.049 A 
ATOM     62  H   UNL A   1      42.682  23.699  30.918  1.00  0.00     0.167 HD
ATOM     63  C   UNL A   1      44.769  26.484  32.156  1.00  0.00     0.074 A 
ATOM     64  C   UNL A   1      45.120  27.354  33.263  1.00  0.00     0.031 C 
ATOM     65  C   UNL A   1      44.734  25.130  31.996  1.00  0.00     0.031 A 
BRANCH  52  66
ATOM     66  C   UNL A   1      42.070  21.998  27.383  1.00  0.00    -0.014 A 
ATOM     67  C   UNL A   1      41.097  21.024  27.655  1.00  0.00     0.009 A 
ATOM     68  C   UNL A   1      42.952  21.724  26.324  1.00  0.00     0.009 A 
ATOM     69  C   UNL A   1      41.091  19.788  26.997  1.00  0.00     0.001 A 
ATOM     70  C   UNL A   1      42.990  20.470  25.703  1.00  0.00     0.001 A 
ATOM     71  C   UNL A   1      42.065  19.495  26.051  1.00  0.00     0.000 A 
ENDBRANCH  52  66
BRANCH  53  72
ATOM     72  C   UNL A   1      42.980  30.792  31.412  1.00  0.00    -0.014 A 
ATOM     73  C   UNL A   1      41.739  30.396  31.944  1.00  0.00     0.009 A 
ATOM     74  C   UNL A   1      43.511  32.036  31.782  1.00  0.00     0.009 A 
ATOM     75  C   UNL A   1      41.104  31.171  32.917  1.00  0.00     0.001 A 
ATOM     76  C   UNL A   1      42.872  32.803  32.762  1.00  0.00     0.001 A 
ATOM     77  C   UNL A   1      41.692  32.354  33.354  1.00  0.00     0.000 A 
ENDBRANCH  53  72
BRANCH  65  78
ATOM     78  C   UNL A   1      44.947  24.110  33.085  1.00  0.00    -0.014 A 
ATOM     79  C   UNL A   1      46.169  23.893  33.735  1.00  0.00     0.009 A 
ATOM     80  C   UNL A   1      43.828  23.409  33.586  1.00  0.00     0.009 A 
ATOM     81  C   UNL A   1      46.278  22.981  34.794  1.00  0.00     0.001 A 
ATOM     82  C   UNL A   1      43.922  22.535  34.670  1.00  0.00     0.001 A 
ATOM     83  C   UNL A   1      45.154  22.311  35.267  1.00  0.00     0.000 A 
ENDBRANCH  65  78
ENDBRANCH  39  40
ENDBRANCH  31  34
ENDBRANCH  29  30
ENDBRANCH  28  29
ENDBRANCH   1  28
TORSDOF 13
ENDMDL
MODEL 2
REMARK VINA RESULT:     -13.0      1.644      3.469
REMARK SMILES Cc1ccc(C(=O)NCCCNC(=O)c2ccc(-c3c4nc(c(-c5ccccc5)c5ccc([nH]5)c(-c5ccccc5)c5nc(c(-c6ccccc6)c6ccc3[nH]6)C=C5)C=C4)cc2)cc1NC(=O)Cc1ccc2ccccc2c1
REMARK SMILES IDX 9 1 8 2 6 3 7 4 5 6 1 7 2 8 3 9 64 10 4 11 63 12 65 13 66 14
REMARK SMILES IDX 67 16 68 17 69 18 70 19 78 20 71 21 77 22 72 23 76 24 73 25
REMARK SMILES IDX 75 26 74 27 10 28 11 29 12 30 13 31 14 33 15 34 16 35 62 36
REMARK SMILES IDX 17 37 61 38 18 39 19 40 20 41 55 42 21 43 60 44 54 45 56 46
REMARK SMILES IDX 22 47 59 48 53 49 52 50 23 52 45 53 30 54 44 55 31 56 34 57
REMARK SMILES IDX 43 58 57 59 32 60 33 61 42 63 58 64 35 65 24 66 25 67 29 68
REMARK SMILES IDX 26 69 28 70 27 71 46 72 47 73 51 74 48 75 50 76 49 77 36 78
REMARK SMILES IDX 37 79 41 80 38 81 40 82 39 83
REMARK H PARENT 8 5 65 15 12 32 56 51 34 62
REMARK Flexibility Score: inf
ROOT
ATOM      1  C   UNL A   1      33.332  30.348  26.882  1.00  0.00     0.118 C 
ENDROOT
BRANCH   1   2
ATOM      2  N   UNL A   1      33.955  29.689  25.750  1.00  0.00    -0.352 N 
ATOM      3  C   UNL A   1      33.564  28.783  24.798  1.00  0.00     0.251 C 
ATOM      4  O   UNL A   1      34.404  28.514  23.935  1.00  0.00    -0.269 OA
ATOM      5  H   UNL A   1      34.895  29.959  25.637  1.00  0.00     0.163 HD
BRANCH   3   6
ATOM      6  C   UNL A   1      32.248  28.071  24.744  1.00  0.00     0.041 A 
ATOM      7  C   UNL A   1      28.311  26.327  24.224  1.00  0.00     0.046 C 
ATOM      8  C   UNL A   1      29.707  26.844  24.468  1.00  0.00    -0.027 A 
ATOM      9  C   UNL A   1      30.164  27.801  23.540  1.00  0.00     0.006 A 
ATOM     10  C   UNL A   1      30.525  26.493  25.568  1.00  0.00     0.044 A 
ATOM     11  C   UNL A   1      31.422  28.385  23.663  1.00  0.00     0.014 A 
ATOM     12  C   UNL A   1      31.757  27.170  25.700  1.00  0.00     0.040 A 
BRANCH  10  13
ATOM     13  N   UNL A   1      30.072  25.476  26.466  1.00  0.00    -0.326 N 
ATOM     14  C   UNL A   1      30.142  24.091  26.502  1.00  0.00     0.228 C 
ATOM     15  H   UNL A   1      29.596  25.848  27.243  1.00  0.00     0.169 HD
ATOM     16  O   UNL A   1      29.555  23.507  27.413  1.00  0.00    -0.274 OA
BRANCH  14  17
ATOM     17  C   UNL A   1      30.927  23.384  25.442  1.00  0.00     0.135 C 
BRANCH  17  18
ATOM     18  C   UNL A   1      32.419  23.153  25.431  1.00  0.00    -0.038 A 
ATOM     19  C   UNL A   1      32.989  23.093  26.714  1.00  0.00     0.005 A 
ATOM     20  C   UNL A   1      33.287  23.086  24.336  1.00  0.00     0.013 A 
ATOM     21  C   UNL A   1      34.361  23.114  26.911  1.00  0.00     0.009 A 
ATOM     22  C   UNL A   1      34.701  23.064  24.525  1.00  0.00    -0.018 A 
ATOM     23  C   UNL A   1      35.224  23.175  25.830  1.00  0.00    -0.018 A 
ATOM     24  C   UNL A   1      35.630  22.937  23.475  1.00  0.00     0.009 A 
ATOM     25  C   UNL A   1      36.600  23.331  26.051  1.00  0.00     0.009 A 
ATOM     26  C   UNL A   1      37.013  23.008  23.713  1.00  0.00     0.001 A 
ATOM     27  C   UNL A   1      37.495  23.255  24.993  1.00  0.00     0.001 A 
ENDBRANCH  17  18
ENDBRANCH  14  17
ENDBRANCH  10  13
ENDBRANCH   3   6
ENDBRANCH   1   2
BRANCH   1  28
ATOM     28  C   UNL A   1      34.284  30.622  28.040  1.00  0.00     0.042 C 
BRANCH  28  29
ATOM     29  C   UNL A   1      35.354  31.656  27.683  1.00  0.00     0.118 C 
BRANCH  29  30
ATOM     30  N   UNL A   1      36.358  31.872  28.730  1.00  0.00    -0.352 N 
ATOM     31  C   UNL A   1      37.338  31.035  29.250  1.00  0.00     0.251 C 
ATOM     32  H   UNL A   1      36.334  32.768  29.137  1.00  0.00     0.163 HD
ATOM     33  O   UNL A   1      38.170  31.427  30.050  1.00  0.00    -0.269 OA
BRANCH  31  34
ATOM     34  C   UNL A   1      37.503  29.691  28.676  1.00  0.00     0.039 A 
ATOM     35  C   UNL A   1      37.781  28.708  29.630  1.00  0.00     0.014 A 
ATOM     36  C   UNL A   1      37.946  29.598  27.366  1.00  0.00     0.014 A 
ATOM     37  C   UNL A   1      38.850  27.870  29.391  1.00  0.00     0.010 A 
ATOM     38  C   UNL A   1      39.072  28.837  27.162  1.00  0.00     0.010 A 
ATOM     39  C   UNL A   1      39.574  28.063  28.215  1.00  0.00    -0.014 A 
BRANCH  39  40
ATOM     40  C   UNL A   1      40.894  27.488  28.047  1.00  0.00     0.031 A 
ATOM     41  C   UNL A   1      40.948  26.037  27.856  1.00  0.00     0.074 A 
ATOM     42  C   UNL A   1      42.029  28.194  28.231  1.00  0.00     0.049 A 
ATOM     43  N   UNL A   1      41.761  25.259  28.486  1.00  0.00    -0.248 NA
ATOM     44  C   UNL A   1      39.981  25.342  27.015  1.00  0.00     0.031 C 
ATOM     45  C   UNL A   1      43.389  27.698  28.050  1.00  0.00     0.029 A 
ATOM     46  N   UNL A   1      42.195  29.432  28.854  1.00  0.00    -0.354 N 
ATOM     47  C   UNL A   1      41.613  24.015  27.928  1.00  0.00     0.074 A 
ATOM     48  C   UNL A   1      40.425  24.091  27.108  1.00  0.00     0.031 C 
ATOM     49  C   UNL A   1      44.218  28.438  28.805  1.00  0.00     0.029 A 
ATOM     50  C   UNL A   1      43.409  29.380  29.561  1.00  0.00     0.049 A 
ATOM     51  H   UNL A   1      41.579  30.198  28.806  1.00  0.00     0.167 HD
ATOM     52  C   UNL A   1      42.597  23.087  28.064  1.00  0.00     0.031 A 
ATOM     53  C   UNL A   1      43.540  29.662  30.888  1.00  0.00     0.031 A 
ATOM     54  C   UNL A   1      43.723  23.592  28.843  1.00  0.00     0.049 A 
ATOM     55  C   UNL A   1      44.090  28.502  31.687  1.00  0.00     0.074 A 
ATOM     56  C   UNL A   1      44.927  24.166  28.465  1.00  0.00     0.029 A 
ATOM     57  N   UNL A   1      43.566  23.865  30.197  1.00  0.00    -0.354 N 
ATOM     58  N   UNL A   1      44.197  27.289  31.220  1.00  0.00    -0.248 NA
ATOM     59  C   UNL A   1      44.459  28.590  33.100  1.00  0.00     0.031 C 
ATOM     60  C   UNL A   1      45.471  24.833  29.590  1.00  0.00     0.029 A 
ATOM     61  C   UNL A   1      44.609  24.649  30.656  1.00  0.00     0.049 A 
ATOM     62  H   UNL A   1      42.818  23.545  30.751  1.00  0.00     0.167 HD
ATOM     63  C   UNL A   1      44.568  26.443  32.231  1.00  0.00     0.074 A 
ATOM     64  C   UNL A   1      44.751  27.307  33.382  1.00  0.00     0.031 C 
ATOM     65  C   UNL A   1      44.650  25.094  32.042  1.00  0.00     0.031 A 
BRANCH  52  66
ATOM     66  C   UNL A   1      42.660  21.897  27.143  1.00  0.00    -0.014 A 
ATOM     67  C   UNL A   1      41.893  20.757  27.432  1.00  0.00     0.009 A 
ATOM     68  C   UNL A   1      43.521  21.809  26.035  1.00  0.00     0.009 A 
ATOM     69  C   UNL A   1      42.075  19.555  26.738  1.00  0.00     0.001 A 
ATOM     70  C   UNL A   1      43.751  20.596  25.376  1.00  0.00     0.001 A 
ATOM     71  C   UNL A   1      43.035  19.462  25.739  1.00  0.00     0.000 A 
ENDBRANCH  52  66
BRANCH  53  72
ATOM     72  C   UNL A   1      42.536  30.627  31.407  1.00  0.00    -0.014 A 
ATOM     73  C   UNL A   1      41.259  30.139  31.741  1.00  0.00     0.009 A 
ATOM     74  C   UNL A   1      42.944  31.867  31.919  1.00  0.00     0.009 A 
ATOM     75  C   UNL A   1      40.459  30.817  32.664  1.00  0.00     0.001 A 
ATOM     76  C   UNL A   1      42.140  32.537  32.846  1.00  0.00     0.001 A 
ATOM     77  C   UNL A   1      40.918  31.996  33.245  1.00  0.00     0.000 A 
ENDBRANCH  53  72
BRANCH  65  78
ATOM     78  C   UNL A   1      44.839  24.065  33.127  1.00  0.00    -0.014 A 
ATOM     79  C   UNL A   1      46.072  23.755  33.715  1.00  0.00     0.009 A 
ATOM     80  C   UNL A   1      43.696  23.454  33.689  1.00  0.00     0.009 A 
ATOM     81  C   UNL A   1      46.164  22.842  34.774  1.00  0.00     0.001 A 
ATOM     82  C   UNL A   1      43.778  22.579  34.773  1.00  0.00     0.001 A 
ATOM     83  C   UNL A   1      45.017  22.262  35.309  1.00  0.00     0.000 A 
ENDBRANCH  65  78
ENDBRANCH  39  40
ENDBRANCH  31  34
ENDBRANCH  29  30
ENDBRANCH  28  29
ENDBRANCH   1  28
TORSDOF 13
ENDMDL
MODEL 3
REMARK VINA RESULT:     -12.7      2.570      5.246
REMARK SMILES Cc1ccc(C(=O)NCCCNC(=O)c2ccc(-c3c4nc(c(-c5ccccc5)c5ccc([nH]5)c(-c5ccccc5)c5nc(c(-c6ccccc6)c6ccc3[nH]6)C=C5)C=C4)cc2)cc1NC(=O)Cc1ccc2ccccc2c1
REMARK SMILES IDX 9 1 8 2 6 3 7 4 5 6 1 7 2 8 3 9 64 10 4 11 63 12 65 13 66 14
REMARK SMILES IDX 67 16 68 17 69 18 70 19 78 20 71 21 77 22 72 23 76 24 73 25
REMARK SMILES IDX 75 26 74 27 10 28 11 29 12 30 13 31 14 33 15 34 16 35 62 36
REMARK SMILES IDX 17 37 61 38 18 39 19 40 20 41 55 42 21 43 60 44 54 45 56 46
REMARK SMILES IDX 22 47 59 48 53 49 52 50 23 52 45 53 30 54 44 55 31 56 34 57
REMARK SMILES IDX 43 58 57 59 32 60 33 61 42 63 58 64 35 65 24 66 25 67 29 68
REMARK SMILES IDX 26 69 28 70 27 71 46 72 47 73 51 74 48 75 50 76 49 77 36 78
REMARK SMILES IDX 37 79 41 80 38 81 40 82 39 83
REMARK H PARENT 8 5 65 15 12 32 56 51 34 62
REMARK Flexibility Score: inf
ROOT
ATOM      1  C   UNL A   1      31.252  29.959  25.306  1.00  0.00     0.118 C 
ENDROOT
BRANCH   1   2
ATOM      2  N   UNL A   1      30.891  29.951  23.901  1.00  0.00    -0.352 N 
ATOM      3  C   UNL A   1      30.633  28.993  22.954  1.00  0.00     0.251 C 
ATOM      4  O   UNL A   1      30.283  29.412  21.848  1.00  0.00    -0.269 OA
ATOM      5  H   UNL A   1      30.812  30.861  23.535  1.00  0.00     0.163 HD
BRANCH   3   6
ATOM      6  C   UNL A   1      30.783  27.514  23.131  1.00  0.00     0.041 A 
ATOM      7  C   UNL A   1      31.413  23.223  23.182  1.00  0.00     0.046 C 
ATOM      8  C   UNL A   1      31.175  24.709  23.275  1.00  0.00    -0.027 A 
ATOM      9  C   UNL A   1      31.710  25.472  22.218  1.00  0.00     0.006 A 
ATOM     10  C   UNL A   1      30.416  25.351  24.283  1.00  0.00     0.044 A 
ATOM     11  C   UNL A   1      31.538  26.852  22.161  1.00  0.00     0.014 A 
ATOM     12  C   UNL A   1      30.197  26.738  24.141  1.00  0.00     0.040 A 
BRANCH  10  13
ATOM     13  N   UNL A   1      29.932  24.573  25.380  1.00  0.00    -0.326 N 
ATOM     14  C   UNL A   1      30.455  24.147  26.593  1.00  0.00     0.228 C 
ATOM     15  H   UNL A   1      29.008  24.265  25.242  1.00  0.00     0.169 HD
ATOM     16  O   UNL A   1      29.767  23.398  27.286  1.00  0.00    -0.274 OA
BRANCH  14  17
ATOM     17  C   UNL A   1      31.815  24.624  26.996  1.00  0.00     0.135 C 
BRANCH  17  18
ATOM     18  C   UNL A   1      33.136  24.157  26.431  1.00  0.00    -0.038 A 
ATOM     19  C   UNL A   1      33.806  25.139  25.682  1.00  0.00     0.005 A 
ATOM     20  C   UNL A   1      33.709  22.882  26.483  1.00  0.00     0.013 A 
ATOM     21  C   UNL A   1      34.912  24.841  24.902  1.00  0.00     0.009 A 
ATOM     22  C   UNL A   1      34.873  22.572  25.718  1.00  0.00    -0.018 A 
ATOM     23  C   UNL A   1      35.409  23.548  24.852  1.00  0.00    -0.018 A 
ATOM     24  C   UNL A   1      35.537  21.332  25.768  1.00  0.00     0.009 A 
ATOM     25  C   UNL A   1      36.442  23.238  23.957  1.00  0.00     0.009 A 
ATOM     26  C   UNL A   1      36.628  21.055  24.927  1.00  0.00     0.001 A 
ATOM     27  C   UNL A   1      37.047  21.989  23.987  1.00  0.00     0.001 A 
ENDBRANCH  17  18
ENDBRANCH  14  17
ENDBRANCH  10  13
ENDBRANCH   3   6
ENDBRANCH   1   2
BRANCH   1  28
ATOM     28  C   UNL A   1      32.751  29.859  25.561  1.00  0.00     0.042 C 
BRANCH  28  29
ATOM     29  C   UNL A   1      33.076  29.620  27.037  1.00  0.00     0.118 C 
BRANCH  29  30
ATOM     30  N   UNL A   1      33.696  30.766  27.712  1.00  0.00    -0.352 N 
ATOM     31  C   UNL A   1      34.961  30.933  28.262  1.00  0.00     0.251 C 
ATOM     32  H   UNL A   1      33.113  31.555  27.789  1.00  0.00     0.163 HD
ATOM     33  O   UNL A   1      35.347  32.008  28.688  1.00  0.00    -0.269 OA
BRANCH  31  34
ATOM     34  C   UNL A   1      35.935  29.836  28.153  1.00  0.00     0.039 A 
ATOM     35  C   UNL A   1      36.207  29.209  29.372  1.00  0.00     0.014 A 
ATOM     36  C   UNL A   1      36.868  29.901  27.129  1.00  0.00     0.014 A 
ATOM     37  C   UNL A   1      37.530  29.037  29.722  1.00  0.00     0.010 A 
ATOM     38  C   UNL A   1      38.187  29.826  27.508  1.00  0.00     0.010 A 
ATOM     39  C   UNL A   1      38.500  29.499  28.832  1.00  0.00    -0.014 A 
BRANCH  39  40
ATOM     40  C   UNL A   1      39.873  29.686  29.256  1.00  0.00     0.031 A 
ATOM     41  C   UNL A   1      40.782  28.562  29.020  1.00  0.00     0.074 A 
ATOM     42  C   UNL A   1      40.276  30.746  29.988  1.00  0.00     0.049 A 
ATOM     43  N   UNL A   1      41.602  28.103  29.902  1.00  0.00    -0.248 NA
ATOM     44  C   UNL A   1      40.732  27.789  27.785  1.00  0.00     0.031 C 
ATOM     45  C   UNL A   1      41.641  31.021  30.423  1.00  0.00     0.029 A 
ATOM     46  N   UNL A   1      39.498  31.665  30.695  1.00  0.00    -0.354 N 
ATOM     47  C   UNL A   1      42.374  27.168  29.261  1.00  0.00     0.074 A 
ATOM     48  C   UNL A   1      41.725  26.926  27.992  1.00  0.00     0.031 C 
ATOM     49  C   UNL A   1      41.592  31.794  31.521  1.00  0.00     0.029 A 
ATOM     50  C   UNL A   1      40.193  31.972  31.877  1.00  0.00     0.049 A 
ATOM     51  H   UNL A   1      38.627  32.030  30.417  1.00  0.00     0.167 HD
ATOM     52  C   UNL A   1      43.581  26.813  29.777  1.00  0.00     0.031 A 
ATOM     53  C   UNL A   1      39.666  31.866  33.130  1.00  0.00     0.031 A 
ATOM     54  C   UNL A   1      43.877  27.522  31.017  1.00  0.00     0.049 A 
ATOM     55  C   UNL A   1      40.439  30.916  34.017  1.00  0.00     0.074 A 
ATOM     56  C   UNL A   1      44.603  28.674  31.275  1.00  0.00     0.029 A 
ATOM     57  N   UNL A   1      43.128  27.266  32.160  1.00  0.00    -0.354 N 
ATOM     58  N   UNL A   1      41.354  30.098  33.575  1.00  0.00    -0.248 NA
ATOM     59  C   UNL A   1      40.169  30.733  35.442  1.00  0.00     0.031 C 
ATOM     60  C   UNL A   1      44.248  29.141  32.564  1.00  0.00     0.029 A 
ATOM     61  C   UNL A   1      43.321  28.264  33.098  1.00  0.00     0.049 A 
ATOM     62  H   UNL A   1      42.543  26.484  32.286  1.00  0.00     0.167 HD
ATOM     63  C   UNL A   1      41.743  29.261  34.588  1.00  0.00     0.074 A 
ATOM     64  C   UNL A   1      40.997  29.716  35.745  1.00  0.00     0.031 C 
ATOM     65  C   UNL A   1      42.616  28.235  34.372  1.00  0.00     0.031 A 
BRANCH  52  66
ATOM     66  C   UNL A   1      44.611  26.131  28.915  1.00  0.00    -0.014 A 
ATOM     67  C   UNL A   1      44.774  24.740  29.002  1.00  0.00     0.009 A 
ATOM     68  C   UNL A   1      45.504  26.816  28.073  1.00  0.00     0.009 A 
ATOM     69  C   UNL A   1      45.851  24.088  28.391  1.00  0.00     0.001 A 
ATOM     70  C   UNL A   1      46.617  26.181  27.508  1.00  0.00     0.001 A 
ATOM     71  C   UNL A   1      46.797  24.815  27.680  1.00  0.00     0.000 A 
ENDBRANCH  52  66
BRANCH  53  72
ATOM     72  C   UNL A   1      38.193  32.044  33.187  1.00  0.00    -0.014 A 
ATOM     73  C   UNL A   1      37.687  33.354  33.281  1.00  0.00     0.009 A 
ATOM     74  C   UNL A   1      37.338  31.015  32.767  1.00  0.00     0.009 A 
ATOM     75  C   UNL A   1      36.392  33.648  32.847  1.00  0.00     0.001 A 
ATOM     76  C   UNL A   1      36.045  31.317  32.329  1.00  0.00     0.001 A 
ATOM     77  C   UNL A   1      35.586  32.634  32.334  1.00  0.00     0.000 A 
ENDBRANCH  53  72
BRANCH  65  78
ATOM     78  C   UNL A   1      42.942  27.138  35.353  1.00  0.00    -0.014 A 
ATOM     79  C   UNL A   1      42.939  25.772  35.040  1.00  0.00     0.009 A 
ATOM     80  C   UNL A   1      43.406  27.494  36.639  1.00  0.00     0.009 A 
ATOM     81  C   UNL A   1      43.329  24.810  35.981  1.00  0.00     0.001 A 
ATOM     82  C   UNL A   1      43.839  26.542  37.563  1.00  0.00     0.001 A 
ATOM     83  C   UNL A   1      43.787  25.195  37.238  1.00  0.00     0.000 A 
ENDBRANCH  65  78
ENDBRANCH  39  40
ENDBRANCH  31  34
ENDBRANCH  29  30
ENDBRANCH  28  29
ENDBRANCH   1  28
TORSDOF 13
ENDMDL
