MODEL 1
REMARK VINA RESULT:      -9.4      0.000      0.000
REMARK SMILES CC1(C)S[C@@H](c2ccsc2)[NH2+][C@@H]1C(=O)NCCCNC(=O)c1ccc(-c2c3nc(c(-c4ccccc4)c4ccc([nH]4)c(-c4ccccc4)c4nc(c(-c5ccccc5)c5ccc2[nH]5)C=C4)C=C3)cc1
REMARK SMILES IDX 17 1 16 2 15 3 13 4 14 5 12 7 1 8 2 9 3 10 4 11 5 12 11 13
REMARK SMILES IDX 6 16 7 17 10 18 8 19 9 20 18 21 19 22 20 23 21 25 22 26
REMARK SMILES IDX 23 27 69 28 24 29 68 30 25 31 26 32 27 33 62 34 28 35 67 36
REMARK SMILES IDX 61 37 63 38 29 39 66 40 60 41 59 42 30 44 52 45 37 46 51 47
REMARK SMILES IDX 38 48 41 49 50 50 64 51 39 52 40 53 49 55 65 56 42 57 31 58
REMARK SMILES IDX 32 59 36 60 33 61 35 62 34 63 53 64 54 65 58 66 55 67 57 68
REMARK SMILES IDX 56 69 43 70 44 71 48 72 45 73 47 74 46 75
REMARK H PARENT 15 6 11 14 11 15 19 24 63 43 41 54
REMARK Flexibility Score: inf
ROOT
ATOM      1  C   UNL A   1      33.277  35.070  32.834  1.00  0.00     0.042 C 
ENDROOT
BRANCH   1   2
ATOM      2  C   UNL A   1      34.299  34.095  33.392  1.00  0.00     0.118 C 
BRANCH   2   3
ATOM      3  N   UNL A   1      35.650  34.633  33.350  1.00  0.00    -0.351 N 
ATOM      4  C   UNL A   1      36.817  34.253  33.943  1.00  0.00     0.279 C 
ATOM      5  O   UNL A   1      37.753  35.043  33.787  1.00  0.00    -0.268 OA
ATOM      6  H   UNL A   1      35.739  35.430  32.779  1.00  0.00     0.163 HD
BRANCH   4   7
ATOM      7  C   UNL A   1      36.943  32.995  34.849  1.00  0.00     0.289 C 
ATOM      8  C   UNL A   1      37.861  31.991  37.008  1.00  0.00     0.030 C 
ATOM      9  C   UNL A   1      38.136  32.975  35.852  1.00  0.00     0.077 C 
ATOM     10  C   UNL A   1      38.561  34.312  36.457  1.00  0.00     0.030 C 
ATOM     11  S   UNL A   1      39.513  32.264  34.867  1.00  0.00    -0.081 SA
ATOM     12  C   UNL A   1      38.426  31.681  33.554  1.00  0.00     0.275 C 
ATOM     13  N   UNL A   1      37.056  31.742  34.061  1.00  0.00    -0.320 N 
ATOM     14  H   UNL A   1      36.866  30.935  34.655  1.00  0.00     0.348 HD
ATOM     15  H   UNL A   1      36.382  31.732  33.295  1.00  0.00     0.348 HD
BRANCH  12  16
ATOM     16  C   UNL A   1      38.691  30.272  33.108  1.00  0.00     0.031 A 
ATOM     17  C   UNL A   1      37.703  29.332  32.640  1.00  0.00     0.022 A 
ATOM     18  C   UNL A   1      39.953  29.704  33.047  1.00  0.00     0.075 A 
ATOM     19  C   UNL A   1      38.251  28.133  32.240  1.00  0.00     0.065 A 
ATOM     20  S   UNL A   1      39.946  28.107  32.438  1.00  0.00    -0.152 S 
ENDBRANCH  12  16
ENDBRANCH   4   7
ENDBRANCH   2   3
ENDBRANCH   1   2
BRANCH   1  21
ATOM     21  C   UNL A   1      33.700  35.748  31.541  1.00  0.00     0.118 C 
BRANCH  21  22
ATOM     22  N   UNL A   1      32.948  35.285  30.382  1.00  0.00    -0.352 N 
ATOM     23  C   UNL A   1      33.331  34.463  29.351  1.00  0.00     0.251 C 
ATOM     24  H   UNL A   1      32.021  35.612  30.330  1.00  0.00     0.163 HD
ATOM     25  O   UNL A   1      32.606  34.338  28.366  1.00  0.00    -0.269 OA
BRANCH  23  26
ATOM     26  C   UNL A   1      34.625  33.753  29.407  1.00  0.00     0.039 A 
ATOM     27  C   UNL A   1      35.636  34.114  28.515  1.00  0.00     0.014 A 
ATOM     28  C   UNL A   1      34.846  32.737  30.340  1.00  0.00     0.014 A 
ATOM     29  C   UNL A   1      36.891  33.509  28.611  1.00  0.00     0.010 A 
ATOM     30  C   UNL A   1      36.123  32.215  30.506  1.00  0.00     0.010 A 
ATOM     31  C   UNL A   1      37.159  32.588  29.638  1.00  0.00    -0.014 A 
BRANCH  31  32
ATOM     32  C   UNL A   1      38.510  32.001  29.818  1.00  0.00     0.031 A 
ATOM     33  C   UNL A   1      39.596  32.794  30.493  1.00  0.00     0.074 A 
ATOM     34  C   UNL A   1      38.778  30.777  29.321  1.00  0.00     0.049 A 
ATOM     35  N   UNL A   1      40.849  32.473  30.696  1.00  0.00    -0.248 NA
ATOM     36  C   UNL A   1      39.236  34.136  30.981  1.00  0.00     0.031 C 
ATOM     37  C   UNL A   1      37.826  29.922  28.608  1.00  0.00     0.029 A 
ATOM     38  N   UNL A   1      39.936  30.041  29.337  1.00  0.00    -0.354 N 
ATOM     39  C   UNL A   1      41.424  33.574  31.317  1.00  0.00     0.074 A 
ATOM     40  C   UNL A   1      40.403  34.594  31.403  1.00  0.00     0.031 C 
ATOM     41  C   UNL A   1      38.426  28.763  28.293  1.00  0.00     0.029 A 
ATOM     42  C   UNL A   1      39.816  28.811  28.735  1.00  0.00     0.049 A 
ATOM     43  H   UNL A   1      40.773  30.362  29.742  1.00  0.00     0.167 HD
ATOM     44  C   UNL A   1      42.682  33.717  31.798  1.00  0.00     0.031 A 
ATOM     45  C   UNL A   1      40.724  27.834  28.554  1.00  0.00     0.031 A 
ATOM     46  C   UNL A   1      43.697  32.701  31.718  1.00  0.00     0.049 A 
ATOM     47  C   UNL A   1      42.121  28.028  29.071  1.00  0.00     0.074 A 
ATOM     48  C   UNL A   1      44.987  32.730  32.217  1.00  0.00     0.029 A 
ATOM     49  N   UNL A   1      43.536  31.473  31.094  1.00  0.00    -0.354 N 
ATOM     50  N   UNL A   1      42.631  29.050  29.717  1.00  0.00    -0.248 NA
ATOM     51  C   UNL A   1      43.068  26.928  28.842  1.00  0.00     0.031 C 
ATOM     52  C   UNL A   1      45.625  31.543  31.845  1.00  0.00     0.029 A 
ATOM     53  C   UNL A   1      44.712  30.747  31.172  1.00  0.00     0.049 A 
ATOM     54  H   UNL A   1      42.707  31.164  30.660  1.00  0.00     0.167 HD
ATOM     55  C   UNL A   1      43.945  28.702  29.998  1.00  0.00     0.074 A 
ATOM     56  C   UNL A   1      44.149  27.369  29.470  1.00  0.00     0.031 C 
ATOM     57  C   UNL A   1      44.899  29.422  30.639  1.00  0.00     0.031 A 
BRANCH  44  58
ATOM     58  C   UNL A   1      43.030  35.028  32.449  1.00  0.00    -0.014 A 
ATOM     59  C   UNL A   1      43.662  36.055  31.729  1.00  0.00     0.009 A 
ATOM     60  C   UNL A   1      42.695  35.252  33.794  1.00  0.00     0.009 A 
ATOM     61  C   UNL A   1      43.986  37.262  32.351  1.00  0.00     0.001 A 
ATOM     62  C   UNL A   1      42.990  36.472  34.405  1.00  0.00     0.001 A 
ATOM     63  C   UNL A   1      43.644  37.472  33.686  1.00  0.00     0.000 A 
ENDBRANCH  44  58
BRANCH  45  64
ATOM     64  C   UNL A   1      40.338  26.573  27.866  1.00  0.00    -0.014 A 
ATOM     65  C   UNL A   1      39.579  25.601  28.536  1.00  0.00     0.009 A 
ATOM     66  C   UNL A   1      40.735  26.328  26.543  1.00  0.00     0.009 A 
ATOM     67  C   UNL A   1      39.252  24.398  27.906  1.00  0.00     0.001 A 
ATOM     68  C   UNL A   1      40.379  25.138  25.904  1.00  0.00     0.001 A 
ATOM     69  C   UNL A   1      39.648  24.170  26.590  1.00  0.00     0.000 A 
ENDBRANCH  45  64
BRANCH  57  70
ATOM     70  C   UNL A   1      46.237  28.766  30.839  1.00  0.00    -0.014 A 
ATOM     71  C   UNL A   1      46.504  27.976  31.968  1.00  0.00     0.009 A 
ATOM     72  C   UNL A   1      47.233  28.912  29.861  1.00  0.00     0.009 A 
ATOM     73  C   UNL A   1      47.756  27.378  32.131  1.00  0.00     0.001 A 
ATOM     74  C   UNL A   1      48.472  28.287  30.010  1.00  0.00     0.001 A 
ATOM     75  C   UNL A   1      48.736  27.529  31.150  1.00  0.00     0.000 A 
ENDBRANCH  57  70
ENDBRANCH  31  32
ENDBRANCH  23  26
ENDBRANCH  21  22
ENDBRANCH   1  21
TORSDOF 11
ENDMDL
MODEL 2
REMARK VINA RESULT:      -9.3      4.655     10.770
REMARK SMILES CC1(C)S[C@@H](c2ccsc2)[NH2+][C@@H]1C(=O)NCCCNC(=O)c1ccc(-c2c3nc(c(-c4ccccc4)c4ccc([nH]4)c(-c4ccccc4)c4nc(c(-c5ccccc5)c5ccc2[nH]5)C=C4)C=C3)cc1
REMARK SMILES IDX 17 1 16 2 15 3 13 4 14 5 12 7 1 8 2 9 3 10 4 11 5 12 11 13
REMARK SMILES IDX 6 16 7 17 10 18 8 19 9 20 18 21 19 22 20 23 21 25 22 26
REMARK SMILES IDX 23 27 69 28 24 29 68 30 25 31 26 32 27 33 62 34 28 35 67 36
REMARK SMILES IDX 61 37 63 38 29 39 66 40 60 41 59 42 30 44 52 45 37 46 51 47
REMARK SMILES IDX 38 48 41 49 50 50 64 51 39 52 40 53 49 55 65 56 42 57 31 58
REMARK SMILES IDX 32 59 36 60 33 61 35 62 34 63 53 64 54 65 58 66 55 67 57 68
REMARK SMILES IDX 56 69 43 70 44 71 48 72 45 73 47 74 46 75
REMARK H PARENT 15 6 11 14 11 15 19 24 63 43 41 54
REMARK Flexibility Score: inf
ROOT
ATOM      1  C   UNL A   1      44.999  20.768  23.916  1.00  0.00     0.042 C 
ENDROOT
BRANCH   1   2
ATOM      2  C   UNL A   1      45.197  22.269  24.042  1.00  0.00     0.118 C 
BRANCH   2   3
ATOM      3  N   UNL A   1      45.898  22.629  25.265  1.00  0.00    -0.351 N 
ATOM      4  C   UNL A   1      46.457  23.791  25.704  1.00  0.00     0.279 C 
ATOM      5  O   UNL A   1      47.103  23.688  26.752  1.00  0.00    -0.268 OA
ATOM      6  H   UNL A   1      45.987  21.884  25.902  1.00  0.00     0.163 HD
BRANCH   4   7
ATOM      7  C   UNL A   1      46.404  25.121  24.899  1.00  0.00     0.289 C 
ATOM      8  C   UNL A   1      47.659  27.191  24.090  1.00  0.00     0.030 C 
ATOM      9  C   UNL A   1      47.474  26.197  25.255  1.00  0.00     0.077 C 
ATOM     10  C   UNL A   1      48.856  25.693  25.673  1.00  0.00     0.030 C 
ATOM     11  S   UNL A   1      46.701  27.131  26.634  1.00  0.00    -0.081 SA
ATOM     12  C   UNL A   1      45.065  26.440  26.339  1.00  0.00     0.275 C 
ATOM     13  N   UNL A   1      45.090  25.802  25.024  1.00  0.00    -0.320 N 
ATOM     14  H   UNL A   1      44.988  26.505  24.291  1.00  0.00     0.348 HD
ATOM     15  H   UNL A   1      44.324  25.135  24.926  1.00  0.00     0.348 HD
BRANCH  12  16
ATOM     16  C   UNL A   1      43.954  27.450  26.340  1.00  0.00     0.031 A 
ATOM     17  C   UNL A   1      43.905  28.654  27.130  1.00  0.00     0.022 A 
ATOM     18  C   UNL A   1      42.835  27.370  25.527  1.00  0.00     0.075 A 
ATOM     19  C   UNL A   1      42.789  29.419  26.874  1.00  0.00     0.065 A 
ATOM     20  S   UNL A   1      41.777  28.701  25.703  1.00  0.00    -0.152 S 
ENDBRANCH  12  16
ENDBRANCH   4   7
ENDBRANCH   2   3
ENDBRANCH   1   2
BRANCH   1  21
ATOM     21  C   UNL A   1      44.615  20.077  25.213  1.00  0.00     0.118 C 
BRANCH  21  22
ATOM     22  N   UNL A   1      43.266  19.527  25.187  1.00  0.00    -0.352 N 
ATOM     23  C   UNL A   1      42.123  19.961  25.811  1.00  0.00     0.251 C 
ATOM     24  H   UNL A   1      43.157  18.718  24.637  1.00  0.00     0.163 HD
ATOM     25  O   UNL A   1      41.118  19.252  25.813  1.00  0.00    -0.269 OA
BRANCH  23  26
ATOM     26  C   UNL A   1      42.104  21.265  26.506  1.00  0.00     0.039 A 
ATOM     27  C   UNL A   1      42.018  21.290  27.900  1.00  0.00     0.014 A 
ATOM     28  C   UNL A   1      42.177  22.461  25.790  1.00  0.00     0.014 A 
ATOM     29  C   UNL A   1      42.083  22.510  28.575  1.00  0.00     0.010 A 
ATOM     30  C   UNL A   1      42.352  23.664  26.465  1.00  0.00     0.010 A 
ATOM     31  C   UNL A   1      42.298  23.704  27.865  1.00  0.00    -0.014 A 
BRANCH  31  32
ATOM     32  C   UNL A   1      42.463  25.002  28.566  1.00  0.00     0.031 A 
ATOM     33  C   UNL A   1      43.749  25.317  29.281  1.00  0.00     0.074 A 
ATOM     34  C   UNL A   1      41.435  25.871  28.610  1.00  0.00     0.049 A 
ATOM     35  N   UNL A   1      44.062  26.372  29.990  1.00  0.00    -0.248 NA
ATOM     36  C   UNL A   1      44.814  24.303  29.214  1.00  0.00     0.031 C 
ATOM     37  C   UNL A   1      40.122  25.668  27.994  1.00  0.00     0.029 A 
ATOM     38  N   UNL A   1      41.334  27.104  29.205  1.00  0.00    -0.354 N 
ATOM     39  C   UNL A   1      45.347  26.141  30.463  1.00  0.00     0.074 A 
ATOM     40  C   UNL A   1      45.733  24.822  30.013  1.00  0.00     0.031 C 
ATOM     41  C   UNL A   1      39.362  26.755  28.209  1.00  0.00     0.029 A 
ATOM     42  C   UNL A   1      40.114  27.709  29.017  1.00  0.00     0.049 A 
ATOM     43  H   UNL A   1      42.065  27.517  29.718  1.00  0.00     0.167 HD
ATOM     44  C   UNL A   1      46.148  26.961  31.184  1.00  0.00     0.031 A 
ATOM     45  C   UNL A   1      39.650  28.896  29.450  1.00  0.00     0.031 A 
ATOM     46  C   UNL A   1      45.767  28.275  31.627  1.00  0.00     0.049 A 
ATOM     47  C   UNL A   1      40.548  29.776  30.274  1.00  0.00     0.074 A 
ATOM     48  C   UNL A   1      46.522  29.203  32.321  1.00  0.00     0.029 A 
ATOM     49  N   UNL A   1      44.521  28.847  31.420  1.00  0.00    -0.354 N 
ATOM     50  N   UNL A   1      41.786  29.570  30.655  1.00  0.00    -0.248 NA
ATOM     51  C   UNL A   1      39.986  31.059  30.719  1.00  0.00     0.031 C 
ATOM     52  C   UNL A   1      45.714  30.313  32.586  1.00  0.00     0.029 A 
ATOM     53  C   UNL A   1      44.477  30.104  31.997  1.00  0.00     0.049 A 
ATOM     54  H   UNL A   1      43.777  28.421  30.934  1.00  0.00     0.167 HD
ATOM     55  C   UNL A   1      42.160  30.709  31.357  1.00  0.00     0.074 A 
ATOM     56  C   UNL A   1      41.025  31.609  31.332  1.00  0.00     0.031 C 
ATOM     57  C   UNL A   1      43.339  30.986  31.966  1.00  0.00     0.031 A 
BRANCH  44  58
ATOM     58  C   UNL A   1      47.517  26.452  31.545  1.00  0.00    -0.014 A 
ATOM     59  C   UNL A   1      48.620  26.668  30.702  1.00  0.00     0.009 A 
ATOM     60  C   UNL A   1      47.715  25.772  32.757  1.00  0.00     0.009 A 
ATOM     61  C   UNL A   1      49.883  26.182  31.048  1.00  0.00     0.001 A 
ATOM     62  C   UNL A   1      48.984  25.315  33.115  1.00  0.00     0.001 A 
ATOM     63  C   UNL A   1      50.065  25.511  32.256  1.00  0.00     0.000 A 
ENDBRANCH  44  58
BRANCH  45  64
ATOM     64  C   UNL A   1      38.273  29.335  29.099  1.00  0.00    -0.014 A 
ATOM     65  C   UNL A   1      37.248  29.296  30.057  1.00  0.00     0.009 A 
ATOM     66  C   UNL A   1      37.972  29.782  27.803  1.00  0.00     0.009 A 
ATOM     67  C   UNL A   1      35.945  29.668  29.717  1.00  0.00     0.001 A 
ATOM     68  C   UNL A   1      36.676  30.184  27.475  1.00  0.00     0.001 A 
ATOM     69  C   UNL A   1      35.662  30.115  28.428  1.00  0.00     0.000 A 
ENDBRANCH  45  64
BRANCH  57  70
ATOM     70  C   UNL A   1      43.474  32.333  32.621  1.00  0.00    -0.014 A 
ATOM     71  C   UNL A   1      43.912  33.456  31.903  1.00  0.00     0.009 A 
ATOM     72  C   UNL A   1      43.121  32.485  33.971  1.00  0.00     0.009 A 
ATOM     73  C   UNL A   1      44.031  34.696  32.535  1.00  0.00     0.001 A 
ATOM     74  C   UNL A   1      43.209  33.731  34.592  1.00  0.00     0.001 A 
ATOM     75  C   UNL A   1      43.674  34.834  33.877  1.00  0.00     0.000 A 
ENDBRANCH  57  70
ENDBRANCH  31  32
ENDBRANCH  23  26
ENDBRANCH  21  22
ENDBRANCH   1  21
TORSDOF 11
ENDMDL
MODEL 3
REMARK VINA RESULT:      -9.3      4.314      7.116
REMARK SMILES CC1(C)S[C@@H](c2ccsc2)[NH2+][C@@H]1C(=O)NCCCNC(=O)c1ccc(-c2c3nc(c(-c4ccccc4)c4ccc([nH]4)c(-c4ccccc4)c4nc(c(-c5ccccc5)c5ccc2[nH]5)C=C4)C=C3)cc1
REMARK SMILES IDX 17 1 16 2 15 3 13 4 14 5 12 7 1 8 2 9 3 10 4 11 5 12 11 13
REMARK SMILES IDX 6 16 7 17 10 18 8 19 9 20 18 21 19 22 20 23 21 25 22 26
REMARK SMILES IDX 23 27 69 28 24 29 68 30 25 31 26 32 27 33 62 34 28 35 67 36
REMARK SMILES IDX 61 37 63 38 29 39 66 40 60 41 59 42 30 44 52 45 37 46 51 47
REMARK SMILES IDX 38 48 41 49 50 50 64 51 39 52 40 53 49 55 65 56 42 57 31 58
REMARK SMILES IDX 32 59 36 60 33 61 35 62 34 63 53 64 54 65 58 66 55 67 57 68
REMARK SMILES IDX 56 69 43 70 44 71 48 72 45 73 47 74 46 75
REMARK H PARENT 15 6 11 14 11 15 19 24 63 43 41 54
REMARK Flexibility Score: inf
ROOT
ATOM      1  C   UNL A   1      32.122  28.212  27.617  1.00  0.00     0.042 C 
ENDROOT
BRANCH   1   2
ATOM      2  C   UNL A   1      31.501  27.421  26.478  1.00  0.00     0.118 C 
BRANCH   2   3
ATOM      3  N   UNL A   1      31.380  26.007  26.795  1.00  0.00    -0.351 N 
ATOM      4  C   UNL A   1      31.890  24.881  26.220  1.00  0.00     0.279 C 
ATOM      5  O   UNL A   1      31.452  23.823  26.684  1.00  0.00    -0.268 OA
ATOM      6  H   UNL A   1      30.817  25.826  27.583  1.00  0.00     0.163 HD
BRANCH   4   7
ATOM      7  C   UNL A   1      32.848  24.909  24.995  1.00  0.00     0.289 C 
ATOM      8  C   UNL A   1      33.172  24.408  22.514  1.00  0.00     0.030 C 
ATOM      9  C   UNL A   1      32.515  23.933  23.827  1.00  0.00     0.077 C 
ATOM     10  C   UNL A   1      31.037  23.660  23.547  1.00  0.00     0.030 C 
ATOM     11  S   UNL A   1      33.361  22.377  24.312  1.00  0.00    -0.081 SA
ATOM     12  C   UNL A   1      34.349  23.176  25.588  1.00  0.00     0.275 C 
ATOM     13  N   UNL A   1      34.254  24.620  25.375  1.00  0.00    -0.320 N 
ATOM     14  H   UNL A   1      34.886  24.906  24.626  1.00  0.00     0.348 HD
ATOM     15  H   UNL A   1      34.517  25.132  26.217  1.00  0.00     0.348 HD
BRANCH  12  16
ATOM     16  C   UNL A   1      35.803  22.803  25.573  1.00  0.00     0.031 A 
ATOM     17  C   UNL A   1      36.904  23.666  25.920  1.00  0.00     0.022 A 
ATOM     18  C   UNL A   1      36.273  21.537  25.261  1.00  0.00     0.075 A 
ATOM     19  C   UNL A   1      38.123  23.028  25.872  1.00  0.00     0.065 A 
ATOM     20  S   UNL A   1      37.972  21.397  25.394  1.00  0.00    -0.152 S 
ENDBRANCH  12  16
ENDBRANCH   4   7
ENDBRANCH   2   3
ENDBRANCH   1   2
BRANCH   1  21
ATOM     21  C   UNL A   1      33.440  28.882  27.266  1.00  0.00     0.118 C 
BRANCH  21  22
ATOM     22  N   UNL A   1      33.512  30.267  27.714  1.00  0.00    -0.352 N 
ATOM     23  C   UNL A   1      34.521  30.935  28.362  1.00  0.00     0.251 C 
ATOM     24  H   UNL A   1      32.712  30.808  27.523  1.00  0.00     0.163 HD
ATOM     25  O   UNL A   1      34.317  32.057  28.821  1.00  0.00    -0.269 OA
BRANCH  23  26
ATOM     26  C   UNL A   1      35.842  30.298  28.536  1.00  0.00     0.039 A 
ATOM     27  C   UNL A   1      36.745  30.305  27.471  1.00  0.00     0.014 A 
ATOM     28  C   UNL A   1      36.196  29.698  29.747  1.00  0.00     0.014 A 
ATOM     29  C   UNL A   1      38.027  29.781  27.647  1.00  0.00     0.010 A 
ATOM     30  C   UNL A   1      37.504  29.277  29.955  1.00  0.00     0.010 A 
ATOM     31  C   UNL A   1      38.433  29.304  28.906  1.00  0.00    -0.014 A 
BRANCH  31  32
ATOM     32  C   UNL A   1      39.818  28.827  29.143  1.00  0.00     0.031 A 
ATOM     33  C   UNL A   1      40.833  29.739  29.777  1.00  0.00     0.074 A 
ATOM     34  C   UNL A   1      40.179  27.596  28.733  1.00  0.00     0.049 A 
ATOM     35  N   UNL A   1      42.102  29.522  30.017  1.00  0.00    -0.248 NA
ATOM     36  C   UNL A   1      40.372  31.082  30.168  1.00  0.00     0.031 C 
ATOM     37  C   UNL A   1      39.302  26.630  28.068  1.00  0.00     0.029 A 
ATOM     38  N   UNL A   1      41.385  26.946  28.814  1.00  0.00    -0.354 N 
ATOM     39  C   UNL A   1      42.588  30.699  30.570  1.00  0.00     0.074 A 
ATOM     40  C   UNL A   1      41.497  31.648  30.574  1.00  0.00     0.031 C 
ATOM     41  C   UNL A   1      39.987  25.498  27.839  1.00  0.00     0.029 A 
ATOM     42  C   UNL A   1      41.362  25.673  28.295  1.00  0.00     0.049 A 
ATOM     43  H   UNL A   1      42.191  27.352  29.208  1.00  0.00     0.167 HD
ATOM     44  C   UNL A   1      43.824  30.963  31.056  1.00  0.00     0.031 A 
ATOM     45  C   UNL A   1      42.339  24.753  28.192  1.00  0.00     0.031 A 
ATOM     46  C   UNL A   1      44.909  30.018  31.059  1.00  0.00     0.049 A 
ATOM     47  C   UNL A   1      43.710  25.080  28.713  1.00  0.00     0.074 A 
ATOM     48  C   UNL A   1      46.184  30.171  31.572  1.00  0.00     0.029 A 
ATOM     49  N   UNL A   1      44.844  28.743  30.518  1.00  0.00    -0.354 N 
ATOM     50  N   UNL A   1      44.135  26.175  29.295  1.00  0.00    -0.248 NA
ATOM     51  C   UNL A   1      44.735  24.036  28.572  1.00  0.00     0.031 C 
ATOM     52  C   UNL A   1      46.911  29.010  31.289  1.00  0.00     0.029 A 
ATOM     53  C   UNL A   1      46.067  28.108  30.660  1.00  0.00     0.049 A 
ATOM     54  H   UNL A   1      44.048  28.347  30.094  1.00  0.00     0.167 HD
ATOM     55  C   UNL A   1      45.466  25.941  29.617  1.00  0.00     0.074 A 
ATOM     56  C   UNL A   1      45.771  24.594  29.183  1.00  0.00     0.031 C 
ATOM     57  C   UNL A   1      46.355  26.767  30.220  1.00  0.00     0.031 A 
BRANCH  44  58
ATOM     58  C   UNL A   1      44.068  32.335  31.622  1.00  0.00    -0.014 A 
ATOM     59  C   UNL A   1      43.834  32.617  32.978  1.00  0.00     0.009 A 
ATOM     60  C   UNL A   1      44.568  33.354  30.797  1.00  0.00     0.009 A 
ATOM     61  C   UNL A   1      44.058  33.899  33.485  1.00  0.00     0.001 A 
ATOM     62  C   UNL A   1      44.822  34.626  31.314  1.00  0.00     0.001 A 
ATOM     63  C   UNL A   1      44.557  34.900  32.655  1.00  0.00     0.000 A 
ENDBRANCH  44  58
BRANCH  45  64
ATOM     64  C   UNL A   1      42.054  23.424  27.587  1.00  0.00    -0.014 A 
ATOM     65  C   UNL A   1      41.465  22.406  28.351  1.00  0.00     0.009 A 
ATOM     66  C   UNL A   1      42.379  23.164  26.246  1.00  0.00     0.009 A 
ATOM     67  C   UNL A   1      41.236  21.144  27.795  1.00  0.00     0.001 A 
ATOM     68  C   UNL A   1      42.120  21.912  25.684  1.00  0.00     0.001 A 
ATOM     69  C   UNL A   1      41.559  20.901  26.462  1.00  0.00     0.000 A 
ENDBRANCH  45  64
BRANCH  57  70
ATOM     70  C   UNL A   1      47.732  26.222  30.481  1.00  0.00    -0.014 A 
ATOM     71  C   UNL A   1      48.718  26.211  29.481  1.00  0.00     0.009 A 
ATOM     72  C   UNL A   1      48.058  25.747  31.761  1.00  0.00     0.009 A 
ATOM     73  C   UNL A   1      49.989  25.697  29.749  1.00  0.00     0.001 A 
ATOM     74  C   UNL A   1      49.338  25.266  32.035  1.00  0.00     0.001 A 
ATOM     75  C   UNL A   1      50.299  25.231  31.026  1.00  0.00     0.000 A 
ENDBRANCH  57  70
ENDBRANCH  31  32
ENDBRANCH  23  26
ENDBRANCH  21  22
ENDBRANCH   1  21
TORSDOF 11
ENDMDL
