MODEL 1
REMARK VINA RESULT:      -9.5      0.000      0.000
REMARK SMILES C[C@@H]1[NH2+]CC[C@@H]1C(=O)Nc1ccccc1CC(=O)NCCCNC(=O)c1ccc(-c2c3nc(c(-c4ccccc4)c4ccc([nH]4)c(-c4ccccc4)c4nc(c(-c5ccccc5)c5ccc2[nH]5)C=C4)C=C3)cc1
REMARK SMILES IDX 20 1 19 2 17 3 18 4 16 6 15 7 10 8 11 9 12 10 14 11 13 12
REMARK SMILES IDX 9 13 7 14 8 15 6 17 1 18 2 19 3 20 4 21 5 24 21 25 22 26
REMARK SMILES IDX 23 27 24 28 25 30 26 31 27 32 73 33 28 34 72 35 29 36 30 37
REMARK SMILES IDX 31 38 66 39 32 40 71 41 65 42 67 43 33 44 70 45 64 46 63 47
REMARK SMILES IDX 34 49 56 50 41 51 55 52 42 53 45 54 54 55 68 56 43 57 44 58
REMARK SMILES IDX 53 60 69 61 46 62 35 63 36 64 40 65 37 66 39 67 38 68 57 69
REMARK SMILES IDX 58 70 62 71 59 72 61 73 60 74 47 75 48 76 52 77 49 78 51 79
REMARK SMILES IDX 50 80
REMARK H PARENT 19 5 9 16 3 22 3 23 23 29 67 48 45 59
REMARK Flexibility Score: inf
ROOT
ATOM      1  C   UNL A   1      34.034  34.140  32.873  1.00  0.00     0.117 C 
ENDROOT
BRANCH   1   2
ATOM      2  N   UNL A   1      34.414  34.285  34.261  1.00  0.00    -0.356 N 
ATOM      3  C   UNL A   1      35.646  34.074  34.804  1.00  0.00     0.224 C 
ATOM      4  O   UNL A   1      35.728  33.882  36.018  1.00  0.00    -0.275 OA
ATOM      5  H   UNL A   1      33.704  34.568  34.881  1.00  0.00     0.163 HD
BRANCH   3   6
ATOM      6  C   UNL A   1      36.877  34.170  33.927  1.00  0.00     0.137 C 
BRANCH   6   7
ATOM      7  C   UNL A   1      37.905  33.073  34.067  1.00  0.00    -0.015 A 
ATOM      8  C   UNL A   1      39.204  33.238  34.586  1.00  0.00     0.044 A 
ATOM      9  C   UNL A   1      40.104  32.153  34.544  1.00  0.00     0.026 A 
ATOM     10  C   UNL A   1      39.717  30.896  34.090  1.00  0.00     0.002 A 
ATOM     11  C   UNL A   1      37.531  31.785  33.617  1.00  0.00     0.006 A 
ATOM     12  C   UNL A   1      38.421  30.708  33.640  1.00  0.00     0.000 A 
BRANCH   8  13
ATOM     13  N   UNL A   1      39.800  34.414  35.073  1.00  0.00    -0.325 N 
ATOM     14  C   UNL A   1      39.620  35.237  36.132  1.00  0.00     0.233 C 
ATOM     15  O   UNL A   1      39.580  36.440  35.823  1.00  0.00    -0.274 OA
ATOM     16  H   UNL A   1      40.538  34.717  34.496  1.00  0.00     0.169 HD
BRANCH  14  17
ATOM     17  C   UNL A   1      39.919  34.850  37.593  1.00  0.00     0.142 C 
ATOM     18  C   UNL A   1      42.251  33.532  37.551  1.00  0.00     0.076 C 
ATOM     19  C   UNL A   1      40.891  33.807  38.160  1.00  0.00     0.192 C 
ATOM     20  N   UNL A   1      40.120  32.592  38.475  1.00  0.00    -0.343 N 
ATOM     21  C   UNL A   1      38.718  32.858  38.167  1.00  0.00     0.261 C 
ATOM     22  H   UNL A   1      40.220  32.365  39.464  1.00  0.00     0.346 HD
ATOM     23  H   UNL A   1      40.461  31.802  37.927  1.00  0.00     0.346 HD
ATOM     24  C   UNL A   1      38.603  34.367  38.243  1.00  0.00     0.081 C 
ENDBRANCH  14  17
ENDBRANCH   8  13
ENDBRANCH   6   7
ENDBRANCH   3   6
ENDBRANCH   1   2
BRANCH   1  25
ATOM     25  C   UNL A   1      33.132  35.288  32.433  1.00  0.00     0.042 C 
BRANCH  25  26
ATOM     26  C   UNL A   1      33.532  35.863  31.085  1.00  0.00     0.118 C 
BRANCH  26  27
ATOM     27  N   UNL A   1      32.854  35.203  29.984  1.00  0.00    -0.352 N 
ATOM     28  C   UNL A   1      33.353  34.286  29.095  1.00  0.00     0.251 C 
ATOM     29  H   UNL A   1      31.908  35.446  29.860  1.00  0.00     0.163 HD
ATOM     30  O   UNL A   1      32.700  33.956  28.118  1.00  0.00    -0.269 OA
BRANCH  28  31
ATOM     31  C   UNL A   1      34.698  33.717  29.320  1.00  0.00     0.039 A 
ATOM     32  C   UNL A   1      35.773  34.259  28.614  1.00  0.00     0.014 A 
ATOM     33  C   UNL A   1      34.894  32.643  30.195  1.00  0.00     0.014 A 
ATOM     34  C   UNL A   1      37.048  33.729  28.792  1.00  0.00     0.010 A 
ATOM     35  C   UNL A   1      36.179  32.173  30.437  1.00  0.00     0.010 A 
ATOM     36  C   UNL A   1      37.261  32.687  29.710  1.00  0.00    -0.014 A 
BRANCH  36  37
ATOM     37  C   UNL A   1      38.607  32.087  29.864  1.00  0.00     0.031 A 
ATOM     38  C   UNL A   1      39.682  32.835  30.604  1.00  0.00     0.074 A 
ATOM     39  C   UNL A   1      38.858  30.875  29.334  1.00  0.00     0.049 A 
ATOM     40  N   UNL A   1      40.905  32.461  30.882  1.00  0.00    -0.248 NA
ATOM     41  C   UNL A   1      39.349  34.191  31.072  1.00  0.00     0.031 C 
ATOM     42  C   UNL A   1      37.909  30.076  28.555  1.00  0.00     0.029 A 
ATOM     43  N   UNL A   1      39.987  30.099  29.385  1.00  0.00    -0.354 N 
ATOM     44  C   UNL A   1      41.486  33.538  31.540  1.00  0.00     0.074 A 
ATOM     45  C   UNL A   1      40.507  34.599  31.566  1.00  0.00     0.031 C 
ATOM     46  C   UNL A   1      38.482  28.903  28.239  1.00  0.00     0.029 A 
ATOM     47  C   UNL A   1      39.842  28.881  28.768  1.00  0.00     0.049 A 
ATOM     48  H   UNL A   1      40.820  30.387  29.821  1.00  0.00     0.167 HD
ATOM     49  C   UNL A   1      42.716  33.625  32.100  1.00  0.00     0.031 A 
ATOM     50  C   UNL A   1      40.706  27.856  28.655  1.00  0.00     0.031 A 
ATOM     51  C   UNL A   1      43.681  32.560  32.087  1.00  0.00     0.049 A 
ATOM     52  C   UNL A   1      42.060  27.971  29.298  1.00  0.00     0.074 A 
ATOM     53  C   UNL A   1      44.936  32.524  32.668  1.00  0.00     0.029 A 
ATOM     54  N   UNL A   1      43.495  31.340  31.456  1.00  0.00    -0.354 N 
ATOM     55  N   UNL A   1      42.568  28.967  29.983  1.00  0.00    -0.248 NA
ATOM     56  C   UNL A   1      42.950  26.810  29.169  1.00  0.00     0.031 C 
ATOM     57  C   UNL A   1      45.527  31.296  32.351  1.00  0.00     0.029 A 
ATOM     58  C   UNL A   1      44.618  30.548  31.619  1.00  0.00     0.049 A 
ATOM     59  H   UNL A   1      42.683  31.076  30.965  1.00  0.00     0.167 HD
ATOM     60  C   UNL A   1      43.826  28.543  30.390  1.00  0.00     0.074 A 
ATOM     61  C   UNL A   1      43.991  27.192  29.893  1.00  0.00     0.031 C 
ATOM     62  C   UNL A   1      44.763  29.209  31.109  1.00  0.00     0.031 A 
BRANCH  49  63
ATOM     63  C   UNL A   1      43.078  34.923  32.769  1.00  0.00    -0.014 A 
ATOM     64  C   UNL A   1      43.609  35.998  32.036  1.00  0.00     0.009 A 
ATOM     65  C   UNL A   1      42.874  35.078  34.148  1.00  0.00     0.009 A 
ATOM     66  C   UNL A   1      43.966  37.186  32.679  1.00  0.00     0.001 A 
ATOM     67  C   UNL A   1      43.203  36.278  34.783  1.00  0.00     0.001 A 
ATOM     68  C   UNL A   1      43.758  37.326  34.050  1.00  0.00     0.000 A 
ENDBRANCH  49  63
BRANCH  50  69
ATOM     69  C   UNL A   1      40.305  26.618  27.937  1.00  0.00    -0.014 A 
ATOM     70  C   UNL A   1      40.704  26.402  26.609  1.00  0.00     0.009 A 
ATOM     71  C   UNL A   1      39.518  25.648  28.575  1.00  0.00     0.009 A 
ATOM     72  C   UNL A   1      40.297  25.255  25.925  1.00  0.00     0.001 A 
ATOM     73  C   UNL A   1      39.136  24.488  27.897  1.00  0.00     0.001 A 
ATOM     74  C   UNL A   1      39.517  24.298  26.571  1.00  0.00     0.000 A 
ENDBRANCH  50  69
BRANCH  62  75
ATOM     75  C   UNL A   1      46.032  28.470  31.423  1.00  0.00    -0.014 A 
ATOM     76  C   UNL A   1      46.151  27.679  32.576  1.00  0.00     0.009 A 
ATOM     77  C   UNL A   1      47.119  28.552  30.538  1.00  0.00     0.009 A 
ATOM     78  C   UNL A   1      47.349  27.022  32.860  1.00  0.00     0.001 A 
ATOM     79  C   UNL A   1      48.305  27.869  30.808  1.00  0.00     0.001 A 
ATOM     80  C   UNL A   1      48.424  27.115  31.974  1.00  0.00     0.000 A 
ENDBRANCH  62  75
ENDBRANCH  36  37
ENDBRANCH  28  31
ENDBRANCH  26  27
ENDBRANCH  25  26
ENDBRANCH   1  25
TORSDOF 13
ENDMDL
MODEL 2
REMARK VINA RESULT:      -9.4      5.196     11.481
REMARK SMILES C[C@@H]1[NH2+]CC[C@@H]1C(=O)Nc1ccccc1CC(=O)NCCCNC(=O)c1ccc(-c2c3nc(c(-c4ccccc4)c4ccc([nH]4)c(-c4ccccc4)c4nc(c(-c5ccccc5)c5ccc2[nH]5)C=C4)C=C3)cc1
REMARK SMILES IDX 20 1 19 2 17 3 18 4 16 6 15 7 10 8 11 9 12 10 14 11 13 12
REMARK SMILES IDX 9 13 7 14 8 15 6 17 1 18 2 19 3 20 4 21 5 24 21 25 22 26
REMARK SMILES IDX 23 27 24 28 25 30 26 31 27 32 73 33 28 34 72 35 29 36 30 37
REMARK SMILES IDX 31 38 66 39 32 40 71 41 65 42 67 43 33 44 70 45 64 46 63 47
REMARK SMILES IDX 34 49 56 50 41 51 55 52 42 53 45 54 54 55 68 56 43 57 44 58
REMARK SMILES IDX 53 60 69 61 46 62 35 63 36 64 40 65 37 66 39 67 38 68 57 69
REMARK SMILES IDX 58 70 62 71 59 72 61 73 60 74 47 75 48 76 52 77 49 78 51 79
REMARK SMILES IDX 50 80
REMARK H PARENT 19 5 9 16 3 22 3 23 23 29 67 48 45 59
REMARK Flexibility Score: inf
ROOT
ATOM      1  C   UNL A   1      36.856  20.700  25.017  1.00  0.00     0.117 C 
ENDROOT
BRANCH   1   2
ATOM      2  N   UNL A   1      36.971  21.682  23.962  1.00  0.00    -0.356 N 
ATOM      3  C   UNL A   1      36.438  22.936  23.942  1.00  0.00     0.224 C 
ATOM      4  O   UNL A   1      36.310  23.503  22.856  1.00  0.00    -0.275 OA
ATOM      5  H   UNL A   1      37.494  21.415  23.171  1.00  0.00     0.163 HD
BRANCH   3   6
ATOM      6  C   UNL A   1      36.104  23.628  25.248  1.00  0.00     0.137 C 
BRANCH   6   7
ATOM      7  C   UNL A   1      34.680  23.517  25.737  1.00  0.00    -0.015 A 
ATOM      8  C   UNL A   1      33.548  24.016  25.064  1.00  0.00     0.044 A 
ATOM      9  C   UNL A   1      32.289  23.953  25.696  1.00  0.00     0.026 A 
ATOM     10  C   UNL A   1      32.116  23.327  26.926  1.00  0.00     0.002 A 
ATOM     11  C   UNL A   1      34.480  22.880  26.984  1.00  0.00     0.006 A 
ATOM     12  C   UNL A   1      33.214  22.776  27.565  1.00  0.00     0.000 A 
BRANCH   8  13
ATOM     13  N   UNL A   1      33.501  24.693  23.833  1.00  0.00    -0.325 N 
ATOM     14  C   UNL A   1      33.088  25.907  23.398  1.00  0.00     0.233 C 
ATOM     15  O   UNL A   1      32.367  25.852  22.387  1.00  0.00    -0.274 OA
ATOM     16  H   UNL A   1      33.860  24.145  23.099  1.00  0.00     0.169 HD
BRANCH  14  17
ATOM     17  C   UNL A   1      33.781  27.237  23.751  1.00  0.00     0.142 C 
ATOM     18  C   UNL A   1      33.616  27.479  26.415  1.00  0.00     0.076 C 
ATOM     19  C   UNL A   1      33.703  28.084  25.028  1.00  0.00     0.192 C 
ATOM     20  N   UNL A   1      32.742  29.175  24.790  1.00  0.00    -0.343 N 
ATOM     21  C   UNL A   1      32.262  29.059  23.417  1.00  0.00     0.261 C 
ATOM     22  H   UNL A   1      33.201  30.077  24.921  1.00  0.00     0.346 HD
ATOM     23  H   UNL A   1      31.962  29.112  25.445  1.00  0.00     0.346 HD
ATOM     24  C   UNL A   1      33.360  28.293  22.706  1.00  0.00     0.081 C 
ENDBRANCH  14  17
ENDBRANCH   8  13
ENDBRANCH   6   7
ENDBRANCH   3   6
ENDBRANCH   1   2
BRANCH   1  25
ATOM     25  C   UNL A   1      38.038  19.735  24.993  1.00  0.00     0.042 C 
BRANCH  25  26
ATOM     26  C   UNL A   1      39.144  20.143  25.952  1.00  0.00     0.118 C 
BRANCH  26  27
ATOM     27  N   UNL A   1      40.334  19.328  25.795  1.00  0.00    -0.352 N 
ATOM     28  C   UNL A   1      41.648  19.693  25.938  1.00  0.00     0.251 C 
ATOM     29  H   UNL A   1      40.177  18.386  25.552  1.00  0.00     0.163 HD
ATOM     30  O   UNL A   1      42.540  18.930  25.600  1.00  0.00    -0.269 OA
BRANCH  28  31
ATOM     31  C   UNL A   1      41.974  21.025  26.487  1.00  0.00     0.039 A 
ATOM     32  C   UNL A   1      41.964  21.190  27.873  1.00  0.00     0.014 A 
ATOM     33  C   UNL A   1      42.257  22.107  25.647  1.00  0.00     0.014 A 
ATOM     34  C   UNL A   1      42.249  22.440  28.417  1.00  0.00     0.010 A 
ATOM     35  C   UNL A   1      42.625  23.331  26.193  1.00  0.00     0.010 A 
ATOM     36  C   UNL A   1      42.587  23.517  27.582  1.00  0.00    -0.014 A 
BRANCH  36  37
ATOM     37  C   UNL A   1      42.839  24.860  28.154  1.00  0.00     0.031 A 
ATOM     38  C   UNL A   1      44.239  25.266  28.526  1.00  0.00     0.074 A 
ATOM     39  C   UNL A   1      41.809  25.706  28.342  1.00  0.00     0.049 A 
ATOM     40  N   UNL A   1      44.669  26.409  28.997  1.00  0.00    -0.248 NA
ATOM     41  C   UNL A   1      45.293  24.248  28.372  1.00  0.00     0.031 C 
ATOM     42  C   UNL A   1      40.403  25.405  28.064  1.00  0.00     0.029 A 
ATOM     43  N   UNL A   1      41.792  26.998  28.800  1.00  0.00    -0.354 N 
ATOM     44  C   UNL A   1      46.032  26.240  29.207  1.00  0.00     0.074 A 
ATOM     45  C   UNL A   1      46.347  24.871  28.874  1.00  0.00     0.031 C 
ATOM     46  C   UNL A   1      39.664  26.499  28.315  1.00  0.00     0.029 A 
ATOM     47  C   UNL A   1      40.540  27.563  28.796  1.00  0.00     0.049 A 
ATOM     48  H   UNL A   1      42.598  27.474  29.102  1.00  0.00     0.167 HD
ATOM     49  C   UNL A   1      46.946  27.152  29.616  1.00  0.00     0.031 A 
ATOM     50  C   UNL A   1      40.147  28.806  29.130  1.00  0.00     0.031 A 
ATOM     51  C   UNL A   1      46.630  28.518  29.931  1.00  0.00     0.049 A 
ATOM     52  C   UNL A   1      41.183  29.804  29.565  1.00  0.00     0.074 A 
ATOM     53  C   UNL A   1      47.487  29.540  30.303  1.00  0.00     0.029 A 
ATOM     54  N   UNL A   1      45.352  29.054  29.910  1.00  0.00    -0.354 N 
ATOM     55  N   UNL A   1      42.480  29.652  29.687  1.00  0.00    -0.248 NA
ATOM     56  C   UNL A   1      40.700  31.153  29.887  1.00  0.00     0.031 C 
ATOM     57  C   UNL A   1      46.719  30.682  30.550  1.00  0.00     0.029 A 
ATOM     58  C   UNL A   1      45.393  30.387  30.279  1.00  0.00     0.049 A 
ATOM     59  H   UNL A   1      44.536  28.559  29.668  1.00  0.00     0.167 HD
ATOM     60  C   UNL A   1      42.971  30.891  30.074  1.00  0.00     0.074 A 
ATOM     61  C   UNL A   1      41.835  31.788  30.143  1.00  0.00     0.031 C 
ATOM     62  C   UNL A   1      44.247  31.258  30.348  1.00  0.00     0.031 A 
BRANCH  49  63
ATOM     63  C   UNL A   1      48.371  26.690  29.743  1.00  0.00    -0.014 A 
ATOM     64  C   UNL A   1      49.282  26.834  28.683  1.00  0.00     0.009 A 
ATOM     65  C   UNL A   1      48.816  26.117  30.944  1.00  0.00     0.009 A 
ATOM     66  C   UNL A   1      50.595  26.374  28.809  1.00  0.00     0.001 A 
ATOM     67  C   UNL A   1      50.138  25.687  31.078  1.00  0.00     0.001 A 
ATOM     68  C   UNL A   1      51.023  25.806  30.008  1.00  0.00     0.000 A 
ENDBRANCH  49  63
BRANCH  50  69
ATOM     69  C   UNL A   1      38.714  29.187  29.030  1.00  0.00    -0.014 A 
ATOM     70  C   UNL A   1      37.872  29.094  30.148  1.00  0.00     0.009 A 
ATOM     71  C   UNL A   1      38.181  29.641  27.814  1.00  0.00     0.009 A 
ATOM     72  C   UNL A   1      36.517  29.419  30.043  1.00  0.00     0.001 A 
ATOM     73  C   UNL A   1      36.833  29.993  27.719  1.00  0.00     0.001 A 
ATOM     74  C   UNL A   1      36.001  29.871  28.830  1.00  0.00     0.000 A 
ENDBRANCH  50  69
BRANCH  62  75
ATOM     75  C   UNL A   1      44.478  32.696  30.718  1.00  0.00    -0.014 A 
ATOM     76  C   UNL A   1      44.735  33.669  29.740  1.00  0.00     0.009 A 
ATOM     77  C   UNL A   1      44.416  33.084  32.066  1.00  0.00     0.009 A 
ATOM     78  C   UNL A   1      44.972  34.993  30.109  1.00  0.00     0.001 A 
ATOM     79  C   UNL A   1      44.621  34.414  32.429  1.00  0.00     0.001 A 
ATOM     80  C   UNL A   1      44.911  35.366  31.453  1.00  0.00     0.000 A 
ENDBRANCH  62  75
ENDBRANCH  36  37
ENDBRANCH  28  31
ENDBRANCH  26  27
ENDBRANCH  25  26
ENDBRANCH   1  25
TORSDOF 13
ENDMDL
MODEL 3
REMARK VINA RESULT:      -9.4      6.147     12.890
REMARK SMILES C[C@@H]1[NH2+]CC[C@@H]1C(=O)Nc1ccccc1CC(=O)NCCCNC(=O)c1ccc(-c2c3nc(c(-c4ccccc4)c4ccc([nH]4)c(-c4ccccc4)c4nc(c(-c5ccccc5)c5ccc2[nH]5)C=C4)C=C3)cc1
REMARK SMILES IDX 20 1 19 2 17 3 18 4 16 6 15 7 10 8 11 9 12 10 14 11 13 12
REMARK SMILES IDX 9 13 7 14 8 15 6 17 1 18 2 19 3 20 4 21 5 24 21 25 22 26
REMARK SMILES IDX 23 27 24 28 25 30 26 31 27 32 73 33 28 34 72 35 29 36 30 37
REMARK SMILES IDX 31 38 66 39 32 40 71 41 65 42 67 43 33 44 70 45 64 46 63 47
REMARK SMILES IDX 34 49 56 50 41 51 55 52 42 53 45 54 54 55 68 56 43 57 44 58
REMARK SMILES IDX 53 60 69 61 46 62 35 63 36 64 40 65 37 66 39 67 38 68 57 69
REMARK SMILES IDX 58 70 62 71 59 72 61 73 60 74 47 75 48 76 52 77 49 78 51 79
REMARK SMILES IDX 50 80
REMARK H PARENT 19 5 9 16 3 22 3 23 23 29 67 48 45 59
REMARK Flexibility Score: inf
ROOT
ATOM      1  C   UNL A   1      37.326  20.688  24.754  1.00  0.00     0.117 C 
ENDROOT
BRANCH   1   2
ATOM      2  N   UNL A   1      37.909  21.900  25.287  1.00  0.00    -0.356 N 
ATOM      3  C   UNL A   1      37.252  23.027  25.680  1.00  0.00     0.224 C 
ATOM      4  O   UNL A   1      37.887  24.080  25.760  1.00  0.00    -0.275 OA
ATOM      5  H   UNL A   1      38.890  21.910  25.377  1.00  0.00     0.163 HD
BRANCH   3   6
ATOM      6  C   UNL A   1      35.796  22.940  26.091  1.00  0.00     0.137 C 
BRANCH   6   7
ATOM      7  C   UNL A   1      34.773  22.903  24.980  1.00  0.00    -0.015 A 
ATOM      8  C   UNL A   1      33.891  21.836  24.723  1.00  0.00     0.044 A 
ATOM      9  C   UNL A   1      33.072  21.883  23.576  1.00  0.00     0.026 A 
ATOM     10  C   UNL A   1      33.042  22.995  22.740  1.00  0.00     0.002 A 
ATOM     11  C   UNL A   1      34.722  24.026  24.121  1.00  0.00     0.006 A 
ATOM     12  C   UNL A   1      33.859  24.076  23.023  1.00  0.00     0.000 A 
BRANCH   8  13
ATOM     13  N   UNL A   1      33.771  20.623  25.423  1.00  0.00    -0.325 N 
ATOM     14  C   UNL A   1      33.308  19.380  25.155  1.00  0.00     0.233 C 
ATOM     15  O   UNL A   1      32.544  18.936  26.030  1.00  0.00    -0.274 OA
ATOM     16  H   UNL A   1      34.111  20.696  26.344  1.00  0.00     0.169 HD
BRANCH  14  17
ATOM     17  C   UNL A   1      33.982  18.394  24.181  1.00  0.00     0.142 C 
ATOM     18  C   UNL A   1      32.275  18.080  22.139  1.00  0.00     0.076 C 
ATOM     19  C   UNL A   1      33.380  17.564  23.041  1.00  0.00     0.192 C 
ATOM     20  N   UNL A   1      33.151  16.199  23.545  1.00  0.00    -0.343 N 
ATOM     21  C   UNL A   1      33.623  16.145  24.924  1.00  0.00     0.261 C 
ATOM     22  H   UNL A   1      33.667  15.528  22.976  1.00  0.00     0.346 HD
ATOM     23  H   UNL A   1      32.159  15.964  23.499  1.00  0.00     0.346 HD
ATOM     24  C   UNL A   1      34.637  17.268  25.011  1.00  0.00     0.081 C 
ENDBRANCH  14  17
ENDBRANCH   8  13
ENDBRANCH   6   7
ENDBRANCH   3   6
ENDBRANCH   1   2
BRANCH   1  25
ATOM     25  C   UNL A   1      38.254  19.498  24.970  1.00  0.00     0.042 C 
BRANCH  25  26
ATOM     26  C   UNL A   1      39.305  19.762  26.036  1.00  0.00     0.118 C 
BRANCH  26  27
ATOM     27  N   UNL A   1      40.439  18.864  25.922  1.00  0.00    -0.352 N 
ATOM     28  C   UNL A   1      41.777  19.160  25.981  1.00  0.00     0.251 C 
ATOM     29  H   UNL A   1      40.219  17.914  25.784  1.00  0.00     0.163 HD
ATOM     30  O   UNL A   1      42.608  18.314  25.693  1.00  0.00    -0.269 OA
BRANCH  28  31
ATOM     31  C   UNL A   1      42.200  20.519  26.377  1.00  0.00     0.039 A 
ATOM     32  C   UNL A   1      42.281  20.816  27.739  1.00  0.00     0.014 A 
ATOM     33  C   UNL A   1      42.486  21.498  25.420  1.00  0.00     0.014 A 
ATOM     34  C   UNL A   1      42.659  22.094  28.141  1.00  0.00     0.010 A 
ATOM     35  C   UNL A   1      42.947  22.746  25.823  1.00  0.00     0.010 A 
ATOM     36  C   UNL A   1      43.001  23.066  27.186  1.00  0.00    -0.014 A 
BRANCH  36  37
ATOM     37  C   UNL A   1      43.353  24.442  27.609  1.00  0.00     0.031 A 
ATOM     38  C   UNL A   1      44.786  24.896  27.565  1.00  0.00     0.074 A 
ATOM     39  C   UNL A   1      42.385  25.274  28.035  1.00  0.00     0.049 A 
ATOM     40  N   UNL A   1      45.289  26.071  27.850  1.00  0.00    -0.248 NA
ATOM     41  C   UNL A   1      45.792  23.894  27.173  1.00  0.00     0.031 C 
ATOM     42  C   UNL A   1      40.967  24.930  28.166  1.00  0.00     0.029 A 
ATOM     43  N   UNL A   1      42.448  26.587  28.423  1.00  0.00    -0.354 N 
ATOM     44  C   UNL A   1      46.662  25.941  27.687  1.00  0.00     0.074 A 
ATOM     45  C   UNL A   1      46.922  24.564  27.339  1.00  0.00     0.031 C 
ATOM     46  C   UNL A   1      40.288  26.019  28.562  1.00  0.00     0.029 A 
ATOM     47  C   UNL A   1      41.224  27.125  28.738  1.00  0.00     0.049 A 
ATOM     48  H   UNL A   1      43.289  27.095  28.472  1.00  0.00     0.167 HD
ATOM     49  C   UNL A   1      47.621  26.892  27.789  1.00  0.00     0.031 A 
ATOM     50  C   UNL A   1      40.895  28.374  29.113  1.00  0.00     0.031 A 
ATOM     51  C   UNL A   1      47.357  28.266  28.119  1.00  0.00     0.049 A 
ATOM     52  C   UNL A   1      41.974  29.415  29.203  1.00  0.00     0.074 A 
ATOM     53  C   UNL A   1      48.246  29.323  28.197  1.00  0.00     0.029 A 
ATOM     54  N   UNL A   1      46.103  28.772  28.425  1.00  0.00    -0.354 N 
ATOM     55  N   UNL A   1      43.260  29.297  28.972  1.00  0.00    -0.248 NA
ATOM     56  C   UNL A   1      41.552  30.769  29.587  1.00  0.00     0.031 C 
ATOM     57  C   UNL A   1      47.536  30.460  28.596  1.00  0.00     0.029 A 
ATOM     58  C   UNL A   1      46.197  30.123  28.711  1.00  0.00     0.049 A 
ATOM     59  H   UNL A   1      45.269  28.248  28.438  1.00  0.00     0.167 HD
ATOM     60  C   UNL A   1      43.795  30.564  29.155  1.00  0.00     0.074 A 
ATOM     61  C   UNL A   1      42.690  31.439  29.494  1.00  0.00     0.031 C 
ATOM     62  C   UNL A   1      45.084  30.972  29.054  1.00  0.00     0.031 A 
BRANCH  49  63
ATOM     63  C   UNL A   1      49.042  26.468  27.541  1.00  0.00    -0.014 A 
ATOM     64  C   UNL A   1      49.584  26.456  26.245  1.00  0.00     0.009 A 
ATOM     65  C   UNL A   1      49.857  26.089  28.619  1.00  0.00     0.009 A 
ATOM     66  C   UNL A   1      50.898  26.033  26.029  1.00  0.00     0.001 A 
ATOM     67  C   UNL A   1      51.180  25.696  28.404  1.00  0.00     0.001 A 
ATOM     68  C   UNL A   1      51.695  25.658  27.110  1.00  0.00     0.000 A 
ENDBRANCH  49  63
BRANCH  50  69
ATOM     69  C   UNL A   1      39.476  28.719  29.392  1.00  0.00    -0.014 A 
ATOM     70  C   UNL A   1      38.654  29.231  28.377  1.00  0.00     0.009 A 
ATOM     71  C   UNL A   1      38.939  28.542  30.676  1.00  0.00     0.009 A 
ATOM     72  C   UNL A   1      37.331  29.587  28.649  1.00  0.00     0.001 A 
ATOM     73  C   UNL A   1      37.607  28.872  30.938  1.00  0.00     0.001 A 
ATOM     74  C   UNL A   1      36.809  29.404  29.928  1.00  0.00     0.000 A 
ENDBRANCH  50  69
BRANCH  62  75
ATOM     75  C   UNL A   1      45.357  32.431  29.283  1.00  0.00    -0.014 A 
ATOM     76  C   UNL A   1      45.296  33.360  28.233  1.00  0.00     0.009 A 
ATOM     77  C   UNL A   1      45.661  32.885  30.577  1.00  0.00     0.009 A 
ATOM     78  C   UNL A   1      45.579  34.706  28.465  1.00  0.00     0.001 A 
ATOM     79  C   UNL A   1      45.911  34.236  30.812  1.00  0.00     0.001 A 
ATOM     80  C   UNL A   1      45.883  35.144  29.755  1.00  0.00     0.000 A 
ENDBRANCH  62  75
ENDBRANCH  36  37
ENDBRANCH  28  31
ENDBRANCH  26  27
ENDBRANCH  25  26
ENDBRANCH   1  25
TORSDOF 13
ENDMDL
