MODEL 1
REMARK VINA RESULT:     -10.3      0.000      0.000
REMARK SMILES C[NH2+]CCCC(=O)N[C@H]1C=C[C@@H](C(=O)NCCCNC(=O)c2ccc(-c3c4nc(c(-c5ccccc5)c5ccc([nH]5)c(-c5ccccc5)c5nc(c(-c6ccccc6)c6ccc3[nH]6)C=C5)C=C4)cc2)C1
REMARK SMILES IDX 13 1 14 2 15 3 12 5 9 6 10 7 70 8 11 9 8 10 6 11 7 12 5 14
REMARK SMILES IDX 4 15 3 16 2 17 1 18 16 21 17 22 18 23 19 24 20 25 21 27
REMARK SMILES IDX 22 28 23 29 69 30 24 31 68 32 25 33 26 34 27 35 62 36 28 37
REMARK SMILES IDX 67 38 61 39 63 40 29 41 66 42 60 43 59 44 30 46 52 47 37 48
REMARK SMILES IDX 51 49 38 50 41 51 50 52 64 53 39 54 40 55 49 57 65 58 42 59
REMARK SMILES IDX 31 60 32 61 36 62 33 63 35 64 34 65 53 66 54 67 58 68 55 69
REMARK SMILES IDX 57 70 56 71 43 72 44 73 48 74 45 75 47 76 46 77
REMARK H PARENT 15 4 8 13 2 19 2 20 19 26 63 45 41 56
REMARK Flexibility Score: inf
ROOT
ATOM      1  C   UNL A   1      31.720  28.342  26.987  1.00  0.00     0.227 C 
ATOM      2  O   UNL A   1      31.757  27.775  28.087  1.00  0.00    -0.274 OA
ATOM      3  N   UNL A   1      31.616  29.692  27.022  1.00  0.00    -0.356 N 
ATOM      4  H   UNL A   1      31.502  30.060  27.928  1.00  0.00     0.163 HD
ENDROOT
BRANCH   1   5
ATOM      5  C   UNL A   1      31.849  27.503  25.709  1.00  0.00     0.103 C 
ATOM      6  C   UNL A   1      31.028  25.251  25.052  1.00  0.00     0.106 C 
ATOM      7  C   UNL A   1      30.233  26.354  24.460  1.00  0.00    -0.006 C 
ATOM      8  C   UNL A   1      32.150  26.004  25.811  1.00  0.00     0.047 C 
ATOM      9  C   UNL A   1      30.647  27.569  24.829  1.00  0.00    -0.016 C 
BRANCH   6  10
ATOM     10  N   UNL A   1      30.309  24.383  25.975  1.00  0.00    -0.350 N 
ATOM     11  C   UNL A   1      30.588  23.288  26.717  1.00  0.00     0.220 C 
ATOM     12  O   UNL A   1      29.787  23.026  27.623  1.00  0.00    -0.275 OA
ATOM     13  H   UNL A   1      29.374  24.669  26.087  1.00  0.00     0.164 HD
BRANCH  11  14
ATOM     14  C   UNL A   1      31.737  22.351  26.438  1.00  0.00     0.106 C 
BRANCH  14  15
ATOM     15  C   UNL A   1      32.921  22.599  27.385  1.00  0.00     0.071 C 
BRANCH  15  16
ATOM     16  C   UNL A   1      34.300  22.771  26.738  1.00  0.00     0.260 C 
BRANCH  16  17
ATOM     17  N   UNL A   1      35.138  21.580  26.873  1.00  0.00    -0.349 N 
ATOM     18  C   UNL A   1      35.988  21.393  25.703  1.00  0.00     0.330 C 
ATOM     19  H   UNL A   1      35.727  21.680  27.699  1.00  0.00     0.346 HD
ATOM     20  H   UNL A   1      34.528  20.767  26.960  1.00  0.00     0.346 HD
ENDBRANCH  16  17
ENDBRANCH  15  16
ENDBRANCH  14  15
ENDBRANCH  11  14
ENDBRANCH   6  10
ENDBRANCH   1   5
BRANCH   3  21
ATOM     21  C   UNL A   1      31.641  30.699  25.982  1.00  0.00     0.117 C 
BRANCH  21  22
ATOM     22  C   UNL A   1      31.399  32.106  26.514  1.00  0.00     0.042 C 
BRANCH  22  23
ATOM     23  C   UNL A   1      32.618  32.743  27.170  1.00  0.00     0.118 C 
BRANCH  23  24
ATOM     24  N   UNL A   1      32.378  34.102  27.632  1.00  0.00    -0.352 N 
ATOM     25  C   UNL A   1      32.999  34.825  28.623  1.00  0.00     0.251 C 
ATOM     26  H   UNL A   1      31.659  34.580  27.160  1.00  0.00     0.163 HD
ATOM     27  O   UNL A   1      32.541  35.915  28.959  1.00  0.00    -0.269 OA
BRANCH  25  28
ATOM     28  C   UNL A   1      34.196  34.291  29.311  1.00  0.00     0.039 A 
ATOM     29  C   UNL A   1      34.028  33.571  30.498  1.00  0.00     0.014 A 
ATOM     30  C   UNL A   1      35.480  34.498  28.800  1.00  0.00     0.014 A 
ATOM     31  C   UNL A   1      35.136  32.989  31.120  1.00  0.00     0.010 A 
ATOM     32  C   UNL A   1      36.568  33.841  29.369  1.00  0.00     0.010 A 
ATOM     33  C   UNL A   1      36.409  33.077  30.535  1.00  0.00    -0.014 A 
BRANCH  33  34
ATOM     34  C   UNL A   1      37.581  32.372  31.115  1.00  0.00     0.031 A 
ATOM     35  C   UNL A   1      38.236  32.884  32.369  1.00  0.00     0.074 A 
ATOM     36  C   UNL A   1      38.105  31.307  30.474  1.00  0.00     0.049 A 
ATOM     37  N   UNL A   1      39.310  32.450  32.979  1.00  0.00    -0.248 NA
ATOM     38  C   UNL A   1      37.617  34.056  33.011  1.00  0.00     0.031 C 
ATOM     39  C   UNL A   1      37.592  30.726  29.231  1.00  0.00     0.029 A 
ATOM     40  N   UNL A   1      39.195  30.527  30.776  1.00  0.00    -0.354 N 
ATOM     41  C   UNL A   1      39.504  33.301  34.059  1.00  0.00     0.074 A 
ATOM     42  C   UNL A   1      38.469  34.310  33.992  1.00  0.00     0.031 C 
ATOM     43  C   UNL A   1      38.344  29.666  28.896  1.00  0.00     0.029 A 
ATOM     44  C   UNL A   1      39.423  29.521  29.867  1.00  0.00     0.049 A 
ATOM     45  H   UNL A   1      39.760  30.674  31.569  1.00  0.00     0.167 HD
ATOM     46  C   UNL A   1      40.443  33.241  35.032  1.00  0.00     0.031 A 
ATOM     47  C   UNL A   1      40.398  28.594  29.812  1.00  0.00     0.031 A 
ATOM     48  C   UNL A   1      41.471  32.236  35.104  1.00  0.00     0.049 A 
ATOM     49  C   UNL A   1      41.452  28.571  30.884  1.00  0.00     0.074 A 
ATOM     50  C   UNL A   1      42.437  32.060  36.079  1.00  0.00     0.029 A 
ATOM     51  N   UNL A   1      41.669  31.240  34.159  1.00  0.00    -0.354 N 
ATOM     52  N   UNL A   1      41.580  29.344  31.935  1.00  0.00    -0.248 NA
ATOM     53  C   UNL A   1      42.493  27.540  30.765  1.00  0.00     0.031 C 
ATOM     54  C   UNL A   1      43.259  30.995  35.694  1.00  0.00     0.029 A 
ATOM     55  C   UNL A   1      42.763  30.467  34.514  1.00  0.00     0.049 A 
ATOM     56  H   UNL A   1      41.116  31.103  33.358  1.00  0.00     0.167 HD
ATOM     57  C   UNL A   1      42.695  28.874  32.617  1.00  0.00     0.074 A 
ATOM     58  C   UNL A   1      43.197  27.740  31.869  1.00  0.00     0.031 C 
ATOM     59  C   UNL A   1      43.252  29.340  33.760  1.00  0.00     0.031 A 
BRANCH  46  60
ATOM     60  C   UNL A   1      40.410  34.303  36.098  1.00  0.00    -0.014 A 
ATOM     61  C   UNL A   1      39.601  34.167  37.238  1.00  0.00     0.009 A 
ATOM     62  C   UNL A   1      41.227  35.438  35.980  1.00  0.00     0.009 A 
ATOM     63  C   UNL A   1      39.581  35.164  38.216  1.00  0.00     0.001 A 
ATOM     64  C   UNL A   1      41.230  36.417  36.975  1.00  0.00     0.001 A 
ATOM     65  C   UNL A   1      40.399  36.285  38.086  1.00  0.00     0.000 A 
ENDBRANCH  46  60
BRANCH  47  66
ATOM     66  C   UNL A   1      40.423  27.602  28.704  1.00  0.00    -0.014 A 
ATOM     67  C   UNL A   1      41.091  27.891  27.503  1.00  0.00     0.009 A 
ATOM     68  C   UNL A   1      39.770  26.367  28.833  1.00  0.00     0.009 A 
ATOM     69  C   UNL A   1      41.079  26.978  26.447  1.00  0.00     0.001 A 
ATOM     70  C   UNL A   1      39.787  25.440  27.787  1.00  0.00     0.001 A 
ATOM     71  C   UNL A   1      40.432  25.751  26.591  1.00  0.00     0.000 A 
ENDBRANCH  47  66
BRANCH  59  72
ATOM     72  C   UNL A   1      44.447  28.603  34.298  1.00  0.00    -0.014 A 
ATOM     73  C   UNL A   1      45.756  28.986  33.964  1.00  0.00     0.009 A 
ATOM     74  C   UNL A   1      44.260  27.536  35.192  1.00  0.00     0.009 A 
ATOM     75  C   UNL A   1      46.849  28.296  34.490  1.00  0.00     0.001 A 
ATOM     76  C   UNL A   1      45.355  26.868  35.741  1.00  0.00     0.001 A 
ATOM     77  C   UNL A   1      46.648  27.242  35.382  1.00  0.00     0.000 A 
ENDBRANCH  59  72
ENDBRANCH  33  34
ENDBRANCH  25  28
ENDBRANCH  23  24
ENDBRANCH  22  23
ENDBRANCH  21  22
ENDBRANCH   3  21
TORSDOF 15
ENDMDL
MODEL 2
REMARK VINA RESULT:     -10.0      3.401      4.948
REMARK SMILES C[NH2+]CCCC(=O)N[C@H]1C=C[C@@H](C(=O)NCCCNC(=O)c2ccc(-c3c4nc(c(-c5ccccc5)c5ccc([nH]5)c(-c5ccccc5)c5nc(c(-c6ccccc6)c6ccc3[nH]6)C=C5)C=C4)cc2)C1
REMARK SMILES IDX 13 1 14 2 15 3 12 5 9 6 10 7 70 8 11 9 8 10 6 11 7 12 5 14
REMARK SMILES IDX 4 15 3 16 2 17 1 18 16 21 17 22 18 23 19 24 20 25 21 27
REMARK SMILES IDX 22 28 23 29 69 30 24 31 68 32 25 33 26 34 27 35 62 36 28 37
REMARK SMILES IDX 67 38 61 39 63 40 29 41 66 42 60 43 59 44 30 46 52 47 37 48
REMARK SMILES IDX 51 49 38 50 41 51 50 52 64 53 39 54 40 55 49 57 65 58 42 59
REMARK SMILES IDX 31 60 32 61 36 62 33 63 35 64 34 65 53 66 54 67 58 68 55 69
REMARK SMILES IDX 57 70 56 71 43 72 44 73 48 74 45 75 47 76 46 77
REMARK H PARENT 15 4 8 13 2 19 2 20 19 26 63 45 41 56
REMARK Flexibility Score: inf
ROOT
ATOM      1  C   UNL A   1      33.556  28.300  22.561  1.00  0.00     0.227 C 
ATOM      2  O   UNL A   1      34.364  28.308  21.624  1.00  0.00    -0.274 OA
ATOM      3  N   UNL A   1      33.994  28.841  23.723  1.00  0.00    -0.356 N 
ATOM      4  H   UNL A   1      34.942  29.108  23.706  1.00  0.00     0.163 HD
ENDROOT
BRANCH   1   5
ATOM      5  C   UNL A   1      32.143  27.748  22.325  1.00  0.00     0.103 C 
ATOM      6  C   UNL A   1      30.424  26.757  23.821  1.00  0.00     0.106 C 
ATOM      7  C   UNL A   1      30.129  28.162  23.450  1.00  0.00    -0.006 C 
ATOM      8  C   UNL A   1      31.711  26.450  23.013  1.00  0.00     0.047 C 
ATOM      9  C   UNL A   1      31.061  28.716  22.669  1.00  0.00    -0.016 C 
BRANCH   6  10
ATOM     10  N   UNL A   1      30.666  26.519  25.237  1.00  0.00    -0.350 N 
ATOM     11  C   UNL A   1      31.006  25.466  26.015  1.00  0.00     0.220 C 
ATOM     12  O   UNL A   1      31.426  25.739  27.146  1.00  0.00    -0.275 OA
ATOM     13  H   UNL A   1      30.552  27.340  25.768  1.00  0.00     0.164 HD
BRANCH  11  14
ATOM     14  C   UNL A   1      30.811  24.024  25.615  1.00  0.00     0.106 C 
BRANCH  14  15
ATOM     15  C   UNL A   1      32.121  23.381  25.136  1.00  0.00     0.071 C 
BRANCH  15  16
ATOM     16  C   UNL A   1      32.015  22.363  23.995  1.00  0.00     0.260 C 
BRANCH  16  17
ATOM     17  N   UNL A   1      31.893  22.998  22.683  1.00  0.00    -0.349 N 
ATOM     18  C   UNL A   1      33.198  23.178  22.056  1.00  0.00     0.330 C 
ATOM     19  H   UNL A   1      31.314  22.411  22.083  1.00  0.00     0.346 HD
ATOM     20  H   UNL A   1      31.468  23.916  22.810  1.00  0.00     0.346 HD
ENDBRANCH  16  17
ENDBRANCH  15  16
ENDBRANCH  14  15
ENDBRANCH  11  14
ENDBRANCH   6  10
ENDBRANCH   1   5
BRANCH   3  21
ATOM     21  C   UNL A   1      33.336  29.103  24.986  1.00  0.00     0.117 C 
BRANCH  21  22
ATOM     22  C   UNL A   1      33.820  28.192  26.106  1.00  0.00     0.042 C 
BRANCH  22  23
ATOM     23  C   UNL A   1      33.387  28.631  27.500  1.00  0.00     0.118 C 
BRANCH  23  24
ATOM     24  N   UNL A   1      33.515  30.065  27.716  1.00  0.00    -0.352 N 
ATOM     25  C   UNL A   1      34.580  30.801  28.180  1.00  0.00     0.251 C 
ATOM     26  H   UNL A   1      32.712  30.592  27.496  1.00  0.00     0.163 HD
ATOM     27  O   UNL A   1      34.430  31.994  28.434  1.00  0.00    -0.269 OA
BRANCH  25  28
ATOM     28  C   UNL A   1      35.897  30.164  28.405  1.00  0.00     0.039 A 
ATOM     29  C   UNL A   1      36.832  30.160  27.366  1.00  0.00     0.014 A 
ATOM     30  C   UNL A   1      36.215  29.567  29.627  1.00  0.00     0.014 A 
ATOM     31  C   UNL A   1      38.109  29.636  27.582  1.00  0.00     0.010 A 
ATOM     32  C   UNL A   1      37.515  29.131  29.870  1.00  0.00     0.010 A 
ATOM     33  C   UNL A   1      38.479  29.162  28.851  1.00  0.00    -0.014 A 
BRANCH  33  34
ATOM     34  C   UNL A   1      39.864  28.707  29.137  1.00  0.00     0.031 A 
ATOM     35  C   UNL A   1      40.851  29.633  29.795  1.00  0.00     0.074 A 
ATOM     36  C   UNL A   1      40.259  27.479  28.741  1.00  0.00     0.049 A 
ATOM     37  N   UNL A   1      42.120  29.442  30.054  1.00  0.00    -0.248 NA
ATOM     38  C   UNL A   1      40.353  30.961  30.191  1.00  0.00     0.031 C 
ATOM     39  C   UNL A   1      39.416  26.493  28.063  1.00  0.00     0.029 A 
ATOM     40  N   UNL A   1      41.478  26.854  28.845  1.00  0.00    -0.354 N 
ATOM     41  C   UNL A   1      42.573  30.624  30.624  1.00  0.00     0.074 A 
ATOM     42  C   UNL A   1      41.459  31.546  30.625  1.00  0.00     0.031 C 
ATOM     43  C   UNL A   1      40.132  25.379  27.841  1.00  0.00     0.029 A 
ATOM     44  C   UNL A   1      41.496  25.587  28.312  1.00  0.00     0.049 A 
ATOM     45  H   UNL A   1      42.265  27.274  29.262  1.00  0.00     0.167 HD
ATOM     46  C   UNL A   1      43.799  30.913  31.122  1.00  0.00     0.031 A 
ATOM     47  C   UNL A   1      42.500  24.697  28.202  1.00  0.00     0.031 A 
ATOM     48  C   UNL A   1      44.908  29.995  31.126  1.00  0.00     0.049 A 
ATOM     49  C   UNL A   1      43.862  25.056  28.729  1.00  0.00     0.074 A 
ATOM     50  C   UNL A   1      46.174  30.177  31.655  1.00  0.00     0.029 A 
ATOM     51  N   UNL A   1      44.884  28.725  30.571  1.00  0.00    -0.354 N 
ATOM     52  N   UNL A   1      44.256  26.155  29.326  1.00  0.00    -0.248 NA
ATOM     53  C   UNL A   1      44.919  24.045  28.573  1.00  0.00     0.031 C 
ATOM     54  C   UNL A   1      46.936  29.041  31.365  1.00  0.00     0.029 A 
ATOM     55  C   UNL A   1      46.124  28.125  30.716  1.00  0.00     0.049 A 
ATOM     56  H   UNL A   1      44.103  28.312  30.139  1.00  0.00     0.167 HD
ATOM     57  C   UNL A   1      45.593  25.956  29.643  1.00  0.00     0.074 A 
ATOM     58  C   UNL A   1      45.939  24.626  29.187  1.00  0.00     0.031 C 
ATOM     59  C   UNL A   1      46.456  26.800  30.258  1.00  0.00     0.031 A 
BRANCH  46  60
ATOM     60  C   UNL A   1      44.010  32.287  31.697  1.00  0.00    -0.014 A 
ATOM     61  C   UNL A   1      43.777  32.554  33.056  1.00  0.00     0.009 A 
ATOM     62  C   UNL A   1      44.484  33.323  30.876  1.00  0.00     0.009 A 
ATOM     63  C   UNL A   1      43.976  33.837  33.571  1.00  0.00     0.001 A 
ATOM     64  C   UNL A   1      44.713  34.596  31.401  1.00  0.00     0.001 A 
ATOM     65  C   UNL A   1      44.448  34.855  32.745  1.00  0.00     0.000 A 
ENDBRANCH  46  60
BRANCH  47  66
ATOM     66  C   UNL A   1      42.258  23.372  27.571  1.00  0.00    -0.014 A 
ATOM     67  C   UNL A   1      42.589  23.153  26.224  1.00  0.00     0.009 A 
ATOM     68  C   UNL A   1      41.681  22.324  28.304  1.00  0.00     0.009 A 
ATOM     69  C   UNL A   1      42.323  21.923  25.619  1.00  0.00     0.001 A 
ATOM     70  C   UNL A   1      41.446  21.083  27.706  1.00  0.00     0.001 A 
ATOM     71  C   UNL A   1      41.757  20.888  26.361  1.00  0.00     0.000 A 
ENDBRANCH  47  66
BRANCH  59  72
ATOM     72  C   UNL A   1      47.851  26.300  30.510  1.00  0.00    -0.014 A 
ATOM     73  C   UNL A   1      48.845  26.372  29.522  1.00  0.00     0.009 A 
ATOM     74  C   UNL A   1      48.187  25.789  31.774  1.00  0.00     0.009 A 
ATOM     75  C   UNL A   1      50.138  25.916  29.786  1.00  0.00     0.001 A 
ATOM     76  C   UNL A   1      49.488  25.363  32.046  1.00  0.00     0.001 A 
ATOM     77  C   UNL A   1      50.459  25.417  31.049  1.00  0.00     0.000 A 
ENDBRANCH  59  72
ENDBRANCH  33  34
ENDBRANCH  25  28
ENDBRANCH  23  24
ENDBRANCH  22  23
ENDBRANCH  21  22
ENDBRANCH   3  21
TORSDOF 15
ENDMDL
MODEL 3
REMARK VINA RESULT:      -9.9      4.964      9.784
REMARK SMILES C[NH2+]CCCC(=O)N[C@H]1C=C[C@@H](C(=O)NCCCNC(=O)c2ccc(-c3c4nc(c(-c5ccccc5)c5ccc([nH]5)c(-c5ccccc5)c5nc(c(-c6ccccc6)c6ccc3[nH]6)C=C5)C=C4)cc2)C1
REMARK SMILES IDX 13 1 14 2 15 3 12 5 9 6 10 7 70 8 11 9 8 10 6 11 7 12 5 14
REMARK SMILES IDX 4 15 3 16 2 17 1 18 16 21 17 22 18 23 19 24 20 25 21 27
REMARK SMILES IDX 22 28 23 29 69 30 24 31 68 32 25 33 26 34 27 35 62 36 28 37
REMARK SMILES IDX 67 38 61 39 63 40 29 41 66 42 60 43 59 44 30 46 52 47 37 48
REMARK SMILES IDX 51 49 38 50 41 51 50 52 64 53 39 54 40 55 49 57 65 58 42 59
REMARK SMILES IDX 31 60 32 61 36 62 33 63 35 64 34 65 53 66 54 67 58 68 55 69
REMARK SMILES IDX 57 70 56 71 43 72 44 73 48 74 45 75 47 76 46 77
REMARK H PARENT 15 4 8 13 2 19 2 20 19 26 63 45 41 56
REMARK Flexibility Score: inf
ROOT
ATOM      1  C   UNL A   1      34.229  20.818  25.774  1.00  0.00     0.227 C 
ATOM      2  O   UNL A   1      33.236  20.082  25.710  1.00  0.00    -0.274 OA
ATOM      3  N   UNL A   1      35.366  20.324  25.227  1.00  0.00    -0.356 N 
ATOM      4  H   UNL A   1      35.285  19.395  24.910  1.00  0.00     0.163 HD
ENDROOT
BRANCH   1   5
ATOM      5  C   UNL A   1      34.087  22.213  26.396  1.00  0.00     0.103 C 
ATOM      6  C   UNL A   1      32.516  24.101  26.020  1.00  0.00     0.106 C 
ATOM      7  C   UNL A   1      32.209  23.328  27.247  1.00  0.00    -0.006 C 
ATOM      8  C   UNL A   1      33.806  23.421  25.497  1.00  0.00     0.047 C 
ATOM      9  C   UNL A   1      33.030  22.293  27.446  1.00  0.00    -0.016 C 
BRANCH   6  10
ATOM     10  N   UNL A   1      31.491  24.069  24.984  1.00  0.00    -0.350 N 
ATOM     11  C   UNL A   1      30.696  24.965  24.357  1.00  0.00     0.220 C 
ATOM     12  O   UNL A   1      30.175  24.585  23.302  1.00  0.00    -0.275 OA
ATOM     13  H   UNL A   1      31.337  23.154  24.655  1.00  0.00     0.164 HD
BRANCH  11  14
ATOM     14  C   UNL A   1      30.352  26.324  24.917  1.00  0.00     0.106 C 
BRANCH  14  15
ATOM     15  C   UNL A   1      31.358  27.397  24.471  1.00  0.00     0.071 C 
BRANCH  15  16
ATOM     16  C   UNL A   1      30.777  28.673  23.851  1.00  0.00     0.260 C 
BRANCH  16  17
ATOM     17  N   UNL A   1      31.097  29.872  24.626  1.00  0.00    -0.349 N 
ATOM     18  C   UNL A   1      32.337  29.704  25.377  1.00  0.00     0.330 C 
ATOM     19  H   UNL A   1      31.199  30.661  23.989  1.00  0.00     0.346 HD
ATOM     20  H   UNL A   1      30.340  30.037  25.289  1.00  0.00     0.346 HD
ENDBRANCH  16  17
ENDBRANCH  15  16
ENDBRANCH  14  15
ENDBRANCH  11  14
ENDBRANCH   6  10
ENDBRANCH   1   5
BRANCH   3  21
ATOM     21  C   UNL A   1      36.678  20.900  25.018  1.00  0.00     0.117 C 
BRANCH  21  22
ATOM     22  C   UNL A   1      37.785  19.855  24.992  1.00  0.00     0.042 C 
BRANCH  22  23
ATOM     23  C   UNL A   1      39.044  20.261  25.750  1.00  0.00     0.118 C 
BRANCH  23  24
ATOM     24  N   UNL A   1      40.042  19.204  25.815  1.00  0.00    -0.352 N 
ATOM     25  C   UNL A   1      41.397  19.276  26.037  1.00  0.00     0.251 C 
ATOM     26  H   UNL A   1      39.693  18.293  25.680  1.00  0.00     0.163 HD
ATOM     27  O   UNL A   1      42.090  18.269  25.902  1.00  0.00    -0.269 OA
BRANCH  25  28
ATOM     28  C   UNL A   1      42.035  20.559  26.407  1.00  0.00     0.039 A 
ATOM     29  C   UNL A   1      42.478  21.411  25.391  1.00  0.00     0.014 A 
ATOM     30  C   UNL A   1      42.205  20.926  27.745  1.00  0.00     0.014 A 
ATOM     31  C   UNL A   1      43.009  22.663  25.716  1.00  0.00     0.010 A 
ATOM     32  C   UNL A   1      42.648  22.207  28.063  1.00  0.00     0.010 A 
ATOM     33  C   UNL A   1      43.053  23.092  27.052  1.00  0.00    -0.014 A 
BRANCH  33  34
ATOM     34  C   UNL A   1      43.506  24.460  27.414  1.00  0.00     0.031 A 
ATOM     35  C   UNL A   1      42.512  25.503  27.850  1.00  0.00     0.074 A 
ATOM     36  C   UNL A   1      44.807  24.790  27.283  1.00  0.00     0.049 A 
ATOM     37  N   UNL A   1      42.708  26.767  28.130  1.00  0.00    -0.248 NA
ATOM     38  C   UNL A   1      41.107  25.076  27.962  1.00  0.00     0.031 C 
ATOM     39  C   UNL A   1      45.871  23.888  26.837  1.00  0.00     0.029 A 
ATOM     40  N   UNL A   1      45.456  25.981  27.503  1.00  0.00    -0.354 N 
ATOM     41  C   UNL A   1      41.456  27.286  28.433  1.00  0.00     0.074 A 
ATOM     42  C   UNL A   1      40.499  26.216  28.250  1.00  0.00     0.031 C 
ATOM     43  C   UNL A   1      47.041  24.546  26.849  1.00  0.00     0.029 A 
ATOM     44  C   UNL A   1      46.806  25.928  27.250  1.00  0.00     0.049 A 
ATOM     45  H   UNL A   1      44.997  26.794  27.814  1.00  0.00     0.167 HD
ATOM     46  C   UNL A   1      41.130  28.534  28.846  1.00  0.00     0.031 A 
ATOM     47  C   UNL A   1      47.749  26.888  27.321  1.00  0.00     0.031 A 
ATOM     48  C   UNL A   1      42.080  29.599  29.032  1.00  0.00     0.049 A 
ATOM     49  C   UNL A   1      47.355  28.275  27.745  1.00  0.00     0.074 A 
ATOM     50  C   UNL A   1      41.854  30.883  29.497  1.00  0.00     0.029 A 
ATOM     51  N   UNL A   1      43.436  29.505  28.759  1.00  0.00    -0.354 N 
ATOM     52  N   UNL A   1      46.176  28.732  28.092  1.00  0.00    -0.248 NA
ATOM     53  C   UNL A   1      48.427  29.280  27.795  1.00  0.00     0.031 C 
ATOM     54  C   UNL A   1      43.062  31.585  29.446  1.00  0.00     0.029 A 
ATOM     55  C   UNL A   1      44.053  30.718  29.015  1.00  0.00     0.049 A 
ATOM     56  H   UNL A   1      43.891  28.696  28.432  1.00  0.00     0.167 HD
ATOM     57  C   UNL A   1      46.370  30.064  28.430  1.00  0.00     0.074 A 
ATOM     58  C   UNL A   1      47.781  30.339  28.262  1.00  0.00     0.031 C 
ATOM     59  C   UNL A   1      45.459  30.979  28.843  1.00  0.00     0.031 A 
BRANCH  46  60
ATOM     60  C   UNL A   1      39.677  28.820  29.114  1.00  0.00    -0.014 A 
ATOM     61  C   UNL A   1      39.116  28.615  30.385  1.00  0.00     0.009 A 
ATOM     62  C   UNL A   1      38.866  29.338  28.092  1.00  0.00     0.009 A 
ATOM     63  C   UNL A   1      37.764  28.884  30.615  1.00  0.00     0.001 A 
ATOM     64  C   UNL A   1      37.524  29.638  28.334  1.00  0.00     0.001 A 
ATOM     65  C   UNL A   1      36.971  29.400  29.591  1.00  0.00     0.000 A 
ENDBRANCH  46  60
BRANCH  47  66
ATOM     66  C   UNL A   1      49.163  26.571  26.986  1.00  0.00    -0.014 A 
ATOM     67  C   UNL A   1      49.620  26.660  25.661  1.00  0.00     0.009 A 
ATOM     68  C   UNL A   1      50.062  26.165  27.985  1.00  0.00     0.009 A 
ATOM     69  C   UNL A   1      50.936  26.322  25.340  1.00  0.00     0.001 A 
ATOM     70  C   UNL A   1      51.387  25.859  27.666  1.00  0.00     0.001 A 
ATOM     71  C   UNL A   1      51.820  25.927  26.344  1.00  0.00     0.000 A 
ENDBRANCH  47  66
BRANCH  59  72
ATOM     72  C   UNL A   1      45.964  32.354  29.181  1.00  0.00    -0.014 A 
ATOM     73  C   UNL A   1      46.383  32.682  30.480  1.00  0.00     0.009 A 
ATOM     74  C   UNL A   1      46.064  33.323  28.170  1.00  0.00     0.009 A 
ATOM     75  C   UNL A   1      46.863  33.962  30.764  1.00  0.00     0.001 A 
ATOM     76  C   UNL A   1      46.574  34.592  28.450  1.00  0.00     0.001 A 
ATOM     77  C   UNL A   1      46.963  34.913  29.749  1.00  0.00     0.000 A 
ENDBRANCH  59  72
ENDBRANCH  33  34
ENDBRANCH  25  28
ENDBRANCH  23  24
ENDBRANCH  22  23
ENDBRANCH  21  22
ENDBRANCH   3  21
TORSDOF 15
ENDMDL
