MODEL 1
REMARK VINA RESULT:     -10.9      0.000      0.000
REMARK SMILES CCC(CC)(NC(=O)N(C)[C@H]1CCC[C@H](C)C1)C(=O)NCCCNC(=O)c1ccc(-c2c3nc(c(-c4ccccc4)c4ccc([nH]4)c(-c4ccccc4)c4nc(c(-c5ccccc5)c5ccc2[nH]5)C=C4)C=C3)cc1
REMARK SMILES IDX 21 1 20 2 18 3 19 4 3 6 2 7 1 8 4 9 5 10 6 11 7 12 8 14 9 15
REMARK SMILES IDX 10 16 11 17 12 18 17 19 13 20 15 21 14 22 16 23 22 24 23 25
REMARK SMILES IDX 24 26 25 27 26 29 27 30 28 31 74 32 29 33 73 34 30 35 31 36
REMARK SMILES IDX 32 37 67 38 33 39 72 40 66 41 68 42 34 43 71 44 65 45 64 46
REMARK SMILES IDX 35 48 57 49 42 50 56 51 43 52 46 53 55 54 69 55 44 56 45 57
REMARK SMILES IDX 54 59 70 60 47 61 36 62 37 63 41 64 38 65 40 66 39 67 58 68
REMARK SMILES IDX 59 69 63 70 60 71 62 72 61 73 48 74 49 75 53 76 50 77 52 78
REMARK SMILES IDX 51 79
REMARK H PARENT 20 5 6 13 24 28 68 47 46 58
REMARK Flexibility Score: inf
ROOT
ATOM      1  C   UNL A   1      36.094  21.070  24.949  1.00  0.00     0.117 C 
ENDROOT
BRANCH   1   2
ATOM      2  N   UNL A   1      35.399  21.116  26.236  1.00  0.00    -0.354 N 
ATOM      3  C   UNL A   1      34.198  21.662  26.628  1.00  0.00     0.245 C 
ATOM      4  O   UNL A   1      33.738  21.230  27.690  1.00  0.00    -0.272 OA
ATOM      5  H   UNL A   1      35.888  20.668  26.964  1.00  0.00     0.163 HD
BRANCH   3   6
ATOM      6  C   UNL A   1      33.394  22.671  25.725  1.00  0.00     0.120 C 
BRANCH   6   7
ATOM      7  C   UNL A   1      33.094  22.316  24.231  1.00  0.00     0.035 C 
ATOM      8  C   UNL A   1      32.551  20.926  23.937  1.00  0.00     0.007 C 
ENDBRANCH   6   7
BRANCH   6   9
ATOM      9  C   UNL A   1      34.323  23.944  25.702  1.00  0.00     0.035 C 
ATOM     10  C   UNL A   1      34.756  24.491  24.347  1.00  0.00     0.007 C 
ENDBRANCH   6   9
BRANCH   6  11
ATOM     11  N   UNL A   1      32.096  22.892  26.410  1.00  0.00    -0.323 N 
ATOM     12  C   UNL A   1      31.195  23.909  26.483  1.00  0.00     0.318 C 
ATOM     13  H   UNL A   1      31.820  22.113  26.943  1.00  0.00     0.166 HD
ATOM     14  O   UNL A   1      30.222  23.680  27.210  1.00  0.00    -0.249 OA
BRANCH  12  15
ATOM     15  N   UNL A   1      31.250  25.045  25.701  1.00  0.00    -0.325 N 
ATOM     16  C   UNL A   1      31.942  26.281  26.019  1.00  0.00     0.149 C 
BRANCH  15  17
ATOM     17  C   UNL A   1      30.424  25.066  24.456  1.00  0.00     0.086 C 
ATOM     18  C   UNL A   1      29.490  26.281  24.324  1.00  0.00     0.025 C 
ATOM     19  C   UNL A   1      31.225  24.845  23.154  1.00  0.00     0.028 C 
ATOM     20  C   UNL A   1      30.134  27.528  23.717  1.00  0.00     0.002 C 
ATOM     21  C   UNL A   1      31.891  26.091  22.557  1.00  0.00    -0.012 C 
ATOM     22  C   UNL A   1      30.903  27.249  22.425  1.00  0.00     0.003 C 
ATOM     23  C   UNL A   1      32.546  25.748  21.217  1.00  0.00     0.008 C 
ENDBRANCH  15  17
ENDBRANCH  12  15
ENDBRANCH   6  11
ENDBRANCH   3   6
ENDBRANCH   1   2
BRANCH   1  24
ATOM     24  C   UNL A   1      37.300  20.143  24.853  1.00  0.00     0.042 C 
BRANCH  24  25
ATOM     25  C   UNL A   1      38.545  20.573  25.609  1.00  0.00     0.118 C 
BRANCH  25  26
ATOM     26  N   UNL A   1      39.644  19.630  25.556  1.00  0.00    -0.352 N 
ATOM     27  C   UNL A   1      40.933  19.726  26.025  1.00  0.00     0.251 C 
ATOM     28  H   UNL A   1      39.432  18.779  25.108  1.00  0.00     0.163 HD
ATOM     29  O   UNL A   1      41.690  18.773  25.882  1.00  0.00    -0.269 OA
BRANCH  27  30
ATOM     30  C   UNL A   1      41.449  20.976  26.636  1.00  0.00     0.039 A 
ATOM     31  C   UNL A   1      42.019  21.919  25.775  1.00  0.00     0.014 A 
ATOM     32  C   UNL A   1      41.417  21.229  28.011  1.00  0.00     0.014 A 
ATOM     33  C   UNL A   1      42.479  23.140  26.274  1.00  0.00     0.010 A 
ATOM     34  C   UNL A   1      41.822  22.475  28.502  1.00  0.00     0.010 A 
ATOM     35  C   UNL A   1      42.345  23.448  27.637  1.00  0.00    -0.014 A 
BRANCH  35  36
ATOM     36  C   UNL A   1      42.714  24.800  28.133  1.00  0.00     0.031 A 
ATOM     37  C   UNL A   1      41.676  25.867  28.330  1.00  0.00     0.074 A 
ATOM     38  C   UNL A   1      44.007  25.072  28.401  1.00  0.00     0.049 A 
ATOM     39  N   UNL A   1      41.825  27.089  28.781  1.00  0.00    -0.248 NA
ATOM     40  C   UNL A   1      40.292  25.524  27.967  1.00  0.00     0.031 C 
ATOM     41  C   UNL A   1      45.120  24.135  28.233  1.00  0.00     0.029 A 
ATOM     42  N   UNL A   1      44.603  26.213  28.878  1.00  0.00    -0.354 N 
ATOM     43  C   UNL A   1      40.559  27.660  28.755  1.00  0.00     0.074 A 
ATOM     44  C   UNL A   1      39.661  26.667  28.205  1.00  0.00     0.031 C 
ATOM     45  C   UNL A   1      46.258  24.729  28.627  1.00  0.00     0.029 A 
ATOM     46  C   UNL A   1      45.963  26.098  29.039  1.00  0.00     0.049 A 
ATOM     47  H   UNL A   1      44.104  27.037  29.085  1.00  0.00     0.167 HD
ATOM     48  C   UNL A   1      40.176  28.893  29.164  1.00  0.00     0.031 A 
ATOM     49  C   UNL A   1      46.875  26.992  29.465  1.00  0.00     0.031 A 
ATOM     50  C   UNL A   1      41.065  29.889  29.705  1.00  0.00     0.049 A 
ATOM     51  C   UNL A   1      46.429  28.369  29.869  1.00  0.00     0.074 A 
ATOM     52  C   UNL A   1      40.756  31.148  30.191  1.00  0.00     0.029 A 
ATOM     53  N   UNL A   1      42.438  29.744  29.820  1.00  0.00    -0.354 N 
ATOM     54  N   UNL A   1      45.218  28.867  29.905  1.00  0.00    -0.248 NA
ATOM     55  C   UNL A   1      47.480  29.305  30.298  1.00  0.00     0.031 C 
ATOM     56  C   UNL A   1      41.948  31.787  30.547  1.00  0.00     0.029 A 
ATOM     57  C   UNL A   1      42.995  30.904  30.335  1.00  0.00     0.049 A 
ATOM     58  H   UNL A   1      42.945  28.937  29.572  1.00  0.00     0.167 HD
ATOM     59  C   UNL A   1      45.357  30.166  30.376  1.00  0.00     0.074 A 
ATOM     60  C   UNL A   1      46.767  30.371  30.635  1.00  0.00     0.031 C 
ATOM     61  C   UNL A   1      44.400  31.104  30.576  1.00  0.00     0.031 A 
BRANCH  48  62
ATOM     62  C   UNL A   1      38.720  29.246  29.029  1.00  0.00    -0.014 A 
ATOM     63  C   UNL A   1      37.827  29.068  30.097  1.00  0.00     0.009 A 
ATOM     64  C   UNL A   1      38.246  29.809  27.833  1.00  0.00     0.009 A 
ATOM     65  C   UNL A   1      36.481  29.415  29.958  1.00  0.00     0.001 A 
ATOM     66  C   UNL A   1      36.906  30.179  27.706  1.00  0.00     0.001 A 
ATOM     67  C   UNL A   1      36.023  29.974  28.765  1.00  0.00     0.000 A 
ENDBRANCH  48  62
BRANCH  49  68
ATOM     68  C   UNL A   1      48.312  26.616  29.529  1.00  0.00    -0.014 A 
ATOM     69  C   UNL A   1      49.151  26.806  28.422  1.00  0.00     0.009 A 
ATOM     70  C   UNL A   1      48.848  26.055  30.700  1.00  0.00     0.009 A 
ATOM     71  C   UNL A   1      50.493  26.420  28.477  1.00  0.00     0.001 A 
ATOM     72  C   UNL A   1      50.196  25.696  30.762  1.00  0.00     0.001 A 
ATOM     73  C   UNL A   1      51.014  25.870  29.647  1.00  0.00     0.000 A 
ENDBRANCH  49  68
BRANCH  61  74
ATOM     74  C   UNL A   1      44.846  32.435  31.115  1.00  0.00    -0.014 A 
ATOM     75  C   UNL A   1      44.943  32.664  32.496  1.00  0.00     0.009 A 
ATOM     76  C   UNL A   1      45.202  33.463  30.229  1.00  0.00     0.009 A 
ATOM     77  C   UNL A   1      45.357  33.907  32.979  1.00  0.00     0.001 A 
ATOM     78  C   UNL A   1      45.643  34.696  30.714  1.00  0.00     0.001 A 
ATOM     79  C   UNL A   1      45.711  34.919  32.088  1.00  0.00     0.000 A 
ENDBRANCH  61  74
ENDBRANCH  35  36
ENDBRANCH  27  30
ENDBRANCH  25  26
ENDBRANCH  24  25
ENDBRANCH   1  24
TORSDOF 15
ENDMDL
MODEL 2
REMARK VINA RESULT:     -10.9      0.654      6.066
REMARK SMILES CCC(CC)(NC(=O)N(C)[C@H]1CCC[C@H](C)C1)C(=O)NCCCNC(=O)c1ccc(-c2c3nc(c(-c4ccccc4)c4ccc([nH]4)c(-c4ccccc4)c4nc(c(-c5ccccc5)c5ccc2[nH]5)C=C4)C=C3)cc1
REMARK SMILES IDX 21 1 20 2 18 3 19 4 3 6 2 7 1 8 4 9 5 10 6 11 7 12 8 14 9 15
REMARK SMILES IDX 10 16 11 17 12 18 17 19 13 20 15 21 14 22 16 23 22 24 23 25
REMARK SMILES IDX 24 26 25 27 26 29 27 30 28 31 74 32 29 33 73 34 30 35 31 36
REMARK SMILES IDX 32 37 67 38 33 39 72 40 66 41 68 42 34 43 71 44 65 45 64 46
REMARK SMILES IDX 35 48 57 49 42 50 56 51 43 52 46 53 55 54 69 55 44 56 45 57
REMARK SMILES IDX 54 59 70 60 47 61 36 62 37 63 41 64 38 65 40 66 39 67 58 68
REMARK SMILES IDX 59 69 63 70 60 71 62 72 61 73 48 74 49 75 53 76 50 77 52 78
REMARK SMILES IDX 51 79
REMARK H PARENT 20 5 6 13 24 28 68 47 46 58
REMARK Flexibility Score: inf
ROOT
ATOM      1  C   UNL A   1      36.313  20.794  24.943  1.00  0.00     0.117 C 
ENDROOT
BRANCH   1   2
ATOM      2  N   UNL A   1      35.659  21.058  26.225  1.00  0.00    -0.354 N 
ATOM      3  C   UNL A   1      34.476  21.679  26.558  1.00  0.00     0.245 C 
ATOM      4  O   UNL A   1      34.045  21.432  27.689  1.00  0.00    -0.272 OA
ATOM      5  H   UNL A   1      36.164  20.725  27.001  1.00  0.00     0.163 HD
BRANCH   3   6
ATOM      6  C   UNL A   1      33.657  22.543  25.527  1.00  0.00     0.120 C 
BRANCH   6   7
ATOM      7  C   UNL A   1      33.099  21.883  24.223  1.00  0.00     0.035 C 
ATOM      8  C   UNL A   1      32.610  20.446  24.319  1.00  0.00     0.007 C 
ENDBRANCH   6   7
BRANCH   6   9
ATOM      9  C   UNL A   1      34.702  23.628  25.064  1.00  0.00     0.035 C 
ATOM     10  C   UNL A   1      34.952  23.792  23.570  1.00  0.00     0.007 C 
ENDBRANCH   6   9
BRANCH   6  11
ATOM     11  N   UNL A   1      32.508  23.104  26.282  1.00  0.00    -0.323 N 
ATOM     12  C   UNL A   1      31.590  24.086  26.070  1.00  0.00     0.318 C 
ATOM     13  H   UNL A   1      32.380  22.657  27.149  1.00  0.00     0.166 HD
ATOM     14  O   UNL A   1      30.791  24.248  26.998  1.00  0.00    -0.249 OA
BRANCH  12  15
ATOM     15  N   UNL A   1      31.437  24.751  24.870  1.00  0.00    -0.325 N 
ATOM     16  C   UNL A   1      30.594  24.348  23.759  1.00  0.00     0.149 C 
BRANCH  15  17
ATOM     17  C   UNL A   1      32.306  25.941  24.626  1.00  0.00     0.086 C 
ATOM     18  C   UNL A   1      31.822  26.871  23.501  1.00  0.00     0.025 C 
ATOM     19  C   UNL A   1      32.654  26.749  25.895  1.00  0.00     0.028 C 
ATOM     20  C   UNL A   1      30.793  27.919  23.926  1.00  0.00     0.002 C 
ATOM     21  C   UNL A   1      31.611  27.785  26.337  1.00  0.00    -0.012 C 
ATOM     22  C   UNL A   1      31.197  28.694  25.181  1.00  0.00     0.003 C 
ATOM     23  C   UNL A   1      32.137  28.587  27.529  1.00  0.00     0.008 C 
ENDBRANCH  15  17
ENDBRANCH  12  15
ENDBRANCH   6  11
ENDBRANCH   3   6
ENDBRANCH   1   2
BRANCH   1  24
ATOM     24  C   UNL A   1      37.507  19.846  24.964  1.00  0.00     0.042 C 
BRANCH  24  25
ATOM     25  C   UNL A   1      38.737  20.326  25.714  1.00  0.00     0.118 C 
BRANCH  25  26
ATOM     26  N   UNL A   1      39.876  19.434  25.645  1.00  0.00    -0.352 N 
ATOM     27  C   UNL A   1      41.169  19.592  26.087  1.00  0.00     0.251 C 
ATOM     28  H   UNL A   1      39.695  18.570  25.208  1.00  0.00     0.163 HD
ATOM     29  O   UNL A   1      41.966  18.673  25.935  1.00  0.00    -0.269 OA
BRANCH  27  30
ATOM     30  C   UNL A   1      41.639  20.868  26.678  1.00  0.00     0.039 A 
ATOM     31  C   UNL A   1      42.125  21.840  25.796  1.00  0.00     0.014 A 
ATOM     32  C   UNL A   1      41.646  21.122  28.054  1.00  0.00     0.014 A 
ATOM     33  C   UNL A   1      42.537  23.084  26.278  1.00  0.00     0.010 A 
ATOM     34  C   UNL A   1      42.001  22.389  28.530  1.00  0.00     0.010 A 
ATOM     35  C   UNL A   1      42.438  23.387  27.645  1.00  0.00    -0.014 A 
BRANCH  35  36
ATOM     36  C   UNL A   1      42.753  24.758  28.128  1.00  0.00     0.031 A 
ATOM     37  C   UNL A   1      44.163  25.163  28.451  1.00  0.00     0.074 A 
ATOM     38  C   UNL A   1      41.752  25.646  28.286  1.00  0.00     0.049 A 
ATOM     39  N   UNL A   1      44.614  26.326  28.857  1.00  0.00    -0.248 NA
ATOM     40  C   UNL A   1      45.201  24.131  28.310  1.00  0.00     0.031 C 
ATOM     41  C   UNL A   1      40.335  25.377  28.032  1.00  0.00     0.029 A 
ATOM     42  N   UNL A   1      41.772  26.957  28.694  1.00  0.00    -0.354 N 
ATOM     43  C   UNL A   1      45.983  26.166  29.020  1.00  0.00     0.074 A 
ATOM     44  C   UNL A   1      46.285  24.784  28.711  1.00  0.00     0.031 C 
ATOM     45  C   UNL A   1      39.627  26.495  28.260  1.00  0.00     0.029 A 
ATOM     46  C   UNL A   1      40.531  27.547  28.714  1.00  0.00     0.049 A 
ATOM     47  H   UNL A   1      42.598  27.430  28.948  1.00  0.00     0.167 HD
ATOM     48  C   UNL A   1      46.908  27.088  29.381  1.00  0.00     0.031 A 
ATOM     49  C   UNL A   1      40.157  28.793  29.063  1.00  0.00     0.031 A 
ATOM     50  C   UNL A   1      46.615  28.461  29.698  1.00  0.00     0.049 A 
ATOM     51  C   UNL A   1      41.199  29.782  29.504  1.00  0.00     0.074 A 
ATOM     52  C   UNL A   1      47.496  29.478  30.025  1.00  0.00     0.029 A 
ATOM     53  N   UNL A   1      45.342  29.009  29.737  1.00  0.00    -0.354 N 
ATOM     54  N   UNL A   1      42.498  29.632  29.583  1.00  0.00    -0.248 NA
ATOM     55  C   UNL A   1      40.719  31.116  29.897  1.00  0.00     0.031 C 
ATOM     56  C   UNL A   1      46.753  30.626  30.319  1.00  0.00     0.029 A 
ATOM     57  C   UNL A   1      45.412  30.339  30.120  1.00  0.00     0.049 A 
ATOM     58  H   UNL A   1      44.511  28.525  29.526  1.00  0.00     0.167 HD
ATOM     59  C   UNL A   1      42.993  30.855  30.018  1.00  0.00     0.074 A 
ATOM     60  C   UNL A   1      41.857  31.742  30.162  1.00  0.00     0.031 C 
ATOM     61  C   UNL A   1      44.275  31.210  30.274  1.00  0.00     0.031 A 
BRANCH  48  62
ATOM     62  C   UNL A   1      48.340  26.634  29.469  1.00  0.00    -0.014 A 
ATOM     63  C   UNL A   1      48.852  26.071  30.648  1.00  0.00     0.009 A 
ATOM     64  C   UNL A   1      49.172  26.727  28.343  1.00  0.00     0.009 A 
ATOM     65  C   UNL A   1      50.180  25.641  30.707  1.00  0.00     0.001 A 
ATOM     66  C   UNL A   1      50.491  26.272  28.397  1.00  0.00     0.001 A 
ATOM     67  C   UNL A   1      50.996  25.738  29.581  1.00  0.00     0.000 A 
ENDBRANCH  48  62
BRANCH  49  68
ATOM     68  C   UNL A   1      38.723  29.179  29.013  1.00  0.00    -0.014 A 
ATOM     69  C   UNL A   1      37.904  29.036  30.143  1.00  0.00     0.009 A 
ATOM     70  C   UNL A   1      38.164  29.687  27.829  1.00  0.00     0.009 A 
ATOM     71  C   UNL A   1      36.549  29.371  30.081  1.00  0.00     0.001 A 
ATOM     72  C   UNL A   1      36.816  30.046  27.778  1.00  0.00     0.001 A 
ATOM     73  C   UNL A   1      36.007  29.878  28.902  1.00  0.00     0.000 A 
ENDBRANCH  49  68
BRANCH  61  74
ATOM     74  C   UNL A   1      44.520  32.624  30.724  1.00  0.00    -0.014 A 
ATOM     75  C   UNL A   1      44.556  32.955  32.087  1.00  0.00     0.009 A 
ATOM     76  C   UNL A   1      44.748  33.630  29.772  1.00  0.00     0.009 A 
ATOM     77  C   UNL A   1      44.783  34.275  32.487  1.00  0.00     0.001 A 
ATOM     78  C   UNL A   1      45.003  34.942  30.176  1.00  0.00     0.001 A 
ATOM     79  C   UNL A   1      45.011  35.264  31.532  1.00  0.00     0.000 A 
ENDBRANCH  61  74
ENDBRANCH  35  36
ENDBRANCH  27  30
ENDBRANCH  25  26
ENDBRANCH  24  25
ENDBRANCH   1  24
TORSDOF 15
ENDMDL
MODEL 3
REMARK VINA RESULT:     -10.7      4.239      8.737
REMARK SMILES CCC(CC)(NC(=O)N(C)[C@H]1CCC[C@H](C)C1)C(=O)NCCCNC(=O)c1ccc(-c2c3nc(c(-c4ccccc4)c4ccc([nH]4)c(-c4ccccc4)c4nc(c(-c5ccccc5)c5ccc2[nH]5)C=C4)C=C3)cc1
REMARK SMILES IDX 21 1 20 2 18 3 19 4 3 6 2 7 1 8 4 9 5 10 6 11 7 12 8 14 9 15
REMARK SMILES IDX 10 16 11 17 12 18 17 19 13 20 15 21 14 22 16 23 22 24 23 25
REMARK SMILES IDX 24 26 25 27 26 29 27 30 28 31 74 32 29 33 73 34 30 35 31 36
REMARK SMILES IDX 32 37 67 38 33 39 72 40 66 41 68 42 34 43 71 44 65 45 64 46
REMARK SMILES IDX 35 48 57 49 42 50 56 51 43 52 46 53 55 54 69 55 44 56 45 57
REMARK SMILES IDX 54 59 70 60 47 61 36 62 37 63 41 64 38 65 40 66 39 67 58 68
REMARK SMILES IDX 59 69 63 70 60 71 62 72 61 73 48 74 49 75 53 76 50 77 52 78
REMARK SMILES IDX 51 79
REMARK H PARENT 20 5 6 13 24 28 68 47 46 58
REMARK Flexibility Score: inf
ROOT
ATOM      1  C   UNL A   1      31.593  30.246  25.947  1.00  0.00     0.117 C 
ENDROOT
BRANCH   1   2
ATOM      2  N   UNL A   1      32.640  30.040  24.947  1.00  0.00    -0.354 N 
ATOM      3  C   UNL A   1      32.914  29.003  24.083  1.00  0.00     0.245 C 
ATOM      4  O   UNL A   1      33.652  29.282  23.133  1.00  0.00    -0.272 OA
ATOM      5  H   UNL A   1      33.273  30.791  24.877  1.00  0.00     0.163 HD
BRANCH   3   6
ATOM      6  C   UNL A   1      32.231  27.591  24.218  1.00  0.00     0.120 C 
BRANCH   6   7
ATOM      7  C   UNL A   1      30.671  27.474  24.240  1.00  0.00     0.035 C 
ATOM      8  C   UNL A   1      29.903  28.143  23.110  1.00  0.00     0.007 C 
ENDBRANCH   6   7
BRANCH   6   9
ATOM      9  C   UNL A   1      32.735  27.086  25.624  1.00  0.00     0.035 C 
ATOM     10  C   UNL A   1      31.692  26.640  26.641  1.00  0.00     0.007 C 
ENDBRANCH   6   9
BRANCH   6  11
ATOM     11  N   UNL A   1      32.733  26.781  23.079  1.00  0.00    -0.323 N 
ATOM     12  C   UNL A   1      32.847  25.453  22.804  1.00  0.00     0.318 C 
ATOM     13  H   UNL A   1      33.065  27.342  22.343  1.00  0.00     0.166 HD
ATOM     14  O   UNL A   1      33.359  25.200  21.708  1.00  0.00    -0.249 OA
BRANCH  12  15
ATOM     15  N   UNL A   1      32.304  24.455  23.587  1.00  0.00    -0.325 N 
ATOM     16  C   UNL A   1      30.956  23.923  23.498  1.00  0.00     0.149 C 
BRANCH  15  17
ATOM     17  C   UNL A   1      33.129  23.942  24.721  1.00  0.00     0.086 C 
ATOM     18  C   UNL A   1      32.704  22.564  25.255  1.00  0.00     0.025 C 
ATOM     19  C   UNL A   1      34.653  23.989  24.474  1.00  0.00     0.028 C 
ATOM     20  C   UNL A   1      33.295  21.369  24.505  1.00  0.00     0.002 C 
ATOM     21  C   UNL A   1      35.244  22.803  23.701  1.00  0.00    -0.012 C 
ATOM     22  C   UNL A   1      34.807  21.467  24.300  1.00  0.00     0.003 C 
ATOM     23  C   UNL A   1      36.768  22.923  23.633  1.00  0.00     0.008 C 
ENDBRANCH  15  17
ENDBRANCH  12  15
ENDBRANCH   6  11
ENDBRANCH   3   6
ENDBRANCH   1   2
BRANCH   1  24
ATOM     24  C   UNL A   1      31.422  31.665  26.480  1.00  0.00     0.042 C 
BRANCH  24  25
ATOM     25  C   UNL A   1      32.653  32.309  27.092  1.00  0.00     0.118 C 
BRANCH  25  26
ATOM     26  N   UNL A   1      32.443  33.642  27.618  1.00  0.00    -0.352 N 
ATOM     27  C   UNL A   1      33.211  34.404  28.468  1.00  0.00     0.251 C 
ATOM     28  H   UNL A   1      31.612  34.075  27.318  1.00  0.00     0.163 HD
ATOM     29  O   UNL A   1      32.834  35.533  28.759  1.00  0.00    -0.269 OA
BRANCH  27  30
ATOM     30  C   UNL A   1      34.445  33.869  29.094  1.00  0.00     0.039 A 
ATOM     31  C   UNL A   1      34.287  32.909  30.099  1.00  0.00     0.014 A 
ATOM     32  C   UNL A   1      35.730  34.299  28.748  1.00  0.00     0.014 A 
ATOM     33  C   UNL A   1      35.406  32.326  30.696  1.00  0.00     0.010 A 
ATOM     34  C   UNL A   1      36.851  33.671  29.303  1.00  0.00     0.010 A 
ATOM     35  C   UNL A   1      36.700  32.668  30.273  1.00  0.00    -0.014 A 
BRANCH  35  36
ATOM     36  C   UNL A   1      37.878  31.945  30.821  1.00  0.00     0.031 A 
ATOM     37  C   UNL A   1      38.430  32.274  32.179  1.00  0.00     0.074 A 
ATOM     38  C   UNL A   1      38.464  30.984  30.079  1.00  0.00     0.049 A 
ATOM     39  N   UNL A   1      39.433  31.722  32.816  1.00  0.00    -0.248 NA
ATOM     40  C   UNL A   1      37.780  33.369  32.914  1.00  0.00     0.031 C 
ATOM     41  C   UNL A   1      38.044  30.581  28.735  1.00  0.00     0.029 A 
ATOM     42  N   UNL A   1      39.534  30.168  30.351  1.00  0.00    -0.354 N 
ATOM     43  C   UNL A   1      39.536  32.400  34.024  1.00  0.00     0.074 A 
ATOM     44  C   UNL A   1      38.520  33.432  34.013  1.00  0.00     0.031 C 
ATOM     45  C   UNL A   1      38.828  29.576  28.313  1.00  0.00     0.029 A 
ATOM     46  C   UNL A   1      39.829  29.290  29.337  1.00  0.00     0.049 A 
ATOM     47  H   UNL A   1      40.043  30.209  31.194  1.00  0.00     0.167 HD
ATOM     48  C   UNL A   1      40.387  32.176  35.053  1.00  0.00     0.031 A 
ATOM     49  C   UNL A   1      40.798  28.360  29.234  1.00  0.00     0.031 A 
ATOM     50  C   UNL A   1      41.404  31.156  35.068  1.00  0.00     0.049 A 
ATOM     51  C   UNL A   1      41.758  28.165  30.373  1.00  0.00     0.074 A 
ATOM     52  C   UNL A   1      42.279  30.825  36.089  1.00  0.00     0.029 A 
ATOM     53  N   UNL A   1      41.690  30.310  34.008  1.00  0.00    -0.354 N 
ATOM     54  N   UNL A   1      41.794  28.767  31.536  1.00  0.00    -0.248 NA
ATOM     55  C   UNL A   1      42.808  27.152  30.186  1.00  0.00     0.031 C 
ATOM     56  C   UNL A   1      43.133  29.819  35.627  1.00  0.00     0.029 A 
ATOM     57  C   UNL A   1      42.753  29.483  34.337  1.00  0.00     0.049 A 
ATOM     58  H   UNL A   1      41.211  30.299  33.148  1.00  0.00     0.167 HD
ATOM     59  C   UNL A   1      42.857  28.197  32.225  1.00  0.00     0.074 A 
ATOM     60  C   UNL A   1      43.425  27.184  31.359  1.00  0.00     0.031 C 
ATOM     61  C   UNL A   1      43.320  28.488  33.465  1.00  0.00     0.031 A 
BRANCH  48  62
ATOM     62  C   UNL A   1      40.265  33.068  36.258  1.00  0.00    -0.014 A 
ATOM     63  C   UNL A   1      39.419  32.734  37.327  1.00  0.00     0.009 A 
ATOM     64  C   UNL A   1      41.043  34.233  36.346  1.00  0.00     0.009 A 
ATOM     65  C   UNL A   1      39.330  33.567  38.445  1.00  0.00     0.001 A 
ATOM     66  C   UNL A   1      40.972  35.050  37.476  1.00  0.00     0.001 A 
ATOM     67  C   UNL A   1      40.109  34.721  38.520  1.00  0.00     0.000 A 
ENDBRANCH  48  62
BRANCH  49  68
ATOM     68  C   UNL A   1      40.914  27.540  28.001  1.00  0.00    -0.014 A 
ATOM     69  C   UNL A   1      40.291  26.286  27.915  1.00  0.00     0.009 A 
ATOM     70  C   UNL A   1      41.658  28.005  26.904  1.00  0.00     0.009 A 
ATOM     71  C   UNL A   1      40.430  25.505  26.765  1.00  0.00     0.001 A 
ATOM     72  C   UNL A   1      41.773  27.234  25.747  1.00  0.00     0.001 A 
ATOM     73  C   UNL A   1      41.167  25.980  25.682  1.00  0.00     0.000 A 
ENDBRANCH  49  68
BRANCH  61  74
ATOM     74  C   UNL A   1      44.491  27.690  33.965  1.00  0.00    -0.014 A 
ATOM     75  C   UNL A   1      44.305  26.471  34.636  1.00  0.00     0.009 A 
ATOM     76  C   UNL A   1      45.798  28.147  33.735  1.00  0.00     0.009 A 
ATOM     77  C   UNL A   1      45.405  25.743  35.096  1.00  0.00     0.001 A 
ATOM     78  C   UNL A   1      46.896  27.403  34.170  1.00  0.00     0.001 A 
ATOM     79  C   UNL A   1      46.698  26.207  34.858  1.00  0.00     0.000 A 
ENDBRANCH  61  74
ENDBRANCH  35  36
ENDBRANCH  27  30
ENDBRANCH  25  26
ENDBRANCH  24  25
ENDBRANCH   1  24
TORSDOF 15
ENDMDL
