MODEL 1
REMARK VINA RESULT:     -13.3      0.000      0.000
REMARK SMILES Cc1[nH]c2ccccc2c1[C@H](C(=O)NCCCNC(=O)c1ccc(-c2c3nc(c(-c4ccccc4)c4ccc([nH]4)c(-c4ccccc4)c4nc(c(-c5ccccc5)c5ccc2[nH]5)C=C4)C=C3)cc1)[NH+]1CCN(C(=O)c2ccco2)CC1
REMARK SMILES IDX 16 1 15 2 14 3 12 4 13 5 11 7 10 8 1 9 2 10 3 11 4 12 9 14
REMARK SMILES IDX 5 15 8 16 6 17 7 18 69 19 70 20 81 21 71 23 80 24 72 25
REMARK SMILES IDX 73 26 74 27 75 28 76 29 79 30 77 31 78 32 17 33 18 34 19 35
REMARK SMILES IDX 20 37 21 38 22 39 68 40 23 41 67 42 24 43 25 44 26 45 61 46
REMARK SMILES IDX 27 47 66 48 60 49 62 50 28 51 65 52 59 53 58 54 29 56 51 57
REMARK SMILES IDX 36 58 50 59 37 60 40 61 49 62 63 63 38 64 39 65 48 67 64 68
REMARK SMILES IDX 41 69 30 70 31 71 35 72 32 73 34 74 33 75 52 76 53 77 57 78
REMARK SMILES IDX 54 79 56 80 55 81 42 82 43 83 47 84 44 85 46 86 45 87
REMARK H PARENT 14 6 3 13 69 22 18 36 62 55 40 66
REMARK Flexibility Score: inf
ROOT
ATOM      1  C   UNL A   1      32.729  28.198  27.483  1.00  0.00     0.042 C 
ENDROOT
BRANCH   1   2
ATOM      2  C   UNL A   1      31.726  28.095  26.358  1.00  0.00     0.118 C 
BRANCH   2   3
ATOM      3  N   UNL A   1      31.022  26.821  26.371  1.00  0.00    -0.351 N 
ATOM      4  C   UNL A   1      30.895  25.871  25.395  1.00  0.00     0.283 C 
ATOM      5  O   UNL A   1      30.242  24.862  25.686  1.00  0.00    -0.268 OA
ATOM      6  H   UNL A   1      30.566  26.609  27.216  1.00  0.00     0.163 HD
BRANCH   4   7
ATOM      7  C   UNL A   1      31.541  26.028  23.997  1.00  0.00     0.308 C 
BRANCH   7   8
ATOM      8  C   UNL A   1      31.258  27.411  23.403  1.00  0.00     0.047 A 
ATOM      9  C   UNL A   1      33.743  28.191  22.979  1.00  0.00     0.065 C 
ATOM     10  C   UNL A   1      32.254  28.285  22.949  1.00  0.00     0.022 A 
ATOM     11  N   UNL A   1      31.645  29.339  22.325  1.00  0.00    -0.358 N 
ATOM     12  C   UNL A   1      30.283  29.231  22.414  1.00  0.00     0.046 A 
ATOM     13  H   UNL A   1      32.121  30.074  21.874  1.00  0.00     0.166 HD
ATOM     14  C   UNL A   1      30.006  28.084  23.162  1.00  0.00     0.009 A 
ATOM     15  C   UNL A   1      29.292  30.069  21.888  1.00  0.00     0.027 A 
ATOM     16  C   UNL A   1      28.652  27.816  23.459  1.00  0.00     0.011 A 
ATOM     17  C   UNL A   1      27.963  29.758  22.176  1.00  0.00     0.002 A 
ATOM     18  C   UNL A   1      27.646  28.659  22.968  1.00  0.00     0.001 A 
ENDBRANCH   7   8
BRANCH   7  19
ATOM     19  N   UNL A   1      32.954  25.551  23.911  1.00  0.00    -0.318 N 
ATOM     20  C   UNL A   1      33.743  25.393  25.146  1.00  0.00     0.285 C 
ATOM     21  C   UNL A   1      33.088  24.295  23.145  1.00  0.00     0.285 C 
ATOM     22  H   UNL A   1      33.360  26.357  23.436  1.00  0.00     0.349 HD
ATOM     23  C   UNL A   1      33.472  24.136  26.000  1.00  0.00     0.181 C 
ATOM     24  C   UNL A   1      32.744  22.997  23.902  1.00  0.00     0.181 C 
ATOM     25  N   UNL A   1      33.348  22.900  25.236  1.00  0.00    -0.325 N 
ATOM     26  C   UNL A   1      33.269  21.717  25.999  1.00  0.00     0.289 C 
ATOM     27  O   UNL A   1      33.187  21.771  27.227  1.00  0.00    -0.265 OA
BRANCH  26  28
ATOM     28  C   UNL A   1      33.342  20.454  25.291  1.00  0.00     0.191 A 
ATOM     29  C   UNL A   1      34.412  19.731  24.795  1.00  0.00     0.056 A 
ATOM     30  O   UNL A   1      32.190  19.737  25.105  1.00  0.00    -0.459 OA
ATOM     31  C   UNL A   1      33.886  18.532  24.261  1.00  0.00     0.043 A 
ATOM     32  C   UNL A   1      32.529  18.586  24.470  1.00  0.00     0.196 A 
ENDBRANCH  26  28
ENDBRANCH   7  19
ENDBRANCH   4   7
ENDBRANCH   2   3
ENDBRANCH   1   2
BRANCH   1  33
ATOM     33  C   UNL A   1      33.915  29.043  27.069  1.00  0.00     0.118 C 
BRANCH  33  34
ATOM     34  N   UNL A   1      33.838  30.381  27.641  1.00  0.00    -0.352 N 
ATOM     35  C   UNL A   1      34.724  30.998  28.492  1.00  0.00     0.251 C 
ATOM     36  H   UNL A   1      33.049  30.912  27.385  1.00  0.00     0.163 HD
ATOM     37  O   UNL A   1      34.405  32.004  29.109  1.00  0.00    -0.269 OA
BRANCH  35  38
ATOM     38  C   UNL A   1      36.071  30.414  28.656  1.00  0.00     0.039 A 
ATOM     39  C   UNL A   1      36.399  29.734  29.829  1.00  0.00     0.014 A 
ATOM     40  C   UNL A   1      37.006  30.536  27.626  1.00  0.00     0.014 A 
ATOM     41  C   UNL A   1      37.658  29.143  29.949  1.00  0.00     0.010 A 
ATOM     42  C   UNL A   1      38.196  29.835  27.690  1.00  0.00     0.010 A 
ATOM     43  C   UNL A   1      38.559  29.175  28.872  1.00  0.00    -0.014 A 
BRANCH  43  44
ATOM     44  C   UNL A   1      39.941  28.651  28.977  1.00  0.00     0.031 A 
ATOM     45  C   UNL A   1      41.028  29.585  29.447  1.00  0.00     0.074 A 
ATOM     46  C   UNL A   1      40.235  27.395  28.597  1.00  0.00     0.049 A 
ATOM     47  N   UNL A   1      42.326  29.412  29.453  1.00  0.00    -0.248 NA
ATOM     48  C   UNL A   1      40.601  30.914  29.924  1.00  0.00     0.031 C 
ATOM     49  C   UNL A   1      39.280  26.403  28.098  1.00  0.00     0.029 A 
ATOM     50  N   UNL A   1      41.440  26.739  28.569  1.00  0.00    -0.354 N 
ATOM     51  C   UNL A   1      42.859  30.620  29.889  1.00  0.00     0.074 A 
ATOM     52  C   UNL A   1      41.759  31.537  30.070  1.00  0.00     0.031 C 
ATOM     53  C   UNL A   1      39.931  25.254  27.846  1.00  0.00     0.029 A 
ATOM     54  C   UNL A   1      41.351  25.442  28.125  1.00  0.00     0.049 A 
ATOM     55  H   UNL A   1      42.288  27.158  28.841  1.00  0.00     0.167 HD
ATOM     56  C   UNL A   1      44.148  30.931  30.153  1.00  0.00     0.031 A 
ATOM     57  C   UNL A   1      42.313  24.515  27.962  1.00  0.00     0.031 A 
ATOM     58  C   UNL A   1      45.233  29.999  30.038  1.00  0.00     0.049 A 
ATOM     59  C   UNL A   1      43.736  24.875  28.296  1.00  0.00     0.074 A 
ATOM     60  C   UNL A   1      46.572  30.192  30.321  1.00  0.00     0.029 A 
ATOM     61  N   UNL A   1      45.088  28.681  29.634  1.00  0.00    -0.354 N 
ATOM     62  N   UNL A   1      44.222  26.014  28.725  1.00  0.00    -0.248 NA
ATOM     63  C   UNL A   1      44.741  23.814  28.134  1.00  0.00     0.031 C 
ATOM     64  C   UNL A   1      47.243  28.991  30.073  1.00  0.00     0.029 A 
ATOM     65  C   UNL A   1      46.314  28.044  29.671  1.00  0.00     0.049 A 
ATOM     66  H   UNL A   1      44.240  28.262  29.361  1.00  0.00     0.167 HD
ATOM     67  C   UNL A   1      45.580  25.796  28.921  1.00  0.00     0.074 A 
ATOM     68  C   UNL A   1      45.837  24.414  28.573  1.00  0.00     0.031 C 
ATOM     69  C   UNL A   1      46.531  26.660  29.349  1.00  0.00     0.031 A 
BRANCH  56  70
ATOM     70  C   UNL A   1      44.441  32.328  30.622  1.00  0.00    -0.014 A 
ATOM     71  C   UNL A   1      44.439  32.646  31.989  1.00  0.00     0.009 A 
ATOM     72  C   UNL A   1      44.739  33.335  29.691  1.00  0.00     0.009 A 
ATOM     73  C   UNL A   1      44.694  33.950  32.413  1.00  0.00     0.001 A 
ATOM     74  C   UNL A   1      45.023  34.631  30.120  1.00  0.00     0.001 A 
ATOM     75  C   UNL A   1      44.991  34.941  31.479  1.00  0.00     0.000 A 
ENDBRANCH  56  70
BRANCH  57  76
ATOM     76  C   UNL A   1      41.973  23.148  27.487  1.00  0.00    -0.014 A 
ATOM     77  C   UNL A   1      41.495  22.184  28.390  1.00  0.00     0.009 A 
ATOM     78  C   UNL A   1      42.151  22.788  26.144  1.00  0.00     0.009 A 
ATOM     79  C   UNL A   1      41.243  20.879  27.965  1.00  0.00     0.001 A 
ATOM     80  C   UNL A   1      41.871  21.488  25.716  1.00  0.00     0.001 A 
ATOM     81  C   UNL A   1      41.428  20.532  26.628  1.00  0.00     0.000 A 
ENDBRANCH  57  76
BRANCH  69  82
ATOM     82  C   UNL A   1      47.920  26.121  29.523  1.00  0.00    -0.014 A 
ATOM     83  C   UNL A   1      48.792  25.990  28.434  1.00  0.00     0.009 A 
ATOM     84  C   UNL A   1      48.376  25.798  30.811  1.00  0.00     0.009 A 
ATOM     85  C   UNL A   1      50.090  25.517  28.628  1.00  0.00     0.001 A 
ATOM     86  C   UNL A   1      49.682  25.349  31.004  1.00  0.00     0.001 A 
ATOM     87  C   UNL A   1      50.535  25.202  29.913  1.00  0.00     0.000 A 
ENDBRANCH  69  82
ENDBRANCH  43  44
ENDBRANCH  35  38
ENDBRANCH  33  34
ENDBRANCH   1  33
TORSDOF 13
ENDMDL
MODEL 2
REMARK VINA RESULT:     -13.0      2.435      8.356
REMARK SMILES Cc1[nH]c2ccccc2c1[C@H](C(=O)NCCCNC(=O)c1ccc(-c2c3nc(c(-c4ccccc4)c4ccc([nH]4)c(-c4ccccc4)c4nc(c(-c5ccccc5)c5ccc2[nH]5)C=C4)C=C3)cc1)[NH+]1CCN(C(=O)c2ccco2)CC1
REMARK SMILES IDX 16 1 15 2 14 3 12 4 13 5 11 7 10 8 1 9 2 10 3 11 4 12 9 14
REMARK SMILES IDX 5 15 8 16 6 17 7 18 69 19 70 20 81 21 71 23 80 24 72 25
REMARK SMILES IDX 73 26 74 27 75 28 76 29 79 30 77 31 78 32 17 33 18 34 19 35
REMARK SMILES IDX 20 37 21 38 22 39 68 40 23 41 67 42 24 43 25 44 26 45 61 46
REMARK SMILES IDX 27 47 66 48 60 49 62 50 28 51 65 52 59 53 58 54 29 56 51 57
REMARK SMILES IDX 36 58 50 59 37 60 40 61 49 62 63 63 38 64 39 65 48 67 64 68
REMARK SMILES IDX 41 69 30 70 31 71 35 72 32 73 34 74 33 75 52 76 53 77 57 78
REMARK SMILES IDX 54 79 56 80 55 81 42 82 43 83 47 84 44 85 46 86 45 87
REMARK H PARENT 14 6 3 13 69 22 18 36 62 55 40 66
REMARK Flexibility Score: inf
ROOT
ATOM      1  C   UNL A   1      36.767  23.366  24.429  1.00  0.00     0.042 C 
ENDROOT
BRANCH   1   2
ATOM      2  C   UNL A   1      35.679  22.389  24.045  1.00  0.00     0.118 C 
BRANCH   2   3
ATOM      3  N   UNL A   1      34.763  22.955  23.066  1.00  0.00    -0.351 N 
ATOM      4  C   UNL A   1      33.446  23.304  23.186  1.00  0.00     0.283 C 
ATOM      5  O   UNL A   1      32.905  23.781  22.182  1.00  0.00    -0.268 OA
ATOM      6  H   UNL A   1      35.152  23.111  22.176  1.00  0.00     0.163 HD
BRANCH   4   7
ATOM      7  C   UNL A   1      32.660  23.130  24.509  1.00  0.00     0.308 C 
BRANCH   7   8
ATOM      8  C   UNL A   1      32.918  21.756  25.135  1.00  0.00     0.047 A 
ATOM      9  C   UNL A   1      33.740  22.538  27.517  1.00  0.00     0.065 C 
ATOM     10  C   UNL A   1      33.351  21.566  26.453  1.00  0.00     0.022 A 
ATOM     11  N   UNL A   1      33.305  20.228  26.731  1.00  0.00    -0.358 N 
ATOM     12  C   UNL A   1      32.927  19.518  25.621  1.00  0.00     0.046 A 
ATOM     13  H   UNL A   1      33.515  19.829  27.606  1.00  0.00     0.166 HD
ATOM     14  C   UNL A   1      32.766  20.434  24.578  1.00  0.00     0.009 A 
ATOM     15  C   UNL A   1      32.725  18.141  25.478  1.00  0.00     0.027 A 
ATOM     16  C   UNL A   1      32.458  19.915  23.303  1.00  0.00     0.011 A 
ATOM     17  C   UNL A   1      32.393  17.664  24.210  1.00  0.00     0.002 A 
ATOM     18  C   UNL A   1      32.281  18.536  23.131  1.00  0.00     0.001 A 
ENDBRANCH   7   8
BRANCH   7  19
ATOM     19  N   UNL A   1      32.739  24.300  25.434  1.00  0.00    -0.318 N 
ATOM     20  C   UNL A   1      33.824  25.284  25.269  1.00  0.00     0.285 C 
ATOM     21  C   UNL A   1      31.472  25.056  25.508  1.00  0.00     0.285 C 
ATOM     22  H   UNL A   1      32.961  23.800  26.296  1.00  0.00     0.349 HD
ATOM     23  C   UNL A   1      33.672  26.316  24.132  1.00  0.00     0.181 C 
ATOM     24  C   UNL A   1      31.201  26.043  24.356  1.00  0.00     0.181 C 
ATOM     25  N   UNL A   1      32.342  26.904  24.019  1.00  0.00    -0.325 N 
ATOM     26  C   UNL A   1      32.221  27.968  23.102  1.00  0.00     0.289 C 
ATOM     27  O   UNL A   1      33.165  28.271  22.371  1.00  0.00    -0.265 OA
BRANCH  26  28
ATOM     28  C   UNL A   1      30.976  28.712  23.096  1.00  0.00     0.191 A 
ATOM     29  C   UNL A   1      30.474  29.682  23.944  1.00  0.00     0.056 A 
ATOM     30  O   UNL A   1      30.112  28.538  22.047  1.00  0.00    -0.459 OA
ATOM     31  C   UNL A   1      29.237  30.102  23.400  1.00  0.00     0.043 A 
ATOM     32  C   UNL A   1      29.061  29.373  22.249  1.00  0.00     0.196 A 
ENDBRANCH  26  28
ENDBRANCH   7  19
ENDBRANCH   4   7
ENDBRANCH   2   3
ENDBRANCH   1   2
BRANCH   1  33
ATOM     33  C   UNL A   1      37.085  23.260  25.905  1.00  0.00     0.118 C 
BRANCH  33  34
ATOM     34  N   UNL A   1      38.176  22.324  26.147  1.00  0.00    -0.352 N 
ATOM     35  C   UNL A   1      39.481  22.601  26.478  1.00  0.00     0.251 C 
ATOM     36  H   UNL A   1      37.949  21.369  26.061  1.00  0.00     0.163 HD
ATOM     37  O   UNL A   1      40.349  21.745  26.380  1.00  0.00    -0.269 OA
BRANCH  35  38
ATOM     38  C   UNL A   1      39.819  23.960  26.947  1.00  0.00     0.039 A 
ATOM     39  C   UNL A   1      40.282  24.916  26.041  1.00  0.00     0.014 A 
ATOM     40  C   UNL A   1      39.659  24.285  28.295  1.00  0.00     0.014 A 
ATOM     41  C   UNL A   1      40.548  26.211  26.489  1.00  0.00     0.010 A 
ATOM     42  C   UNL A   1      39.789  25.598  28.707  1.00  0.00     0.010 A 
ATOM     43  C   UNL A   1      40.287  26.565  27.823  1.00  0.00    -0.014 A 
BRANCH  43  44
ATOM     44  C   UNL A   1      40.641  27.894  28.375  1.00  0.00     0.031 A 
ATOM     45  C   UNL A   1      42.076  28.150  28.763  1.00  0.00     0.074 A 
ATOM     46  C   UNL A   1      39.696  28.827  28.592  1.00  0.00     0.049 A 
ATOM     47  N   UNL A   1      42.591  29.157  29.421  1.00  0.00    -0.248 NA
ATOM     48  C   UNL A   1      43.055  27.105  28.409  1.00  0.00     0.031 C 
ATOM     49  C   UNL A   1      38.270  28.691  28.289  1.00  0.00     0.029 A 
ATOM     50  N   UNL A   1      39.802  30.083  29.132  1.00  0.00    -0.354 N 
ATOM     51  C   UNL A   1      43.933  28.841  29.593  1.00  0.00     0.074 A 
ATOM     52  C   UNL A   1      44.142  27.525  29.037  1.00  0.00     0.031 C 
ATOM     53  C   UNL A   1      37.641  29.833  28.615  1.00  0.00     0.029 A 
ATOM     54  C   UNL A   1      38.610  30.762  29.188  1.00  0.00     0.049 A 
ATOM     55  H   UNL A   1      40.653  30.463  29.449  1.00  0.00     0.167 HD
ATOM     56  C   UNL A   1      44.918  29.593  30.133  1.00  0.00     0.031 A 
ATOM     57  C   UNL A   1      38.336  31.995  29.653  1.00  0.00     0.031 A 
ATOM     58  C   UNL A   1      44.726  30.927  30.624  1.00  0.00     0.049 A 
ATOM     59  C   UNL A   1      39.457  32.826  30.217  1.00  0.00     0.074 A 
ATOM     60  C   UNL A   1      45.661  31.798  31.151  1.00  0.00     0.029 A 
ATOM     61  N   UNL A   1      43.510  31.593  30.613  1.00  0.00    -0.354 N 
ATOM     62  N   UNL A   1      40.724  32.521  30.356  1.00  0.00    -0.248 NA
ATOM     63  C   UNL A   1      39.109  34.178  30.678  1.00  0.00     0.031 C 
ATOM     64  C   UNL A   1      45.005  32.990  31.475  1.00  0.00     0.029 A 
ATOM     65  C   UNL A   1      43.673  32.871  31.114  1.00  0.00     0.049 A 
ATOM     66  H   UNL A   1      42.659  31.213  30.296  1.00  0.00     0.167 HD
ATOM     67  C   UNL A   1      41.331  33.655  30.882  1.00  0.00     0.074 A 
ATOM     68  C   UNL A   1      40.294  34.655  31.029  1.00  0.00     0.031 C 
ATOM     69  C   UNL A   1      42.628  33.852  31.218  1.00  0.00     0.031 A 
BRANCH  56  70
ATOM     70  C   UNL A   1      46.296  28.995  30.187  1.00  0.00    -0.014 A 
ATOM     71  C   UNL A   1      47.198  29.162  29.124  1.00  0.00     0.009 A 
ATOM     72  C   UNL A   1      46.704  28.270  31.318  1.00  0.00     0.009 A 
ATOM     73  C   UNL A   1      48.467  28.586  29.176  1.00  0.00     0.001 A 
ATOM     74  C   UNL A   1      47.986  27.722  31.379  1.00  0.00     0.001 A 
ATOM     75  C   UNL A   1      48.863  27.871  30.305  1.00  0.00     0.000 A 
ENDBRANCH  56  70
BRANCH  57  76
ATOM     76  C   UNL A   1      36.954  32.539  29.584  1.00  0.00    -0.014 A 
ATOM     77  C   UNL A   1      36.544  33.288  28.470  1.00  0.00     0.009 A 
ATOM     78  C   UNL A   1      36.051  32.344  30.639  1.00  0.00     0.009 A 
ATOM     79  C   UNL A   1      35.272  33.863  28.431  1.00  0.00     0.001 A 
ATOM     80  C   UNL A   1      34.769  32.896  30.585  1.00  0.00     0.001 A 
ATOM     81  C   UNL A   1      34.385  33.665  29.488  1.00  0.00     0.000 A 
ENDBRANCH  57  76
BRANCH  69  82
ATOM     82  C   UNL A   1      43.009  35.215  31.714  1.00  0.00    -0.014 A 
ATOM     83  C   UNL A   1      42.919  35.547  33.073  1.00  0.00     0.009 A 
ATOM     84  C   UNL A   1      43.522  36.158  30.809  1.00  0.00     0.009 A 
ATOM     85  C   UNL A   1      43.311  36.811  33.513  1.00  0.00     0.001 A 
ATOM     86  C   UNL A   1      43.936  37.412  31.257  1.00  0.00     0.001 A 
ATOM     87  C   UNL A   1      43.824  37.740  32.607  1.00  0.00     0.000 A 
ENDBRANCH  69  82
ENDBRANCH  43  44
ENDBRANCH  35  38
ENDBRANCH  33  34
ENDBRANCH   1  33
TORSDOF 13
ENDMDL
MODEL 3
REMARK VINA RESULT:     -12.9      2.131      2.571
REMARK SMILES Cc1[nH]c2ccccc2c1[C@H](C(=O)NCCCNC(=O)c1ccc(-c2c3nc(c(-c4ccccc4)c4ccc([nH]4)c(-c4ccccc4)c4nc(c(-c5ccccc5)c5ccc2[nH]5)C=C4)C=C3)cc1)[NH+]1CCN(C(=O)c2ccco2)CC1
REMARK SMILES IDX 16 1 15 2 14 3 12 4 13 5 11 7 10 8 1 9 2 10 3 11 4 12 9 14
REMARK SMILES IDX 5 15 8 16 6 17 7 18 69 19 70 20 81 21 71 23 80 24 72 25
REMARK SMILES IDX 73 26 74 27 75 28 76 29 79 30 77 31 78 32 17 33 18 34 19 35
REMARK SMILES IDX 20 37 21 38 22 39 68 40 23 41 67 42 24 43 25 44 26 45 61 46
REMARK SMILES IDX 27 47 66 48 60 49 62 50 28 51 65 52 59 53 58 54 29 56 51 57
REMARK SMILES IDX 36 58 50 59 37 60 40 61 49 62 63 63 38 64 39 65 48 67 64 68
REMARK SMILES IDX 41 69 30 70 31 71 35 72 32 73 34 74 33 75 52 76 53 77 57 78
REMARK SMILES IDX 54 79 56 80 55 81 42 82 43 83 47 84 44 85 46 86 45 87
REMARK H PARENT 14 6 3 13 69 22 18 36 62 55 40 66
REMARK Flexibility Score: inf
ROOT
ATOM      1  C   UNL A   1      32.904  28.580  27.237  1.00  0.00     0.042 C 
ENDROOT
BRANCH   1   2
ATOM      2  C   UNL A   1      31.768  28.542  26.240  1.00  0.00     0.118 C 
BRANCH   2   3
ATOM      3  N   UNL A   1      31.028  27.291  26.307  1.00  0.00    -0.351 N 
ATOM      4  C   UNL A   1      30.882  26.299  25.377  1.00  0.00     0.283 C 
ATOM      5  O   UNL A   1      30.196  25.325  25.710  1.00  0.00    -0.268 OA
ATOM      6  H   UNL A   1      30.557  27.134  27.157  1.00  0.00     0.163 HD
BRANCH   4   7
ATOM      7  C   UNL A   1      31.545  26.368  23.980  1.00  0.00     0.308 C 
BRANCH   7   8
ATOM      8  C   UNL A   1      31.266  27.710  23.296  1.00  0.00     0.047 A 
ATOM      9  C   UNL A   1      33.751  28.436  22.789  1.00  0.00     0.065 C 
ATOM     10  C   UNL A   1      32.262  28.542  22.770  1.00  0.00     0.022 A 
ATOM     11  N   UNL A   1      31.655  29.556  22.082  1.00  0.00    -0.358 N 
ATOM     12  C   UNL A   1      30.293  29.466  22.195  1.00  0.00     0.046 A 
ATOM     13  H   UNL A   1      32.131  30.253  21.576  1.00  0.00     0.166 HD
ATOM     14  C   UNL A   1      30.016  28.376  23.025  1.00  0.00     0.009 A 
ATOM     15  C   UNL A   1      29.302  30.274  21.626  1.00  0.00     0.027 A 
ATOM     16  C   UNL A   1      28.664  28.141  23.355  1.00  0.00     0.011 A 
ATOM     17  C   UNL A   1      27.975  29.997  21.950  1.00  0.00     0.002 A 
ATOM     18  C   UNL A   1      27.659  28.957  22.820  1.00  0.00     0.001 A 
ENDBRANCH   7   8
BRANCH   7  19
ATOM     19  N   UNL A   1      32.960  25.892  23.943  1.00  0.00    -0.318 N 
ATOM     20  C   UNL A   1      33.717  25.764  25.201  1.00  0.00     0.285 C 
ATOM     21  C   UNL A   1      33.115  24.618  23.210  1.00  0.00     0.285 C 
ATOM     22  H   UNL A   1      33.377  26.687  23.459  1.00  0.00     0.349 HD
ATOM     23  C   UNL A   1      33.425  24.528  26.077  1.00  0.00     0.181 C 
ATOM     24  C   UNL A   1      32.752  23.338  23.988  1.00  0.00     0.181 C 
ATOM     25  N   UNL A   1      33.322  23.274  25.340  1.00  0.00    -0.325 N 
ATOM     26  C   UNL A   1      33.224  22.109  26.129  1.00  0.00     0.289 C 
ATOM     27  O   UNL A   1      33.110  22.192  27.353  1.00  0.00    -0.265 OA
BRANCH  26  28
ATOM     28  C   UNL A   1      33.317  20.830  25.454  1.00  0.00     0.191 A 
ATOM     29  C   UNL A   1      34.400  20.099  24.999  1.00  0.00     0.056 A 
ATOM     30  O   UNL A   1      32.171  20.105  25.258  1.00  0.00    -0.459 OA
ATOM     31  C   UNL A   1      33.890  18.885  24.482  1.00  0.00     0.043 A 
ATOM     32  C   UNL A   1      32.528  18.940  24.659  1.00  0.00     0.196 A 
ENDBRANCH  26  28
ENDBRANCH   7  19
ENDBRANCH   4   7
ENDBRANCH   2   3
ENDBRANCH   1   2
BRANCH   1  33
ATOM     33  C   UNL A   1      34.010  29.494  26.754  1.00  0.00     0.118 C 
BRANCH  33  34
ATOM     34  N   UNL A   1      33.844  30.847  27.271  1.00  0.00    -0.352 N 
ATOM     35  C   UNL A   1      34.552  31.473  28.268  1.00  0.00     0.251 C 
ATOM     36  H   UNL A   1      33.132  31.382  26.850  1.00  0.00     0.163 HD
ATOM     37  O   UNL A   1      34.133  32.498  28.788  1.00  0.00    -0.269 OA
BRANCH  35  38
ATOM     38  C   UNL A   1      35.828  30.876  28.712  1.00  0.00     0.039 A 
ATOM     39  C   UNL A   1      37.039  31.424  28.288  1.00  0.00     0.014 A 
ATOM     40  C   UNL A   1      35.813  29.773  29.567  1.00  0.00     0.014 A 
ATOM     41  C   UNL A   1      38.237  30.881  28.757  1.00  0.00     0.010 A 
ATOM     42  C   UNL A   1      36.992  29.328  30.137  1.00  0.00     0.010 A 
ATOM     43  C   UNL A   1      38.220  29.840  29.698  1.00  0.00    -0.014 A 
BRANCH  43  44
ATOM     44  C   UNL A   1      39.457  29.163  30.155  1.00  0.00     0.031 A 
ATOM     45  C   UNL A   1      40.156  29.698  31.381  1.00  0.00     0.074 A 
ATOM     46  C   UNL A   1      39.985  28.142  29.457  1.00  0.00     0.049 A 
ATOM     47  N   UNL A   1      41.332  29.389  31.867  1.00  0.00    -0.248 NA
ATOM     48  C   UNL A   1      39.461  30.761  32.131  1.00  0.00     0.031 C 
ATOM     49  C   UNL A   1      39.423  27.552  28.240  1.00  0.00     0.029 A 
ATOM     50  N   UNL A   1      41.131  27.420  29.676  1.00  0.00    -0.354 N 
ATOM     51  C   UNL A   1      41.527  30.248  32.942  1.00  0.00     0.074 A 
ATOM     52  C   UNL A   1      40.388  31.134  32.998  1.00  0.00     0.031 C 
ATOM     53  C   UNL A   1      40.207  26.536  27.841  1.00  0.00     0.029 A 
ATOM     54  C   UNL A   1      41.346  26.431  28.747  1.00  0.00     0.049 A 
ATOM     55  H   UNL A   1      41.741  27.593  30.429  1.00  0.00     0.167 HD
ATOM     56  C   UNL A   1      42.545  30.277  33.830  1.00  0.00     0.031 A 
ATOM     57  C   UNL A   1      42.353  25.545  28.643  1.00  0.00     0.031 A 
ATOM     58  C   UNL A   1      43.642  29.353  33.816  1.00  0.00     0.049 A 
ATOM     59  C   UNL A   1      43.458  25.574  29.665  1.00  0.00     0.074 A 
ATOM     60  C   UNL A   1      44.707  29.260  34.693  1.00  0.00     0.029 A 
ATOM     61  N   UNL A   1      43.792  28.335  32.886  1.00  0.00    -0.354 N 
ATOM     62  N   UNL A   1      43.618  26.380  30.687  1.00  0.00    -0.248 NA
ATOM     63  C   UNL A   1      44.514  24.561  29.526  1.00  0.00     0.031 C 
ATOM     64  C   UNL A   1      45.511  28.192  34.283  1.00  0.00     0.029 A 
ATOM     65  C   UNL A   1      44.926  27.601  33.175  1.00  0.00     0.049 A 
ATOM     66  H   UNL A   1      43.182  28.162  32.133  1.00  0.00     0.167 HD
ATOM     67  C   UNL A   1      44.770  25.947  31.333  1.00  0.00     0.074 A 
ATOM     68  C   UNL A   1      45.260  24.803  30.593  1.00  0.00     0.031 C 
ATOM     69  C   UNL A   1      45.370  26.450  32.437  1.00  0.00     0.031 A 
BRANCH  56  70
ATOM     70  C   UNL A   1      42.495  31.323  34.908  1.00  0.00    -0.014 A 
ATOM     71  C   UNL A   1      41.908  31.048  36.154  1.00  0.00     0.009 A 
ATOM     72  C   UNL A   1      43.053  32.590  34.685  1.00  0.00     0.009 A 
ATOM     73  C   UNL A   1      41.850  32.032  37.141  1.00  0.00     0.001 A 
ATOM     74  C   UNL A   1      43.020  33.562  35.685  1.00  0.00     0.001 A 
ATOM     75  C   UNL A   1      42.410  33.286  36.908  1.00  0.00     0.000 A 
ENDBRANCH  56  70
BRANCH  57  76
ATOM     76  C   UNL A   1      42.361  24.534  27.553  1.00  0.00    -0.014 A 
ATOM     77  C   UNL A   1      41.738  23.290  27.738  1.00  0.00     0.009 A 
ATOM     78  C   UNL A   1      43.015  24.791  26.339  1.00  0.00     0.009 A 
ATOM     79  C   UNL A   1      41.804  22.309  26.746  1.00  0.00     0.001 A 
ATOM     80  C   UNL A   1      43.055  23.818  25.337  1.00  0.00     0.001 A 
ATOM     81  C   UNL A   1      42.461  22.575  25.546  1.00  0.00     0.000 A 
ENDBRANCH  57  76
BRANCH  69  82
ATOM     82  C   UNL A   1      46.584  25.731  32.947  1.00  0.00    -0.014 A 
ATOM     83  C   UNL A   1      47.870  26.073  32.508  1.00  0.00     0.009 A 
ATOM     84  C   UNL A   1      46.434  24.737  33.926  1.00  0.00     0.009 A 
ATOM     85  C   UNL A   1      48.986  25.411  33.022  1.00  0.00     0.001 A 
ATOM     86  C   UNL A   1      47.553  24.095  34.456  1.00  0.00     0.001 A 
ATOM     87  C   UNL A   1      48.827  24.427  33.999  1.00  0.00     0.000 A 
ENDBRANCH  69  82
ENDBRANCH  43  44
ENDBRANCH  35  38
ENDBRANCH  33  34
ENDBRANCH   1  33
TORSDOF 13
ENDMDL
