MODEL 1
REMARK VINA RESULT:     -10.1      0.000      0.000
REMARK SMILES CC(C)([NH2+]C[C@@H]1COc2ccccc21)C(=O)NCCCNC(=O)c1ccc(-c2c3nc(c(-c4ccccc4)c4ccc([nH]4)c(-c4ccccc4)c4nc(c(-c5ccccc5)c5ccc2[nH]5)C=C4)C=C3)cc1
REMARK SMILES IDX 18 1 17 2 15 3 16 4 2 6 1 7 3 8 4 9 5 12 6 13 7 14 14 15
REMARK SMILES IDX 8 16 9 17 13 18 10 19 12 20 11 21 19 22 20 23 21 24 22 25
REMARK SMILES IDX 23 27 24 28 25 29 71 30 26 31 70 32 27 33 28 34 29 35 64 36
REMARK SMILES IDX 30 37 69 38 63 39 65 40 31 41 68 42 62 43 61 44 32 46 54 47
REMARK SMILES IDX 39 48 53 49 40 50 43 51 52 52 66 53 41 54 42 55 51 57 67 58
REMARK SMILES IDX 44 59 33 60 34 61 38 62 35 63 37 64 36 65 55 66 56 67 60 68
REMARK SMILES IDX 57 69 59 70 58 71 45 72 46 73 50 74 47 75 49 76 48 77
REMARK H PARENT 17 5 4 10 4 11 21 26 65 45 43 56
REMARK Flexibility Score: inf
ROOT
ATOM      1  C   UNL A   1      35.985  34.486  29.304  1.00  0.00     0.118 C 
ENDROOT
BRANCH   1   2
ATOM      2  N   UNL A   1      37.410  34.532  29.138  1.00  0.00    -0.351 N 
ATOM      3  C   UNL A   1      38.410  34.393  30.048  1.00  0.00     0.280 C 
ATOM      4  O   UNL A   1      39.541  34.579  29.578  1.00  0.00    -0.268 OA
ATOM      5  H   UNL A   1      37.712  34.688  28.215  1.00  0.00     0.163 HD
BRANCH   3   6
ATOM      6  C   UNL A   1      38.197  33.930  31.538  1.00  0.00     0.169 C 
ATOM      7  C   UNL A   1      39.638  33.936  32.149  1.00  0.00     0.090 C 
ATOM      8  C   UNL A   1      37.743  32.475  31.611  1.00  0.00     0.090 C 
BRANCH   6   9
ATOM      9  N   UNL A   1      37.475  34.889  32.412  1.00  0.00    -0.333 N 
ATOM     10  H   UNL A   1      36.798  35.340  31.796  1.00  0.00     0.347 HD
ATOM     11  H   UNL A   1      38.282  35.352  32.829  1.00  0.00     0.347 HD
BRANCH   9  12
ATOM     12  C   UNL A   1      36.729  34.609  33.636  1.00  0.00     0.273 C 
BRANCH  12  13
ATOM     13  C   UNL A   1      35.181  34.645  33.822  1.00  0.00     0.116 C 
ATOM     14  C   UNL A   1      34.456  33.335  33.496  1.00  0.00     0.244 C 
ATOM     15  C   UNL A   1      34.365  35.581  33.001  1.00  0.00     0.006 A 
ATOM     16  O   UNL A   1      33.677  33.498  32.286  1.00  0.00    -0.492 OA
ATOM     17  C   UNL A   1      33.580  34.855  32.123  1.00  0.00     0.123 A 
ATOM     18  C   UNL A   1      34.288  36.967  33.012  1.00  0.00     0.008 A 
ATOM     19  C   UNL A   1      32.819  35.462  31.142  1.00  0.00     0.047 A 
ATOM     20  C   UNL A   1      33.529  37.609  32.026  1.00  0.00     0.001 A 
ATOM     21  C   UNL A   1      32.818  36.857  31.079  1.00  0.00     0.004 A 
ENDBRANCH  12  13
ENDBRANCH   9  12
ENDBRANCH   6   9
ENDBRANCH   3   6
ENDBRANCH   1   2
BRANCH   1  22
ATOM     22  C   UNL A   1      35.374  33.368  28.468  1.00  0.00     0.042 C 
BRANCH  22  23
ATOM     23  C   UNL A   1      34.591  32.367  29.286  1.00  0.00     0.118 C 
BRANCH  23  24
ATOM     24  N   UNL A   1      34.065  31.278  28.468  1.00  0.00    -0.352 N 
ATOM     25  C   UNL A   1      34.697  30.199  27.902  1.00  0.00     0.251 C 
ATOM     26  H   UNL A   1      33.097  31.325  28.292  1.00  0.00     0.163 HD
ATOM     27  O   UNL A   1      34.089  29.499  27.094  1.00  0.00    -0.269 OA
BRANCH  25  28
ATOM     28  C   UNL A   1      36.109  29.894  28.229  1.00  0.00     0.039 A 
ATOM     29  C   UNL A   1      36.420  29.364  29.485  1.00  0.00     0.014 A 
ATOM     30  C   UNL A   1      37.127  30.122  27.305  1.00  0.00     0.014 A 
ATOM     31  C   UNL A   1      37.736  28.995  29.776  1.00  0.00     0.010 A 
ATOM     32  C   UNL A   1      38.403  29.631  27.542  1.00  0.00     0.010 A 
ATOM     33  C   UNL A   1      38.729  29.083  28.789  1.00  0.00    -0.014 A 
BRANCH  33  34
ATOM     34  C   UNL A   1      40.126  28.644  29.032  1.00  0.00     0.031 A 
ATOM     35  C   UNL A   1      41.118  29.609  29.629  1.00  0.00     0.074 A 
ATOM     36  C   UNL A   1      40.523  27.419  28.638  1.00  0.00     0.049 A 
ATOM     37  N   UNL A   1      42.404  29.459  29.821  1.00  0.00    -0.248 NA
ATOM     38  C   UNL A   1      40.606  30.931  30.027  1.00  0.00     0.031 C 
ATOM     39  C   UNL A   1      39.671  26.411  28.004  1.00  0.00     0.029 A 
ATOM     40  N   UNL A   1      41.753  26.816  28.706  1.00  0.00    -0.354 N 
ATOM     41  C   UNL A   1      42.852  30.671  30.330  1.00  0.00     0.074 A 
ATOM     42  C   UNL A   1      41.718  31.567  30.359  1.00  0.00     0.031 C 
ATOM     43  C   UNL A   1      40.394  25.304  27.773  1.00  0.00     0.029 A 
ATOM     44  C   UNL A   1      41.770  25.540  28.194  1.00  0.00     0.049 A 
ATOM     45  H   UNL A   1      42.549  27.255  29.085  1.00  0.00     0.167 HD
ATOM     46  C   UNL A   1      44.090  31.005  30.763  1.00  0.00     0.031 A 
ATOM     47  C   UNL A   1      42.784  24.664  28.070  1.00  0.00     0.031 A 
ATOM     48  C   UNL A   1      45.211  30.105  30.755  1.00  0.00     0.049 A 
ATOM     49  C   UNL A   1      44.154  25.060  28.551  1.00  0.00     0.074 A 
ATOM     50  C   UNL A   1      46.492  30.320  31.229  1.00  0.00     0.029 A 
ATOM     51  N   UNL A   1      45.181  28.816  30.245  1.00  0.00    -0.354 N 
ATOM     52  N   UNL A   1      44.545  26.186  29.098  1.00  0.00    -0.248 NA
ATOM     53  C   UNL A   1      45.219  24.059  28.406  1.00  0.00     0.031 C 
ATOM     54  C   UNL A   1      47.254  29.181  30.954  1.00  0.00     0.029 A 
ATOM     55  C   UNL A   1      46.429  28.233  30.369  1.00  0.00     0.049 A 
ATOM     56  H   UNL A   1      44.390  28.382  29.852  1.00  0.00     0.167 HD
ATOM     57  C   UNL A   1      45.891  26.017  29.392  1.00  0.00     0.074 A 
ATOM     58  C   UNL A   1      46.244  24.675  28.978  1.00  0.00     0.031 C 
ATOM     59  C   UNL A   1      46.760  26.894  29.954  1.00  0.00     0.031 A 
BRANCH  46  60
ATOM     60  C   UNL A   1      44.294  32.404  31.279  1.00  0.00    -0.014 A 
ATOM     61  C   UNL A   1      44.694  33.447  30.426  1.00  0.00     0.009 A 
ATOM     62  C   UNL A   1      44.052  32.692  32.631  1.00  0.00     0.009 A 
ATOM     63  C   UNL A   1      44.889  34.736  30.925  1.00  0.00     0.001 A 
ATOM     64  C   UNL A   1      44.214  33.989  33.121  1.00  0.00     0.001 A 
ATOM     65  C   UNL A   1      44.642  35.008  32.269  1.00  0.00     0.000 A 
ENDBRANCH  46  60
BRANCH  47  66
ATOM     66  C   UNL A   1      42.544  23.319  27.481  1.00  0.00    -0.014 A 
ATOM     67  C   UNL A   1      42.827  23.074  26.129  1.00  0.00     0.009 A 
ATOM     68  C   UNL A   1      42.023  22.277  28.264  1.00  0.00     0.009 A 
ATOM     69  C   UNL A   1      42.562  21.823  25.565  1.00  0.00     0.001 A 
ATOM     70  C   UNL A   1      41.791  21.018  27.706  1.00  0.00     0.001 A 
ATOM     71  C   UNL A   1      42.049  20.795  26.354  1.00  0.00     0.000 A 
ENDBRANCH  47  66
BRANCH  59  72
ATOM     72  C   UNL A   1      48.163  26.413  30.193  1.00  0.00    -0.014 A 
ATOM     73  C   UNL A   1      48.542  25.837  31.415  1.00  0.00     0.009 A 
ATOM     74  C   UNL A   1      49.108  26.498  29.158  1.00  0.00     0.009 A 
ATOM     75  C   UNL A   1      49.851  25.390  31.608  1.00  0.00     0.001 A 
ATOM     76  C   UNL A   1      50.405  26.019  29.341  1.00  0.00     0.001 A 
ATOM     77  C   UNL A   1      50.778  25.476  30.569  1.00  0.00     0.000 A 
ENDBRANCH  59  72
ENDBRANCH  33  34
ENDBRANCH  25  28
ENDBRANCH  23  24
ENDBRANCH  22  23
ENDBRANCH   1  22
TORSDOF 13
ENDMDL
MODEL 2
REMARK VINA RESULT:     -10.0      3.863      7.506
REMARK SMILES CC(C)([NH2+]C[C@@H]1COc2ccccc21)C(=O)NCCCNC(=O)c1ccc(-c2c3nc(c(-c4ccccc4)c4ccc([nH]4)c(-c4ccccc4)c4nc(c(-c5ccccc5)c5ccc2[nH]5)C=C4)C=C3)cc1
REMARK SMILES IDX 18 1 17 2 15 3 16 4 2 6 1 7 3 8 4 9 5 12 6 13 7 14 14 15
REMARK SMILES IDX 8 16 9 17 13 18 10 19 12 20 11 21 19 22 20 23 21 24 22 25
REMARK SMILES IDX 23 27 24 28 25 29 71 30 26 31 70 32 27 33 28 34 29 35 64 36
REMARK SMILES IDX 30 37 69 38 63 39 65 40 31 41 68 42 62 43 61 44 32 46 54 47
REMARK SMILES IDX 39 48 53 49 40 50 43 51 52 52 66 53 41 54 42 55 51 57 67 58
REMARK SMILES IDX 44 59 33 60 34 61 38 62 35 63 37 64 36 65 55 66 56 67 60 68
REMARK SMILES IDX 57 69 59 70 58 71 45 72 46 73 50 74 47 75 49 76 48 77
REMARK H PARENT 17 5 4 10 4 11 21 26 65 45 43 56
REMARK Flexibility Score: inf
ROOT
ATOM      1  C   UNL A   1      31.975  27.072  26.315  1.00  0.00     0.118 C 
ENDROOT
BRANCH   1   2
ATOM      2  N   UNL A   1      30.790  26.352  26.683  1.00  0.00    -0.351 N 
ATOM      3  C   UNL A   1      30.448  25.052  26.484  1.00  0.00     0.280 C 
ATOM      4  O   UNL A   1      29.298  24.776  26.853  1.00  0.00    -0.268 OA
ATOM      5  H   UNL A   1      30.113  26.888  27.157  1.00  0.00     0.163 HD
BRANCH   3   6
ATOM      6  C   UNL A   1      31.433  23.948  25.944  1.00  0.00     0.169 C 
ATOM      7  C   UNL A   1      30.644  22.609  26.127  1.00  0.00     0.090 C 
ATOM      8  C   UNL A   1      32.660  23.808  26.841  1.00  0.00     0.090 C 
BRANCH   6   9
ATOM      9  N   UNL A   1      31.687  23.973  24.481  1.00  0.00    -0.333 N 
ATOM     10  H   UNL A   1      32.603  24.412  24.386  1.00  0.00     0.347 HD
ATOM     11  H   UNL A   1      30.807  24.390  24.181  1.00  0.00     0.347 HD
BRANCH   9  12
ATOM     12  C   UNL A   1      31.722  22.847  23.553  1.00  0.00     0.273 C 
BRANCH  12  13
ATOM     13  C   UNL A   1      32.902  21.853  23.323  1.00  0.00     0.116 C 
ATOM     14  C   UNL A   1      32.712  20.463  23.942  1.00  0.00     0.244 C 
ATOM     15  C   UNL A   1      34.249  22.175  23.869  1.00  0.00     0.006 A 
ATOM     16  O   UNL A   1      33.624  20.297  25.054  1.00  0.00    -0.492 OA
ATOM     17  C   UNL A   1      34.560  21.281  24.878  1.00  0.00     0.123 A 
ATOM     18  C   UNL A   1      35.157  23.164  23.517  1.00  0.00     0.008 A 
ATOM     19  C   UNL A   1      35.691  21.420  25.661  1.00  0.00     0.047 A 
ATOM     20  C   UNL A   1      36.309  23.330  24.297  1.00  0.00     0.001 A 
ATOM     21  C   UNL A   1      36.560  22.476  25.380  1.00  0.00     0.004 A 
ENDBRANCH  12  13
ENDBRANCH   9  12
ENDBRANCH   6   9
ENDBRANCH   3   6
ENDBRANCH   1   2
BRANCH   1  22
ATOM     22  C   UNL A   1      32.181  28.281  27.220  1.00  0.00     0.042 C 
BRANCH  22  23
ATOM     23  C   UNL A   1      33.571  28.871  27.126  1.00  0.00     0.118 C 
BRANCH  23  24
ATOM     24  N   UNL A   1      33.635  30.220  27.680  1.00  0.00    -0.352 N 
ATOM     25  C   UNL A   1      34.636  30.855  28.372  1.00  0.00     0.251 C 
ATOM     26  H   UNL A   1      32.828  30.765  27.532  1.00  0.00     0.163 HD
ATOM     27  O   UNL A   1      34.404  31.939  28.907  1.00  0.00    -0.269 OA
BRANCH  25  28
ATOM     28  C   UNL A   1      35.972  30.233  28.510  1.00  0.00     0.039 A 
ATOM     29  C   UNL A   1      36.842  30.236  27.416  1.00  0.00     0.014 A 
ATOM     30  C   UNL A   1      36.375  29.651  29.711  1.00  0.00     0.014 A 
ATOM     31  C   UNL A   1      38.136  29.726  27.557  1.00  0.00     0.010 A 
ATOM     32  C   UNL A   1      37.697  29.271  29.889  1.00  0.00     0.010 A 
ATOM     33  C   UNL A   1      38.588  29.282  28.808  1.00  0.00    -0.014 A 
BRANCH  33  34
ATOM     34  C   UNL A   1      39.973  28.791  29.020  1.00  0.00     0.031 A 
ATOM     35  C   UNL A   1      41.027  29.732  29.543  1.00  0.00     0.074 A 
ATOM     36  C   UNL A   1      40.301  27.534  28.661  1.00  0.00     0.049 A 
ATOM     37  N   UNL A   1      42.311  29.532  29.696  1.00  0.00    -0.248 NA
ATOM     38  C   UNL A   1      40.587  31.090  29.907  1.00  0.00     0.031 C 
ATOM     39  C   UNL A   1      39.383  26.542  28.097  1.00  0.00     0.029 A 
ATOM     40  N   UNL A   1      41.506  26.880  28.710  1.00  0.00    -0.354 N 
ATOM     41  C   UNL A   1      42.829  30.741  30.142  1.00  0.00     0.074 A 
ATOM     42  C   UNL A   1      41.738  31.687  30.174  1.00  0.00     0.031 C 
ATOM     43  C   UNL A   1      40.048  25.396  27.885  1.00  0.00     0.029 A 
ATOM     44  C   UNL A   1      41.448  25.586  28.249  1.00  0.00     0.049 A 
ATOM     45  H   UNL A   1      42.333  27.297  29.044  1.00  0.00     0.167 HD
ATOM     46  C   UNL A   1      44.096  31.035  30.517  1.00  0.00     0.031 A 
ATOM     47  C   UNL A   1      42.418  24.661  28.125  1.00  0.00     0.031 A 
ATOM     48  C   UNL A   1      45.176  30.086  30.506  1.00  0.00     0.049 A 
ATOM     49  C   UNL A   1      43.820  25.014  28.541  1.00  0.00     0.074 A 
ATOM     50  C   UNL A   1      46.481  30.261  30.927  1.00  0.00     0.029 A 
ATOM     51  N   UNL A   1      45.071  28.781  30.048  1.00  0.00    -0.354 N 
ATOM     52  N   UNL A   1      44.279  26.141  29.030  1.00  0.00    -0.248 NA
ATOM     53  C   UNL A   1      44.834  23.960  28.399  1.00  0.00     0.031 C 
ATOM     54  C   UNL A   1      47.182  29.079  30.670  1.00  0.00     0.029 A 
ATOM     55  C   UNL A   1      46.296  28.147  30.152  1.00  0.00     0.049 A 
ATOM     56  H   UNL A   1      44.248  28.368  29.701  1.00  0.00     0.167 HD
ATOM     57  C   UNL A   1      45.627  25.923  29.283  1.00  0.00     0.074 A 
ATOM     58  C   UNL A   1      45.905  24.551  28.910  1.00  0.00     0.031 C 
ATOM     59  C   UNL A   1      46.553  26.780  29.779  1.00  0.00     0.031 A 
BRANCH  46  60
ATOM     60  C   UNL A   1      44.379  32.442  30.970  1.00  0.00    -0.014 A 
ATOM     61  C   UNL A   1      44.730  33.448  30.054  1.00  0.00     0.009 A 
ATOM     62  C   UNL A   1      44.263  32.775  32.329  1.00  0.00     0.009 A 
ATOM     63  C   UNL A   1      45.000  34.745  30.494  1.00  0.00     0.001 A 
ATOM     64  C   UNL A   1      44.500  34.081  32.762  1.00  0.00     0.001 A 
ATOM     65  C   UNL A   1      44.878  35.062  31.846  1.00  0.00     0.000 A 
ENDBRANCH  46  60
BRANCH  47  66
ATOM     66  C   UNL A   1      42.098  23.307  27.598  1.00  0.00    -0.014 A 
ATOM     67  C   UNL A   1      42.360  22.985  26.257  1.00  0.00     0.009 A 
ATOM     68  C   UNL A   1      41.522  22.334  28.428  1.00  0.00     0.009 A 
ATOM     69  C   UNL A   1      42.020  21.727  25.751  1.00  0.00     0.001 A 
ATOM     70  C   UNL A   1      41.215  21.065  27.928  1.00  0.00     0.001 A 
ATOM     71  C   UNL A   1      41.453  20.768  26.587  1.00  0.00     0.000 A 
ENDBRANCH  47  66
BRANCH  59  72
ATOM     72  C   UNL A   1      47.941  26.246  29.988  1.00  0.00    -0.014 A 
ATOM     73  C   UNL A   1      48.367  25.784  31.243  1.00  0.00     0.009 A 
ATOM     74  C   UNL A   1      48.821  26.163  28.897  1.00  0.00     0.009 A 
ATOM     75  C   UNL A   1      49.661  25.284  31.408  1.00  0.00     0.001 A 
ATOM     76  C   UNL A   1      50.100  25.631  29.056  1.00  0.00     0.001 A 
ATOM     77  C   UNL A   1      50.523  25.203  30.314  1.00  0.00     0.000 A 
ENDBRANCH  59  72
ENDBRANCH  33  34
ENDBRANCH  25  28
ENDBRANCH  23  24
ENDBRANCH  22  23
ENDBRANCH   1  22
TORSDOF 13
ENDMDL
MODEL 3
REMARK VINA RESULT:      -9.9      4.336     10.122
REMARK SMILES CC(C)([NH2+]C[C@@H]1COc2ccccc21)C(=O)NCCCNC(=O)c1ccc(-c2c3nc(c(-c4ccccc4)c4ccc([nH]4)c(-c4ccccc4)c4nc(c(-c5ccccc5)c5ccc2[nH]5)C=C4)C=C3)cc1
REMARK SMILES IDX 18 1 17 2 15 3 16 4 2 6 1 7 3 8 4 9 5 12 6 13 7 14 14 15
REMARK SMILES IDX 8 16 9 17 13 18 10 19 12 20 11 21 19 22 20 23 21 24 22 25
REMARK SMILES IDX 23 27 24 28 25 29 71 30 26 31 70 32 27 33 28 34 29 35 64 36
REMARK SMILES IDX 30 37 69 38 63 39 65 40 31 41 68 42 62 43 61 44 32 46 54 47
REMARK SMILES IDX 39 48 53 49 40 50 43 51 52 52 66 53 41 54 42 55 51 57 67 58
REMARK SMILES IDX 44 59 33 60 34 61 38 62 35 63 37 64 36 65 55 66 56 67 60 68
REMARK SMILES IDX 57 69 59 70 58 71 45 72 46 73 50 74 47 75 49 76 48 77
REMARK H PARENT 17 5 4 10 4 11 21 26 65 45 43 56
REMARK Flexibility Score: inf
ROOT
ATOM      1  C   UNL A   1      36.537  20.464  24.979  1.00  0.00     0.118 C 
ENDROOT
BRANCH   1   2
ATOM      2  N   UNL A   1      35.351  19.656  25.006  1.00  0.00    -0.351 N 
ATOM      3  C   UNL A   1      34.040  20.013  25.040  1.00  0.00     0.280 C 
ATOM      4  O   UNL A   1      33.265  19.052  25.148  1.00  0.00    -0.268 OA
ATOM      5  H   UNL A   1      35.514  18.686  24.998  1.00  0.00     0.163 HD
BRANCH   3   6
ATOM      6  C   UNL A   1      33.515  21.485  24.848  1.00  0.00     0.169 C 
ATOM      7  C   UNL A   1      33.921  22.212  26.173  1.00  0.00     0.090 C 
ATOM      8  C   UNL A   1      31.990  21.534  24.822  1.00  0.00     0.090 C 
BRANCH   6   9
ATOM      9  N   UNL A   1      34.217  22.288  23.815  1.00  0.00    -0.333 N 
ATOM     10  H   UNL A   1      33.790  22.004  22.933  1.00  0.00     0.347 HD
ATOM     11  H   UNL A   1      35.177  22.084  24.089  1.00  0.00     0.347 HD
BRANCH   9  12
ATOM     12  C   UNL A   1      34.323  23.741  23.719  1.00  0.00     0.273 C 
BRANCH  12  13
ATOM     13  C   UNL A   1      33.208  24.738  23.274  1.00  0.00     0.116 C 
ATOM     14  C   UNL A   1      32.894  24.734  21.774  1.00  0.00     0.244 C 
ATOM     15  C   UNL A   1      33.409  26.199  23.473  1.00  0.00     0.006 A 
ATOM     16  O   UNL A   1      33.353  25.971  21.177  1.00  0.00    -0.492 OA
ATOM     17  C   UNL A   1      33.534  26.816  22.240  1.00  0.00     0.123 A 
ATOM     18  C   UNL A   1      33.471  26.957  24.634  1.00  0.00     0.008 A 
ATOM     19  C   UNL A   1      33.866  28.152  22.117  1.00  0.00     0.047 A 
ATOM     20  C   UNL A   1      33.810  28.312  24.538  1.00  0.00     0.001 A 
ATOM     21  C   UNL A   1      34.032  28.900  23.284  1.00  0.00     0.004 A 
ENDBRANCH  12  13
ENDBRANCH   9  12
ENDBRANCH   6   9
ENDBRANCH   3   6
ENDBRANCH   1   2
BRANCH   1  22
ATOM     22  C   UNL A   1      37.789  19.595  24.957  1.00  0.00     0.042 C 
BRANCH  22  23
ATOM     23  C   UNL A   1      38.946  20.189  25.726  1.00  0.00     0.118 C 
BRANCH  23  24
ATOM     24  N   UNL A   1      40.093  19.287  25.781  1.00  0.00    -0.352 N 
ATOM     25  C   UNL A   1      41.411  19.534  26.073  1.00  0.00     0.251 C 
ATOM     26  H   UNL A   1      39.887  18.346  25.576  1.00  0.00     0.163 HD
ATOM     27  O   UNL A   1      42.246  18.651  25.881  1.00  0.00    -0.269 OA
BRANCH  25  28
ATOM     28  C   UNL A   1      41.837  20.858  26.579  1.00  0.00     0.039 A 
ATOM     29  C   UNL A   1      42.304  21.816  25.675  1.00  0.00     0.014 A 
ATOM     30  C   UNL A   1      41.774  21.164  27.938  1.00  0.00     0.014 A 
ATOM     31  C   UNL A   1      42.631  23.098  26.129  1.00  0.00     0.010 A 
ATOM     32  C   UNL A   1      41.966  22.469  28.366  1.00  0.00     0.010 A 
ATOM     33  C   UNL A   1      42.420  23.447  27.471  1.00  0.00    -0.014 A 
BRANCH  33  34
ATOM     34  C   UNL A   1      42.693  24.813  27.985  1.00  0.00     0.031 A 
ATOM     35  C   UNL A   1      44.087  25.180  28.423  1.00  0.00     0.074 A 
ATOM     36  C   UNL A   1      41.679  25.686  28.140  1.00  0.00     0.049 A 
ATOM     37  N   UNL A   1      44.511  26.277  28.997  1.00  0.00    -0.248 NA
ATOM     38  C   UNL A   1      45.137  24.166  28.226  1.00  0.00     0.031 C 
ATOM     39  C   UNL A   1      40.277  25.433  27.800  1.00  0.00     0.029 A 
ATOM     40  N   UNL A   1      41.673  26.966  28.635  1.00  0.00    -0.354 N 
ATOM     41  C   UNL A   1      45.860  26.071  29.253  1.00  0.00     0.074 A 
ATOM     42  C   UNL A   1      46.172  24.725  28.833  1.00  0.00     0.031 C 
ATOM     43  C   UNL A   1      39.554  26.533  28.063  1.00  0.00     0.029 A 
ATOM     44  C   UNL A   1      40.429  27.549  28.637  1.00  0.00     0.049 A 
ATOM     45  H   UNL A   1      42.484  27.422  28.959  1.00  0.00     0.167 HD
ATOM     46  C   UNL A   1      46.768  26.932  29.767  1.00  0.00     0.031 A 
ATOM     47  C   UNL A   1      40.037  28.764  29.064  1.00  0.00     0.031 A 
ATOM     48  C   UNL A   1      46.460  28.280  30.163  1.00  0.00     0.049 A 
ATOM     49  C   UNL A   1      41.063  29.702  29.639  1.00  0.00     0.074 A 
ATOM     50  C   UNL A   1      47.317  29.257  30.635  1.00  0.00     0.029 A 
ATOM     51  N   UNL A   1      45.191  28.838  30.132  1.00  0.00    -0.354 N 
ATOM     52  N   UNL A   1      42.350  29.517  29.806  1.00  0.00    -0.248 NA
ATOM     53  C   UNL A   1      40.581  31.021  30.073  1.00  0.00     0.031 C 
ATOM     54  C   UNL A   1      46.557  30.389  30.945  1.00  0.00     0.029 A 
ATOM     55  C   UNL A   1      45.238  30.138  30.602  1.00  0.00     0.049 A 
ATOM     56  H   UNL A   1      44.378  28.376  29.823  1.00  0.00     0.167 HD
ATOM     57  C   UNL A   1      42.838  30.705  30.335  1.00  0.00     0.074 A 
ATOM     58  C   UNL A   1      41.711  31.608  30.443  1.00  0.00     0.031 C 
ATOM     59  C   UNL A   1      44.105  31.022  30.699  1.00  0.00     0.031 A 
BRANCH  46  60
ATOM     60  C   UNL A   1      48.181  26.440  29.930  1.00  0.00    -0.014 A 
ATOM     61  C   UNL A   1      48.603  25.810  31.113  1.00  0.00     0.009 A 
ATOM     62  C   UNL A   1      49.096  26.579  28.875  1.00  0.00     0.009 A 
ATOM     63  C   UNL A   1      49.921  25.369  31.250  1.00  0.00     0.001 A 
ATOM     64  C   UNL A   1      50.403  26.106  29.002  1.00  0.00     0.001 A 
ATOM     65  C   UNL A   1      50.817  25.511  30.193  1.00  0.00     0.000 A 
ENDBRANCH  46  60
BRANCH  47  66
ATOM     66  C   UNL A   1      38.611  29.174  28.950  1.00  0.00    -0.014 A 
ATOM     67  C   UNL A   1      38.115  29.701  27.747  1.00  0.00     0.009 A 
ATOM     68  C   UNL A   1      37.741  29.050  30.044  1.00  0.00     0.009 A 
ATOM     69  C   UNL A   1      36.787  30.125  27.653  1.00  0.00     0.001 A 
ATOM     70  C   UNL A   1      36.405  29.443  29.936  1.00  0.00     0.001 A 
ATOM     71  C   UNL A   1      35.932  29.992  28.745  1.00  0.00     0.000 A 
ENDBRANCH  47  66
BRANCH  59  72
ATOM     72  C   UNL A   1      44.346  32.415  31.206  1.00  0.00    -0.014 A 
ATOM     73  C   UNL A   1      44.603  33.480  30.329  1.00  0.00     0.009 A 
ATOM     74  C   UNL A   1      44.268  32.672  32.584  1.00  0.00     0.009 A 
ATOM     75  C   UNL A   1      44.815  34.768  30.827  1.00  0.00     0.001 A 
ATOM     76  C   UNL A   1      44.445  33.965  33.077  1.00  0.00     0.001 A 
ATOM     77  C   UNL A   1      44.730  35.009  32.198  1.00  0.00     0.000 A 
ENDBRANCH  59  72
ENDBRANCH  33  34
ENDBRANCH  25  28
ENDBRANCH  23  24
ENDBRANCH  22  23
ENDBRANCH   1  22
TORSDOF 13
ENDMDL
