MODEL 1
REMARK VINA RESULT:     -10.3      0.000      0.000
REMARK SMILES O=C(COc1ccc2c(=O)c(-c3ccc4c(c3)OCCO4)coc2c1)NCCCNC(=O)c1ccc(-c2c3nc(c(-c4ccccc4)c4ccc([nH]4)c(-c4ccccc4)c4nc(c(-c5ccccc5)c5ccc2[nH]5)C=C4)C=C3)cc1
REMARK SMILES IDX 27 1 26 2 1 3 2 4 3 6 4 7 5 8 6 9 25 10 7 11 24 12 8 13
REMARK SMILES IDX 23 14 9 15 22 16 10 17 11 18 12 19 13 20 17 21 14 22 16 23
REMARK SMILES IDX 15 24 18 25 21 26 19 27 20 28 28 29 29 30 30 31 31 32 32 34
REMARK SMILES IDX 33 35 34 36 80 37 35 38 79 39 36 40 37 41 38 42 73 43 39 44
REMARK SMILES IDX 78 45 72 46 74 47 40 48 77 49 71 50 70 51 41 53 63 54 48 55
REMARK SMILES IDX 62 56 49 57 52 58 61 59 75 60 50 61 51 62 60 64 76 65 53 66
REMARK SMILES IDX 42 67 43 68 47 69 44 70 46 71 45 72 64 73 65 74 69 75 66 76
REMARK SMILES IDX 68 77 67 78 54 79 55 80 59 81 56 82 58 83 57 84
REMARK H PARENT 26 5 30 33 74 52 52 63
REMARK Flexibility Score: inf
ROOT
ATOM      1  C   UNL A   1      32.841  37.037  31.070  1.00  0.00     0.117 C 
ENDROOT
BRANCH   1   2
ATOM      2  N   UNL A   1      33.928  36.605  31.923  1.00  0.00    -0.353 N 
ATOM      3  O   UNL A   1      33.020  34.572  32.496  1.00  0.00    -0.271 OA
ATOM      4  C   UNL A   1      33.977  35.337  32.470  1.00  0.00     0.257 C 
ATOM      5  H   UNL A   1      34.658  37.236  32.118  1.00  0.00     0.163 HD
BRANCH   4   6
ATOM      6  C   UNL A   1      35.354  34.960  33.026  1.00  0.00     0.329 C 
BRANCH   6   7
ATOM      7  O   UNL A   1      35.356  34.484  34.376  1.00  0.00    -0.484 OA
BRANCH   7   8
ATOM      8  C   UNL A   1      36.433  33.690  34.671  1.00  0.00     0.123 A 
ATOM      9  C   UNL A   1      37.160  33.837  35.857  1.00  0.00     0.047 A 
ATOM     10  C   UNL A   1      36.726  32.639  33.801  1.00  0.00     0.094 A 
ATOM     11  C   UNL A   1      38.200  32.964  36.158  1.00  0.00     0.020 A 
ATOM     12  C   UNL A   1      37.773  31.762  34.103  1.00  0.00     0.141 A 
ATOM     13  C   UNL A   1      38.504  31.930  35.276  1.00  0.00     0.066 A 
ATOM     14  O   UNL A   1      38.033  30.749  33.215  1.00  0.00    -0.463 OA
ATOM     15  C   UNL A   1      39.594  30.998  35.593  1.00  0.00     0.200 A 
ATOM     16  C   UNL A   1      39.054  29.876  33.523  1.00  0.00     0.208 A 
ATOM     17  O   UNL A   1      40.250  31.130  36.620  1.00  0.00    -0.288 OA
ATOM     18  C   UNL A   1      39.843  29.913  34.609  1.00  0.00     0.065 A 
BRANCH  18  19
ATOM     19  C   UNL A   1      40.890  28.906  34.834  1.00  0.00    -0.007 A 
ATOM     20  C   UNL A   1      41.162  27.924  33.871  1.00  0.00     0.013 A 
ATOM     21  C   UNL A   1      41.661  28.944  36.006  1.00  0.00     0.059 A 
ATOM     22  C   UNL A   1      42.176  26.985  34.082  1.00  0.00     0.051 A 
ATOM     23  C   UNL A   1      42.678  28.013  36.211  1.00  0.00     0.161 A 
ATOM     24  C   UNL A   1      42.921  27.020  35.259  1.00  0.00     0.161 A 
ATOM     25  O   UNL A   1      43.392  28.131  37.376  1.00  0.00    -0.486 OA
ATOM     26  O   UNL A   1      43.883  26.055  35.409  1.00  0.00    -0.486 OA
ATOM     27  C   UNL A   1      44.604  27.369  37.322  1.00  0.00     0.271 C 
ATOM     28  C   UNL A   1      44.335  25.979  36.766  1.00  0.00     0.271 C 
ENDBRANCH  18  19
ENDBRANCH   7   8
ENDBRANCH   6   7
ENDBRANCH   4   6
ENDBRANCH   1   2
BRANCH   1  29
ATOM     29  C   UNL A   1      33.308  37.603  29.741  1.00  0.00     0.042 C 
BRANCH  29  30
ATOM     30  C   UNL A   1      33.883  36.559  28.791  1.00  0.00     0.118 C 
BRANCH  30  31
ATOM     31  N   UNL A   1      32.913  35.550  28.381  1.00  0.00    -0.352 N 
ATOM     32  C   UNL A   1      33.064  34.195  28.217  1.00  0.00     0.251 C 
ATOM     33  H   UNL A   1      32.010  35.894  28.194  1.00  0.00     0.163 HD
ATOM     34  O   UNL A   1      32.145  33.532  27.742  1.00  0.00    -0.269 OA
BRANCH  32  35
ATOM     35  C   UNL A   1      34.336  33.532  28.576  1.00  0.00     0.039 A 
ATOM     36  C   UNL A   1      35.430  33.664  27.716  1.00  0.00     0.014 A 
ATOM     37  C   UNL A   1      34.458  32.785  29.750  1.00  0.00     0.014 A 
ATOM     38  C   UNL A   1      36.666  33.120  28.075  1.00  0.00     0.010 A 
ATOM     39  C   UNL A   1      35.708  32.314  30.145  1.00  0.00     0.010 A 
ATOM     40  C   UNL A   1      36.826  32.481  29.315  1.00  0.00    -0.014 A 
BRANCH  40  41
ATOM     41  C   UNL A   1      38.154  31.995  29.770  1.00  0.00     0.031 A 
ATOM     42  C   UNL A   1      38.682  30.669  29.295  1.00  0.00     0.074 A 
ATOM     43  C   UNL A   1      38.855  32.713  30.670  1.00  0.00     0.049 A 
ATOM     44  N   UNL A   1      39.778  30.042  29.645  1.00  0.00    -0.248 NA
ATOM     45  C   UNL A   1      37.860  29.940  28.316  1.00  0.00     0.031 C 
ATOM     46  C   UNL A   1      38.442  33.999  31.238  1.00  0.00     0.029 A 
ATOM     47  N   UNL A   1      40.059  32.455  31.276  1.00  0.00    -0.354 N 
ATOM     48  C   UNL A   1      39.767  28.843  28.945  1.00  0.00     0.074 A 
ATOM     49  C   UNL A   1      38.534  28.806  28.189  1.00  0.00     0.031 C 
ATOM     50  C   UNL A   1      39.389  34.428  32.088  1.00  0.00     0.029 A 
ATOM     51  C   UNL A   1      40.449  33.429  32.165  1.00  0.00     0.049 A 
ATOM     52  H   UNL A   1      40.594  31.649  31.092  1.00  0.00     0.167 HD
ATOM     53  C   UNL A   1      40.705  27.867  28.919  1.00  0.00     0.031 A 
ATOM     54  C   UNL A   1      41.530  33.504  32.965  1.00  0.00     0.031 A 
ATOM     55  C   UNL A   1      41.933  27.904  29.668  1.00  0.00     0.049 A 
ATOM     56  C   UNL A   1      42.540  32.390  32.945  1.00  0.00     0.074 A 
ATOM     57  C   UNL A   1      42.970  26.987  29.666  1.00  0.00     0.029 A 
ATOM     58  N   UNL A   1      42.288  28.907  30.556  1.00  0.00    -0.354 N 
ATOM     59  N   UNL A   1      42.547  31.294  32.226  1.00  0.00    -0.248 NA
ATOM     60  C   UNL A   1      43.696  32.528  33.842  1.00  0.00     0.031 C 
ATOM     61  C   UNL A   1      43.924  27.404  30.599  1.00  0.00     0.029 A 
ATOM     62  C   UNL A   1      43.513  28.616  31.132  1.00  0.00     0.049 A 
ATOM     63  H   UNL A   1      41.748  29.708  30.749  1.00  0.00     0.167 HD
ATOM     64  C   UNL A   1      43.719  30.629  32.561  1.00  0.00     0.074 A 
ATOM     65  C   UNL A   1      44.405  31.451  33.535  1.00  0.00     0.031 C 
ATOM     66  C   UNL A   1      44.187  29.444  32.098  1.00  0.00     0.031 A 
BRANCH  53  67
ATOM     67  C   UNL A   1      40.431  26.664  28.058  1.00  0.00    -0.014 A 
ATOM     68  C   UNL A   1      40.977  26.549  26.769  1.00  0.00     0.009 A 
ATOM     69  C   UNL A   1      39.649  25.611  28.559  1.00  0.00     0.009 A 
ATOM     70  C   UNL A   1      40.712  25.423  25.986  1.00  0.00     0.001 A 
ATOM     71  C   UNL A   1      39.414  24.472  27.786  1.00  0.00     0.001 A 
ATOM     72  C   UNL A   1      39.936  24.384  26.498  1.00  0.00     0.000 A 
ENDBRANCH  53  67
BRANCH  54  73
ATOM     73  C   UNL A   1      41.720  34.681  33.854  1.00  0.00    -0.014 A 
ATOM     74  C   UNL A   1      41.034  34.770  35.076  1.00  0.00     0.009 A 
ATOM     75  C   UNL A   1      42.577  35.729  33.482  1.00  0.00     0.009 A 
ATOM     76  C   UNL A   1      41.181  35.895  35.891  1.00  0.00     0.001 A 
ATOM     77  C   UNL A   1      42.747  36.836  34.314  1.00  0.00     0.001 A 
ATOM     78  C   UNL A   1      42.041  36.924  35.512  1.00  0.00     0.000 A 
ENDBRANCH  54  73
BRANCH  66  79
ATOM     79  C   UNL A   1      45.525  28.981  32.607  1.00  0.00    -0.014 A 
ATOM     80  C   UNL A   1      46.711  29.259  31.910  1.00  0.00     0.009 A 
ATOM     81  C   UNL A   1      45.601  28.302  33.834  1.00  0.00     0.009 A 
ATOM     82  C   UNL A   1      47.941  28.837  32.416  1.00  0.00     0.001 A 
ATOM     83  C   UNL A   1      46.835  27.910  34.353  1.00  0.00     0.001 A 
ATOM     84  C   UNL A   1      48.003  28.171  33.640  1.00  0.00     0.000 A 
ENDBRANCH  66  79
ENDBRANCH  40  41
ENDBRANCH  32  35
ENDBRANCH  30  31
ENDBRANCH  29  30
ENDBRANCH   1  29
TORSDOF 13
ENDMDL
MODEL 2
REMARK VINA RESULT:     -10.1      4.488     10.692
REMARK SMILES O=C(COc1ccc2c(=O)c(-c3ccc4c(c3)OCCO4)coc2c1)NCCCNC(=O)c1ccc(-c2c3nc(c(-c4ccccc4)c4ccc([nH]4)c(-c4ccccc4)c4nc(c(-c5ccccc5)c5ccc2[nH]5)C=C4)C=C3)cc1
REMARK SMILES IDX 27 1 26 2 1 3 2 4 3 6 4 7 5 8 6 9 25 10 7 11 24 12 8 13
REMARK SMILES IDX 23 14 9 15 22 16 10 17 11 18 12 19 13 20 17 21 14 22 16 23
REMARK SMILES IDX 15 24 18 25 21 26 19 27 20 28 28 29 29 30 30 31 31 32 32 34
REMARK SMILES IDX 33 35 34 36 80 37 35 38 79 39 36 40 37 41 38 42 73 43 39 44
REMARK SMILES IDX 78 45 72 46 74 47 40 48 77 49 71 50 70 51 41 53 63 54 48 55
REMARK SMILES IDX 62 56 49 57 52 58 61 59 75 60 50 61 51 62 60 64 76 65 53 66
REMARK SMILES IDX 42 67 43 68 47 69 44 70 46 71 45 72 64 73 65 74 69 75 66 76
REMARK SMILES IDX 68 77 67 78 54 79 55 80 59 81 56 82 58 83 57 84
REMARK H PARENT 26 5 30 33 74 52 52 63
REMARK Flexibility Score: inf
ROOT
ATOM      1  C   UNL A   1      41.971  19.216  26.395  1.00  0.00     0.117 C 
ENDROOT
BRANCH   1   2
ATOM      2  N   UNL A   1      43.109  19.954  25.886  1.00  0.00    -0.353 N 
ATOM      3  O   UNL A   1      44.384  18.122  25.335  1.00  0.00    -0.271 OA
ATOM      4  C   UNL A   1      44.181  19.329  25.278  1.00  0.00     0.257 C 
ATOM      5  H   UNL A   1      43.118  20.934  25.977  1.00  0.00     0.163 HD
BRANCH   4   6
ATOM      6  C   UNL A   1      45.088  20.287  24.498  1.00  0.00     0.329 C 
BRANCH   6   7
ATOM      7  O   UNL A   1      44.438  21.451  23.978  1.00  0.00    -0.484 OA
BRANCH   7   8
ATOM      8  C   UNL A   1      44.880  22.619  24.544  1.00  0.00     0.123 A 
ATOM      9  C   UNL A   1      46.183  22.762  25.029  1.00  0.00     0.047 A 
ATOM     10  C   UNL A   1      44.020  23.718  24.523  1.00  0.00     0.094 A 
ATOM     11  C   UNL A   1      46.618  23.985  25.528  1.00  0.00     0.020 A 
ATOM     12  C   UNL A   1      44.457  24.948  25.026  1.00  0.00     0.141 A 
ATOM     13  C   UNL A   1      45.751  25.074  25.526  1.00  0.00     0.066 A 
ATOM     14  O   UNL A   1      43.577  25.999  24.995  1.00  0.00    -0.463 OA
ATOM     15  C   UNL A   1      46.208  26.371  26.041  1.00  0.00     0.200 A 
ATOM     16  C   UNL A   1      44.016  27.214  25.475  1.00  0.00     0.208 A 
ATOM     17  O   UNL A   1      47.341  26.502  26.487  1.00  0.00    -0.288 OA
ATOM     18  C   UNL A   1      45.227  27.486  25.988  1.00  0.00     0.065 A 
BRANCH  18  19
ATOM     19  C   UNL A   1      45.581  28.836  26.451  1.00  0.00    -0.007 A 
ATOM     20  C   UNL A   1      46.891  29.319  26.324  1.00  0.00     0.013 A 
ATOM     21  C   UNL A   1      44.594  29.674  26.992  1.00  0.00     0.059 A 
ATOM     22  C   UNL A   1      47.213  30.613  26.745  1.00  0.00     0.051 A 
ATOM     23  C   UNL A   1      44.915  30.966  27.402  1.00  0.00     0.161 A 
ATOM     24  C   UNL A   1      46.229  31.428  27.299  1.00  0.00     0.161 A 
ATOM     25  O   UNL A   1      43.888  31.724  27.905  1.00  0.00    -0.486 OA
ATOM     26  O   UNL A   1      46.621  32.675  27.712  1.00  0.00    -0.486 OA
ATOM     27  C   UNL A   1      44.244  33.109  27.964  1.00  0.00     0.271 C 
ATOM     28  C   UNL A   1      45.634  33.277  28.557  1.00  0.00     0.271 C 
ENDBRANCH  18  19
ENDBRANCH   7   8
ENDBRANCH   6   7
ENDBRANCH   4   6
ENDBRANCH   1   2
BRANCH   1  29
ATOM     29  C   UNL A   1      40.935  20.099  27.068  1.00  0.00     0.042 C 
BRANCH  29  30
ATOM     30  C   UNL A   1      40.848  21.505  26.486  1.00  0.00     0.118 C 
BRANCH  30  31
ATOM     31  N   UNL A   1      39.534  21.832  25.948  1.00  0.00    -0.352 N 
ATOM     32  C   UNL A   1      38.787  22.978  26.071  1.00  0.00     0.251 C 
ATOM     33  H   UNL A   1      39.116  21.119  25.412  1.00  0.00     0.163 HD
ATOM     34  O   UNL A   1      37.638  23.008  25.637  1.00  0.00    -0.269 OA
BRANCH  32  35
ATOM     35  C   UNL A   1      39.344  24.167  26.752  1.00  0.00     0.039 A 
ATOM     36  C   UNL A   1      40.081  25.089  26.003  1.00  0.00     0.014 A 
ATOM     37  C   UNL A   1      39.145  24.378  28.119  1.00  0.00     0.014 A 
ATOM     38  C   UNL A   1      40.544  26.262  26.605  1.00  0.00     0.010 A 
ATOM     39  C   UNL A   1      39.534  25.584  28.697  1.00  0.00     0.010 A 
ATOM     40  C   UNL A   1      40.233  26.541  27.946  1.00  0.00    -0.014 A 
BRANCH  40  41
ATOM     41  C   UNL A   1      40.614  27.831  28.577  1.00  0.00     0.031 A 
ATOM     42  C   UNL A   1      41.996  28.023  29.139  1.00  0.00     0.074 A 
ATOM     43  C   UNL A   1      39.693  28.805  28.712  1.00  0.00     0.049 A 
ATOM     44  N   UNL A   1      42.485  29.044  29.797  1.00  0.00    -0.248 NA
ATOM     45  C   UNL A   1      42.945  26.914  28.959  1.00  0.00     0.031 C 
ATOM     46  C   UNL A   1      38.307  28.736  28.241  1.00  0.00     0.029 A 
ATOM     47  N   UNL A   1      39.781  30.044  29.297  1.00  0.00    -0.354 N 
ATOM     48  C   UNL A   1      43.788  28.694  30.123  1.00  0.00     0.074 A 
ATOM     49  C   UNL A   1      43.999  27.348  29.636  1.00  0.00     0.031 C 
ATOM     50  C   UNL A   1      37.685  29.889  28.532  1.00  0.00     0.029 A 
ATOM     51  C   UNL A   1      38.607  30.759  29.253  1.00  0.00     0.049 A 
ATOM     52  H   UNL A   1      40.606  30.388  29.708  1.00  0.00     0.167 HD
ATOM     53  C   UNL A   1      44.733  29.430  30.757  1.00  0.00     0.031 A 
ATOM     54  C   UNL A   1      38.302  31.973  29.751  1.00  0.00     0.031 A 
ATOM     55  C   UNL A   1      44.525  30.769  31.240  1.00  0.00     0.049 A 
ATOM     56  C   UNL A   1      39.357  32.756  30.483  1.00  0.00     0.074 A 
ATOM     57  C   UNL A   1      45.437  31.615  31.847  1.00  0.00     0.029 A 
ATOM     58  N   UNL A   1      43.322  31.455  31.178  1.00  0.00    -0.354 N 
ATOM     59  N   UNL A   1      40.605  32.437  30.723  1.00  0.00    -0.248 NA
ATOM     60  C   UNL A   1      38.962  34.072  31.004  1.00  0.00     0.031 C 
ATOM     61  C   UNL A   1      44.770  32.790  32.208  1.00  0.00     0.029 A 
ATOM     62  C   UNL A   1      43.460  32.703  31.763  1.00  0.00     0.049 A 
ATOM     63  H   UNL A   1      42.494  31.107  30.776  1.00  0.00     0.167 HD
ATOM     64  C   UNL A   1      41.152  33.523  31.395  1.00  0.00     0.074 A 
ATOM     65  C   UNL A   1      40.104  34.515  31.511  1.00  0.00     0.031 C 
ATOM     66  C   UNL A   1      42.411  33.683  31.870  1.00  0.00     0.031 A 
BRANCH  53  67
ATOM     67  C   UNL A   1      46.078  28.793  30.976  1.00  0.00    -0.014 A 
ATOM     68  C   UNL A   1      47.097  28.891  30.015  1.00  0.00     0.009 A 
ATOM     69  C   UNL A   1      46.343  28.120  32.179  1.00  0.00     0.009 A 
ATOM     70  C   UNL A   1      48.340  28.295  30.238  1.00  0.00     0.001 A 
ATOM     71  C   UNL A   1      47.598  27.552  32.413  1.00  0.00     0.001 A 
ATOM     72  C   UNL A   1      48.590  27.631  31.438  1.00  0.00     0.000 A 
ENDBRANCH  53  67
BRANCH  54  73
ATOM     73  C   UNL A   1      36.934  32.530  29.572  1.00  0.00    -0.014 A 
ATOM     74  C   UNL A   1      35.950  32.333  30.554  1.00  0.00     0.009 A 
ATOM     75  C   UNL A   1      36.600  33.250  28.414  1.00  0.00     0.009 A 
ATOM     76  C   UNL A   1      34.655  32.820  30.367  1.00  0.00     0.001 A 
ATOM     77  C   UNL A   1      35.314  33.765  28.246  1.00  0.00     0.001 A 
ATOM     78  C   UNL A   1      34.339  33.540  29.215  1.00  0.00     0.000 A 
ENDBRANCH  54  73
BRANCH  66  79
ATOM     79  C   UNL A   1      42.742  34.997  32.523  1.00  0.00    -0.014 A 
ATOM     80  C   UNL A   1      43.389  36.024  31.818  1.00  0.00     0.009 A 
ATOM     81  C   UNL A   1      42.350  35.226  33.852  1.00  0.00     0.009 A 
ATOM     82  C   UNL A   1      43.664  37.242  32.443  1.00  0.00     0.001 A 
ATOM     83  C   UNL A   1      42.598  36.456  34.463  1.00  0.00     0.001 A 
ATOM     84  C   UNL A   1      43.262  37.460  33.761  1.00  0.00     0.000 A 
ENDBRANCH  66  79
ENDBRANCH  40  41
ENDBRANCH  32  35
ENDBRANCH  30  31
ENDBRANCH  29  30
ENDBRANCH   1  29
TORSDOF 13
ENDMDL
MODEL 3
REMARK VINA RESULT:     -10.1      2.063      6.528
REMARK SMILES O=C(COc1ccc2c(=O)c(-c3ccc4c(c3)OCCO4)coc2c1)NCCCNC(=O)c1ccc(-c2c3nc(c(-c4ccccc4)c4ccc([nH]4)c(-c4ccccc4)c4nc(c(-c5ccccc5)c5ccc2[nH]5)C=C4)C=C3)cc1
REMARK SMILES IDX 27 1 26 2 1 3 2 4 3 6 4 7 5 8 6 9 25 10 7 11 24 12 8 13
REMARK SMILES IDX 23 14 9 15 22 16 10 17 11 18 12 19 13 20 17 21 14 22 16 23
REMARK SMILES IDX 15 24 18 25 21 26 19 27 20 28 28 29 29 30 30 31 31 32 32 34
REMARK SMILES IDX 33 35 34 36 80 37 35 38 79 39 36 40 37 41 38 42 73 43 39 44
REMARK SMILES IDX 78 45 72 46 74 47 40 48 77 49 71 50 70 51 41 53 63 54 48 55
REMARK SMILES IDX 62 56 49 57 52 58 61 59 75 60 50 61 51 62 60 64 76 65 53 66
REMARK SMILES IDX 42 67 43 68 47 69 44 70 46 71 45 72 64 73 65 74 69 75 66 76
REMARK SMILES IDX 68 77 67 78 54 79 55 80 59 81 56 82 58 83 57 84
REMARK H PARENT 26 5 30 33 74 52 52 63
REMARK Flexibility Score: inf
ROOT
ATOM      1  C   UNL A   1      33.784  35.427  28.785  1.00  0.00     0.117 C 
ENDROOT
BRANCH   1   2
ATOM      2  N   UNL A   1      34.042  35.371  30.209  1.00  0.00    -0.353 N 
ATOM      3  O   UNL A   1      32.500  36.964  30.818  1.00  0.00    -0.271 OA
ATOM      4  C   UNL A   1      33.277  36.067  31.125  1.00  0.00     0.257 C 
ATOM      5  H   UNL A   1      34.787  34.816  30.535  1.00  0.00     0.163 HD
BRANCH   4   6
ATOM      6  C   UNL A   1      33.472  35.598  32.571  1.00  0.00     0.329 C 
BRANCH   6   7
ATOM      7  O   UNL A   1      33.574  34.181  32.741  1.00  0.00    -0.484 OA
BRANCH   7   8
ATOM      8  C   UNL A   1      34.821  33.768  33.134  1.00  0.00     0.123 A 
ATOM      9  C   UNL A   1      35.649  34.565  33.929  1.00  0.00     0.047 A 
ATOM     10  C   UNL A   1      35.208  32.467  32.810  1.00  0.00     0.094 A 
ATOM     11  C   UNL A   1      36.877  34.083  34.371  1.00  0.00     0.020 A 
ATOM     12  C   UNL A   1      36.443  31.983  33.253  1.00  0.00     0.141 A 
ATOM     13  C   UNL A   1      37.270  32.792  34.028  1.00  0.00     0.066 A 
ATOM     14  O   UNL A   1      36.789  30.702  32.904  1.00  0.00    -0.463 OA
ATOM     15  C   UNL A   1      38.560  32.273  34.500  1.00  0.00     0.200 A 
ATOM     16  C   UNL A   1      37.998  30.221  33.356  1.00  0.00     0.208 A 
ATOM     17  O   UNL A   1      39.302  32.970  35.181  1.00  0.00    -0.288 OA
ATOM     18  C   UNL A   1      38.897  30.881  34.104  1.00  0.00     0.065 A 
BRANCH  18  19
ATOM     19  C   UNL A   1      40.150  30.246  34.541  1.00  0.00    -0.007 A 
ATOM     20  C   UNL A   1      40.758  30.612  35.750  1.00  0.00     0.013 A 
ATOM     21  C   UNL A   1      40.731  29.233  33.763  1.00  0.00     0.059 A 
ATOM     22  C   UNL A   1      41.936  29.985  36.168  1.00  0.00     0.051 A 
ATOM     23  C   UNL A   1      41.900  28.603  34.186  1.00  0.00     0.161 A 
ATOM     24  C   UNL A   1      42.515  28.995  35.378  1.00  0.00     0.161 A 
ATOM     25  O   UNL A   1      42.392  27.613  33.375  1.00  0.00    -0.486 OA
ATOM     26  O   UNL A   1      43.681  28.442  35.838  1.00  0.00    -0.486 OA
ATOM     27  C   UNL A   1      43.367  26.817  34.058  1.00  0.00     0.271 C 
ATOM     28  C   UNL A   1      44.349  27.704  34.808  1.00  0.00     0.271 C 
ENDBRANCH  18  19
ENDBRANCH   7   8
ENDBRANCH   6   7
ENDBRANCH   4   6
ENDBRANCH   1   2
BRANCH   1  29
ATOM     29  C   UNL A   1      34.799  34.656  27.960  1.00  0.00     0.042 C 
BRANCH  29  30
ATOM     30  C   UNL A   1      35.112  33.266  28.502  1.00  0.00     0.118 C 
BRANCH  30  31
ATOM     31  N   UNL A   1      34.166  32.247  28.066  1.00  0.00    -0.352 N 
ATOM     32  C   UNL A   1      34.349  30.901  27.862  1.00  0.00     0.251 C 
ATOM     33  H   UNL A   1      33.254  32.573  27.892  1.00  0.00     0.163 HD
ATOM     34  O   UNL A   1      33.444  30.229  27.371  1.00  0.00    -0.269 OA
BRANCH  32  35
ATOM     35  C   UNL A   1      35.639  30.259  28.195  1.00  0.00     0.039 A 
ATOM     36  C   UNL A   1      36.644  30.222  27.224  1.00  0.00     0.014 A 
ATOM     37  C   UNL A   1      35.864  29.697  29.454  1.00  0.00     0.014 A 
ATOM     38  C   UNL A   1      37.900  29.700  27.544  1.00  0.00     0.010 A 
ATOM     39  C   UNL A   1      37.139  29.253  29.797  1.00  0.00     0.010 A 
ATOM     40  C   UNL A   1      38.172  29.253  28.847  1.00  0.00    -0.014 A 
BRANCH  40  41
ATOM     41  C   UNL A   1      39.530  28.800  29.243  1.00  0.00     0.031 A 
ATOM     42  C   UNL A   1      40.440  29.714  30.018  1.00  0.00     0.074 A 
ATOM     43  C   UNL A   1      39.974  27.592  28.842  1.00  0.00     0.049 A 
ATOM     44  N   UNL A   1      41.684  29.526  30.381  1.00  0.00    -0.248 NA
ATOM     45  C   UNL A   1      39.888  31.018  30.416  1.00  0.00     0.031 C 
ATOM     46  C   UNL A   1      39.206  26.622  28.058  1.00  0.00     0.029 A 
ATOM     47  N   UNL A   1      41.188  26.979  29.029  1.00  0.00    -0.354 N 
ATOM     48  C   UNL A   1      42.067  30.692  31.032  1.00  0.00     0.074 A 
ATOM     49  C   UNL A   1      40.941  31.599  30.972  1.00  0.00     0.031 C 
ATOM     50  C   UNL A   1      39.957  25.528  27.854  1.00  0.00     0.029 A 
ATOM     51  C   UNL A   1      41.273  25.736  28.447  1.00  0.00     0.049 A 
ATOM     52  H   UNL A   1      41.927  27.390  29.533  1.00  0.00     0.167 HD
ATOM     53  C   UNL A   1      43.242  30.977  31.642  1.00  0.00     0.031 A 
ATOM     54  C   UNL A   1      42.300  24.867  28.384  1.00  0.00     0.031 A 
ATOM     55  C   UNL A   1      44.361  30.075  31.704  1.00  0.00     0.049 A 
ATOM     56  C   UNL A   1      43.608  25.222  29.037  1.00  0.00     0.074 A 
ATOM     57  C   UNL A   1      45.576  30.254  32.345  1.00  0.00     0.029 A 
ATOM     58  N   UNL A   1      44.407  28.827  31.101  1.00  0.00    -0.354 N 
ATOM     59  N   UNL A   1      43.930  26.301  29.707  1.00  0.00    -0.248 NA
ATOM     60  C   UNL A   1      44.691  24.234  28.931  1.00  0.00     0.031 C 
ATOM     61  C   UNL A   1      46.378  29.140  32.077  1.00  0.00     0.029 A 
ATOM     62  C   UNL A   1      45.639  28.239  31.328  1.00  0.00     0.049 A 
ATOM     63  H   UNL A   1      43.671  28.421  30.588  1.00  0.00     0.167 HD
ATOM     64  C   UNL A   1      45.240  26.109  30.128  1.00  0.00     0.074 A 
ATOM     65  C   UNL A   1      45.646  24.804  29.651  1.00  0.00     0.031 C 
ATOM     66  C   UNL A   1      46.032  26.938  30.850  1.00  0.00     0.031 A 
BRANCH  53  67
ATOM     67  C   UNL A   1      43.382  32.332  32.280  1.00  0.00    -0.014 A 
ATOM     68  C   UNL A   1      43.125  32.525  33.647  1.00  0.00     0.009 A 
ATOM     69  C   UNL A   1      43.816  33.424  31.512  1.00  0.00     0.009 A 
ATOM     70  C   UNL A   1      43.263  33.790  34.222  1.00  0.00     0.001 A 
ATOM     71  C   UNL A   1      43.985  34.681  32.096  1.00  0.00     0.001 A 
ATOM     72  C   UNL A   1      43.697  34.865  33.447  1.00  0.00     0.000 A 
ENDBRANCH  53  67
BRANCH  54  73
ATOM     73  C   UNL A   1      42.136  23.569  27.677  1.00  0.00    -0.014 A 
ATOM     74  C   UNL A   1      41.677  22.435  28.365  1.00  0.00     0.009 A 
ATOM     75  C   UNL A   1      42.449  23.452  26.313  1.00  0.00     0.009 A 
ATOM     76  C   UNL A   1      41.562  21.206  27.711  1.00  0.00     0.001 A 
ATOM     77  C   UNL A   1      42.301  22.230  25.654  1.00  0.00     0.001 A 
ATOM     78  C   UNL A   1      41.869  21.106  26.355  1.00  0.00     0.000 A 
ENDBRANCH  54  73
BRANCH  66  79
ATOM     79  C   UNL A   1      47.408  26.446  31.205  1.00  0.00    -0.014 A 
ATOM     80  C   UNL A   1      47.652  25.754  32.402  1.00  0.00     0.009 A 
ATOM     81  C   UNL A   1      48.465  26.633  30.300  1.00  0.00     0.009 A 
ATOM     82  C   UNL A   1      48.935  25.287  32.697  1.00  0.00     0.001 A 
ATOM     83  C   UNL A   1      49.738  26.138  30.583  1.00  0.00     0.001 A 
ATOM     84  C   UNL A   1      49.974  25.473  31.785  1.00  0.00     0.000 A 
ENDBRANCH  66  79
ENDBRANCH  40  41
ENDBRANCH  32  35
ENDBRANCH  30  31
ENDBRANCH  29  30
ENDBRANCH   1  29
TORSDOF 13
ENDMDL
