MODEL 1
REMARK VINA RESULT:     -11.3      0.000      0.000
REMARK SMILES O=C(NCCCNC(=O)[C@H]1CC[C@@H](CNc2cccc(F)c2[N+](=O)[O-])O1)c1ccc(-c2c3nc(c(-c4ccccc4)c4ccc([nH]4)c(-c4ccccc4)c4nc(c(-c5ccccc5)c5ccc2[nH]5)C=C4)C=C3)cc1
REMARK SMILES IDX 6 1 5 2 4 3 3 4 1 5 2 6 27 8 28 9 74 10 29 11 73 12 30 13
REMARK SMILES IDX 31 14 32 15 67 16 33 17 72 18 66 19 68 20 34 21 71 22 65 23
REMARK SMILES IDX 64 24 35 26 57 27 42 28 56 29 43 30 46 31 55 32 69 33 44 34
REMARK SMILES IDX 45 35 54 37 70 38 47 39 36 40 37 41 41 42 38 43 40 44 39 45
REMARK SMILES IDX 58 46 59 47 63 48 60 49 62 50 61 51 48 52 49 53 53 54 50 55
REMARK SMILES IDX 52 56 51 57 7 58 8 59 9 61 10 62 11 63 26 64 12 65 13 66
REMARK SMILES IDX 14 67 15 68 16 70 17 71 22 72 18 73 20 74 19 75 21 76 23 77
REMARK SMILES IDX 24 78 25 79
REMARK H PARENT 3 7 68 25 46 36 7 60 15 69
REMARK Flexibility Score: inf
ROOT
ATOM      1  C   UNL A   1      36.604  20.815  24.971  1.00  0.00     0.117 C 
ENDROOT
BRANCH   1   2
ATOM      2  C   UNL A   1      37.731  19.791  24.973  1.00  0.00     0.042 C 
BRANCH   2   3
ATOM      3  C   UNL A   1      38.944  20.248  25.770  1.00  0.00     0.118 C 
BRANCH   3   4
ATOM      4  N   UNL A   1      39.991  19.235  25.820  1.00  0.00    -0.352 N 
ATOM      5  O   UNL A   1      42.080  18.399  25.925  1.00  0.00    -0.269 OA
ATOM      6  C   UNL A   1      41.338  19.368  26.050  1.00  0.00     0.251 C 
ATOM      7  H   UNL A   1      39.685  18.313  25.665  1.00  0.00     0.163 HD
BRANCH   6   8
ATOM      8  C   UNL A   1      41.893  20.669  26.468  1.00  0.00     0.039 A 
ATOM      9  C   UNL A   1      42.259  21.617  25.509  1.00  0.00     0.014 A 
ATOM     10  C   UNL A   1      41.983  20.970  27.829  1.00  0.00     0.014 A 
ATOM     11  C   UNL A   1      42.812  22.826  25.907  1.00  0.00     0.010 A 
ATOM     12  C   UNL A   1      42.456  22.222  28.228  1.00  0.00     0.010 A 
ATOM     13  C   UNL A   1      42.880  23.155  27.269  1.00  0.00    -0.014 A 
BRANCH  13  14
ATOM     14  C   UNL A   1      43.289  24.523  27.662  1.00  0.00     0.031 A 
ATOM     15  C   UNL A   1      42.277  25.561  28.038  1.00  0.00     0.074 A 
ATOM     16  C   UNL A   1      44.604  24.820  27.659  1.00  0.00     0.049 A 
ATOM     17  N   UNL A   1      42.471  26.809  28.384  1.00  0.00    -0.248 NA
ATOM     18  C   UNL A   1      40.865  25.151  28.015  1.00  0.00     0.031 C 
ATOM     19  C   UNL A   1      45.676  23.888  27.296  1.00  0.00     0.029 A 
ATOM     20  N   UNL A   1      45.263  25.981  27.966  1.00  0.00    -0.354 N 
ATOM     21  C   UNL A   1      41.207  27.341  28.598  1.00  0.00     0.074 A 
ATOM     22  C   UNL A   1      40.253  26.287  28.321  1.00  0.00     0.031 C 
ATOM     23  C   UNL A   1      46.857  24.505  27.427  1.00  0.00     0.029 A 
ATOM     24  C   UNL A   1      46.624  25.891  27.812  1.00  0.00     0.049 A 
ATOM     25  H   UNL A   1      44.806  26.800  28.268  1.00  0.00     0.167 HD
ATOM     26  C   UNL A   1      40.877  28.597  28.986  1.00  0.00     0.031 A 
ATOM     27  C   UNL A   1      47.584  26.826  27.931  1.00  0.00     0.031 A 
ATOM     28  C   UNL A   1      41.836  29.641  29.237  1.00  0.00     0.049 A 
ATOM     29  C   UNL A   1      47.191  28.219  28.322  1.00  0.00     0.074 A 
ATOM     30  C   UNL A   1      41.610  30.935  29.673  1.00  0.00     0.029 A 
ATOM     31  N   UNL A   1      43.206  29.515  29.055  1.00  0.00    -0.354 N 
ATOM     32  N   UNL A   1      45.997  28.695  28.575  1.00  0.00    -0.248 NA
ATOM     33  C   UNL A   1      48.274  29.202  28.445  1.00  0.00     0.031 C 
ATOM     34  C   UNL A   1      42.834  31.610  29.690  1.00  0.00     0.029 A 
ATOM     35  C   UNL A   1      43.834  30.718  29.334  1.00  0.00     0.049 A 
ATOM     36  H   UNL A   1      43.665  28.691  28.769  1.00  0.00     0.167 HD
ATOM     37  C   UNL A   1      46.182  30.028  28.908  1.00  0.00     0.074 A 
ATOM     38  C   UNL A   1      47.608  30.282  28.835  1.00  0.00     0.031 C 
ATOM     39  C   UNL A   1      45.254  30.955  29.249  1.00  0.00     0.031 A 
BRANCH  26  40
ATOM     40  C   UNL A   1      39.411  28.918  29.111  1.00  0.00    -0.014 A 
ATOM     41  C   UNL A   1      38.665  29.397  28.022  1.00  0.00     0.009 A 
ATOM     42  C   UNL A   1      38.762  28.725  30.341  1.00  0.00     0.009 A 
ATOM     43  C   UNL A   1      37.316  29.726  28.177  1.00  0.00     0.001 A 
ATOM     44  C   UNL A   1      37.407  29.023  30.485  1.00  0.00     0.001 A 
ATOM     45  C   UNL A   1      36.688  29.538  29.407  1.00  0.00     0.000 A 
ENDBRANCH  26  40
BRANCH  27  46
ATOM     46  C   UNL A   1      48.993  26.457  27.646  1.00  0.00    -0.014 A 
ATOM     47  C   UNL A   1      49.841  26.011  28.669  1.00  0.00     0.009 A 
ATOM     48  C   UNL A   1      49.475  26.485  26.326  1.00  0.00     0.009 A 
ATOM     49  C   UNL A   1      51.146  25.607  28.375  1.00  0.00     0.001 A 
ATOM     50  C   UNL A   1      50.768  26.051  26.033  1.00  0.00     0.001 A 
ATOM     51  C   UNL A   1      51.605  25.617  27.058  1.00  0.00     0.000 A 
ENDBRANCH  27  46
BRANCH  39  52
ATOM     52  C   UNL A   1      45.750  32.328  29.602  1.00  0.00    -0.014 A 
ATOM     53  C   UNL A   1      45.779  33.361  28.653  1.00  0.00     0.009 A 
ATOM     54  C   UNL A   1      46.130  32.606  30.925  1.00  0.00     0.009 A 
ATOM     55  C   UNL A   1      46.193  34.642  29.020  1.00  0.00     0.001 A 
ATOM     56  C   UNL A   1      46.517  33.894  31.294  1.00  0.00     0.001 A 
ATOM     57  C   UNL A   1      46.553  34.909  30.341  1.00  0.00     0.000 A 
ENDBRANCH  39  52
ENDBRANCH  13  14
ENDBRANCH   6   8
ENDBRANCH   3   4
ENDBRANCH   2   3
ENDBRANCH   1   2
BRANCH   1  58
ATOM     58  N   UNL A   1      35.347  20.226  25.367  1.00  0.00    -0.354 N 
ATOM     59  C   UNL A   1      34.073  20.683  25.208  1.00  0.00     0.249 C 
ATOM     60  H   UNL A   1      35.422  19.355  25.822  1.00  0.00     0.163 HD
ATOM     61  O   UNL A   1      33.172  19.994  25.697  1.00  0.00    -0.272 OA
BRANCH  59  62
ATOM     62  C   UNL A   1      33.742  21.976  24.427  1.00  0.00     0.207 C 
ATOM     63  C   UNL A   1      32.469  21.979  23.605  1.00  0.00     0.045 C 
ATOM     64  O   UNL A   1      33.725  23.108  25.292  1.00  0.00    -0.363 OA
ATOM     65  C   UNL A   1      31.623  23.108  24.158  1.00  0.00     0.037 C 
ATOM     66  C   UNL A   1      32.547  23.906  25.072  1.00  0.00     0.138 C 
BRANCH  66  67
ATOM     67  C   UNL A   1      32.031  24.344  26.468  1.00  0.00     0.145 C 
BRANCH  67  68
ATOM     68  N   UNL A   1      31.048  25.421  26.430  1.00  0.00    -0.377 N 
ATOM     69  H   UNL A   1      30.108  25.174  26.590  1.00  0.00     0.160 HD
BRANCH  68  70
ATOM     70  C   UNL A   1      31.316  26.760  26.189  1.00  0.00     0.116 A 
ATOM     71  C   UNL A   1      31.793  27.609  27.204  1.00  0.00     0.033 A 
ATOM     72  C   UNL A   1      31.015  27.375  24.951  1.00  0.00     0.327 A 
ATOM     73  C   UNL A   1      31.956  28.987  27.004  1.00  0.00     0.006 A 
ATOM     74  C   UNL A   1      31.182  28.745  24.745  1.00  0.00     0.202 A 
ATOM     75  C   UNL A   1      31.646  29.554  25.773  1.00  0.00     0.047 A 
ATOM     76  F   UNL A   1      30.907  29.314  23.562  1.00  0.00    -0.199 F 
BRANCH  72  77
ATOM     77  N   UNL A   1      30.455  26.599  23.861  1.00  0.00     0.068 N 
ATOM     78  O   UNL A   1      31.183  26.384  22.877  1.00  0.00    -0.258 OA
ATOM     79  O   UNL A   1      29.307  26.152  23.993  1.00  0.00    -0.258 OA
ENDBRANCH  72  77
ENDBRANCH  68  70
ENDBRANCH  67  68
ENDBRANCH  66  67
ENDBRANCH  59  62
ENDBRANCH   1  58
TORSDOF 14
ENDMDL
MODEL 2
REMARK VINA RESULT:     -11.1      0.411      5.980
REMARK SMILES O=C(NCCCNC(=O)[C@H]1CC[C@@H](CNc2cccc(F)c2[N+](=O)[O-])O1)c1ccc(-c2c3nc(c(-c4ccccc4)c4ccc([nH]4)c(-c4ccccc4)c4nc(c(-c5ccccc5)c5ccc2[nH]5)C=C4)C=C3)cc1
REMARK SMILES IDX 6 1 5 2 4 3 3 4 1 5 2 6 27 8 28 9 74 10 29 11 73 12 30 13
REMARK SMILES IDX 31 14 32 15 67 16 33 17 72 18 66 19 68 20 34 21 71 22 65 23
REMARK SMILES IDX 64 24 35 26 57 27 42 28 56 29 43 30 46 31 55 32 69 33 44 34
REMARK SMILES IDX 45 35 54 37 70 38 47 39 36 40 37 41 41 42 38 43 40 44 39 45
REMARK SMILES IDX 58 46 59 47 63 48 60 49 62 50 61 51 48 52 49 53 53 54 50 55
REMARK SMILES IDX 52 56 51 57 7 58 8 59 9 61 10 62 11 63 26 64 12 65 13 66
REMARK SMILES IDX 14 67 15 68 16 70 17 71 22 72 18 73 20 74 19 75 21 76 23 77
REMARK SMILES IDX 24 78 25 79
REMARK H PARENT 3 7 68 25 46 36 7 60 15 69
REMARK Flexibility Score: inf
ROOT
ATOM      1  C   UNL A   1      36.636  20.734  24.977  1.00  0.00     0.117 C 
ENDROOT
BRANCH   1   2
ATOM      2  C   UNL A   1      37.772  19.722  25.001  1.00  0.00     0.042 C 
BRANCH   2   3
ATOM      3  C   UNL A   1      38.996  20.225  25.752  1.00  0.00     0.118 C 
BRANCH   3   4
ATOM      4  N   UNL A   1      40.027  19.203  25.886  1.00  0.00    -0.352 N 
ATOM      5  O   UNL A   1      42.103  18.345  26.057  1.00  0.00    -0.269 OA
ATOM      6  C   UNL A   1      41.377  19.333  26.102  1.00  0.00     0.251 C 
ATOM      7  H   UNL A   1      39.706  18.276  25.810  1.00  0.00     0.163 HD
BRANCH   6   8
ATOM      8  C   UNL A   1      41.954  20.655  26.408  1.00  0.00     0.039 A 
ATOM      9  C   UNL A   1      42.256  21.546  25.375  1.00  0.00     0.014 A 
ATOM     10  C   UNL A   1      42.129  21.034  27.741  1.00  0.00     0.014 A 
ATOM     11  C   UNL A   1      42.830  22.775  25.667  1.00  0.00     0.010 A 
ATOM     12  C   UNL A   1      42.623  22.306  28.038  1.00  0.00     0.010 A 
ATOM     13  C   UNL A   1      42.983  23.181  27.002  1.00  0.00    -0.014 A 
BRANCH  13  14
ATOM     14  C   UNL A   1      43.412  24.569  27.289  1.00  0.00     0.031 A 
ATOM     15  C   UNL A   1      44.848  24.982  27.168  1.00  0.00     0.074 A 
ATOM     16  C   UNL A   1      42.477  25.457  27.680  1.00  0.00     0.049 A 
ATOM     17  N   UNL A   1      45.387  26.151  27.406  1.00  0.00    -0.248 NA
ATOM     18  C   UNL A   1      45.801  23.951  26.736  1.00  0.00     0.031 C 
ATOM     19  C   UNL A   1      41.050  25.159  27.843  1.00  0.00     0.029 A 
ATOM     20  N   UNL A   1      42.578  26.783  28.011  1.00  0.00    -0.354 N 
ATOM     21  C   UNL A   1      46.747  25.992  27.174  1.00  0.00     0.074 A 
ATOM     22  C   UNL A   1      46.951  24.608  26.799  1.00  0.00     0.031 C 
ATOM     23  C   UNL A   1      40.409  26.273  28.217  1.00  0.00     0.029 A 
ATOM     24  C   UNL A   1      41.383  27.343  28.389  1.00  0.00     0.049 A 
ATOM     25  H   UNL A   1      43.426  27.285  27.980  1.00  0.00     0.167 HD
ATOM     26  C   UNL A   1      47.732  26.918  27.269  1.00  0.00     0.031 A 
ATOM     27  C   UNL A   1      41.100  28.572  28.856  1.00  0.00     0.031 A 
ATOM     28  C   UNL A   1      47.515  28.286  27.664  1.00  0.00     0.049 A 
ATOM     29  C   UNL A   1      42.212  29.567  28.993  1.00  0.00     0.074 A 
ATOM     30  C   UNL A   1      48.437  29.314  27.753  1.00  0.00     0.029 A 
ATOM     31  N   UNL A   1      46.292  28.811  28.054  1.00  0.00    -0.354 N 
ATOM     32  N   UNL A   1      43.485  29.420  28.717  1.00  0.00    -0.248 NA
ATOM     33  C   UNL A   1      41.852  30.897  29.501  1.00  0.00     0.031 C 
ATOM     34  C   UNL A   1      47.785  30.442  28.261  1.00  0.00     0.029 A 
ATOM     35  C   UNL A   1      46.441  30.138  28.421  1.00  0.00     0.049 A 
ATOM     36  H   UNL A   1      45.442  28.314  28.068  1.00  0.00     0.167 HD
ATOM     37  C   UNL A   1      44.078  30.641  28.998  1.00  0.00     0.074 A 
ATOM     38  C   UNL A   1      43.021  31.523  29.456  1.00  0.00     0.031 C 
ATOM     39  C   UNL A   1      45.379  31.000  28.881  1.00  0.00     0.031 A 
BRANCH  26  40
ATOM     40  C   UNL A   1      49.139  26.460  26.990  1.00  0.00    -0.014 A 
ATOM     41  C   UNL A   1      49.676  26.475  25.693  1.00  0.00     0.009 A 
ATOM     42  C   UNL A   1      49.945  26.016  28.051  1.00  0.00     0.009 A 
ATOM     43  C   UNL A   1      50.972  26.006  25.457  1.00  0.00     0.001 A 
ATOM     44  C   UNL A   1      51.249  25.578  27.817  1.00  0.00     0.001 A 
ATOM     45  C   UNL A   1      51.757  25.560  26.519  1.00  0.00     0.000 A 
ENDBRANCH  26  40
BRANCH  27  46
ATOM     46  C   UNL A   1      39.705  28.893  29.248  1.00  0.00    -0.014 A 
ATOM     47  C   UNL A   1      38.799  29.421  28.317  1.00  0.00     0.009 A 
ATOM     48  C   UNL A   1      39.254  28.604  30.547  1.00  0.00     0.009 A 
ATOM     49  C   UNL A   1      37.472  29.659  28.683  1.00  0.00     0.001 A 
ATOM     50  C   UNL A   1      37.920  28.814  30.899  1.00  0.00     0.001 A 
ATOM     51  C   UNL A   1      37.031  29.346  29.968  1.00  0.00     0.000 A 
ENDBRANCH  27  46
BRANCH  39  52
ATOM     52  C   UNL A   1      45.736  32.418  29.224  1.00  0.00    -0.014 A 
ATOM     53  C   UNL A   1      46.153  32.774  30.515  1.00  0.00     0.009 A 
ATOM     54  C   UNL A   1      45.719  33.396  28.217  1.00  0.00     0.009 A 
ATOM     55  C   UNL A   1      46.531  34.089  30.794  1.00  0.00     0.001 A 
ATOM     56  C   UNL A   1      46.124  34.702  28.493  1.00  0.00     0.001 A 
ATOM     57  C   UNL A   1      46.525  35.049  29.781  1.00  0.00     0.000 A 
ENDBRANCH  39  52
ENDBRANCH  13  14
ENDBRANCH   6   8
ENDBRANCH   3   4
ENDBRANCH   2   3
ENDBRANCH   1   2
BRANCH   1  58
ATOM     58  N   UNL A   1      35.368  20.118  25.289  1.00  0.00    -0.354 N 
ATOM     59  C   UNL A   1      34.098  20.567  25.080  1.00  0.00     0.249 C 
ATOM     60  H   UNL A   1      35.429  19.235  25.721  1.00  0.00     0.163 HD
ATOM     61  O   UNL A   1      33.181  19.853  25.501  1.00  0.00    -0.272 OA
BRANCH  59  62
ATOM     62  C   UNL A   1      33.790  21.880  24.324  1.00  0.00     0.207 C 
ATOM     63  C   UNL A   1      32.512  21.925  23.511  1.00  0.00     0.045 C 
ATOM     64  O   UNL A   1      33.804  22.997  25.208  1.00  0.00    -0.363 OA
ATOM     65  C   UNL A   1      31.695  23.063  24.088  1.00  0.00     0.037 C 
ATOM     66  C   UNL A   1      32.643  23.825  25.009  1.00  0.00     0.138 C 
BRANCH  66  67
ATOM     67  C   UNL A   1      32.146  24.250  26.416  1.00  0.00     0.145 C 
BRANCH  67  68
ATOM     68  N   UNL A   1      31.165  25.330  26.402  1.00  0.00    -0.377 N 
ATOM     69  H   UNL A   1      30.223  25.081  26.545  1.00  0.00     0.160 HD
BRANCH  68  70
ATOM     70  C   UNL A   1      31.439  26.676  26.205  1.00  0.00     0.116 A 
ATOM     71  C   UNL A   1      31.902  27.493  27.252  1.00  0.00     0.033 A 
ATOM     72  C   UNL A   1      31.158  27.327  24.982  1.00  0.00     0.327 A 
ATOM     73  C   UNL A   1      32.070  28.876  27.095  1.00  0.00     0.006 A 
ATOM     74  C   UNL A   1      31.330  28.703  24.818  1.00  0.00     0.202 A 
ATOM     75  C   UNL A   1      31.779  29.480  25.878  1.00  0.00     0.047 A 
ATOM     76  F   UNL A   1      31.073  29.307  23.650  1.00  0.00    -0.199 F 
BRANCH  72  77
ATOM     77  N   UNL A   1      30.613  26.585  23.860  1.00  0.00     0.068 N 
ATOM     78  O   UNL A   1      31.354  26.399  22.881  1.00  0.00    -0.258 OA
ATOM     79  O   UNL A   1      29.463  26.135  23.962  1.00  0.00    -0.258 OA
ENDBRANCH  72  77
ENDBRANCH  68  70
ENDBRANCH  67  68
ENDBRANCH  66  67
ENDBRANCH  59  62
ENDBRANCH   1  58
TORSDOF 14
ENDMDL
MODEL 3
REMARK VINA RESULT:     -11.1      4.924     10.168
REMARK SMILES O=C(NCCCNC(=O)[C@H]1CC[C@@H](CNc2cccc(F)c2[N+](=O)[O-])O1)c1ccc(-c2c3nc(c(-c4ccccc4)c4ccc([nH]4)c(-c4ccccc4)c4nc(c(-c5ccccc5)c5ccc2[nH]5)C=C4)C=C3)cc1
REMARK SMILES IDX 6 1 5 2 4 3 3 4 1 5 2 6 27 8 28 9 74 10 29 11 73 12 30 13
REMARK SMILES IDX 31 14 32 15 67 16 33 17 72 18 66 19 68 20 34 21 71 22 65 23
REMARK SMILES IDX 64 24 35 26 57 27 42 28 56 29 43 30 46 31 55 32 69 33 44 34
REMARK SMILES IDX 45 35 54 37 70 38 47 39 36 40 37 41 41 42 38 43 40 44 39 45
REMARK SMILES IDX 58 46 59 47 63 48 60 49 62 50 61 51 48 52 49 53 53 54 50 55
REMARK SMILES IDX 52 56 51 57 7 58 8 59 9 61 10 62 11 63 26 64 12 65 13 66
REMARK SMILES IDX 14 67 15 68 16 70 17 71 22 72 18 73 20 74 19 75 21 76 23 77
REMARK SMILES IDX 24 78 25 79
REMARK H PARENT 3 7 68 25 46 36 7 60 15 69
REMARK Flexibility Score: inf
ROOT
ATOM      1  C   UNL A   1      31.674  30.298  26.082  1.00  0.00     0.117 C 
ENDROOT
BRANCH   1   2
ATOM      2  C   UNL A   1      31.414  31.738  26.500  1.00  0.00     0.042 C 
BRANCH   2   3
ATOM      3  C   UNL A   1      32.645  32.416  27.082  1.00  0.00     0.118 C 
BRANCH   3   4
ATOM      4  N   UNL A   1      32.383  33.789  27.495  1.00  0.00    -0.352 N 
ATOM      5  O   UNL A   1      32.529  35.653  28.752  1.00  0.00    -0.269 OA
ATOM      6  C   UNL A   1      32.983  34.548  28.469  1.00  0.00     0.251 C 
ATOM      7  H   UNL A   1      31.664  34.242  26.999  1.00  0.00     0.163 HD
BRANCH   6   8
ATOM      8  C   UNL A   1      34.185  34.049  29.162  1.00  0.00     0.039 A 
ATOM      9  C   UNL A   1      34.058  33.229  30.286  1.00  0.00     0.014 A 
ATOM     10  C   UNL A   1      35.448  34.345  28.643  1.00  0.00     0.014 A 
ATOM     11  C   UNL A   1      35.192  32.790  30.954  1.00  0.00     0.010 A 
ATOM     12  C   UNL A   1      36.587  33.828  29.264  1.00  0.00     0.010 A 
ATOM     13  C   UNL A   1      36.466  33.053  30.427  1.00  0.00    -0.014 A 
BRANCH  13  14
ATOM     14  C   UNL A   1      37.649  32.411  31.044  1.00  0.00     0.031 A 
ATOM     15  C   UNL A   1      38.312  31.226  30.411  1.00  0.00     0.074 A 
ATOM     16  C   UNL A   1      38.110  32.911  32.208  1.00  0.00     0.049 A 
ATOM     17  N   UNL A   1      39.341  30.538  30.836  1.00  0.00    -0.248 NA
ATOM     18  C   UNL A   1      37.743  30.747  29.143  1.00  0.00     0.031 C 
ATOM     19  C   UNL A   1      37.532  34.055  32.920  1.00  0.00     0.029 A 
ATOM     20  N   UNL A   1      39.164  32.527  32.996  1.00  0.00    -0.354 N 
ATOM     21  C   UNL A   1      39.531  29.529  29.901  1.00  0.00     0.074 A 
ATOM     22  C   UNL A   1      38.497  29.683  28.899  1.00  0.00     0.031 C 
ATOM     23  C   UNL A   1      38.252  34.295  34.023  1.00  0.00     0.029 A 
ATOM     24  C   UNL A   1      39.295  33.284  34.134  1.00  0.00     0.049 A 
ATOM     25  H   UNL A   1      39.767  31.783  32.768  1.00  0.00     0.167 HD
ATOM     26  C   UNL A   1      40.480  28.562  29.886  1.00  0.00     0.031 A 
ATOM     27  C   UNL A   1      40.139  33.161  35.175  1.00  0.00     0.031 A 
ATOM     28  C   UNL A   1      41.490  28.409  30.903  1.00  0.00     0.049 A 
ATOM     29  C   UNL A   1      41.154  32.059  35.157  1.00  0.00     0.074 A 
ATOM     30  C   UNL A   1      42.522  27.489  30.961  1.00  0.00     0.029 A 
ATOM     31  N   UNL A   1      41.581  29.186  32.049  1.00  0.00    -0.354 N 
ATOM     32  N   UNL A   1      41.359  31.146  34.239  1.00  0.00    -0.248 NA
ATOM     33  C   UNL A   1      42.056  31.971  36.312  1.00  0.00     0.031 C 
ATOM     34  C   UNL A   1      43.195  27.667  32.174  1.00  0.00     0.029 A 
ATOM     35  C   UNL A   1      42.628  28.743  32.839  1.00  0.00     0.049 A 
ATOM     36  H   UNL A   1      40.987  29.941  32.268  1.00  0.00     0.167 HD
ATOM     37  C   UNL A   1      42.425  30.385  34.693  1.00  0.00     0.074 A 
ATOM     38  C   UNL A   1      42.831  30.951  35.965  1.00  0.00     0.031 C 
ATOM     39  C   UNL A   1      43.015  29.316  34.106  1.00  0.00     0.031 A 
BRANCH  26  40
ATOM     40  C   UNL A   1      40.434  27.566  28.759  1.00  0.00    -0.014 A 
ATOM     41  C   UNL A   1      39.668  26.392  28.842  1.00  0.00     0.009 A 
ATOM     42  C   UNL A   1      41.163  27.815  27.584  1.00  0.00     0.009 A 
ATOM     43  C   UNL A   1      39.675  25.465  27.797  1.00  0.00     0.001 A 
ATOM     44  C   UNL A   1      41.143  26.902  26.529  1.00  0.00     0.001 A 
ATOM     45  C   UNL A   1      40.412  25.721  26.641  1.00  0.00     0.000 A 
ENDBRANCH  26  40
BRANCH  27  46
ATOM     46  C   UNL A   1      40.019  34.101  36.318  1.00  0.00    -0.014 A 
ATOM     47  C   UNL A   1      40.690  35.331  36.312  1.00  0.00     0.009 A 
ATOM     48  C   UNL A   1      39.168  33.796  37.394  1.00  0.00     0.009 A 
ATOM     49  C   UNL A   1      40.517  36.233  37.365  1.00  0.00     0.001 A 
ATOM     50  C   UNL A   1      38.974  34.711  38.428  1.00  0.00     0.001 A 
ATOM     51  C   UNL A   1      39.653  35.928  38.416  1.00  0.00     0.000 A 
ENDBRANCH  27  46
BRANCH  39  52
ATOM     52  C   UNL A   1      44.189  28.702  34.814  1.00  0.00    -0.014 A 
ATOM     53  C   UNL A   1      44.026  27.631  35.705  1.00  0.00     0.009 A 
ATOM     54  C   UNL A   1      45.484  29.162  34.529  1.00  0.00     0.009 A 
ATOM     55  C   UNL A   1      45.139  27.043  36.309  1.00  0.00     0.001 A 
ATOM     56  C   UNL A   1      46.596  28.554  35.113  1.00  0.00     0.001 A 
ATOM     57  C   UNL A   1      46.422  27.499  36.006  1.00  0.00     0.000 A 
ENDBRANCH  39  52
ENDBRANCH  13  14
ENDBRANCH   6   8
ENDBRANCH   3   4
ENDBRANCH   2   3
ENDBRANCH   1   2
BRANCH   1  58
ATOM     58  N   UNL A   1      31.346  30.078  24.693  1.00  0.00    -0.354 N 
ATOM     59  C   UNL A   1      31.097  28.918  24.022  1.00  0.00     0.249 C 
ATOM     60  H   UNL A   1      31.293  30.895  24.144  1.00  0.00     0.163 HD
ATOM     61  O   UNL A   1      30.893  29.014  22.806  1.00  0.00    -0.272 OA
BRANCH  59  62
ATOM     62  C   UNL A   1      31.029  27.544  24.726  1.00  0.00     0.207 C 
ATOM     63  C   UNL A   1      30.033  26.538  24.184  1.00  0.00     0.045 C 
ATOM     64  O   UNL A   1      32.313  26.928  24.774  1.00  0.00    -0.363 OA
ATOM     65  C   UNL A   1      30.849  25.333  23.766  1.00  0.00     0.037 C 
ATOM     66  C   UNL A   1      32.241  25.555  24.349  1.00  0.00     0.138 C 
BRANCH  66  67
ATOM     67  C   UNL A   1      33.482  25.292  23.456  1.00  0.00     0.145 C 
BRANCH  67  68
ATOM     68  N   UNL A   1      33.488  23.985  22.810  1.00  0.00    -0.377 N 
ATOM     69  H   UNL A   1      33.421  23.971  21.827  1.00  0.00     0.160 HD
BRANCH  68  70
ATOM     70  C   UNL A   1      33.578  22.759  23.453  1.00  0.00     0.116 A 
ATOM     71  C   UNL A   1      32.438  21.973  23.704  1.00  0.00     0.033 A 
ATOM     72  C   UNL A   1      34.795  22.285  23.997  1.00  0.00     0.327 A 
ATOM     73  C   UNL A   1      32.502  20.791  24.454  1.00  0.00     0.006 A 
ATOM     74  C   UNL A   1      34.865  21.105  24.740  1.00  0.00     0.202 A 
ATOM     75  C   UNL A   1      33.716  20.361  24.975  1.00  0.00     0.047 A 
ATOM     76  F   UNL A   1      36.026  20.659  25.238  1.00  0.00    -0.199 F 
BRANCH  72  77
ATOM     77  N   UNL A   1      36.016  23.056  23.852  1.00  0.00     0.068 N 
ATOM     78  O   UNL A   1      36.585  23.026  22.748  1.00  0.00    -0.258 OA
ATOM     79  O   UNL A   1      36.392  23.738  24.816  1.00  0.00    -0.258 OA
ENDBRANCH  72  77
ENDBRANCH  68  70
ENDBRANCH  67  68
ENDBRANCH  66  67
ENDBRANCH  59  62
ENDBRANCH   1  58
TORSDOF 14
ENDMDL
