MODEL 1
REMARK VINA RESULT:     -10.8      0.000      0.000
REMARK SMILES Cc1ccc(N2C(=O)/C(=C\c3ccccc3O[C@H](C)C(=O)NCCCNC(=O)c3ccc(-c4c5nc(c(-c6ccccc6)c6ccc([nH]6)c(-c6ccccc6)c6nc(c(-c7ccccc7)c7ccc4[nH]7)C=C6)C=C5)cc3)SC2=S)c(C)c1
REMARK SMILES IDX 23 1 22 2 20 3 21 4 18 6 19 7 17 8 16 9 11 10 12 11 13 12
REMARK SMILES IDX 15 13 14 14 10 15 6 16 7 17 78 18 8 19 9 20 77 21 79 22 5 23
REMARK SMILES IDX 1 24 2 25 3 26 82 27 4 28 80 29 81 30 24 31 25 32 26 33
REMARK SMILES IDX 27 34 28 36 29 37 30 38 76 39 31 40 75 41 32 42 33 43 34 44
REMARK SMILES IDX 69 45 35 46 74 47 68 48 70 49 36 50 73 51 67 52 66 53 37 55
REMARK SMILES IDX 59 56 44 57 58 58 45 59 48 60 57 61 71 62 46 63 47 64 56 66
REMARK SMILES IDX 72 67 49 68 38 69 39 70 43 71 40 72 42 73 41 74 60 75 61 76
REMARK SMILES IDX 65 77 62 78 64 79 63 80 50 81 51 82 55 83 52 84 54 85 53 86
REMARK H PARENT 22 5 26 35 70 54 48 65
REMARK Flexibility Score: inf
ROOT
ATOM      1  C   UNL A   1      43.029  21.477  25.696  1.00  0.00     0.118 C 
ENDROOT
BRANCH   1   2
ATOM      2  N   UNL A   1      44.416  21.794  26.008  1.00  0.00    -0.353 N 
ATOM      3  C   UNL A   1      44.974  22.965  26.458  1.00  0.00     0.260 C 
ATOM      4  O   UNL A   1      46.183  22.963  26.708  1.00  0.00    -0.271 OA
ATOM      5  H   UNL A   1      45.053  21.054  25.876  1.00  0.00     0.163 HD
BRANCH   3   6
ATOM      6  C   UNL A   1      44.127  24.244  26.590  1.00  0.00     0.258 C 
ATOM      7  C   UNL A   1      43.548  24.287  27.999  1.00  0.00     0.064 C 
BRANCH   6   8
ATOM      8  O   UNL A   1      45.031  25.275  26.219  1.00  0.00    -0.480 OA
BRANCH   8   9
ATOM      9  C   UNL A   1      44.882  26.601  26.473  1.00  0.00     0.127 A 
ATOM     10  C   UNL A   1      45.897  27.156  27.285  1.00  0.00     0.018 A 
ATOM     11  C   UNL A   1      45.793  28.477  27.732  1.00  0.00     0.012 A 
ATOM     12  C   UNL A   1      44.713  29.261  27.335  1.00  0.00     0.001 A 
ATOM     13  C   UNL A   1      43.841  27.410  26.034  1.00  0.00     0.047 A 
ATOM     14  C   UNL A   1      43.752  28.735  26.473  1.00  0.00     0.004 A 
BRANCH  10  15
ATOM     15  C   UNL A   1      47.088  26.374  27.668  1.00  0.00     0.033 C 
ATOM     16  N   UNL A   1      49.833  26.739  25.263  1.00  0.00    -0.261 N 
ATOM     17  C   UNL A   1      48.578  27.113  25.738  1.00  0.00     0.270 C 
ATOM     18  C   UNL A   1      50.528  25.809  26.019  1.00  0.00     0.152 C 
ATOM     19  O   UNL A   1      47.830  27.941  25.231  1.00  0.00    -0.268 OA
ATOM     20  C   UNL A   1      48.239  26.344  26.976  1.00  0.00     0.081 C 
ATOM     21  S   UNL A   1      49.558  25.325  27.412  1.00  0.00    -0.054 SA
ATOM     22  S   UNL A   1      52.085  25.224  25.826  1.00  0.00    -0.051 S 
BRANCH  16  23
ATOM     23  C   UNL A   1      50.295  27.278  24.023  1.00  0.00     0.054 A 
ATOM     24  C   UNL A   1      51.280  29.076  20.213  1.00  0.00     0.044 C 
ATOM     25  C   UNL A   1      50.951  28.427  21.523  1.00  0.00    -0.051 A 
ATOM     26  C   UNL A   1      50.095  27.328  21.590  1.00  0.00     0.005 A 
ATOM     27  C   UNL A   1      51.494  28.935  22.709  1.00  0.00     0.009 A 
ATOM     28  C   UNL A   1      49.767  26.764  22.826  1.00  0.00     0.027 A 
ATOM     29  C   UNL A   1      51.193  28.365  23.960  1.00  0.00    -0.027 A 
ATOM     30  C   UNL A   1      51.864  28.969  25.166  1.00  0.00     0.046 C 
ENDBRANCH  16  23
ENDBRANCH  10  15
ENDBRANCH   8   9
ENDBRANCH   6   8
ENDBRANCH   3   6
ENDBRANCH   1   2
BRANCH   1  31
ATOM     31  C   UNL A   1      42.296  20.816  26.856  1.00  0.00     0.042 C 
BRANCH  31  32
ATOM     32  C   UNL A   1      41.180  21.667  27.444  1.00  0.00     0.118 C 
BRANCH  32  33
ATOM     33  N   UNL A   1      40.074  21.857  26.516  1.00  0.00    -0.352 N 
ATOM     34  C   UNL A   1      39.242  22.931  26.322  1.00  0.00     0.251 C 
ATOM     35  H   UNL A   1      39.894  21.088  25.928  1.00  0.00     0.163 HD
ATOM     36  O   UNL A   1      38.246  22.802  25.614  1.00  0.00    -0.269 OA
BRANCH  34  37
ATOM     37  C   UNL A   1      39.514  24.234  26.968  1.00  0.00     0.039 A 
ATOM     38  C   UNL A   1      39.018  24.464  28.256  1.00  0.00     0.014 A 
ATOM     39  C   UNL A   1      40.212  25.246  26.305  1.00  0.00     0.014 A 
ATOM     40  C   UNL A   1      39.277  25.676  28.899  1.00  0.00     0.010 A 
ATOM     41  C   UNL A   1      40.540  26.422  26.976  1.00  0.00     0.010 A 
ATOM     42  C   UNL A   1      40.071  26.652  28.277  1.00  0.00    -0.014 A 
BRANCH  42  43
ATOM     43  C   UNL A   1      40.418  27.922  28.964  1.00  0.00     0.031 A 
ATOM     44  C   UNL A   1      41.746  28.071  29.655  1.00  0.00     0.074 A 
ATOM     45  C   UNL A   1      39.511  28.917  29.026  1.00  0.00     0.049 A 
ATOM     46  N   UNL A   1      42.195  29.070  30.373  1.00  0.00    -0.248 NA
ATOM     47  C   UNL A   1      42.681  26.939  29.549  1.00  0.00     0.031 C 
ATOM     48  C   UNL A   1      38.175  28.887  28.428  1.00  0.00     0.029 A 
ATOM     49  N   UNL A   1      39.577  30.146  29.632  1.00  0.00    -0.354 N 
ATOM     50  C   UNL A   1      43.448  28.675  30.826  1.00  0.00     0.074 A 
ATOM     51  C   UNL A   1      43.674  27.334  30.334  1.00  0.00     0.031 C 
ATOM     52  C   UNL A   1      37.558  30.055  28.673  1.00  0.00     0.029 A 
ATOM     53  C   UNL A   1      38.436  30.896  29.478  1.00  0.00     0.049 A 
ATOM     54  H   UNL A   1      40.367  30.461  30.130  1.00  0.00     0.167 HD
ATOM     55  C   UNL A   1      44.338  29.371  31.572  1.00  0.00     0.031 A 
ATOM     56  C   UNL A   1      38.130  32.125  29.939  1.00  0.00     0.031 A 
ATOM     57  C   UNL A   1      44.130  30.716  32.037  1.00  0.00     0.049 A 
ATOM     58  C   UNL A   1      39.136  32.874  30.765  1.00  0.00     0.074 A 
ATOM     59  C   UNL A   1      45.005  31.531  32.735  1.00  0.00     0.029 A 
ATOM     60  N   UNL A   1      42.966  31.444  31.851  1.00  0.00    -0.354 N 
ATOM     61  N   UNL A   1      40.342  32.512  31.128  1.00  0.00    -0.248 NA
ATOM     62  C   UNL A   1      38.738  34.208  31.238  1.00  0.00     0.031 C 
ATOM     63  C   UNL A   1      44.352  32.737  33.009  1.00  0.00     0.029 A 
ATOM     64  C   UNL A   1      43.090  32.690  32.441  1.00  0.00     0.049 A 
ATOM     65  H   UNL A   1      42.169  31.122  31.369  1.00  0.00     0.167 HD
ATOM     66  C   UNL A   1      40.857  33.583  31.845  1.00  0.00     0.074 A 
ATOM     67  C   UNL A   1      39.839  34.612  31.857  1.00  0.00     0.031 C 
ATOM     68  C   UNL A   1      42.069  33.703  32.440  1.00  0.00     0.031 A 
BRANCH  55  69
ATOM     69  C   UNL A   1      45.624  28.685  31.938  1.00  0.00    -0.014 A 
ATOM     70  C   UNL A   1      46.768  28.804  31.133  1.00  0.00     0.009 A 
ATOM     71  C   UNL A   1      45.703  27.943  33.127  1.00  0.00     0.009 A 
ATOM     72  C   UNL A   1      47.956  28.166  31.496  1.00  0.00     0.001 A 
ATOM     73  C   UNL A   1      46.899  27.328  33.501  1.00  0.00     0.001 A 
ATOM     74  C   UNL A   1      48.021  27.432  32.680  1.00  0.00     0.000 A 
ENDBRANCH  55  69
BRANCH  56  75
ATOM     75  C   UNL A   1      36.815  32.736  29.615  1.00  0.00    -0.014 A 
ATOM     76  C   UNL A   1      35.743  32.623  30.513  1.00  0.00     0.009 A 
ATOM     77  C   UNL A   1      36.620  33.420  28.405  1.00  0.00     0.009 A 
ATOM     78  C   UNL A   1      34.494  33.160  30.194  1.00  0.00     0.001 A 
ATOM     79  C   UNL A   1      35.378  33.978  28.101  1.00  0.00     0.001 A 
ATOM     80  C   UNL A   1      34.313  33.840  28.991  1.00  0.00     0.000 A 
ENDBRANCH  56  75
BRANCH  68  81
ATOM     81  C   UNL A   1      42.373  35.008  33.120  1.00  0.00    -0.014 A 
ATOM     82  C   UNL A   1      43.156  35.989  32.494  1.00  0.00     0.009 A 
ATOM     83  C   UNL A   1      41.835  35.269  34.389  1.00  0.00     0.009 A 
ATOM     84  C   UNL A   1      43.418  37.198  33.142  1.00  0.00     0.001 A 
ATOM     85  C   UNL A   1      42.078  36.489  35.022  1.00  0.00     0.001 A 
ATOM     86  C   UNL A   1      42.876  37.448  34.402  1.00  0.00     0.000 A 
ENDBRANCH  68  81
ENDBRANCH  42  43
ENDBRANCH  34  37
ENDBRANCH  32  33
ENDBRANCH  31  32
ENDBRANCH   1  31
TORSDOF 14
ENDMDL
MODEL 2
REMARK VINA RESULT:     -10.8      3.514      7.568
REMARK SMILES Cc1ccc(N2C(=O)/C(=C\c3ccccc3O[C@H](C)C(=O)NCCCNC(=O)c3ccc(-c4c5nc(c(-c6ccccc6)c6ccc([nH]6)c(-c6ccccc6)c6nc(c(-c7ccccc7)c7ccc4[nH]7)C=C6)C=C5)cc3)SC2=S)c(C)c1
REMARK SMILES IDX 23 1 22 2 20 3 21 4 18 6 19 7 17 8 16 9 11 10 12 11 13 12
REMARK SMILES IDX 15 13 14 14 10 15 6 16 7 17 78 18 8 19 9 20 77 21 79 22 5 23
REMARK SMILES IDX 1 24 2 25 3 26 82 27 4 28 80 29 81 30 24 31 25 32 26 33
REMARK SMILES IDX 27 34 28 36 29 37 30 38 76 39 31 40 75 41 32 42 33 43 34 44
REMARK SMILES IDX 69 45 35 46 74 47 68 48 70 49 36 50 73 51 67 52 66 53 37 55
REMARK SMILES IDX 59 56 44 57 58 58 45 59 48 60 57 61 71 62 46 63 47 64 56 66
REMARK SMILES IDX 72 67 49 68 38 69 39 70 43 71 40 72 42 73 41 74 60 75 61 76
REMARK SMILES IDX 65 77 62 78 64 79 63 80 50 81 51 82 55 83 52 84 54 85 53 86
REMARK H PARENT 22 5 26 35 70 54 48 65
REMARK Flexibility Score: inf
ROOT
ATOM      1  C   UNL A   1      38.904  21.863  25.420  1.00  0.00     0.118 C 
ENDROOT
BRANCH   1   2
ATOM      2  N   UNL A   1      39.595  20.843  26.195  1.00  0.00    -0.353 N 
ATOM      3  C   UNL A   1      40.829  20.875  26.796  1.00  0.00     0.260 C 
ATOM      4  O   UNL A   1      41.169  19.890  27.456  1.00  0.00    -0.271 OA
ATOM      5  H   UNL A   1      39.101  19.998  26.307  1.00  0.00     0.163 HD
BRANCH   3   6
ATOM      6  C   UNL A   1      41.771  22.078  26.601  1.00  0.00     0.258 C 
ATOM      7  C   UNL A   1      42.606  22.237  27.867  1.00  0.00     0.064 C 
BRANCH   6   8
ATOM      8  O   UNL A   1      42.455  21.766  25.397  1.00  0.00    -0.480 OA
BRANCH   8   9
ATOM      9  C   UNL A   1      43.683  21.194  25.299  1.00  0.00     0.127 A 
ATOM     10  C   UNL A   1      44.696  22.065  24.836  1.00  0.00     0.018 A 
ATOM     11  C   UNL A   1      45.975  21.570  24.562  1.00  0.00     0.012 A 
ATOM     12  C   UNL A   1      46.263  20.227  24.795  1.00  0.00     0.001 A 
ATOM     13  C   UNL A   1      43.999  19.871  25.583  1.00  0.00     0.047 A 
ATOM     14  C   UNL A   1      45.285  19.387  25.322  1.00  0.00     0.004 A 
BRANCH  10  15
ATOM     15  C   UNL A   1      44.443  23.505  24.644  1.00  0.00     0.033 C 
ATOM     16  N   UNL A   1      45.410  25.496  27.569  1.00  0.00    -0.261 N 
ATOM     17  C   UNL A   1      45.382  24.286  26.881  1.00  0.00     0.270 C 
ATOM     18  C   UNL A   1      44.897  26.598  26.903  1.00  0.00     0.152 C 
ATOM     19  O   UNL A   1      45.817  23.213  27.285  1.00  0.00    -0.268 OA
ATOM     20  C   UNL A   1      44.723  24.459  25.548  1.00  0.00     0.081 C 
ATOM     21  S   UNL A   1      44.302  26.112  25.314  1.00  0.00    -0.054 SA
ATOM     22  S   UNL A   1      44.873  28.208  27.362  1.00  0.00    -0.051 S 
BRANCH  16  23
ATOM     23  C   UNL A   1      45.899  25.521  28.911  1.00  0.00     0.054 A 
ATOM     24  C   UNL A   1      47.460  26.038  32.913  1.00  0.00     0.044 C 
ATOM     25  C   UNL A   1      46.938  25.834  31.523  1.00  0.00    -0.051 A 
ATOM     26  C   UNL A   1      47.782  25.912  30.416  1.00  0.00     0.005 A 
ATOM     27  C   UNL A   1      45.577  25.579  31.320  1.00  0.00     0.009 A 
ATOM     28  C   UNL A   1      47.268  25.762  29.125  1.00  0.00     0.027 A 
ATOM     29  C   UNL A   1      45.046  25.402  30.029  1.00  0.00    -0.027 A 
ATOM     30  C   UNL A   1      43.574  25.095  29.931  1.00  0.00     0.046 C 
ENDBRANCH  16  23
ENDBRANCH  10  15
ENDBRANCH   8   9
ENDBRANCH   6   8
ENDBRANCH   3   6
ENDBRANCH   1   2
BRANCH   1  31
ATOM     31  C   UNL A   1      37.931  22.686  26.253  1.00  0.00     0.042 C 
BRANCH  31  32
ATOM     32  C   UNL A   1      38.434  24.082  26.588  1.00  0.00     0.118 C 
BRANCH  32  33
ATOM     33  N   UNL A   1      39.623  24.445  25.828  1.00  0.00    -0.352 N 
ATOM     34  C   UNL A   1      40.494  25.496  25.976  1.00  0.00     0.251 C 
ATOM     35  H   UNL A   1      39.838  23.835  25.086  1.00  0.00     0.163 HD
ATOM     36  O   UNL A   1      41.323  25.719  25.098  1.00  0.00    -0.269 OA
BRANCH  34  37
ATOM     37  C   UNL A   1      40.437  26.373  27.166  1.00  0.00     0.039 A 
ATOM     38  C   UNL A   1      41.048  27.630  27.104  1.00  0.00     0.014 A 
ATOM     39  C   UNL A   1      39.831  25.955  28.353  1.00  0.00     0.014 A 
ATOM     40  C   UNL A   1      40.992  28.489  28.205  1.00  0.00     0.010 A 
ATOM     41  C   UNL A   1      39.705  26.841  29.420  1.00  0.00     0.010 A 
ATOM     42  C   UNL A   1      40.290  28.114  29.361  1.00  0.00    -0.014 A 
BRANCH  42  43
ATOM     43  C   UNL A   1      40.158  29.033  30.519  1.00  0.00     0.031 A 
ATOM     44  C   UNL A   1      39.108  30.111  30.516  1.00  0.00     0.074 A 
ATOM     45  C   UNL A   1      41.027  28.943  31.545  1.00  0.00     0.049 A 
ATOM     46  N   UNL A   1      38.893  31.055  31.397  1.00  0.00    -0.248 NA
ATOM     47  C   UNL A   1      38.200  30.151  29.358  1.00  0.00     0.031 C 
ATOM     48  C   UNL A   1      42.112  27.966  31.656  1.00  0.00     0.029 A 
ATOM     49  N   UNL A   1      41.138  29.694  32.688  1.00  0.00    -0.354 N 
ATOM     50  C   UNL A   1      37.847  31.815  30.888  1.00  0.00     0.074 A 
ATOM     51  C   UNL A   1      37.496  31.246  29.604  1.00  0.00     0.031 C 
ATOM     52  C   UNL A   1      42.760  28.159  32.816  1.00  0.00     0.029 A 
ATOM     53  C   UNL A   1      42.166  29.297  33.509  1.00  0.00     0.049 A 
ATOM     54  H   UNL A   1      40.538  30.446  32.900  1.00  0.00     0.167 HD
ATOM     55  C   UNL A   1      37.224  32.882  31.443  1.00  0.00     0.031 A 
ATOM     56  C   UNL A   1      42.585  29.797  34.687  1.00  0.00     0.031 A 
ATOM     57  C   UNL A   1      37.550  33.432  32.731  1.00  0.00     0.049 A 
ATOM     58  C   UNL A   1      41.877  30.981  35.280  1.00  0.00     0.074 A 
ATOM     59  C   UNL A   1      36.926  34.463  33.411  1.00  0.00     0.029 A 
ATOM     60  N   UNL A   1      38.590  32.993  33.535  1.00  0.00    -0.354 N 
ATOM     61  N   UNL A   1      40.848  31.646  34.815  1.00  0.00    -0.248 NA
ATOM     62  C   UNL A   1      42.386  31.479  36.567  1.00  0.00     0.031 C 
ATOM     63  C   UNL A   1      37.617  34.678  34.607  1.00  0.00     0.029 A 
ATOM     64  C   UNL A   1      38.641  33.750  34.693  1.00  0.00     0.049 A 
ATOM     65  H   UNL A   1      39.202  32.253  33.314  1.00  0.00     0.167 HD
ATOM     66  C   UNL A   1      40.568  32.619  35.765  1.00  0.00     0.074 A 
ATOM     67  C   UNL A   1      41.527  32.452  36.836  1.00  0.00     0.031 C 
ATOM     68  C   UNL A   1      39.599  33.567  35.751  1.00  0.00     0.031 A 
BRANCH  55  69
ATOM     69  C   UNL A   1      36.124  33.532  30.652  1.00  0.00    -0.014 A 
ATOM     70  C   UNL A   1      36.336  33.974  29.336  1.00  0.00     0.009 A 
ATOM     71  C   UNL A   1      34.846  33.665  31.217  1.00  0.00     0.009 A 
ATOM     72  C   UNL A   1      35.297  34.567  28.615  1.00  0.00     0.001 A 
ATOM     73  C   UNL A   1      33.803  34.234  30.485  1.00  0.00     0.001 A 
ATOM     74  C   UNL A   1      34.032  34.693  29.188  1.00  0.00     0.000 A 
ENDBRANCH  55  69
BRANCH  56  75
ATOM     75  C   UNL A   1      43.727  29.168  35.400  1.00  0.00    -0.014 A 
ATOM     76  C   UNL A   1      43.506  28.105  36.290  1.00  0.00     0.009 A 
ATOM     77  C   UNL A   1      45.037  29.631  35.206  1.00  0.00     0.009 A 
ATOM     78  C   UNL A   1      44.571  27.539  36.993  1.00  0.00     0.001 A 
ATOM     79  C   UNL A   1      46.103  29.045  35.891  1.00  0.00     0.001 A 
ATOM     80  C   UNL A   1      45.868  28.005  36.791  1.00  0.00     0.000 A 
ENDBRANCH  56  75
BRANCH  68  81
ATOM     81  C   UNL A   1      39.506  34.471  36.947  1.00  0.00    -0.014 A 
ATOM     82  C   UNL A   1      38.860  34.057  38.122  1.00  0.00     0.009 A 
ATOM     83  C   UNL A   1      40.106  35.738  36.906  1.00  0.00     0.009 A 
ATOM     84  C   UNL A   1      38.794  34.911  39.225  1.00  0.00     0.001 A 
ATOM     85  C   UNL A   1      40.060  36.578  38.020  1.00  0.00     0.001 A 
ATOM     86  C   UNL A   1      39.396  36.168  39.174  1.00  0.00     0.000 A 
ENDBRANCH  68  81
ENDBRANCH  42  43
ENDBRANCH  34  37
ENDBRANCH  32  33
ENDBRANCH  31  32
ENDBRANCH   1  31
TORSDOF 14
ENDMDL
MODEL 3
REMARK VINA RESULT:     -10.8      3.574      5.311
REMARK SMILES Cc1ccc(N2C(=O)/C(=C\c3ccccc3O[C@H](C)C(=O)NCCCNC(=O)c3ccc(-c4c5nc(c(-c6ccccc6)c6ccc([nH]6)c(-c6ccccc6)c6nc(c(-c7ccccc7)c7ccc4[nH]7)C=C6)C=C5)cc3)SC2=S)c(C)c1
REMARK SMILES IDX 23 1 22 2 20 3 21 4 18 6 19 7 17 8 16 9 11 10 12 11 13 12
REMARK SMILES IDX 15 13 14 14 10 15 6 16 7 17 78 18 8 19 9 20 77 21 79 22 5 23
REMARK SMILES IDX 1 24 2 25 3 26 82 27 4 28 80 29 81 30 24 31 25 32 26 33
REMARK SMILES IDX 27 34 28 36 29 37 30 38 76 39 31 40 75 41 32 42 33 43 34 44
REMARK SMILES IDX 69 45 35 46 74 47 68 48 70 49 36 50 73 51 67 52 66 53 37 55
REMARK SMILES IDX 59 56 44 57 58 58 45 59 48 60 57 61 71 62 46 63 47 64 56 66
REMARK SMILES IDX 72 67 49 68 38 69 39 70 43 71 40 72 42 73 41 74 60 75 61 76
REMARK SMILES IDX 65 77 62 78 64 79 63 80 50 81 51 82 55 83 52 84 54 85 53 86
REMARK H PARENT 22 5 26 35 70 54 48 65
REMARK Flexibility Score: inf
ROOT
ATOM      1  C   UNL A   1      38.869  21.983  25.420  1.00  0.00     0.118 C 
ENDROOT
BRANCH   1   2
ATOM      2  N   UNL A   1      39.502  20.887  26.140  1.00  0.00    -0.353 N 
ATOM      3  C   UNL A   1      40.748  20.808  26.710  1.00  0.00     0.260 C 
ATOM      4  O   UNL A   1      41.031  19.776  27.325  1.00  0.00    -0.271 OA
ATOM      5  H   UNL A   1      38.951  20.076  26.233  1.00  0.00     0.163 HD
BRANCH   3   6
ATOM      6  C   UNL A   1      41.770  21.947  26.536  1.00  0.00     0.258 C 
ATOM      7  C   UNL A   1      42.555  22.083  27.836  1.00  0.00     0.064 C 
BRANCH   6   8
ATOM      8  O   UNL A   1      42.487  21.568  25.371  1.00  0.00    -0.480 OA
BRANCH   8   9
ATOM      9  C   UNL A   1      43.695  20.947  25.341  1.00  0.00     0.127 A 
ATOM     10  C   UNL A   1      44.752  21.752  24.855  1.00  0.00     0.018 A 
ATOM     11  C   UNL A   1      46.018  21.196  24.647  1.00  0.00     0.012 A 
ATOM     12  C   UNL A   1      46.250  19.860  24.967  1.00  0.00     0.001 A 
ATOM     13  C   UNL A   1      43.954  19.633  25.712  1.00  0.00     0.047 A 
ATOM     14  C   UNL A   1      45.227  19.089  25.516  1.00  0.00     0.004 A 
BRANCH  10  15
ATOM     15  C   UNL A   1      44.557  23.186  24.571  1.00  0.00     0.033 C 
ATOM     16  N   UNL A   1      45.331  25.301  27.466  1.00  0.00    -0.261 N 
ATOM     17  C   UNL A   1      45.327  24.058  26.839  1.00  0.00     0.270 C 
ATOM     18  C   UNL A   1      44.909  26.379  26.705  1.00  0.00     0.152 C 
ATOM     19  O   UNL A   1      45.694  22.997  27.331  1.00  0.00    -0.268 OA
ATOM     20  C   UNL A   1      44.788  24.178  25.448  1.00  0.00     0.081 C 
ATOM     21  S   UNL A   1      44.436  25.827  25.097  1.00  0.00    -0.054 SA
ATOM     22  S   UNL A   1      44.893  28.011  27.079  1.00  0.00    -0.051 S 
BRANCH  16  23
ATOM     23  C   UNL A   1      45.707  25.384  28.842  1.00  0.00     0.054 A 
ATOM     24  C   UNL A   1      46.947  26.066  32.931  1.00  0.00     0.044 C 
ATOM     25  C   UNL A   1      46.535  25.805  31.513  1.00  0.00    -0.051 A 
ATOM     26  C   UNL A   1      47.472  25.783  30.481  1.00  0.00     0.005 A 
ATOM     27  C   UNL A   1      45.186  25.595  31.207  1.00  0.00     0.009 A 
ATOM     28  C   UNL A   1      47.062  25.579  29.160  1.00  0.00     0.027 A 
ATOM     29  C   UNL A   1      44.757  25.365  29.886  1.00  0.00    -0.027 A 
ATOM     30  C   UNL A   1      43.287  25.114  29.678  1.00  0.00     0.046 C 
ENDBRANCH  16  23
ENDBRANCH  10  15
ENDBRANCH   8   9
ENDBRANCH   6   8
ENDBRANCH   3   6
ENDBRANCH   1   2
BRANCH   1  31
ATOM     31  C   UNL A   1      37.947  22.818  26.298  1.00  0.00     0.042 C 
BRANCH  31  32
ATOM     32  C   UNL A   1      38.564  24.126  26.770  1.00  0.00     0.118 C 
BRANCH  32  33
ATOM     33  N   UNL A   1      39.681  24.550  25.937  1.00  0.00    -0.352 N 
ATOM     34  C   UNL A   1      40.499  25.648  26.026  1.00  0.00     0.251 C 
ATOM     35  H   UNL A   1      39.884  23.948  25.185  1.00  0.00     0.163 HD
ATOM     36  O   UNL A   1      41.259  25.911  25.097  1.00  0.00    -0.269 OA
BRANCH  34  37
ATOM     37  C   UNL A   1      40.466  26.530  27.214  1.00  0.00     0.039 A 
ATOM     38  C   UNL A   1      41.186  27.729  27.181  1.00  0.00     0.014 A 
ATOM     39  C   UNL A   1      39.774  26.169  28.372  1.00  0.00     0.014 A 
ATOM     40  C   UNL A   1      41.157  28.592  28.280  1.00  0.00     0.010 A 
ATOM     41  C   UNL A   1      39.678  27.065  29.434  1.00  0.00     0.010 A 
ATOM     42  C   UNL A   1      40.374  28.282  29.403  1.00  0.00    -0.014 A 
BRANCH  42  43
ATOM     43  C   UNL A   1      40.271  29.212  30.556  1.00  0.00     0.031 A 
ATOM     44  C   UNL A   1      41.214  29.081  31.720  1.00  0.00     0.074 A 
ATOM     45  C   UNL A   1      39.284  30.129  30.587  1.00  0.00     0.049 A 
ATOM     46  N   UNL A   1      41.228  29.745  32.849  1.00  0.00    -0.248 NA
ATOM     47  C   UNL A   1      42.261  28.052  31.616  1.00  0.00     0.031 C 
ATOM     48  C   UNL A   1      38.284  30.337  29.539  1.00  0.00     0.029 A 
ATOM     49  N   UNL A   1      38.959  31.055  31.547  1.00  0.00    -0.354 N 
ATOM     50  C   UNL A   1      42.263  29.196  33.597  1.00  0.00     0.074 A 
ATOM     51  C   UNL A   1      42.829  28.121  32.812  1.00  0.00     0.031 C 
ATOM     52  C   UNL A   1      37.473  31.345  29.900  1.00  0.00     0.029 A 
ATOM     53  C   UNL A   1      37.869  31.825  31.219  1.00  0.00     0.049 A 
ATOM     54  H   UNL A   1      39.457  31.156  32.390  1.00  0.00     0.167 HD
ATOM     55  C   UNL A   1      42.711  29.562  34.821  1.00  0.00     0.031 A 
ATOM     56  C   UNL A   1      37.255  32.807  31.907  1.00  0.00     0.031 A 
ATOM     57  C   UNL A   1      42.171  30.649  35.592  1.00  0.00     0.049 A 
ATOM     58  C   UNL A   1      37.774  33.192  33.263  1.00  0.00     0.074 A 
ATOM     59  C   UNL A   1      42.608  31.144  36.808  1.00  0.00     0.029 A 
ATOM     60  N   UNL A   1      41.076  31.411  35.219  1.00  0.00    -0.354 N 
ATOM     61  N   UNL A   1      38.794  32.706  33.927  1.00  0.00    -0.248 NA
ATOM     62  C   UNL A   1      37.057  34.269  33.962  1.00  0.00     0.031 C 
ATOM     63  C   UNL A   1      41.748  32.178  37.193  1.00  0.00     0.029 A 
ATOM     64  C   UNL A   1      40.807  32.357  36.194  1.00  0.00     0.049 A 
ATOM     65  H   UNL A   1      40.565  31.297  34.384  1.00  0.00     0.167 HD
ATOM     66  C   UNL A   1      38.860  33.437  35.106  1.00  0.00     0.074 A 
ATOM     67  C   UNL A   1      37.785  34.406  35.062  1.00  0.00     0.031 C 
ATOM     68  C   UNL A   1      39.736  33.316  36.133  1.00  0.00     0.031 A 
BRANCH  55  69
ATOM     69  C   UNL A   1      43.846  28.771  35.409  1.00  0.00    -0.014 A 
ATOM     70  C   UNL A   1      43.611  27.620  36.177  1.00  0.00     0.009 A 
ATOM     71  C   UNL A   1      45.170  29.160  35.154  1.00  0.00     0.009 A 
ATOM     72  C   UNL A   1      44.680  26.894  36.707  1.00  0.00     0.001 A 
ATOM     73  C   UNL A   1      46.237  28.418  35.663  1.00  0.00     0.001 A 
ATOM     74  C   UNL A   1      45.991  27.291  36.446  1.00  0.00     0.000 A 
ENDBRANCH  55  69
BRANCH  56  75
ATOM     75  C   UNL A   1      36.088  33.513  31.319  1.00  0.00    -0.014 A 
ATOM     76  C   UNL A   1      34.932  33.727  32.085  1.00  0.00     0.009 A 
ATOM     77  C   UNL A   1      36.117  33.961  29.989  1.00  0.00     0.009 A 
ATOM     78  C   UNL A   1      33.818  34.353  31.522  1.00  0.00     0.001 A 
ATOM     79  C   UNL A   1      35.010  34.610  29.438  1.00  0.00     0.001 A 
ATOM     80  C   UNL A   1      33.858  34.797  30.201  1.00  0.00     0.000 A 
ENDBRANCH  56  75
BRANCH  68  81
ATOM     81  C   UNL A   1      39.591  34.281  37.274  1.00  0.00    -0.014 A 
ATOM     82  C   UNL A   1      40.057  35.600  37.175  1.00  0.00     0.009 A 
ATOM     83  C   UNL A   1      38.944  33.871  38.450  1.00  0.00     0.009 A 
ATOM     84  C   UNL A   1      39.904  36.483  38.247  1.00  0.00     0.001 A 
ATOM     85  C   UNL A   1      38.770  34.763  39.509  1.00  0.00     0.001 A 
ATOM     86  C   UNL A   1      39.258  36.065  39.410  1.00  0.00     0.000 A 
ENDBRANCH  68  81
ENDBRANCH  42  43
ENDBRANCH  34  37
ENDBRANCH  32  33
ENDBRANCH  31  32
ENDBRANCH   1  31
TORSDOF 14
ENDMDL
