MODEL 1
REMARK VINA RESULT:     -11.5      0.000      0.000
REMARK SMILES COc1ccc([C@@H]2C(C#N)=C(N)N3C(=O)[C@H](CC(=O)NCCCNC(=O)c4ccc(-c5c6nc(c(-c7ccccc7)c7ccc([nH]7)c(-c7ccccc7)c7nc(c(-c8ccccc8)c8ccc5[nH]8)C=C7)C=C6)cc4)SC3=C2C#N)cc1
REMARK SMILES IDX 21 1 20 2 18 3 19 4 17 6 16 7 7 8 8 9 77 10 11 11 76 12
REMARK SMILES IDX 13 13 75 14 14 15 15 16 6 17 3 18 4 19 81 20 5 21 80 22 2 23
REMARK SMILES IDX 1 24 9 25 10 26 78 27 79 28 12 29 22 32 23 33 24 34 25 35
REMARK SMILES IDX 26 37 27 38 28 39 74 40 29 41 73 42 30 43 31 44 32 45 67 46
REMARK SMILES IDX 33 47 72 48 66 49 68 50 34 51 71 52 65 53 64 54 35 56 57 57
REMARK SMILES IDX 42 58 56 59 43 60 46 61 55 62 69 63 44 64 45 65 54 67 70 68
REMARK SMILES IDX 47 69 36 70 37 71 41 72 38 73 40 74 39 75 58 76 59 77 63 78
REMARK SMILES IDX 60 79 62 80 61 81 48 82 49 83 53 84 50 85 52 86 51 87
REMARK H PARENT 20 5 12 30 12 31 24 36 68 55 46 66
REMARK Flexibility Score: inf
ROOT
ATOM      1  C   UNL A   1      30.672  30.625  25.152  1.00  0.00     0.117 C 
ENDROOT
BRANCH   1   2
ATOM      2  N   UNL A   1      30.271  30.638  23.754  1.00  0.00    -0.356 N 
ATOM      3  C   UNL A   1      30.052  29.621  22.879  1.00  0.00     0.221 C 
ATOM      4  O   UNL A   1      29.765  29.894  21.715  1.00  0.00    -0.275 OA
ATOM      5  H   UNL A   1      30.134  31.537  23.377  1.00  0.00     0.163 HD
BRANCH   3   6
ATOM      6  C   UNL A   1      30.175  28.188  23.325  1.00  0.00     0.125 C 
BRANCH   6   7
ATOM      7  C   UNL A   1      31.645  27.808  23.399  1.00  0.00     0.152 C 
ATOM      8  C   UNL A   1      33.512  23.447  24.715  1.00  0.00     0.107 C 
ATOM      9  C   UNL A   1      32.826  23.917  25.982  1.00  0.00     0.083 C 
ATOM     10  C   UNL A   1      33.000  24.204  23.515  1.00  0.00     0.073 C 
ATOM     11  C   UNL A   1      32.227  25.141  26.025  1.00  0.00     0.126 C 
ATOM     12  C   UNL A   1      32.376  25.364  23.641  1.00  0.00     0.099 C 
ATOM     13  N   UNL A   1      32.172  25.941  24.862  1.00  0.00    -0.258 N 
ATOM     14  S   UNL A   1      31.921  26.373  22.320  1.00  0.00    -0.093 SA
ATOM     15  C   UNL A   1      32.056  27.326  24.788  1.00  0.00     0.247 C 
ATOM     16  O   UNL A   1      32.343  28.105  25.692  1.00  0.00    -0.273 OA
BRANCH   8  17
ATOM     17  C   UNL A   1      33.490  21.936  24.516  1.00  0.00    -0.034 A 
ATOM     18  C   UNL A   1      33.345  19.141  24.240  1.00  0.00     0.118 A 
ATOM     19  C   UNL A   1      32.234  19.929  23.957  1.00  0.00     0.047 A 
ATOM     20  C   UNL A   1      34.542  19.746  24.624  1.00  0.00     0.047 A 
ATOM     21  C   UNL A   1      32.298  21.315  24.102  1.00  0.00     0.008 A 
ATOM     22  C   UNL A   1      34.616  21.137  24.763  1.00  0.00     0.008 A 
BRANCH  18  23
ATOM     23  O   UNL A   1      33.173  17.796  24.069  1.00  0.00    -0.497 OA
ATOM     24  C   UNL A   1      34.376  17.063  23.861  1.00  0.00     0.278 C 
ENDBRANCH  18  23
ENDBRANCH   8  17
BRANCH   9  25
ATOM     25  C   UNL A   1      32.966  23.022  27.203  1.00  0.00     0.100 C 
ATOM     26  N   UNL A   1      33.081  22.279  28.216  1.00  0.00    -0.193 NA
ENDBRANCH   9  25
BRANCH  10  27
ATOM     27  C   UNL A   1      33.266  23.633  22.131  1.00  0.00     0.098 C 
ATOM     28  N   UNL A   1      33.487  23.160  20.984  1.00  0.00    -0.193 NA
ENDBRANCH  10  27
BRANCH  11  29
ATOM     29  N   UNL A   1      31.629  25.584  27.172  1.00  0.00    -0.384 N 
ATOM     30  H   UNL A   1      31.924  25.240  28.045  1.00  0.00     0.158 HD
ATOM     31  H   UNL A   1      30.904  26.248  27.123  1.00  0.00     0.158 HD
ENDBRANCH  11  29
ENDBRANCH   6   7
ENDBRANCH   3   6
ENDBRANCH   1   2
BRANCH   1  32
ATOM     32  C   UNL A   1      30.792  32.025  25.742  1.00  0.00     0.042 C 
BRANCH  32  33
ATOM     33  C   UNL A   1      31.862  32.180  26.803  1.00  0.00     0.118 C 
BRANCH  33  34
ATOM     34  N   UNL A   1      32.005  33.571  27.166  1.00  0.00    -0.352 N 
ATOM     35  C   UNL A   1      32.867  34.168  28.057  1.00  0.00     0.251 C 
ATOM     36  H   UNL A   1      31.391  34.187  26.705  1.00  0.00     0.163 HD
ATOM     37  O   UNL A   1      32.567  35.268  28.502  1.00  0.00    -0.269 OA
BRANCH  35  38
ATOM     38  C   UNL A   1      34.131  33.516  28.502  1.00  0.00     0.039 A 
ATOM     39  C   UNL A   1      34.068  32.636  29.589  1.00  0.00     0.014 A 
ATOM     40  C   UNL A   1      35.380  33.825  27.960  1.00  0.00     0.014 A 
ATOM     41  C   UNL A   1      35.237  32.074  30.117  1.00  0.00     0.010 A 
ATOM     42  C   UNL A   1      36.533  33.179  28.412  1.00  0.00     0.010 A 
ATOM     43  C   UNL A   1      36.483  32.327  29.523  1.00  0.00    -0.014 A 
BRANCH  43  44
ATOM     44  C   UNL A   1      37.739  31.754  30.083  1.00  0.00     0.031 A 
ATOM     45  C   UNL A   1      38.416  32.404  31.265  1.00  0.00     0.074 A 
ATOM     46  C   UNL A   1      38.295  30.667  29.514  1.00  0.00     0.049 A 
ATOM     47  N   UNL A   1      39.528  32.065  31.872  1.00  0.00    -0.248 NA
ATOM     48  C   UNL A   1      37.779  33.607  31.825  1.00  0.00     0.031 C 
ATOM     49  C   UNL A   1      37.770  29.960  28.344  1.00  0.00     0.029 A 
ATOM     50  N   UNL A   1      39.426  29.963  29.848  1.00  0.00    -0.354 N 
ATOM     51  C   UNL A   1      39.731  33.023  32.859  1.00  0.00     0.074 A 
ATOM     52  C   UNL A   1      38.660  33.985  32.738  1.00  0.00     0.031 C 
ATOM     53  C   UNL A   1      38.554  28.902  28.082  1.00  0.00     0.029 A 
ATOM     54  C   UNL A   1      39.659  28.880  29.036  1.00  0.00     0.049 A 
ATOM     55  H   UNL A   1      40.014  30.211  30.597  1.00  0.00     0.167 HD
ATOM     56  C   UNL A   1      40.707  33.089  33.797  1.00  0.00     0.031 A 
ATOM     57  C   UNL A   1      40.650  27.970  29.053  1.00  0.00     0.031 A 
ATOM     58  C   UNL A   1      41.762  32.122  33.940  1.00  0.00     0.049 A 
ATOM     59  C   UNL A   1      41.721  28.062  30.104  1.00  0.00     0.074 A 
ATOM     60  C   UNL A   1      42.758  32.067  34.900  1.00  0.00     0.029 A 
ATOM     61  N   UNL A   1      41.958  31.040  33.096  1.00  0.00    -0.354 N 
ATOM     62  N   UNL A   1      41.858  28.937  31.069  1.00  0.00    -0.248 NA
ATOM     63  C   UNL A   1      42.768  27.031  30.070  1.00  0.00     0.031 C 
ATOM     64  C   UNL A   1      43.586  30.978  34.608  1.00  0.00     0.029 A 
ATOM     65  C   UNL A   1      43.074  30.324  33.499  1.00  0.00     0.049 A 
ATOM     66  H   UNL A   1      41.389  30.813  32.326  1.00  0.00     0.167 HD
ATOM     67  C   UNL A   1      42.991  28.551  31.772  1.00  0.00     0.074 A 
ATOM     68  C   UNL A   1      43.493  27.351  31.134  1.00  0.00     0.031 C 
ATOM     69  C   UNL A   1      43.565  29.137  32.851  1.00  0.00     0.031 A 
BRANCH  56  70
ATOM     70  C   UNL A   1      40.679  34.258  34.746  1.00  0.00    -0.014 A 
ATOM     71  C   UNL A   1      41.375  35.444  34.462  1.00  0.00     0.009 A 
ATOM     72  C   UNL A   1      39.922  34.183  35.925  1.00  0.00     0.009 A 
ATOM     73  C   UNL A   1      41.346  36.515  35.360  1.00  0.00     0.001 A 
ATOM     74  C   UNL A   1      39.870  35.265  36.806  1.00  0.00     0.001 A 
ATOM     75  C   UNL A   1      40.591  36.426  36.528  1.00  0.00     0.000 A 
ENDBRANCH  56  70
BRANCH  57  76
ATOM     76  C   UNL A   1      40.666  26.873  28.050  1.00  0.00    -0.014 A 
ATOM     77  C   UNL A   1      41.269  27.064  26.797  1.00  0.00     0.009 A 
ATOM     78  C   UNL A   1      40.083  25.630  28.341  1.00  0.00     0.009 A 
ATOM     79  C   UNL A   1      41.268  26.039  25.847  1.00  0.00     0.001 A 
ATOM     80  C   UNL A   1      40.109  24.598  27.400  1.00  0.00     0.001 A 
ATOM     81  C   UNL A   1      40.693  24.806  26.152  1.00  0.00     0.000 A 
ENDBRANCH  57  76
BRANCH  69  82
ATOM     82  C   UNL A   1      44.787  28.475  33.423  1.00  0.00    -0.014 A 
ATOM     83  C   UNL A   1      46.077  28.851  33.018  1.00  0.00     0.009 A 
ATOM     84  C   UNL A   1      44.644  27.483  34.406  1.00  0.00     0.009 A 
ATOM     85  C   UNL A   1      47.199  28.223  33.561  1.00  0.00     0.001 A 
ATOM     86  C   UNL A   1      45.768  26.877  34.969  1.00  0.00     0.001 A 
ATOM     87  C   UNL A   1      47.043  27.240  34.538  1.00  0.00     0.000 A 
ENDBRANCH  69  82
ENDBRANCH  43  44
ENDBRANCH  35  38
ENDBRANCH  33  34
ENDBRANCH  32  33
ENDBRANCH   1  32
TORSDOF 16
ENDMDL
MODEL 2
REMARK VINA RESULT:     -11.3      6.509     10.877
REMARK SMILES COc1ccc([C@@H]2C(C#N)=C(N)N3C(=O)[C@H](CC(=O)NCCCNC(=O)c4ccc(-c5c6nc(c(-c7ccccc7)c7ccc([nH]7)c(-c7ccccc7)c7nc(c(-c8ccccc8)c8ccc5[nH]8)C=C7)C=C6)cc4)SC3=C2C#N)cc1
REMARK SMILES IDX 21 1 20 2 18 3 19 4 17 6 16 7 7 8 8 9 77 10 11 11 76 12
REMARK SMILES IDX 13 13 75 14 14 15 15 16 6 17 3 18 4 19 81 20 5 21 80 22 2 23
REMARK SMILES IDX 1 24 9 25 10 26 78 27 79 28 12 29 22 32 23 33 24 34 25 35
REMARK SMILES IDX 26 37 27 38 28 39 74 40 29 41 73 42 30 43 31 44 32 45 67 46
REMARK SMILES IDX 33 47 72 48 66 49 68 50 34 51 71 52 65 53 64 54 35 56 57 57
REMARK SMILES IDX 42 58 56 59 43 60 46 61 55 62 69 63 44 64 45 65 54 67 70 68
REMARK SMILES IDX 47 69 36 70 37 71 41 72 38 73 40 74 39 75 58 76 59 77 63 78
REMARK SMILES IDX 60 79 62 80 61 81 48 82 49 83 53 84 50 85 52 86 51 87
REMARK H PARENT 20 5 12 30 12 31 24 36 68 55 46 66
REMARK Flexibility Score: inf
ROOT
ATOM      1  C   UNL A   1      38.127  24.068  26.186  1.00  0.00     0.117 C 
ENDROOT
BRANCH   1   2
ATOM      2  N   UNL A   1      38.290  22.856  25.400  1.00  0.00    -0.356 N 
ATOM      3  C   UNL A   1      37.480  21.776  25.246  1.00  0.00     0.221 C 
ATOM      4  O   UNL A   1      37.870  20.837  24.554  1.00  0.00    -0.275 OA
ATOM      5  H   UNL A   1      39.131  22.810  24.890  1.00  0.00     0.163 HD
BRANCH   3   6
ATOM      6  C   UNL A   1      36.137  21.725  25.924  1.00  0.00     0.125 C 
BRANCH   6   7
ATOM      7  C   UNL A   1      35.042  21.678  24.871  1.00  0.00     0.152 C 
ATOM      8  C   UNL A   1      31.353  24.886  24.288  1.00  0.00     0.107 C 
ATOM      9  C   UNL A   1      31.067  24.285  25.649  1.00  0.00     0.083 C 
ATOM     10  C   UNL A   1      32.785  24.639  23.882  1.00  0.00     0.073 C 
ATOM     11  C   UNL A   1      31.861  23.294  26.144  1.00  0.00     0.126 C 
ATOM     12  C   UNL A   1      33.513  23.690  24.450  1.00  0.00     0.099 C 
ATOM     13  N   UNL A   1      33.003  22.879  25.423  1.00  0.00    -0.258 N 
ATOM     14  S   UNL A   1      35.088  23.228  23.925  1.00  0.00    -0.093 SA
ATOM     15  C   UNL A   1      33.642  21.644  25.481  1.00  0.00     0.247 C 
ATOM     16  O   UNL A   1      33.128  20.604  25.879  1.00  0.00    -0.273 OA
BRANCH   8  17
ATOM     17  C   UNL A   1      30.942  26.346  24.149  1.00  0.00    -0.034 A 
ATOM     18  C   UNL A   1      30.218  29.036  23.757  1.00  0.00     0.118 A 
ATOM     19  C   UNL A   1      29.590  28.030  23.029  1.00  0.00     0.047 A 
ATOM     20  C   UNL A   1      31.182  28.701  24.709  1.00  0.00     0.047 A 
ATOM     21  C   UNL A   1      29.953  26.696  23.213  1.00  0.00     0.008 A 
ATOM     22  C   UNL A   1      31.545  27.363  24.904  1.00  0.00     0.008 A 
BRANCH  18  23
ATOM     23  O   UNL A   1      29.790  30.307  23.497  1.00  0.00    -0.497 OA
ATOM     24  C   UNL A   1      28.415  30.410  23.137  1.00  0.00     0.278 C 
ENDBRANCH  18  23
ENDBRANCH   8  17
BRANCH   9  25
ATOM     25  C   UNL A   1      29.797  24.750  26.344  1.00  0.00     0.100 C 
ATOM     26  N   UNL A   1      28.744  25.136  26.921  1.00  0.00    -0.193 NA
ENDBRANCH   9  25
BRANCH  10  27
ATOM     27  C   UNL A   1      33.373  25.472  22.755  1.00  0.00     0.098 C 
ATOM     28  N   UNL A   1      33.860  26.164  21.820  1.00  0.00    -0.193 NA
ENDBRANCH  10  27
BRANCH  11  29
ATOM     29  N   UNL A   1      31.594  22.728  27.359  1.00  0.00    -0.384 N 
ATOM     30  H   UNL A   1      32.048  21.897  27.625  1.00  0.00     0.158 HD
ATOM     31  H   UNL A   1      30.949  23.154  27.968  1.00  0.00     0.158 HD
ENDBRANCH  11  29
ENDBRANCH   6   7
ENDBRANCH   3   6
ENDBRANCH   1   2
BRANCH   1  32
ATOM     32  C   UNL A   1      39.454  24.748  26.500  1.00  0.00     0.042 C 
BRANCH  32  33
ATOM     33  C   UNL A   1      40.251  24.104  27.616  1.00  0.00     0.118 C 
BRANCH  33  34
ATOM     34  N   UNL A   1      41.095  23.058  27.084  1.00  0.00    -0.352 N 
ATOM     35  C   UNL A   1      42.285  23.146  26.401  1.00  0.00     0.251 C 
ATOM     36  H   UNL A   1      40.768  22.143  27.235  1.00  0.00     0.163 HD
ATOM     37  O   UNL A   1      42.626  22.194  25.710  1.00  0.00    -0.269 OA
BRANCH  35  38
ATOM     38  C   UNL A   1      43.154  24.355  26.463  1.00  0.00     0.039 A 
ATOM     39  C   UNL A   1      43.372  25.068  25.277  1.00  0.00     0.014 A 
ATOM     40  C   UNL A   1      43.842  24.741  27.614  1.00  0.00     0.014 A 
ATOM     41  C   UNL A   1      44.260  26.151  25.253  1.00  0.00     0.010 A 
ATOM     42  C   UNL A   1      44.640  25.888  27.617  1.00  0.00     0.010 A 
ATOM     43  C   UNL A   1      44.892  26.584  26.428  1.00  0.00    -0.014 A 
BRANCH  43  44
ATOM     44  C   UNL A   1      45.855  27.720  26.416  1.00  0.00     0.031 A 
ATOM     45  C   UNL A   1      47.336  27.468  26.273  1.00  0.00     0.074 A 
ATOM     46  C   UNL A   1      45.408  28.982  26.566  1.00  0.00     0.049 A 
ATOM     47  N   UNL A   1      48.326  28.327  26.269  1.00  0.00    -0.248 NA
ATOM     48  C   UNL A   1      47.768  26.066  26.144  1.00  0.00     0.031 C 
ATOM     49  C   UNL A   1      44.008  29.370  26.753  1.00  0.00     0.029 A 
ATOM     50  N   UNL A   1      46.088  30.175  26.581  1.00  0.00    -0.354 N 
ATOM     51  C   UNL A   1      49.488  27.571  26.164  1.00  0.00     0.074 A 
ATOM     52  C   UNL A   1      49.086  26.182  26.160  1.00  0.00     0.031 C 
ATOM     53  C   UNL A   1      43.928  30.708  26.824  1.00  0.00     0.029 A 
ATOM     54  C   UNL A   1      45.272  31.271  26.732  1.00  0.00     0.049 A 
ATOM     55  H   UNL A   1      47.066  30.240  26.493  1.00  0.00     0.167 HD
ATOM     56  C   UNL A   1      50.773  27.988  26.058  1.00  0.00     0.031 A 
ATOM     57  C   UNL A   1      45.569  32.582  26.792  1.00  0.00     0.031 A 
ATOM     58  C   UNL A   1      51.178  29.368  26.036  1.00  0.00     0.049 A 
ATOM     59  C   UNL A   1      47.001  33.022  26.671  1.00  0.00     0.074 A 
ATOM     60  C   UNL A   1      52.448  29.892  25.866  1.00  0.00     0.029 A 
ATOM     61  N   UNL A   1      50.318  30.444  26.190  1.00  0.00    -0.354 N 
ATOM     62  N   UNL A   1      48.078  32.294  26.505  1.00  0.00    -0.248 NA
ATOM     63  C   UNL A   1      47.254  34.469  26.735  1.00  0.00     0.031 C 
ATOM     64  C   UNL A   1      52.364  31.285  25.966  1.00  0.00     0.029 A 
ATOM     65  C   UNL A   1      51.034  31.630  26.143  1.00  0.00     0.049 A 
ATOM     66  H   UNL A   1      49.344  30.377  26.314  1.00  0.00     0.167 HD
ATOM     67  C   UNL A   1      49.133  33.193  26.422  1.00  0.00     0.074 A 
ATOM     68  C   UNL A   1      48.565  34.521  26.536  1.00  0.00     0.031 C 
ATOM     69  C   UNL A   1      50.456  32.942  26.265  1.00  0.00     0.031 A 
BRANCH  56  70
ATOM     70  C   UNL A   1      51.840  26.931  25.963  1.00  0.00    -0.014 A 
ATOM     71  C   UNL A   1      52.476  26.429  27.111  1.00  0.00     0.009 A 
ATOM     72  C   UNL A   1      52.195  26.407  24.710  1.00  0.00     0.009 A 
ATOM     73  C   UNL A   1      53.471  25.456  27.002  1.00  0.00     0.001 A 
ATOM     74  C   UNL A   1      53.169  25.412  24.606  1.00  0.00     0.001 A 
ATOM     75  C   UNL A   1      53.814  24.945  25.751  1.00  0.00     0.000 A 
ENDBRANCH  56  70
BRANCH  57  76
ATOM     76  C   UNL A   1      44.481  33.581  26.954  1.00  0.00    -0.014 A 
ATOM     77  C   UNL A   1      43.919  34.210  25.833  1.00  0.00     0.009 A 
ATOM     78  C   UNL A   1      43.997  33.909  28.231  1.00  0.00     0.009 A 
ATOM     79  C   UNL A   1      42.908  35.163  25.987  1.00  0.00     0.001 A 
ATOM     80  C   UNL A   1      42.966  34.840  28.380  1.00  0.00     0.001 A 
ATOM     81  C   UNL A   1      42.429  35.472  27.260  1.00  0.00     0.000 A 
ENDBRANCH  57  76
BRANCH  69  82
ATOM     82  C   UNL A   1      51.375  34.128  26.183  1.00  0.00    -0.014 A 
ATOM     83  C   UNL A   1      51.997  34.648  27.329  1.00  0.00     0.009 A 
ATOM     84  C   UNL A   1      51.647  34.711  24.935  1.00  0.00     0.009 A 
ATOM     85  C   UNL A   1      52.847  35.752  27.231  1.00  0.00     0.001 A 
ATOM     86  C   UNL A   1      52.520  35.796  24.837  1.00  0.00     0.001 A 
ATOM     87  C   UNL A   1      53.110  36.321  25.985  1.00  0.00     0.000 A 
ENDBRANCH  69  82
ENDBRANCH  43  44
ENDBRANCH  35  38
ENDBRANCH  33  34
ENDBRANCH  32  33
ENDBRANCH   1  32
TORSDOF 16
ENDMDL
MODEL 3
REMARK VINA RESULT:     -11.0      4.228      7.877
REMARK SMILES COc1ccc([C@@H]2C(C#N)=C(N)N3C(=O)[C@H](CC(=O)NCCCNC(=O)c4ccc(-c5c6nc(c(-c7ccccc7)c7ccc([nH]7)c(-c7ccccc7)c7nc(c(-c8ccccc8)c8ccc5[nH]8)C=C7)C=C6)cc4)SC3=C2C#N)cc1
REMARK SMILES IDX 21 1 20 2 18 3 19 4 17 6 16 7 7 8 8 9 77 10 11 11 76 12
REMARK SMILES IDX 13 13 75 14 14 15 15 16 6 17 3 18 4 19 81 20 5 21 80 22 2 23
REMARK SMILES IDX 1 24 9 25 10 26 78 27 79 28 12 29 22 32 23 33 24 34 25 35
REMARK SMILES IDX 26 37 27 38 28 39 74 40 29 41 73 42 30 43 31 44 32 45 67 46
REMARK SMILES IDX 33 47 72 48 66 49 68 50 34 51 71 52 65 53 64 54 35 56 57 57
REMARK SMILES IDX 42 58 56 59 43 60 46 61 55 62 69 63 44 64 45 65 54 67 70 68
REMARK SMILES IDX 47 69 36 70 37 71 41 72 38 73 40 74 39 75 58 76 59 77 63 78
REMARK SMILES IDX 60 79 62 80 61 81 48 82 49 83 53 84 50 85 52 86 51 87
REMARK H PARENT 20 5 12 30 12 31 24 36 68 55 46 66
REMARK Flexibility Score: inf
ROOT
ATOM      1  C   UNL A   1      34.277  31.555  27.942  1.00  0.00     0.117 C 
ENDROOT
BRANCH   1   2
ATOM      2  N   UNL A   1      32.946  31.776  27.399  1.00  0.00    -0.356 N 
ATOM      3  C   UNL A   1      32.229  31.076  26.481  1.00  0.00     0.221 C 
ATOM      4  O   UNL A   1      31.125  31.501  26.144  1.00  0.00    -0.275 OA
ATOM      5  H   UNL A   1      32.485  32.568  27.758  1.00  0.00     0.163 HD
BRANCH   3   6
ATOM      6  C   UNL A   1      32.783  29.812  25.880  1.00  0.00     0.125 C 
BRANCH   6   7
ATOM      7  C   UNL A   1      31.642  28.852  25.585  1.00  0.00     0.152 C 
ATOM      8  C   UNL A   1      32.012  24.236  23.912  1.00  0.00     0.107 C 
ATOM      9  C   UNL A   1      32.575  25.056  22.769  1.00  0.00     0.083 C 
ATOM     10  C   UNL A   1      31.998  25.036  25.191  1.00  0.00     0.073 C 
ATOM     11  C   UNL A   1      32.588  26.418  22.841  1.00  0.00     0.126 C 
ATOM     12  C   UNL A   1      32.071  26.358  25.183  1.00  0.00     0.099 C 
ATOM     13  N   UNL A   1      32.152  27.066  24.018  1.00  0.00    -0.258 N 
ATOM     14  S   UNL A   1      31.883  27.351  26.579  1.00  0.00    -0.093 SA
ATOM     15  C   UNL A   1      31.649  28.358  24.140  1.00  0.00     0.247 C 
ATOM     16  O   UNL A   1      31.166  29.014  23.223  1.00  0.00    -0.273 OA
BRANCH   8  17
ATOM     17  C   UNL A   1      32.659  22.867  24.078  1.00  0.00    -0.034 A 
ATOM     18  C   UNL A   1      33.759  20.310  24.484  1.00  0.00     0.118 A 
ATOM     19  C   UNL A   1      32.427  20.445  24.105  1.00  0.00     0.047 A 
ATOM     20  C   UNL A   1      34.556  21.447  24.624  1.00  0.00     0.047 A 
ATOM     21  C   UNL A   1      31.875  21.712  23.912  1.00  0.00     0.008 A 
ATOM     22  C   UNL A   1      34.011  22.720  24.424  1.00  0.00     0.008 A 
BRANCH  18  23
ATOM     23  O   UNL A   1      34.197  19.027  24.649  1.00  0.00    -0.497 OA
ATOM     24  C   UNL A   1      33.175  18.085  24.962  1.00  0.00     0.278 C 
ENDBRANCH  18  23
ENDBRANCH   8  17
BRANCH   9  25
ATOM     25  C   UNL A   1      32.983  24.291  21.520  1.00  0.00     0.100 C 
ATOM     26  N   UNL A   1      33.323  23.658  20.483  1.00  0.00    -0.193 NA
ENDBRANCH   9  25
BRANCH  10  27
ATOM     27  C   UNL A   1      31.839  24.294  26.508  1.00  0.00     0.098 C 
ATOM     28  N   UNL A   1      31.707  23.678  27.600  1.00  0.00    -0.193 NA
ENDBRANCH  10  27
BRANCH  11  29
ATOM     29  N   UNL A   1      33.070  27.166  21.803  1.00  0.00    -0.384 N 
ATOM     30  H   UNL A   1      33.047  26.809  20.888  1.00  0.00     0.158 HD
ATOM     31  H   UNL A   1      33.439  28.062  21.974  1.00  0.00     0.158 HD
ENDBRANCH  11  29
ENDBRANCH   6   7
ENDBRANCH   3   6
ENDBRANCH   1   2
BRANCH   1  32
ATOM     32  C   UNL A   1      35.101  32.835  28.017  1.00  0.00     0.042 C 
BRANCH  32  33
ATOM     33  C   UNL A   1      36.320  32.756  28.912  1.00  0.00     0.118 C 
BRANCH  33  34
ATOM     34  N   UNL A   1      36.008  32.016  30.114  1.00  0.00    -0.352 N 
ATOM     35  C   UNL A   1      36.504  30.815  30.566  1.00  0.00     0.251 C 
ATOM     36  H   UNL A   1      35.337  32.436  30.699  1.00  0.00     0.163 HD
ATOM     37  O   UNL A   1      35.840  30.185  31.378  1.00  0.00    -0.269 OA
BRANCH  35  38
ATOM     38  C   UNL A   1      37.802  30.259  30.091  1.00  0.00     0.039 A 
ATOM     39  C   UNL A   1      38.799  30.014  31.043  1.00  0.00     0.014 A 
ATOM     40  C   UNL A   1      38.106  30.079  28.740  1.00  0.00     0.014 A 
ATOM     41  C   UNL A   1      40.073  29.589  30.645  1.00  0.00     0.010 A 
ATOM     42  C   UNL A   1      39.338  29.549  28.351  1.00  0.00     0.010 A 
ATOM     43  C   UNL A   1      40.352  29.336  29.294  1.00  0.00    -0.014 A 
BRANCH  43  44
ATOM     44  C   UNL A   1      41.706  28.904  28.850  1.00  0.00     0.031 A 
ATOM     45  C   UNL A   1      41.949  27.484  28.399  1.00  0.00     0.074 A 
ATOM     46  C   UNL A   1      42.733  29.776  28.879  1.00  0.00     0.049 A 
ATOM     47  N   UNL A   1      43.064  26.919  28.004  1.00  0.00    -0.248 NA
ATOM     48  C   UNL A   1      40.795  26.569  28.419  1.00  0.00     0.031 C 
ATOM     49  C   UNL A   1      42.653  31.167  29.328  1.00  0.00     0.029 A 
ATOM     50  N   UNL A   1      44.049  29.618  28.519  1.00  0.00    -0.354 N 
ATOM     51  C   UNL A   1      42.749  25.587  27.757  1.00  0.00     0.074 A 
ATOM     52  C   UNL A   1      41.355  25.414  28.094  1.00  0.00     0.031 C 
ATOM     53  C   UNL A   1      43.854  31.747  29.179  1.00  0.00     0.029 A 
ATOM     54  C   UNL A   1      44.800  30.759  28.667  1.00  0.00     0.049 A 
ATOM     55  H   UNL A   1      44.420  28.769  28.187  1.00  0.00     0.167 HD
ATOM     56  C   UNL A   1      43.540  24.599  27.271  1.00  0.00     0.031 A 
ATOM     57  C   UNL A   1      46.103  30.989  28.421  1.00  0.00     0.031 A 
ATOM     58  C   UNL A   1      44.922  24.770  26.909  1.00  0.00     0.049 A 
ATOM     59  C   UNL A   1      46.961  29.878  27.882  1.00  0.00     0.074 A 
ATOM     60  C   UNL A   1      45.786  23.846  26.347  1.00  0.00     0.029 A 
ATOM     61  N   UNL A   1      45.640  25.943  27.074  1.00  0.00    -0.354 N 
ATOM     62  N   UNL A   1      46.628  28.645  27.591  1.00  0.00    -0.248 NA
ATOM     63  C   UNL A   1      48.372  30.199  27.627  1.00  0.00     0.031 C 
ATOM     64  C   UNL A   1      47.043  24.447  26.217  1.00  0.00     0.029 A 
ATOM     65  C   UNL A   1      46.946  25.761  26.648  1.00  0.00     0.049 A 
ATOM     66  H   UNL A   1      45.277  26.782  27.440  1.00  0.00     0.167 HD
ATOM     67  C   UNL A   1      47.781  28.048  27.098  1.00  0.00     0.074 A 
ATOM     68  C   UNL A   1      48.817  29.061  27.111  1.00  0.00     0.031 C 
ATOM     69  C   UNL A   1      47.966  26.775  26.673  1.00  0.00     0.031 A 
BRANCH  56  70
ATOM     70  C   UNL A   1      42.924  23.235  27.108  1.00  0.00    -0.014 A 
ATOM     71  C   UNL A   1      42.455  22.791  25.860  1.00  0.00     0.009 A 
ATOM     72  C   UNL A   1      42.840  22.370  28.209  1.00  0.00     0.009 A 
ATOM     73  C   UNL A   1      41.877  21.526  25.730  1.00  0.00     0.001 A 
ATOM     74  C   UNL A   1      42.290  21.094  28.070  1.00  0.00     0.001 A 
ATOM     75  C   UNL A   1      41.799  20.677  26.834  1.00  0.00     0.000 A 
ENDBRANCH  56  70
BRANCH  57  76
ATOM     76  C   UNL A   1      46.676  32.338  28.664  1.00  0.00    -0.014 A 
ATOM     77  C   UNL A   1      47.237  32.660  29.910  1.00  0.00     0.009 A 
ATOM     78  C   UNL A   1      46.670  33.310  27.651  1.00  0.00     0.009 A 
ATOM     79  C   UNL A   1      47.759  33.934  30.144  1.00  0.00     0.001 A 
ATOM     80  C   UNL A   1      47.219  34.574  27.879  1.00  0.00     0.001 A 
ATOM     81  C   UNL A   1      47.755  34.888  29.126  1.00  0.00     0.000 A 
ENDBRANCH  57  76
BRANCH  69  82
ATOM     82  C   UNL A   1      49.333  26.413  26.163  1.00  0.00    -0.014 A 
ATOM     83  C   UNL A   1      49.750  26.776  24.874  1.00  0.00     0.009 A 
ATOM     84  C   UNL A   1      50.227  25.727  27.001  1.00  0.00     0.009 A 
ATOM     85  C   UNL A   1      51.024  26.429  24.420  1.00  0.00     0.001 A 
ATOM     86  C   UNL A   1      51.511  25.407  26.555  1.00  0.00     0.001 A 
ATOM     87  C   UNL A   1      51.903  25.749  25.262  1.00  0.00     0.000 A 
ENDBRANCH  69  82
ENDBRANCH  43  44
ENDBRANCH  35  38
ENDBRANCH  33  34
ENDBRANCH  32  33
ENDBRANCH   1  32
TORSDOF 16
ENDMDL
