MODEL 1
REMARK VINA RESULT:     -11.9      0.000      0.000
REMARK SMILES O=C(NCCCNC(=O)c1cc(S(=O)(=O)Nc2ccc(F)c(C(F)(F)F)c2)c[nH]1)c1ccc(-c2c3nc(c(-c4ccccc4)c4ccc([nH]4)c(-c4ccccc4)c4nc(c(-c5ccccc5)c5ccc2[nH]5)C=C4)C=C3)cc1
REMARK SMILES IDX 6 1 5 2 4 3 3 4 1 5 2 6 30 8 31 9 77 10 32 11 76 12 33 13
REMARK SMILES IDX 34 14 35 15 70 16 36 17 75 18 69 19 71 20 37 21 74 22 68 23
REMARK SMILES IDX 67 24 38 26 60 27 45 28 59 29 46 30 49 31 58 32 72 33 47 34
REMARK SMILES IDX 48 35 57 37 73 38 50 39 39 40 40 41 44 42 41 43 43 44 42 45
REMARK SMILES IDX 61 46 62 47 66 48 63 49 65 50 64 51 51 52 52 53 56 54 53 55
REMARK SMILES IDX 55 56 54 57 7 58 8 59 9 61 10 62 11 63 29 64 12 65 28 66
REMARK SMILES IDX 13 68 14 69 15 70 16 71 17 73 18 74 27 75 19 76 22 77 20 78
REMARK SMILES IDX 21 79 23 80 24 81 25 82 26 83
REMARK H PARENT 3 7 71 25 49 36 7 60 29 67 16 72
REMARK Flexibility Score: inf
ROOT
ATOM      1  C   UNL A   1      37.307  21.149  24.451  1.00  0.00     0.118 C 
ENDROOT
BRANCH   1   2
ATOM      2  C   UNL A   1      37.914  19.796  24.784  1.00  0.00     0.042 C 
BRANCH   2   3
ATOM      3  C   UNL A   1      38.871  19.831  25.970  1.00  0.00     0.118 C 
BRANCH   3   4
ATOM      4  N   UNL A   1      40.128  19.131  25.769  1.00  0.00    -0.352 N 
ATOM      5  O   UNL A   1      42.261  18.522  25.865  1.00  0.00    -0.269 OA
ATOM      6  C   UNL A   1      41.440  19.425  26.032  1.00  0.00     0.251 C 
ATOM      7  H   UNL A   1      40.010  18.248  25.351  1.00  0.00     0.163 HD
BRANCH   6   8
ATOM      8  C   UNL A   1      41.935  20.773  26.426  1.00  0.00     0.039 A 
ATOM      9  C   UNL A   1      42.278  21.784  25.531  1.00  0.00     0.014 A 
ATOM     10  C   UNL A   1      42.056  21.023  27.807  1.00  0.00     0.014 A 
ATOM     11  C   UNL A   1      42.833  22.973  25.991  1.00  0.00     0.010 A 
ATOM     12  C   UNL A   1      42.571  22.231  28.281  1.00  0.00     0.010 A 
ATOM     13  C   UNL A   1      42.976  23.201  27.364  1.00  0.00    -0.014 A 
BRANCH  13  14
ATOM     14  C   UNL A   1      43.387  24.562  27.770  1.00  0.00     0.031 A 
ATOM     15  C   UNL A   1      42.173  25.495  27.916  1.00  0.00     0.074 A 
ATOM     16  C   UNL A   1      44.729  24.818  27.808  1.00  0.00     0.049 A 
ATOM     17  N   UNL A   1      42.071  26.769  27.693  1.00  0.00    -0.248 NA
ATOM     18  C   UNL A   1      40.857  24.909  28.294  1.00  0.00     0.031 C 
ATOM     19  C   UNL A   1      45.787  23.786  27.705  1.00  0.00     0.029 A 
ATOM     20  N   UNL A   1      45.483  25.968  27.916  1.00  0.00    -0.354 N 
ATOM     21  C   UNL A   1      40.754  27.161  28.020  1.00  0.00     0.074 A 
ATOM     22  C   UNL A   1      40.032  25.959  28.312  1.00  0.00     0.031 C 
ATOM     23  C   UNL A   1      47.013  24.353  27.670  1.00  0.00     0.029 A 
ATOM     24  C   UNL A   1      46.881  25.795  27.734  1.00  0.00     0.049 A 
ATOM     25  H   UNL A   1      45.081  26.847  28.104  1.00  0.00     0.167 HD
ATOM     26  C   UNL A   1      40.356  28.464  28.117  1.00  0.00     0.031 A 
ATOM     27  C   UNL A   1      47.857  26.743  27.583  1.00  0.00     0.031 A 
ATOM     28  C   UNL A   1      41.403  29.337  27.716  1.00  0.00     0.049 A 
ATOM     29  C   UNL A   1      47.189  28.042  27.736  1.00  0.00     0.074 A 
ATOM     30  C   UNL A   1      41.931  29.657  26.492  1.00  0.00     0.029 A 
ATOM     31  N   UNL A   1      42.267  29.755  28.696  1.00  0.00    -0.354 N 
ATOM     32  N   UNL A   1      46.789  28.543  28.862  1.00  0.00    -0.248 NA
ATOM     33  C   UNL A   1      46.896  28.835  26.535  1.00  0.00     0.031 C 
ATOM     34  C   UNL A   1      43.309  29.807  26.757  1.00  0.00     0.029 A 
ATOM     35  C   UNL A   1      43.522  29.751  28.138  1.00  0.00     0.049 A 
ATOM     36  H   UNL A   1      42.033  30.010  29.618  1.00  0.00     0.167 HD
ATOM     37  C   UNL A   1      45.874  29.480  28.456  1.00  0.00     0.074 A 
ATOM     38  C   UNL A   1      46.223  29.836  27.099  1.00  0.00     0.031 C 
ATOM     39  C   UNL A   1      44.638  29.492  29.015  1.00  0.00     0.031 A 
BRANCH  26  40
ATOM     40  C   UNL A   1      39.136  29.089  28.734  1.00  0.00    -0.014 A 
ATOM     41  C   UNL A   1      38.905  28.861  30.114  1.00  0.00     0.009 A 
ATOM     42  C   UNL A   1      38.074  29.609  27.988  1.00  0.00     0.009 A 
ATOM     43  C   UNL A   1      37.649  29.042  30.695  1.00  0.00     0.001 A 
ATOM     44  C   UNL A   1      36.819  29.824  28.580  1.00  0.00     0.001 A 
ATOM     45  C   UNL A   1      36.598  29.510  29.920  1.00  0.00     0.000 A 
ENDBRANCH  26  40
BRANCH  27  46
ATOM     46  C   UNL A   1      49.322  26.815  27.227  1.00  0.00    -0.014 A 
ATOM     47  C   UNL A   1      49.862  26.814  25.940  1.00  0.00     0.009 A 
ATOM     48  C   UNL A   1      50.271  26.948  28.283  1.00  0.00     0.009 A 
ATOM     49  C   UNL A   1      51.244  27.025  25.728  1.00  0.00     0.001 A 
ATOM     50  C   UNL A   1      51.630  27.201  28.081  1.00  0.00     0.001 A 
ATOM     51  C   UNL A   1      52.118  27.253  26.791  1.00  0.00     0.000 A 
ENDBRANCH  27  46
BRANCH  39  52
ATOM     52  C   UNL A   1      44.544  28.792  30.365  1.00  0.00    -0.014 A 
ATOM     53  C   UNL A   1      44.001  27.501  30.455  1.00  0.00     0.009 A 
ATOM     54  C   UNL A   1      44.861  29.436  31.575  1.00  0.00     0.009 A 
ATOM     55  C   UNL A   1      43.765  26.895  31.696  1.00  0.00     0.001 A 
ATOM     56  C   UNL A   1      44.631  28.832  32.819  1.00  0.00     0.001 A 
ATOM     57  C   UNL A   1      44.078  27.560  32.878  1.00  0.00     0.000 A 
ENDBRANCH  39  52
ENDBRANCH  13  14
ENDBRANCH   6   8
ENDBRANCH   3   4
ENDBRANCH   2   3
ENDBRANCH   1   2
BRANCH   1  58
ATOM     58  N   UNL A   1      37.997  22.236  25.132  1.00  0.00    -0.351 N 
ATOM     59  C   UNL A   1      37.509  23.383  25.706  1.00  0.00     0.267 C 
ATOM     60  H   UNL A   1      38.973  22.130  25.189  1.00  0.00     0.163 HD
ATOM     61  O   UNL A   1      38.301  24.299  25.922  1.00  0.00    -0.268 OA
BRANCH  59  62
ATOM     62  C   UNL A   1      36.117  23.478  26.075  1.00  0.00     0.105 A 
ATOM     63  C   UNL A   1      35.098  24.250  25.554  1.00  0.00     0.055 A 
ATOM     64  N   UNL A   1      35.519  22.646  27.002  1.00  0.00    -0.356 N 
ATOM     65  C   UNL A   1      33.871  23.860  26.127  1.00  0.00     0.106 A 
ATOM     66  C   UNL A   1      34.166  22.887  27.059  1.00  0.00     0.105 A 
ATOM     67  H   UNL A   1      35.994  21.975  27.543  1.00  0.00     0.166 HD
BRANCH  65  68
ATOM     68  S   UNL A   1      32.310  24.437  25.644  1.00  0.00     0.263 S 
ATOM     69  O   UNL A   1      31.748  24.994  26.852  1.00  0.00    -0.201 OA
ATOM     70  O   UNL A   1      32.579  25.259  24.483  1.00  0.00    -0.201 OA
BRANCH  68  71
ATOM     71  N   UNL A   1      31.310  23.179  25.124  1.00  0.00    -0.280 N 
ATOM     72  H   UNL A   1      30.364  23.190  25.395  1.00  0.00     0.180 HD
BRANCH  71  73
ATOM     73  C   UNL A   1      31.770  22.102  24.311  1.00  0.00     0.050 A 
ATOM     74  C   UNL A   1      31.800  22.125  22.916  1.00  0.00     0.030 A 
ATOM     75  C   UNL A   1      32.132  20.931  24.988  1.00  0.00     0.043 A 
ATOM     76  C   UNL A   1      32.034  20.941  22.211  1.00  0.00     0.042 A 
ATOM     77  C   UNL A   1      32.387  19.738  24.285  1.00  0.00     0.093 A 
ATOM     78  C   UNL A   1      32.308  19.759  22.896  1.00  0.00     0.135 A 
ATOM     79  F   UNL A   1      32.476  18.637  22.188  1.00  0.00    -0.206 F 
BRANCH  77  80
ATOM     80  C   UNL A   1      32.719  18.480  25.030  1.00  0.00     0.419 C 
ATOM     81  F   UNL A   1      31.833  17.482  24.762  1.00  0.00    -0.166 F 
ATOM     82  F   UNL A   1      33.942  17.990  24.673  1.00  0.00    -0.166 F 
ATOM     83  F   UNL A   1      32.754  18.600  26.382  1.00  0.00    -0.166 F 
ENDBRANCH  77  80
ENDBRANCH  71  73
ENDBRANCH  68  71
ENDBRANCH  65  68
ENDBRANCH  59  62
ENDBRANCH   1  58
TORSDOF 14
ENDMDL
MODEL 2
REMARK VINA RESULT:     -11.8      5.895     10.364
REMARK SMILES O=C(NCCCNC(=O)c1cc(S(=O)(=O)Nc2ccc(F)c(C(F)(F)F)c2)c[nH]1)c1ccc(-c2c3nc(c(-c4ccccc4)c4ccc([nH]4)c(-c4ccccc4)c4nc(c(-c5ccccc5)c5ccc2[nH]5)C=C4)C=C3)cc1
REMARK SMILES IDX 6 1 5 2 4 3 3 4 1 5 2 6 30 8 31 9 77 10 32 11 76 12 33 13
REMARK SMILES IDX 34 14 35 15 70 16 36 17 75 18 69 19 71 20 37 21 74 22 68 23
REMARK SMILES IDX 67 24 38 26 60 27 45 28 59 29 46 30 49 31 58 32 72 33 47 34
REMARK SMILES IDX 48 35 57 37 73 38 50 39 39 40 40 41 44 42 41 43 43 44 42 45
REMARK SMILES IDX 61 46 62 47 66 48 63 49 65 50 64 51 51 52 52 53 56 54 53 55
REMARK SMILES IDX 55 56 54 57 7 58 8 59 9 61 10 62 11 63 29 64 12 65 28 66
REMARK SMILES IDX 13 68 14 69 15 70 16 71 17 73 18 74 27 75 19 76 22 77 20 78
REMARK SMILES IDX 21 79 23 80 24 81 25 82 26 83
REMARK H PARENT 3 7 71 25 49 36 7 60 29 67 16 72
REMARK Flexibility Score: inf
ROOT
ATOM      1  C   UNL A   1      31.766  30.818  26.520  1.00  0.00     0.118 C 
ENDROOT
BRANCH   1   2
ATOM      2  C   UNL A   1      31.257  32.192  26.925  1.00  0.00     0.042 C 
BRANCH   2   3
ATOM      3  C   UNL A   1      32.315  33.286  26.835  1.00  0.00     0.118 C 
BRANCH   3   4
ATOM      4  N   UNL A   1      32.152  34.381  27.776  1.00  0.00    -0.352 N 
ATOM      5  O   UNL A   1      32.542  35.972  29.274  1.00  0.00    -0.269 OA
ATOM      6  C   UNL A   1      32.942  34.931  28.751  1.00  0.00     0.251 C 
ATOM      7  H   UNL A   1      31.278  34.827  27.695  1.00  0.00     0.163 HD
BRANCH   6   8
ATOM      8  C   UNL A   1      34.197  34.315  29.260  1.00  0.00     0.039 A 
ATOM      9  C   UNL A   1      35.464  34.538  28.723  1.00  0.00     0.014 A 
ATOM     10  C   UNL A   1      34.075  33.449  30.364  1.00  0.00     0.014 A 
ATOM     11  C   UNL A   1      36.564  33.835  29.199  1.00  0.00     0.010 A 
ATOM     12  C   UNL A   1      35.182  32.770  30.878  1.00  0.00     0.010 A 
ATOM     13  C   UNL A   1      36.428  32.954  30.279  1.00  0.00    -0.014 A 
BRANCH  13  14
ATOM     14  C   UNL A   1      37.677  32.402  30.845  1.00  0.00     0.031 A 
ATOM     15  C   UNL A   1      38.079  31.092  30.147  1.00  0.00     0.074 A 
ATOM     16  C   UNL A   1      38.183  33.025  31.951  1.00  0.00     0.049 A 
ATOM     17  N   UNL A   1      38.683  30.047  30.622  1.00  0.00    -0.248 NA
ATOM     18  C   UNL A   1      37.682  30.884  28.726  1.00  0.00     0.031 C 
ATOM     19  C   UNL A   1      37.713  34.330  32.473  1.00  0.00     0.029 A 
ATOM     20  N   UNL A   1      39.159  32.702  32.871  1.00  0.00    -0.354 N 
ATOM     21  C   UNL A   1      38.859  29.130  29.562  1.00  0.00     0.074 A 
ATOM     22  C   UNL A   1      38.155  29.668  28.437  1.00  0.00     0.031 C 
ATOM     23  C   UNL A   1      38.333  34.637  33.634  1.00  0.00     0.029 A 
ATOM     24  C   UNL A   1      39.247  33.571  33.990  1.00  0.00     0.049 A 
ATOM     25  H   UNL A   1      39.752  31.925  32.759  1.00  0.00     0.167 HD
ATOM     26  C   UNL A   1      39.649  28.019  29.648  1.00  0.00     0.031 A 
ATOM     27  C   UNL A   1      39.958  33.417  35.150  1.00  0.00     0.031 A 
ATOM     28  C   UNL A   1      40.143  27.859  30.971  1.00  0.00     0.049 A 
ATOM     29  C   UNL A   1      40.724  32.174  34.995  1.00  0.00     0.074 A 
ATOM     30  C   UNL A   1      39.556  27.453  32.140  1.00  0.00     0.029 A 
ATOM     31  N   UNL A   1      41.339  28.465  31.260  1.00  0.00    -0.354 N 
ATOM     32  N   UNL A   1      41.780  32.040  34.257  1.00  0.00    -0.248 NA
ATOM     33  C   UNL A   1      40.255  30.961  35.680  1.00  0.00     0.031 C 
ATOM     34  C   UNL A   1      40.175  28.262  33.118  1.00  0.00     0.029 A 
ATOM     35  C   UNL A   1      41.219  28.981  32.526  1.00  0.00     0.049 A 
ATOM     36  H   UNL A   1      42.128  28.520  30.674  1.00  0.00     0.167 HD
ATOM     37  C   UNL A   1      41.845  30.680  34.086  1.00  0.00     0.074 A 
ATOM     38  C   UNL A   1      41.139  30.090  35.200  1.00  0.00     0.031 C 
ATOM     39  C   UNL A   1      41.976  30.170  32.835  1.00  0.00     0.031 A 
BRANCH  26  40
ATOM     40  C   UNL A   1      40.208  27.112  28.588  1.00  0.00    -0.014 A 
ATOM     41  C   UNL A   1      41.086  27.679  27.631  1.00  0.00     0.009 A 
ATOM     42  C   UNL A   1      39.690  25.845  28.305  1.00  0.00     0.009 A 
ATOM     43  C   UNL A   1      41.348  27.061  26.407  1.00  0.00     0.001 A 
ATOM     44  C   UNL A   1      39.980  25.207  27.088  1.00  0.00     0.001 A 
ATOM     45  C   UNL A   1      40.779  25.828  26.128  1.00  0.00     0.000 A 
ENDBRANCH  26  40
BRANCH  27  46
ATOM     46  C   UNL A   1      40.086  34.084  36.498  1.00  0.00    -0.014 A 
ATOM     47  C   UNL A   1      39.082  34.777  37.177  1.00  0.00     0.009 A 
ATOM     48  C   UNL A   1      41.324  33.971  37.197  1.00  0.00     0.009 A 
ATOM     49  C   UNL A   1      39.280  35.241  38.498  1.00  0.00     0.001 A 
ATOM     50  C   UNL A   1      41.513  34.388  38.517  1.00  0.00     0.001 A 
ATOM     51  C   UNL A   1      40.477  35.016  39.177  1.00  0.00     0.000 A 
ENDBRANCH  27  46
BRANCH  39  52
ATOM     52  C   UNL A   1      42.522  31.150  31.804  1.00  0.00    -0.014 A 
ATOM     53  C   UNL A   1      43.868  31.543  31.847  1.00  0.00     0.009 A 
ATOM     54  C   UNL A   1      41.698  31.799  30.866  1.00  0.00     0.009 A 
ATOM     55  C   UNL A   1      44.360  32.553  31.008  1.00  0.00     0.001 A 
ATOM     56  C   UNL A   1      42.186  32.806  30.021  1.00  0.00     0.001 A 
ATOM     57  C   UNL A   1      43.519  33.186  30.097  1.00  0.00     0.000 A 
ENDBRANCH  39  52
ENDBRANCH  13  14
ENDBRANCH   6   8
ENDBRANCH   3   4
ENDBRANCH   2   3
ENDBRANCH   1   2
BRANCH   1  58
ATOM     58  N   UNL A   1      33.090  30.548  27.062  1.00  0.00    -0.351 N 
ATOM     59  C   UNL A   1      33.878  29.428  26.976  1.00  0.00     0.267 C 
ATOM     60  H   UNL A   1      33.483  31.290  27.574  1.00  0.00     0.163 HD
ATOM     61  O   UNL A   1      34.800  29.311  27.783  1.00  0.00    -0.268 OA
BRANCH  59  62
ATOM     62  C   UNL A   1      33.644  28.450  25.941  1.00  0.00     0.105 A 
ATOM     63  C   UNL A   1      33.495  28.600  24.577  1.00  0.00     0.055 A 
ATOM     64  N   UNL A   1      33.664  27.086  26.167  1.00  0.00    -0.356 N 
ATOM     65  C   UNL A   1      33.467  27.332  23.962  1.00  0.00     0.106 A 
ATOM     66  C   UNL A   1      33.531  26.403  24.980  1.00  0.00     0.105 A 
ATOM     67  H   UNL A   1      33.759  26.665  27.051  1.00  0.00     0.166 HD
BRANCH  65  68
ATOM     68  S   UNL A   1      33.468  27.046  22.253  1.00  0.00     0.263 S 
ATOM     69  O   UNL A   1      34.129  28.203  21.699  1.00  0.00    -0.201 OA
ATOM     70  O   UNL A   1      34.024  25.715  22.116  1.00  0.00    -0.201 OA
BRANCH  68  71
ATOM     71  N   UNL A   1      31.900  26.980  21.628  1.00  0.00    -0.280 N 
ATOM     72  H   UNL A   1      31.781  26.716  20.687  1.00  0.00     0.180 HD
BRANCH  71  73
ATOM     73  C   UNL A   1      30.740  27.288  22.397  1.00  0.00     0.050 A 
ATOM     74  C   UNL A   1      30.033  26.360  23.163  1.00  0.00     0.030 A 
ATOM     75  C   UNL A   1      30.260  28.599  22.289  1.00  0.00     0.043 A 
ATOM     76  C   UNL A   1      28.779  26.702  23.679  1.00  0.00     0.042 A 
ATOM     77  C   UNL A   1      29.007  28.957  22.821  1.00  0.00     0.093 A 
ATOM     78  C   UNL A   1      28.270  27.985  23.491  1.00  0.00     0.135 A 
ATOM     79  F   UNL A   1      27.046  28.258  23.955  1.00  0.00    -0.206 F 
BRANCH  77  80
ATOM     80  C   UNL A   1      28.484  30.352  22.647  1.00  0.00     0.419 C 
ATOM     81  F   UNL A   1      28.349  30.996  23.839  1.00  0.00    -0.166 F 
ATOM     82  F   UNL A   1      29.338  31.122  21.911  1.00  0.00    -0.166 F 
ATOM     83  F   UNL A   1      27.280  30.447  22.028  1.00  0.00    -0.166 F 
ENDBRANCH  77  80
ENDBRANCH  71  73
ENDBRANCH  68  71
ENDBRANCH  65  68
ENDBRANCH  59  62
ENDBRANCH   1  58
TORSDOF 14
ENDMDL
MODEL 3
REMARK VINA RESULT:     -11.7      2.703      7.081
REMARK SMILES O=C(NCCCNC(=O)c1cc(S(=O)(=O)Nc2ccc(F)c(C(F)(F)F)c2)c[nH]1)c1ccc(-c2c3nc(c(-c4ccccc4)c4ccc([nH]4)c(-c4ccccc4)c4nc(c(-c5ccccc5)c5ccc2[nH]5)C=C4)C=C3)cc1
REMARK SMILES IDX 6 1 5 2 4 3 3 4 1 5 2 6 30 8 31 9 77 10 32 11 76 12 33 13
REMARK SMILES IDX 34 14 35 15 70 16 36 17 75 18 69 19 71 20 37 21 74 22 68 23
REMARK SMILES IDX 67 24 38 26 60 27 45 28 59 29 46 30 49 31 58 32 72 33 47 34
REMARK SMILES IDX 48 35 57 37 73 38 50 39 39 40 40 41 44 42 41 43 43 44 42 45
REMARK SMILES IDX 61 46 62 47 66 48 63 49 65 50 64 51 51 52 52 53 56 54 53 55
REMARK SMILES IDX 55 56 54 57 7 58 8 59 9 61 10 62 11 63 29 64 12 65 28 66
REMARK SMILES IDX 13 68 14 69 15 70 16 71 17 73 18 74 27 75 19 76 22 77 20 78
REMARK SMILES IDX 21 79 23 80 24 81 25 82 26 83
REMARK H PARENT 3 7 71 25 49 36 7 60 29 67 16 72
REMARK Flexibility Score: inf
ROOT
ATOM      1  C   UNL A   1      32.643  27.652  25.346  1.00  0.00     0.118 C 
ENDROOT
BRANCH   1   2
ATOM      2  C   UNL A   1      32.900  28.942  26.108  1.00  0.00     0.042 C 
BRANCH   2   3
ATOM      3  C   UNL A   1      33.964  28.810  27.191  1.00  0.00     0.118 C 
BRANCH   3   4
ATOM      4  N   UNL A   1      34.171  29.999  28.000  1.00  0.00    -0.352 N 
ATOM      5  O   UNL A   1      35.105  31.702  29.075  1.00  0.00    -0.269 OA
ATOM      6  C   UNL A   1      35.269  30.593  28.564  1.00  0.00     0.251 C 
ATOM      7  H   UNL A   1      33.335  30.486  28.184  1.00  0.00     0.163 HD
BRANCH   6   8
ATOM      8  C   UNL A   1      36.611  29.956  28.661  1.00  0.00     0.039 A 
ATOM      9  C   UNL A   1      37.110  29.332  29.804  1.00  0.00     0.014 A 
ATOM     10  C   UNL A   1      37.417  29.997  27.507  1.00  0.00     0.014 A 
ATOM     11  C   UNL A   1      38.417  28.859  29.833  1.00  0.00     0.010 A 
ATOM     12  C   UNL A   1      38.715  29.485  27.513  1.00  0.00     0.010 A 
ATOM     13  C   UNL A   1      39.220  28.930  28.689  1.00  0.00    -0.014 A 
BRANCH  13  14
ATOM     14  C   UNL A   1      40.520  28.228  28.748  1.00  0.00     0.031 A 
ATOM     15  C   UNL A   1      41.689  29.221  28.857  1.00  0.00     0.074 A 
ATOM     16  C   UNL A   1      40.502  26.875  28.554  1.00  0.00     0.049 A 
ATOM     17  N   UNL A   1      42.897  29.138  28.392  1.00  0.00    -0.248 NA
ATOM     18  C   UNL A   1      41.457  30.536  29.518  1.00  0.00     0.031 C 
ATOM     19  C   UNL A   1      39.276  26.043  28.527  1.00  0.00     0.029 A 
ATOM     20  N   UNL A   1      41.478  25.927  28.322  1.00  0.00    -0.354 N 
ATOM     21  C   UNL A   1      43.599  30.294  28.803  1.00  0.00     0.074 A 
ATOM     22  C   UNL A   1      42.638  31.152  29.429  1.00  0.00     0.031 C 
ATOM     23  C   UNL A   1      39.570  24.761  28.215  1.00  0.00     0.029 A 
ATOM     24  C   UNL A   1      40.996  24.632  27.996  1.00  0.00     0.049 A 
ATOM     25  H   UNL A   1      42.438  26.134  28.377  1.00  0.00     0.167 HD
ATOM     26  C   UNL A   1      44.951  30.440  28.680  1.00  0.00     0.031 A 
ATOM     27  C   UNL A   1      41.686  23.546  27.526  1.00  0.00     0.031 A 
ATOM     28  C   UNL A   1      45.510  29.341  27.973  1.00  0.00     0.049 A 
ATOM     29  C   UNL A   1      43.099  23.946  27.495  1.00  0.00     0.074 A 
ATOM     30  C   UNL A   1      45.494  28.981  26.651  1.00  0.00     0.029 A 
ATOM     31  N   UNL A   1      45.912  28.265  28.723  1.00  0.00    -0.354 N 
ATOM     32  N   UNL A   1      43.862  24.057  28.536  1.00  0.00    -0.248 NA
ATOM     33  C   UNL A   1      43.710  24.296  26.206  1.00  0.00     0.031 C 
ATOM     34  C   UNL A   1      45.409  27.572  26.695  1.00  0.00     0.029 A 
ATOM     35  C   UNL A   1      45.556  27.143  28.017  1.00  0.00     0.049 A 
ATOM     36  H   UNL A   1      46.368  28.293  29.595  1.00  0.00     0.167 HD
ATOM     37  C   UNL A   1      44.877  24.852  28.070  1.00  0.00     0.074 A 
ATOM     38  C   UNL A   1      44.909  24.682  26.635  1.00  0.00     0.031 C 
ATOM     39  C   UNL A   1      45.238  25.955  28.773  1.00  0.00     0.031 A 
BRANCH  26  40
ATOM     40  C   UNL A   1      45.908  31.412  29.311  1.00  0.00    -0.014 A 
ATOM     41  C   UNL A   1      46.680  32.231  28.449  1.00  0.00     0.009 A 
ATOM     42  C   UNL A   1      46.305  31.346  30.650  1.00  0.00     0.009 A 
ATOM     43  C   UNL A   1      47.847  32.865  28.878  1.00  0.00     0.001 A 
ATOM     44  C   UNL A   1      47.460  32.012  31.090  1.00  0.00     0.001 A 
ATOM     45  C   UNL A   1      48.247  32.741  30.199  1.00  0.00     0.000 A 
ENDBRANCH  26  40
BRANCH  27  46
ATOM     46  C   UNL A   1      41.397  22.172  26.972  1.00  0.00    -0.014 A 
ATOM     47  C   UNL A   1      42.259  21.074  26.991  1.00  0.00     0.009 A 
ATOM     48  C   UNL A   1      40.108  21.922  26.416  1.00  0.00     0.009 A 
ATOM     49  C   UNL A   1      41.825  19.798  26.566  1.00  0.00     0.001 A 
ATOM     50  C   UNL A   1      39.657  20.656  26.036  1.00  0.00     0.001 A 
ATOM     51  C   UNL A   1      40.519  19.582  26.125  1.00  0.00     0.000 A 
ENDBRANCH  27  46
BRANCH  39  52
ATOM     52  C   UNL A   1      44.821  25.939  30.239  1.00  0.00    -0.014 A 
ATOM     53  C   UNL A   1      43.793  26.780  30.690  1.00  0.00     0.009 A 
ATOM     54  C   UNL A   1      45.517  25.201  31.214  1.00  0.00     0.009 A 
ATOM     55  C   UNL A   1      43.492  26.896  32.055  1.00  0.00     0.001 A 
ATOM     56  C   UNL A   1      45.216  25.309  32.580  1.00  0.00     0.001 A 
ATOM     57  C   UNL A   1      44.204  26.162  32.999  1.00  0.00     0.000 A 
ENDBRANCH  39  52
ENDBRANCH  13  14
ENDBRANCH   6   8
ENDBRANCH   3   4
ENDBRANCH   2   3
ENDBRANCH   1   2
BRANCH   1  58
ATOM     58  N   UNL A   1      31.237  27.496  25.001  1.00  0.00    -0.351 N 
ATOM     59  C   UNL A   1      30.471  26.365  24.865  1.00  0.00     0.267 C 
ATOM     60  H   UNL A   1      30.758  28.340  24.840  1.00  0.00     0.163 HD
ATOM     61  O   UNL A   1      29.410  26.461  24.250  1.00  0.00    -0.268 OA
BRANCH  59  62
ATOM     62  C   UNL A   1      30.893  25.123  25.466  1.00  0.00     0.105 A 
ATOM     63  C   UNL A   1      32.096  24.450  25.391  1.00  0.00     0.055 A 
ATOM     64  N   UNL A   1      30.132  24.427  26.386  1.00  0.00    -0.356 N 
ATOM     65  C   UNL A   1      32.090  23.370  26.297  1.00  0.00     0.106 A 
ATOM     66  C   UNL A   1      30.837  23.352  26.875  1.00  0.00     0.105 A 
ATOM     67  H   UNL A   1      29.217  24.668  26.655  1.00  0.00     0.166 HD
BRANCH  65  68
ATOM     68  S   UNL A   1      33.449  22.360  26.664  1.00  0.00     0.263 S 
ATOM     69  O   UNL A   1      34.439  22.725  25.679  1.00  0.00    -0.201 OA
ATOM     70  O   UNL A   1      33.675  22.567  28.079  1.00  0.00    -0.201 OA
BRANCH  68  71
ATOM     71  N   UNL A   1      33.084  20.722  26.468  1.00  0.00    -0.280 N 
ATOM     72  H   UNL A   1      32.913  20.181  27.273  1.00  0.00     0.180 HD
BRANCH  71  73
ATOM     73  C   UNL A   1      33.013  20.085  25.195  1.00  0.00     0.050 A 
ATOM     74  C   UNL A   1      32.380  20.628  24.077  1.00  0.00     0.030 A 
ATOM     75  C   UNL A   1      33.555  18.796  25.120  1.00  0.00     0.043 A 
ATOM     76  C   UNL A   1      32.153  19.827  22.954  1.00  0.00     0.042 A 
ATOM     77  C   UNL A   1      33.347  17.988  23.986  1.00  0.00     0.093 A 
ATOM     78  C   UNL A   1      32.620  18.515  22.923  1.00  0.00     0.135 A 
ATOM     79  F   UNL A   1      32.339  17.764  21.852  1.00  0.00    -0.206 F 
BRANCH  77  80
ATOM     80  C   UNL A   1      33.887  16.590  23.947  1.00  0.00     0.419 C 
ATOM     81  F   UNL A   1      34.876  16.402  24.864  1.00  0.00    -0.166 F 
ATOM     82  F   UNL A   1      32.927  15.669  24.251  1.00  0.00    -0.166 F 
ATOM     83  F   UNL A   1      34.402  16.201  22.752  1.00  0.00    -0.166 F 
ENDBRANCH  77  80
ENDBRANCH  71  73
ENDBRANCH  68  71
ENDBRANCH  65  68
ENDBRANCH  59  62
ENDBRANCH   1  58
TORSDOF 14
ENDMDL
