MODEL 1
REMARK VINA RESULT:     -11.2      0.000      0.000
REMARK SMILES C[C@H]1[C@@H](C(=O)NCCCNC(=O)c2ccc(-c3c4nc(c(-c5ccccc5)c5ccc([nH]5)c(-c5ccccc5)c5nc(c(-c6ccccc6)c6ccc3[nH]6)C=C5)C=C4)cc2)CC[N@@H+]1CC(=O)NNc1ccccn1
REMARK SMILES IDX 7 1 6 2 4 3 5 4 3 6 1 7 2 8 63 9 61 10 62 11 64 13 65 14
REMARK SMILES IDX 66 15 67 16 68 18 69 20 70 21 74 22 71 23 73 24 72 25 8 26
REMARK SMILES IDX 9 27 10 28 11 29 12 31 13 32 14 33 60 34 15 35 59 36 16 37
REMARK SMILES IDX 17 38 18 39 53 40 19 41 58 42 52 43 54 44 20 45 57 46 51 47
REMARK SMILES IDX 50 48 21 50 43 51 28 52 42 53 29 54 32 55 41 56 55 57 30 58
REMARK SMILES IDX 31 59 40 61 56 62 33 63 22 64 23 65 27 66 24 67 26 68 25 69
REMARK SMILES IDX 44 70 45 71 49 72 46 73 48 74 47 75 34 76 35 77 39 78 36 79
REMARK SMILES IDX 38 80 37 81
REMARK H PARENT 6 5 63 12 67 17 68 19 10 30 54 49 32 60
REMARK Flexibility Score: inf
ROOT
ATOM      1  C   UNL A   1      31.252  30.434  25.162  1.00  0.00     0.117 C 
ENDROOT
BRANCH   1   2
ATOM      2  N   UNL A   1      32.629  29.992  25.295  1.00  0.00    -0.356 N 
ATOM      3  C   UNL A   1      33.152  28.751  25.489  1.00  0.00     0.229 C 
ATOM      4  O   UNL A   1      34.349  28.709  25.784  1.00  0.00    -0.275 OA
ATOM      5  H   UNL A   1      33.297  30.712  25.234  1.00  0.00     0.163 HD
BRANCH   3   6
ATOM      6  C   UNL A   1      32.315  27.497  25.257  1.00  0.00     0.142 C 
ATOM      7  C   UNL A   1      31.414  27.720  27.716  1.00  0.00     0.076 C 
ATOM      8  C   UNL A   1      31.316  27.056  26.344  1.00  0.00     0.194 C 
ATOM      9  N   UNL A   1      31.541  25.620  26.577  1.00  0.00    -0.324 N 
ATOM     10  C   UNL A   1      33.206  26.265  25.023  1.00  0.00     0.081 C 
ATOM     11  C   UNL A   1      32.925  25.347  26.196  1.00  0.00     0.263 C 
ATOM     12  H   UNL A   1      31.417  25.398  27.565  1.00  0.00     0.348 HD
BRANCH   9  13
ATOM     13  C   UNL A   1      30.523  24.725  26.001  1.00  0.00     0.365 C 
BRANCH  13  14
ATOM     14  C   UNL A   1      30.356  23.373  26.692  1.00  0.00     0.293 C 
ATOM     15  O   UNL A   1      29.650  23.243  27.697  1.00  0.00    -0.267 OA
ATOM     16  N   UNL A   1      30.983  22.263  26.189  1.00  0.00    -0.264 N 
ATOM     17  H   UNL A   1      30.851  21.407  26.657  1.00  0.00     0.191 HD
BRANCH  16  18
ATOM     18  N   UNL A   1      31.799  22.268  25.057  1.00  0.00    -0.282 N 
ATOM     19  H   UNL A   1      31.792  22.991  24.389  1.00  0.00     0.190 HD
BRANCH  18  20
ATOM     20  C   UNL A   1      32.632  21.136  24.965  1.00  0.00     0.144 A 
ATOM     21  C   UNL A   1      34.014  21.305  24.862  1.00  0.00     0.048 A 
ATOM     22  N   UNL A   1      32.065  19.913  24.955  1.00  0.00    -0.238 NA
ATOM     23  C   UNL A   1      34.834  20.186  24.733  1.00  0.00     0.005 A 
ATOM     24  C   UNL A   1      32.881  18.841  24.832  1.00  0.00     0.113 A 
ATOM     25  C   UNL A   1      34.256  18.925  24.718  1.00  0.00     0.020 A 
ENDBRANCH  18  20
ENDBRANCH  16  18
ENDBRANCH  13  14
ENDBRANCH   9  13
ENDBRANCH   3   6
ENDBRANCH   1   2
BRANCH   1  26
ATOM     26  C   UNL A   1      31.003  31.667  26.031  1.00  0.00     0.042 C 
BRANCH  26  27
ATOM     27  C   UNL A   1      32.175  32.047  26.927  1.00  0.00     0.118 C 
BRANCH  27  28
ATOM     28  N   UNL A   1      32.138  33.440  27.327  1.00  0.00    -0.352 N 
ATOM     29  C   UNL A   1      32.964  34.157  28.159  1.00  0.00     0.251 C 
ATOM     30  H   UNL A   1      31.399  33.960  26.937  1.00  0.00     0.163 HD
ATOM     31  O   UNL A   1      32.615  35.283  28.507  1.00  0.00    -0.269 OA
BRANCH  29  32
ATOM     32  C   UNL A   1      34.248  33.606  28.666  1.00  0.00     0.039 A 
ATOM     33  C   UNL A   1      35.409  33.851  27.924  1.00  0.00     0.014 A 
ATOM     34  C   UNL A   1      34.327  32.790  29.797  1.00  0.00     0.014 A 
ATOM     35  C   UNL A   1      36.635  33.313  28.329  1.00  0.00     0.010 A 
ATOM     36  C   UNL A   1      35.565  32.336  30.258  1.00  0.00     0.010 A 
ATOM     37  C   UNL A   1      36.730  32.565  29.514  1.00  0.00    -0.014 A 
BRANCH  37  38
ATOM     38  C   UNL A   1      38.027  31.977  29.948  1.00  0.00     0.031 A 
ATOM     39  C   UNL A   1      38.891  32.695  30.954  1.00  0.00     0.074 A 
ATOM     40  C   UNL A   1      38.449  30.809  29.425  1.00  0.00     0.049 A 
ATOM     41  N   UNL A   1      40.058  32.347  31.440  1.00  0.00    -0.248 NA
ATOM     42  C   UNL A   1      38.393  33.983  31.463  1.00  0.00     0.031 C 
ATOM     43  C   UNL A   1      37.739  30.026  28.411  1.00  0.00     0.029 A 
ATOM     44  N   UNL A   1      39.581  30.075  29.679  1.00  0.00    -0.354 N 
ATOM     45  C   UNL A   1      40.439  33.383  32.286  1.00  0.00     0.074 A 
ATOM     46  C   UNL A   1      39.406  34.391  32.211  1.00  0.00     0.031 C 
ATOM     47  C   UNL A   1      38.436  28.907  28.153  1.00  0.00     0.029 A 
ATOM     48  C   UNL A   1      39.653  28.908  28.959  1.00  0.00     0.049 A 
ATOM     49  H   UNL A   1      40.276  30.358  30.317  1.00  0.00     0.167 HD
ATOM     50  C   UNL A   1      41.537  33.481  33.075  1.00  0.00     0.031 A 
ATOM     51  C   UNL A   1      40.591  27.941  28.948  1.00  0.00     0.031 A 
ATOM     52  C   UNL A   1      42.557  32.473  33.178  1.00  0.00     0.049 A 
ATOM     53  C   UNL A   1      41.787  28.058  29.849  1.00  0.00     0.074 A 
ATOM     54  C   UNL A   1      43.676  32.458  33.992  1.00  0.00     0.029 A 
ATOM     55  N   UNL A   1      42.579  31.297  32.445  1.00  0.00    -0.354 N 
ATOM     56  N   UNL A   1      42.099  29.017  30.687  1.00  0.00    -0.248 NA
ATOM     57  C   UNL A   1      42.753  26.950  29.812  1.00  0.00     0.031 C 
ATOM     58  C   UNL A   1      44.395  31.287  33.727  1.00  0.00     0.029 A 
ATOM     59  C   UNL A   1      43.699  30.554  32.779  1.00  0.00     0.049 A 
ATOM     60  H   UNL A   1      41.899  31.029  31.786  1.00  0.00     0.167 HD
ATOM     61  C   UNL A   1      43.287  28.620  31.289  1.00  0.00     0.074 A 
ATOM     62  C   UNL A   1      43.626  27.325  30.736  1.00  0.00     0.031 C 
ATOM     63  C   UNL A   1      44.028  29.272  32.216  1.00  0.00     0.031 A 
BRANCH  50  64
ATOM     64  C   UNL A   1      41.684  34.733  33.894  1.00  0.00    -0.014 A 
ATOM     65  C   UNL A   1      41.094  34.843  35.163  1.00  0.00     0.009 A 
ATOM     66  C   UNL A   1      42.441  35.807  33.401  1.00  0.00     0.009 A 
ATOM     67  C   UNL A   1      41.223  36.019  35.905  1.00  0.00     0.001 A 
ATOM     68  C   UNL A   1      42.591  36.971  34.157  1.00  0.00     0.001 A 
ATOM     69  C   UNL A   1      41.975  37.081  35.403  1.00  0.00     0.000 A 
ENDBRANCH  50  64
BRANCH  51  70
ATOM     70  C   UNL A   1      40.422  26.757  28.067  1.00  0.00    -0.014 A 
ATOM     71  C   UNL A   1      40.932  26.767  26.759  1.00  0.00     0.009 A 
ATOM     72  C   UNL A   1      39.755  25.613  28.529  1.00  0.00     0.009 A 
ATOM     73  C   UNL A   1      40.758  25.661  25.924  1.00  0.00     0.001 A 
ATOM     74  C   UNL A   1      39.603  24.500  27.700  1.00  0.00     0.001 A 
ATOM     75  C   UNL A   1      40.098  24.527  26.397  1.00  0.00     0.000 A 
ENDBRANCH  51  70
BRANCH  63  76
ATOM     76  C   UNL A   1      45.270  28.583  32.706  1.00  0.00    -0.014 A 
ATOM     77  C   UNL A   1      45.228  27.704  33.800  1.00  0.00     0.009 A 
ATOM     78  C   UNL A   1      46.490  28.795  32.047  1.00  0.00     0.009 A 
ATOM     79  C   UNL A   1      46.393  27.077  34.245  1.00  0.00     0.001 A 
ATOM     80  C   UNL A   1      47.649  28.146  32.479  1.00  0.00     0.001 A 
ATOM     81  C   UNL A   1      47.601  27.296  33.583  1.00  0.00     0.000 A 
ENDBRANCH  63  76
ENDBRANCH  37  38
ENDBRANCH  29  32
ENDBRANCH  27  28
ENDBRANCH  26  27
ENDBRANCH   1  26
TORSDOF 14
ENDMDL
MODEL 2
REMARK VINA RESULT:     -11.1      0.425      5.913
REMARK SMILES C[C@H]1[C@@H](C(=O)NCCCNC(=O)c2ccc(-c3c4nc(c(-c5ccccc5)c5ccc([nH]5)c(-c5ccccc5)c5nc(c(-c6ccccc6)c6ccc3[nH]6)C=C5)C=C4)cc2)CC[N@@H+]1CC(=O)NNc1ccccn1
REMARK SMILES IDX 7 1 6 2 4 3 5 4 3 6 1 7 2 8 63 9 61 10 62 11 64 13 65 14
REMARK SMILES IDX 66 15 67 16 68 18 69 20 70 21 74 22 71 23 73 24 72 25 8 26
REMARK SMILES IDX 9 27 10 28 11 29 12 31 13 32 14 33 60 34 15 35 59 36 16 37
REMARK SMILES IDX 17 38 18 39 53 40 19 41 58 42 52 43 54 44 20 45 57 46 51 47
REMARK SMILES IDX 50 48 21 50 43 51 28 52 42 53 29 54 32 55 41 56 55 57 30 58
REMARK SMILES IDX 31 59 40 61 56 62 33 63 22 64 23 65 27 66 24 67 26 68 25 69
REMARK SMILES IDX 44 70 45 71 49 72 46 73 48 74 47 75 34 76 35 77 39 78 36 79
REMARK SMILES IDX 38 80 37 81
REMARK H PARENT 6 5 63 12 67 17 68 19 10 30 54 49 32 60
REMARK Flexibility Score: inf
ROOT
ATOM      1  C   UNL A   1      31.389  30.477  25.520  1.00  0.00     0.117 C 
ENDROOT
BRANCH   1   2
ATOM      2  N   UNL A   1      32.760  30.010  25.614  1.00  0.00    -0.356 N 
ATOM      3  C   UNL A   1      33.269  28.753  25.718  1.00  0.00     0.229 C 
ATOM      4  O   UNL A   1      34.467  28.676  26.003  1.00  0.00    -0.275 OA
ATOM      5  H   UNL A   1      33.437  30.725  25.599  1.00  0.00     0.163 HD
BRANCH   3   6
ATOM      6  C   UNL A   1      32.416  27.528  25.404  1.00  0.00     0.142 C 
ATOM      7  C   UNL A   1      31.432  27.669  27.837  1.00  0.00     0.076 C 
ATOM      8  C   UNL A   1      31.369  27.064  26.436  1.00  0.00     0.194 C 
ATOM      9  N   UNL A   1      31.557  25.615  26.617  1.00  0.00    -0.324 N 
ATOM     10  C   UNL A   1      33.290  26.287  25.150  1.00  0.00     0.081 C 
ATOM     11  C   UNL A   1      32.947  25.328  26.274  1.00  0.00     0.263 C 
ATOM     12  H   UNL A   1      31.393  25.356  27.590  1.00  0.00     0.348 HD
BRANCH   9  13
ATOM     13  C   UNL A   1      30.541  24.767  25.968  1.00  0.00     0.365 C 
BRANCH  13  14
ATOM     14  C   UNL A   1      30.286  23.412  26.625  1.00  0.00     0.293 C 
ATOM     15  O   UNL A   1      29.608  23.310  27.653  1.00  0.00    -0.267 OA
ATOM     16  N   UNL A   1      30.798  22.271  26.067  1.00  0.00    -0.264 N 
ATOM     17  H   UNL A   1      30.611  21.414  26.515  1.00  0.00     0.191 HD
BRANCH  16  18
ATOM     18  N   UNL A   1      31.570  22.244  24.905  1.00  0.00    -0.282 N 
ATOM     19  H   UNL A   1      31.459  22.887  24.167  1.00  0.00     0.190 HD
BRANCH  18  20
ATOM     20  C   UNL A   1      32.523  21.206  24.892  1.00  0.00     0.144 A 
ATOM     21  C   UNL A   1      33.882  21.520  24.844  1.00  0.00     0.048 A 
ATOM     22  N   UNL A   1      32.090  19.929  24.901  1.00  0.00    -0.238 NA
ATOM     23  C   UNL A   1      34.821  20.493  24.794  1.00  0.00     0.005 A 
ATOM     24  C   UNL A   1      33.021  18.948  24.854  1.00  0.00     0.113 A 
ATOM     25  C   UNL A   1      34.383  19.177  24.799  1.00  0.00     0.020 A 
ENDBRANCH  18  20
ENDBRANCH  16  18
ENDBRANCH  13  14
ENDBRANCH   9  13
ENDBRANCH   3   6
ENDBRANCH   1   2
BRANCH   1  26
ATOM     26  C   UNL A   1      31.227  31.808  26.256  1.00  0.00     0.042 C 
BRANCH  26  27
ATOM     27  C   UNL A   1      32.467  32.252  27.021  1.00  0.00     0.118 C 
BRANCH  27  28
ATOM     28  N   UNL A   1      32.369  33.621  27.489  1.00  0.00    -0.352 N 
ATOM     29  C   UNL A   1      33.132  34.316  28.396  1.00  0.00     0.251 C 
ATOM     30  H   UNL A   1      31.633  34.139  27.090  1.00  0.00     0.163 HD
ATOM     31  O   UNL A   1      32.733  35.412  28.782  1.00  0.00    -0.269 OA
BRANCH  29  32
ATOM     32  C   UNL A   1      34.408  33.777  28.935  1.00  0.00     0.039 A 
ATOM     33  C   UNL A   1      35.574  33.970  28.188  1.00  0.00     0.014 A 
ATOM     34  C   UNL A   1      34.472  33.019  30.107  1.00  0.00     0.014 A 
ATOM     35  C   UNL A   1      36.792  33.439  28.626  1.00  0.00     0.010 A 
ATOM     36  C   UNL A   1      35.702  32.574  30.596  1.00  0.00     0.010 A 
ATOM     37  C   UNL A   1      36.873  32.751  29.846  1.00  0.00    -0.014 A 
BRANCH  37  38
ATOM     38  C   UNL A   1      38.160  32.170  30.317  1.00  0.00     0.031 A 
ATOM     39  C   UNL A   1      38.653  30.858  29.760  1.00  0.00     0.074 A 
ATOM     40  C   UNL A   1      38.882  32.802  31.263  1.00  0.00     0.049 A 
ATOM     41  N   UNL A   1      39.739  30.188  30.060  1.00  0.00    -0.248 NA
ATOM     42  C   UNL A   1      37.804  30.198  28.756  1.00  0.00     0.031 C 
ATOM     43  C   UNL A   1      38.508  34.054  31.922  1.00  0.00     0.029 A 
ATOM     44  N   UNL A   1      40.088  32.474  31.832  1.00  0.00    -0.354 N 
ATOM     45  C   UNL A   1      39.687  29.023  29.301  1.00  0.00     0.074 A 
ATOM     46  C   UNL A   1      38.442  29.054  28.566  1.00  0.00     0.031 C 
ATOM     47  C   UNL A   1      39.478  34.405  32.782  1.00  0.00     0.029 A 
ATOM     48  C   UNL A   1      40.527  33.390  32.757  1.00  0.00     0.049 A 
ATOM     49  H   UNL A   1      40.591  31.659  31.601  1.00  0.00     0.167 HD
ATOM     50  C   UNL A   1      40.600  28.027  29.203  1.00  0.00     0.031 A 
ATOM     51  C   UNL A   1      41.649  33.416  33.501  1.00  0.00     0.031 A 
ATOM     52  C   UNL A   1      41.853  27.998  29.908  1.00  0.00     0.049 A 
ATOM     53  C   UNL A   1      42.659  32.312  33.357  1.00  0.00     0.074 A 
ATOM     54  C   UNL A   1      42.867  27.059  29.829  1.00  0.00     0.029 A 
ATOM     55  N   UNL A   1      42.265  28.957  30.819  1.00  0.00    -0.354 N 
ATOM     56  N   UNL A   1      42.620  31.251  32.590  1.00  0.00    -0.248 NA
ATOM     57  C   UNL A   1      43.877  32.422  34.175  1.00  0.00     0.031 C 
ATOM     58  C   UNL A   1      43.880  27.433  30.720  1.00  0.00     0.029 A 
ATOM     59  C   UNL A   1      43.513  28.627  31.320  1.00  0.00     0.049 A 
ATOM     60  H   UNL A   1      41.748  29.756  31.072  1.00  0.00     0.167 HD
ATOM     61  C   UNL A   1      43.812  30.575  32.818  1.00  0.00     0.074 A 
ATOM     62  C   UNL A   1      44.562  31.359  33.778  1.00  0.00     0.031 C 
ATOM     63  C   UNL A   1      44.245  29.411  32.279  1.00  0.00     0.031 A 
BRANCH  50  64
ATOM     64  C   UNL A   1      40.268  26.879  28.289  1.00  0.00    -0.014 A 
ATOM     65  C   UNL A   1      39.496  25.796  28.738  1.00  0.00     0.009 A 
ATOM     66  C   UNL A   1      40.714  26.892  26.959  1.00  0.00     0.009 A 
ATOM     67  C   UNL A   1      39.211  24.728  27.885  1.00  0.00     0.001 A 
ATOM     68  C   UNL A   1      40.404  25.835  26.100  1.00  0.00     0.001 A 
ATOM     69  C   UNL A   1      39.663  24.750  26.565  1.00  0.00     0.000 A 
ENDBRANCH  50  64
BRANCH  51  70
ATOM     70  C   UNL A   1      41.891  34.544  34.436  1.00  0.00    -0.014 A 
ATOM     71  C   UNL A   1      42.572  35.692  34.003  1.00  0.00     0.009 A 
ATOM     72  C   UNL A   1      41.440  34.480  35.763  1.00  0.00     0.009 A 
ATOM     73  C   UNL A   1      42.816  36.745  34.887  1.00  0.00     0.001 A 
ATOM     74  C   UNL A   1      41.664  35.544  36.638  1.00  0.00     0.001 A 
ATOM     75  C   UNL A   1      42.358  36.673  36.202  1.00  0.00     0.000 A 
ENDBRANCH  51  70
BRANCH  63  76
ATOM     76  C   UNL A   1      45.602  28.925  32.702  1.00  0.00    -0.014 A 
ATOM     77  C   UNL A   1      45.754  28.064  33.800  1.00  0.00     0.009 A 
ATOM     78  C   UNL A   1      46.737  29.310  31.974  1.00  0.00     0.009 A 
ATOM     79  C   UNL A   1      47.024  27.628  34.183  1.00  0.00     0.001 A 
ATOM     80  C   UNL A   1      48.003  28.851  32.343  1.00  0.00     0.001 A 
ATOM     81  C   UNL A   1      48.146  28.018  33.452  1.00  0.00     0.000 A 
ENDBRANCH  63  76
ENDBRANCH  37  38
ENDBRANCH  29  32
ENDBRANCH  27  28
ENDBRANCH  26  27
ENDBRANCH   1  26
TORSDOF 14
ENDMDL
MODEL 3
REMARK VINA RESULT:     -11.1      3.740      8.659
REMARK SMILES C[C@H]1[C@@H](C(=O)NCCCNC(=O)c2ccc(-c3c4nc(c(-c5ccccc5)c5ccc([nH]5)c(-c5ccccc5)c5nc(c(-c6ccccc6)c6ccc3[nH]6)C=C5)C=C4)cc2)CC[N@@H+]1CC(=O)NNc1ccccn1
REMARK SMILES IDX 7 1 6 2 4 3 5 4 3 6 1 7 2 8 63 9 61 10 62 11 64 13 65 14
REMARK SMILES IDX 66 15 67 16 68 18 69 20 70 21 74 22 71 23 73 24 72 25 8 26
REMARK SMILES IDX 9 27 10 28 11 29 12 31 13 32 14 33 60 34 15 35 59 36 16 37
REMARK SMILES IDX 17 38 18 39 53 40 19 41 58 42 52 43 54 44 20 45 57 46 51 47
REMARK SMILES IDX 50 48 21 50 43 51 28 52 42 53 29 54 32 55 41 56 55 57 30 58
REMARK SMILES IDX 31 59 40 61 56 62 33 63 22 64 23 65 27 66 24 67 26 68 25 69
REMARK SMILES IDX 44 70 45 71 49 72 46 73 48 74 47 75 34 76 35 77 39 78 36 79
REMARK SMILES IDX 38 80 37 81
REMARK H PARENT 6 5 63 12 67 17 68 19 10 30 54 49 32 60
REMARK Flexibility Score: inf
ROOT
ATOM      1  C   UNL A   1      37.538  20.354  24.667  1.00  0.00     0.117 C 
ENDROOT
BRANCH   1   2
ATOM      2  N   UNL A   1      37.730  21.584  25.413  1.00  0.00    -0.356 N 
ATOM      3  C   UNL A   1      36.847  22.554  25.776  1.00  0.00     0.229 C 
ATOM      4  O   UNL A   1      37.338  23.595  26.218  1.00  0.00    -0.275 OA
ATOM      5  H   UNL A   1      38.655  21.744  25.707  1.00  0.00     0.163 HD
BRANCH   3   6
ATOM      6  C   UNL A   1      35.342  22.311  25.720  1.00  0.00     0.142 C 
ATOM      7  C   UNL A   1      35.256  23.746  23.519  1.00  0.00     0.076 C 
ATOM      8  C   UNL A   1      34.554  22.796  24.487  1.00  0.00     0.194 C 
ATOM      9  N   UNL A   1      33.381  23.531  24.989  1.00  0.00    -0.324 N 
ATOM     10  C   UNL A   1      34.626  22.956  26.920  1.00  0.00     0.081 C 
ATOM     11  C   UNL A   1      33.735  24.026  26.317  1.00  0.00     0.263 C 
ATOM     12  H   UNL A   1      33.174  24.325  24.382  1.00  0.00     0.348 HD
BRANCH   9  13
ATOM     13  C   UNL A   1      32.100  22.811  24.887  1.00  0.00     0.365 C 
BRANCH  13  14
ATOM     14  C   UNL A   1      31.992  21.802  23.746  1.00  0.00     0.293 C 
ATOM     15  O   UNL A   1      31.762  22.160  22.586  1.00  0.00    -0.267 OA
ATOM     16  N   UNL A   1      32.168  20.466  23.992  1.00  0.00    -0.264 N 
ATOM     17  H   UNL A   1      32.095  19.844  23.232  1.00  0.00     0.191 HD
BRANCH  16  18
ATOM     18  N   UNL A   1      32.442  19.930  25.250  1.00  0.00    -0.282 N 
ATOM     19  H   UNL A   1      32.256  20.404  26.092  1.00  0.00     0.190 HD
BRANCH  18  20
ATOM     20  C   UNL A   1      33.012  18.642  25.196  1.00  0.00     0.144 A 
ATOM     21  C   UNL A   1      34.215  18.450  24.515  1.00  0.00     0.048 A 
ATOM     22  N   UNL A   1      32.361  17.620  25.787  1.00  0.00    -0.238 NA
ATOM     23  C   UNL A   1      34.758  17.171  24.430  1.00  0.00     0.005 A 
ATOM     24  C   UNL A   1      32.909  16.386  25.692  1.00  0.00     0.113 A 
ATOM     25  C   UNL A   1      34.092  16.113  25.032  1.00  0.00     0.020 A 
ENDBRANCH  18  20
ENDBRANCH  16  18
ENDBRANCH  13  14
ENDBRANCH   9  13
ENDBRANCH   3   6
ENDBRANCH   1   2
BRANCH   1  26
ATOM     26  C   UNL A   1      38.403  19.236  25.251  1.00  0.00     0.042 C 
BRANCH  26  27
ATOM     27  C   UNL A   1      39.514  19.723  26.172  1.00  0.00     0.118 C 
BRANCH  27  28
ATOM     28  N   UNL A   1      40.794  19.114  25.867  1.00  0.00    -0.352 N 
ATOM     29  C   UNL A   1      42.060  19.647  25.853  1.00  0.00     0.251 C 
ATOM     30  H   UNL A   1      40.748  18.159  25.631  1.00  0.00     0.163 HD
ATOM     31  O   UNL A   1      42.972  18.982  25.366  1.00  0.00    -0.269 OA
BRANCH  29  32
ATOM     32  C   UNL A   1      42.355  21.002  26.387  1.00  0.00     0.039 A 
ATOM     33  C   UNL A   1      42.261  21.202  27.768  1.00  0.00     0.014 A 
ATOM     34  C   UNL A   1      42.637  22.094  25.562  1.00  0.00     0.014 A 
ATOM     35  C   UNL A   1      42.479  22.471  28.316  1.00  0.00     0.010 A 
ATOM     36  C   UNL A   1      42.952  23.337  26.116  1.00  0.00     0.010 A 
ATOM     37  C   UNL A   1      42.847  23.549  27.497  1.00  0.00    -0.014 A 
BRANCH  37  38
ATOM     38  C   UNL A   1      43.068  24.906  28.068  1.00  0.00     0.031 A 
ATOM     39  C   UNL A   1      44.453  25.348  28.469  1.00  0.00     0.074 A 
ATOM     40  C   UNL A   1      42.026  25.740  28.253  1.00  0.00     0.049 A 
ATOM     41  N   UNL A   1      44.838  26.484  28.998  1.00  0.00    -0.248 NA
ATOM     42  C   UNL A   1      45.544  24.381  28.275  1.00  0.00     0.031 C 
ATOM     43  C   UNL A   1      40.627  25.431  27.953  1.00  0.00     0.029 A 
ATOM     44  N   UNL A   1      41.986  27.024  28.739  1.00  0.00    -0.354 N 
ATOM     45  C   UNL A   1      46.205  26.354  29.221  1.00  0.00     0.074 A 
ATOM     46  C   UNL A   1      46.573  25.016  28.816  1.00  0.00     0.031 C 
ATOM     47  C   UNL A   1      39.871  26.506  28.231  1.00  0.00     0.029 A 
ATOM     48  C   UNL A   1      40.725  27.567  28.756  1.00  0.00     0.049 A 
ATOM     49  H   UNL A   1      42.786  27.510  29.047  1.00  0.00     0.167 HD
ATOM     50  C   UNL A   1      47.083  27.270  29.696  1.00  0.00     0.031 A 
ATOM     51  C   UNL A   1      40.299  28.784  29.145  1.00  0.00     0.031 A 
ATOM     52  C   UNL A   1      46.734  28.612  30.076  1.00  0.00     0.049 A 
ATOM     53  C   UNL A   1      41.295  29.792  29.645  1.00  0.00     0.074 A 
ATOM     54  C   UNL A   1      47.564  29.628  30.515  1.00  0.00     0.029 A 
ATOM     55  N   UNL A   1      45.447  29.126  30.057  1.00  0.00    -0.354 N 
ATOM     56  N   UNL A   1      42.592  29.671  29.791  1.00  0.00    -0.248 NA
ATOM     57  C   UNL A   1      40.766  31.112  30.021  1.00  0.00     0.031 C 
ATOM     58  C   UNL A   1      46.774  30.749  30.795  1.00  0.00     0.029 A 
ATOM     59  C   UNL A   1      45.458  30.441  30.488  1.00  0.00     0.049 A 
ATOM     60  H   UNL A   1      44.645  28.630  29.777  1.00  0.00     0.167 HD
ATOM     61  C   UNL A   1      43.036  30.901  30.258  1.00  0.00     0.074 A 
ATOM     62  C   UNL A   1      41.874  31.761  30.349  1.00  0.00     0.031 C 
ATOM     63  C   UNL A   1      44.295  31.283  30.581  1.00  0.00     0.031 A 
BRANCH  50  64
ATOM     64  C   UNL A   1      48.518  26.840  29.828  1.00  0.00    -0.014 A 
ATOM     65  C   UNL A   1      49.435  27.046  28.785  1.00  0.00     0.009 A 
ATOM     66  C   UNL A   1      48.964  26.244  31.017  1.00  0.00     0.009 A 
ATOM     67  C   UNL A   1      50.760  26.625  28.914  1.00  0.00     0.001 A 
ATOM     68  C   UNL A   1      50.296  25.849  31.154  1.00  0.00     0.001 A 
ATOM     69  C   UNL A   1      51.191  26.030  30.100  1.00  0.00     0.000 A 
ENDBRANCH  50  64
BRANCH  51  70
ATOM     70  C   UNL A   1      38.857  29.128  29.053  1.00  0.00    -0.014 A 
ATOM     71  C   UNL A   1      38.314  29.594  27.845  1.00  0.00     0.009 A 
ATOM     72  C   UNL A   1      38.018  28.990  30.169  1.00  0.00     0.009 A 
ATOM     73  C   UNL A   1      36.962  29.935  27.764  1.00  0.00     0.001 A 
ATOM     74  C   UNL A   1      36.662  29.309  30.077  1.00  0.00     0.001 A 
ATOM     75  C   UNL A   1      36.137  29.788  28.877  1.00  0.00     0.000 A 
ENDBRANCH  51  70
BRANCH  63  76
ATOM     76  C   UNL A   1      44.482  32.699  31.045  1.00  0.00    -0.014 A 
ATOM     77  C   UNL A   1      44.343  33.043  32.399  1.00  0.00     0.009 A 
ATOM     78  C   UNL A   1      44.830  33.695  30.119  1.00  0.00     0.009 A 
ATOM     79  C   UNL A   1      44.514  34.366  32.810  1.00  0.00     0.001 A 
ATOM     80  C   UNL A   1      45.026  35.012  30.539  1.00  0.00     0.001 A 
ATOM     81  C   UNL A   1      44.858  35.348  31.881  1.00  0.00     0.000 A 
ENDBRANCH  63  76
ENDBRANCH  37  38
ENDBRANCH  29  32
ENDBRANCH  27  28
ENDBRANCH  26  27
ENDBRANCH   1  26
TORSDOF 14
ENDMDL
