MODEL 1
REMARK VINA RESULT:     -10.6      0.000      0.000
REMARK SMILES CC(C)c1nc(N(C)CCc2ccccn2)sc1C(=O)NCCCNC(=O)c1ccc(-c2c3nc(c(-c4ccccc4)c4ccc([nH]4)c(-c4ccccc4)c4nc(c(-c5ccccc5)c5ccc2[nH]5)C=C4)C=C3)cc1
REMARK SMILES IDX 22 1 21 2 19 3 20 4 18 6 4 7 5 8 6 9 17 10 2 11 1 12 3 13
REMARK SMILES IDX 7 14 8 15 9 16 10 17 11 18 12 19 16 20 13 21 15 22 14 23
REMARK SMILES IDX 23 24 24 25 25 26 26 27 27 29 28 30 29 31 75 32 30 33 74 34
REMARK SMILES IDX 31 35 32 36 33 37 68 38 34 39 73 40 67 41 69 42 35 43 72 44
REMARK SMILES IDX 66 45 65 46 36 48 58 49 43 50 57 51 44 52 47 53 56 54 70 55
REMARK SMILES IDX 45 56 46 57 55 59 71 60 48 61 37 62 38 63 42 64 39 65 41 66
REMARK SMILES IDX 40 67 59 68 60 69 64 70 61 71 63 72 62 73 49 74 50 75 54 76
REMARK SMILES IDX 51 77 53 78 52 79
REMARK H PARENT 21 5 25 28 69 47 47 58
REMARK Flexibility Score: inf
ROOT
ATOM      1  C   UNL A   1      35.606  21.958  26.250  1.00  0.00     0.118 C 
ENDROOT
BRANCH   1   2
ATOM      2  N   UNL A   1      34.637  22.011  27.315  1.00  0.00    -0.351 N 
ATOM      3  C   UNL A   1      33.327  22.437  27.273  1.00  0.00     0.263 C 
ATOM      4  O   UNL A   1      32.717  22.362  28.343  1.00  0.00    -0.268 OA
ATOM      5  H   UNL A   1      34.954  21.701  28.194  1.00  0.00     0.163 HD
BRANCH   3   6
ATOM      6  C   UNL A   1      32.752  23.005  26.066  1.00  0.00     0.117 A 
ATOM      7  C   UNL A   1      32.533  22.559  24.767  1.00  0.00     0.069 A 
ATOM      8  N   UNL A   1      32.017  23.535  23.930  1.00  0.00    -0.224 NA
ATOM      9  C   UNL A   1      31.855  24.693  24.522  1.00  0.00     0.186 A 
ATOM     10  S   UNL A   1      32.131  24.615  26.214  1.00  0.00    -0.091 S 
BRANCH   7  11
ATOM     11  C   UNL A   1      32.828  21.227  24.108  1.00  0.00     0.034 C 
ATOM     12  C   UNL A   1      32.456  20.029  24.980  1.00  0.00     0.014 C 
ATOM     13  C   UNL A   1      32.177  21.068  22.726  1.00  0.00     0.014 C 
ENDBRANCH   7  11
BRANCH   9  14
ATOM     14  N   UNL A   1      31.580  25.830  23.824  1.00  0.00    -0.351 N 
ATOM     15  C   UNL A   1      31.544  25.904  22.379  1.00  0.00     0.146 C 
BRANCH  14  16
ATOM     16  C   UNL A   1      31.382  27.075  24.584  1.00  0.00     0.125 C 
BRANCH  16  17
ATOM     17  C   UNL A   1      32.452  28.130  24.263  1.00  0.00     0.077 C 
BRANCH  17  18
ATOM     18  C   UNL A   1      32.945  28.911  25.456  1.00  0.00     0.042 A 
ATOM     19  C   UNL A   1      33.991  28.423  26.238  1.00  0.00     0.024 A 
ATOM     20  N   UNL A   1      32.324  30.085  25.731  1.00  0.00    -0.261 NA
ATOM     21  C   UNL A   1      34.435  29.174  27.322  1.00  0.00     0.003 A 
ATOM     22  C   UNL A   1      32.781  30.796  26.786  1.00  0.00     0.111 A 
ATOM     23  C   UNL A   1      33.824  30.390  27.601  1.00  0.00     0.020 A 
ENDBRANCH  17  18
ENDBRANCH  16  17
ENDBRANCH  14  16
ENDBRANCH   9  14
ENDBRANCH   3   6
ENDBRANCH   1   2
BRANCH   1  24
ATOM     24  C   UNL A   1      36.272  23.275  25.910  1.00  0.00     0.042 C 
BRANCH  24  25
ATOM     25  C   UNL A   1      37.431  23.152  24.932  1.00  0.00     0.118 C 
BRANCH  25  26
ATOM     26  N   UNL A   1      38.586  22.426  25.453  1.00  0.00    -0.352 N 
ATOM     27  C   UNL A   1      39.634  22.806  26.264  1.00  0.00     0.251 C 
ATOM     28  H   UNL A   1      38.623  21.484  25.171  1.00  0.00     0.163 HD
ATOM     29  O   UNL A   1      40.539  22.013  26.483  1.00  0.00    -0.269 OA
BRANCH  27  30
ATOM     30  C   UNL A   1      39.706  24.173  26.832  1.00  0.00     0.039 A 
ATOM     31  C   UNL A   1      39.178  24.407  28.107  1.00  0.00     0.014 A 
ATOM     32  C   UNL A   1      40.293  25.223  26.132  1.00  0.00     0.014 A 
ATOM     33  C   UNL A   1      39.353  25.653  28.717  1.00  0.00     0.010 A 
ATOM     34  C   UNL A   1      40.586  26.413  26.786  1.00  0.00     0.010 A 
ATOM     35  C   UNL A   1      40.123  26.644  28.089  1.00  0.00    -0.014 A 
BRANCH  35  36
ATOM     36  C   UNL A   1      40.464  27.928  28.759  1.00  0.00     0.031 A 
ATOM     37  C   UNL A   1      41.807  28.101  29.420  1.00  0.00     0.074 A 
ATOM     38  C   UNL A   1      39.532  28.895  28.874  1.00  0.00     0.049 A 
ATOM     39  N   UNL A   1      42.232  29.072  30.187  1.00  0.00    -0.248 NA
ATOM     40  C   UNL A   1      42.785  27.015  29.231  1.00  0.00     0.031 C 
ATOM     41  C   UNL A   1      38.172  28.841  28.331  1.00  0.00     0.029 A 
ATOM     42  N   UNL A   1      39.587  30.116  29.499  1.00  0.00    -0.354 N 
ATOM     43  C   UNL A   1      43.502  28.691  30.608  1.00  0.00     0.074 A 
ATOM     44  C   UNL A   1      43.757  27.381  30.053  1.00  0.00     0.031 C 
ATOM     45  C   UNL A   1      37.538  29.991  28.612  1.00  0.00     0.029 A 
ATOM     46  C   UNL A   1      38.424  30.842  29.397  1.00  0.00     0.049 A 
ATOM     47  H   UNL A   1      40.385  30.442  29.976  1.00  0.00     0.167 HD
ATOM     48  C   UNL A   1      44.389  29.378  31.366  1.00  0.00     0.031 A 
ATOM     49  C   UNL A   1      38.104  32.054  29.886  1.00  0.00     0.031 A 
ATOM     50  C   UNL A   1      44.160  30.703  31.875  1.00  0.00     0.049 A 
ATOM     51  C   UNL A   1      39.116  32.813  30.694  1.00  0.00     0.074 A 
ATOM     52  C   UNL A   1      45.026  31.514  32.588  1.00  0.00     0.029 A 
ATOM     53  N   UNL A   1      42.984  31.416  31.711  1.00  0.00    -0.354 N 
ATOM     54  N   UNL A   1      40.331  32.459  31.038  1.00  0.00    -0.248 NA
ATOM     55  C   UNL A   1      38.716  34.143  31.177  1.00  0.00     0.031 C 
ATOM     56  C   UNL A   1      44.360  32.708  32.885  1.00  0.00     0.029 A 
ATOM     57  C   UNL A   1      43.096  32.655  32.318  1.00  0.00     0.049 A 
ATOM     58  H   UNL A   1      42.187  31.090  31.234  1.00  0.00     0.167 HD
ATOM     59  C   UNL A   1      40.849  33.532  31.751  1.00  0.00     0.074 A 
ATOM     60  C   UNL A   1      39.823  34.554  31.780  1.00  0.00     0.031 C 
ATOM     61  C   UNL A   1      42.067  33.660  32.331  1.00  0.00     0.031 A 
BRANCH  48  62
ATOM     62  C   UNL A   1      45.695  28.705  31.681  1.00  0.00    -0.014 A 
ATOM     63  C   UNL A   1      45.887  28.016  32.890  1.00  0.00     0.009 A 
ATOM     64  C   UNL A   1      46.744  28.742  30.747  1.00  0.00     0.009 A 
ATOM     65  C   UNL A   1      47.115  27.417  33.176  1.00  0.00     0.001 A 
ATOM     66  C   UNL A   1      47.960  28.115  31.024  1.00  0.00     0.001 A 
ATOM     67  C   UNL A   1      48.149  27.464  32.242  1.00  0.00     0.000 A 
ENDBRANCH  48  62
BRANCH  49  68
ATOM     68  C   UNL A   1      36.771  32.646  29.598  1.00  0.00    -0.014 A 
ATOM     69  C   UNL A   1      36.533  33.284  28.371  1.00  0.00     0.009 A 
ATOM     70  C   UNL A   1      35.735  32.582  30.543  1.00  0.00     0.009 A 
ATOM     71  C   UNL A   1      35.294  33.870  28.105  1.00  0.00     0.001 A 
ATOM     72  C   UNL A   1      34.488  33.146  30.263  1.00  0.00     0.001 A 
ATOM     73  C   UNL A   1      34.272  33.797  29.050  1.00  0.00     0.000 A 
ENDBRANCH  49  68
BRANCH  61  74
ATOM     74  C   UNL A   1      42.370  34.964  33.009  1.00  0.00    -0.014 A 
ATOM     75  C   UNL A   1      41.915  35.230  34.310  1.00  0.00     0.009 A 
ATOM     76  C   UNL A   1      43.159  35.921  32.352  1.00  0.00     0.009 A 
ATOM     77  C   UNL A   1      42.222  36.443  34.928  1.00  0.00     0.001 A 
ATOM     78  C   UNL A   1      43.486  37.121  32.983  1.00  0.00     0.001 A 
ATOM     79  C   UNL A   1      43.011  37.385  34.266  1.00  0.00     0.000 A 
ENDBRANCH  61  74
ENDBRANCH  35  36
ENDBRANCH  27  30
ENDBRANCH  25  26
ENDBRANCH  24  25
ENDBRANCH   1  24
TORSDOF 15
ENDMDL
MODEL 2
REMARK VINA RESULT:     -10.5      2.741      8.359
REMARK SMILES CC(C)c1nc(N(C)CCc2ccccn2)sc1C(=O)NCCCNC(=O)c1ccc(-c2c3nc(c(-c4ccccc4)c4ccc([nH]4)c(-c4ccccc4)c4nc(c(-c5ccccc5)c5ccc2[nH]5)C=C4)C=C3)cc1
REMARK SMILES IDX 22 1 21 2 19 3 20 4 18 6 4 7 5 8 6 9 17 10 2 11 1 12 3 13
REMARK SMILES IDX 7 14 8 15 9 16 10 17 11 18 12 19 16 20 13 21 15 22 14 23
REMARK SMILES IDX 23 24 24 25 25 26 26 27 27 29 28 30 29 31 75 32 30 33 74 34
REMARK SMILES IDX 31 35 32 36 33 37 68 38 34 39 73 40 67 41 69 42 35 43 72 44
REMARK SMILES IDX 66 45 65 46 36 48 58 49 43 50 57 51 44 52 47 53 56 54 70 55
REMARK SMILES IDX 45 56 46 57 55 59 71 60 48 61 37 62 38 63 42 64 39 65 41 66
REMARK SMILES IDX 40 67 59 68 60 69 64 70 61 71 63 72 62 73 49 74 50 75 54 76
REMARK SMILES IDX 51 77 53 78 52 79
REMARK H PARENT 21 5 25 28 69 47 47 58
REMARK Flexibility Score: inf
ROOT
ATOM      1  C   UNL A   1      33.875  28.041  25.161  1.00  0.00     0.118 C 
ENDROOT
BRANCH   1   2
ATOM      2  N   UNL A   1      34.058  28.012  23.732  1.00  0.00    -0.351 N 
ATOM      3  C   UNL A   1      33.496  27.164  22.804  1.00  0.00     0.263 C 
ATOM      4  O   UNL A   1      33.823  27.377  21.633  1.00  0.00    -0.268 OA
ATOM      5  H   UNL A   1      34.670  28.693  23.369  1.00  0.00     0.163 HD
BRANCH   3   6
ATOM      6  C   UNL A   1      32.646  26.057  23.205  1.00  0.00     0.117 A 
ATOM      7  C   UNL A   1      31.285  25.884  23.437  1.00  0.00     0.069 A 
ATOM      8  N   UNL A   1      30.963  24.620  23.902  1.00  0.00    -0.224 NA
ATOM      9  C   UNL A   1      32.005  23.840  24.050  1.00  0.00     0.186 A 
ATOM     10  S   UNL A   1      33.446  24.537  23.430  1.00  0.00    -0.091 S 
BRANCH   7  11
ATOM     11  C   UNL A   1      30.127  26.855  23.338  1.00  0.00     0.034 C 
ATOM     12  C   UNL A   1      28.839  26.322  23.963  1.00  0.00     0.014 C 
ATOM     13  C   UNL A   1      30.436  28.242  23.921  1.00  0.00     0.014 C 
ENDBRANCH   7  11
BRANCH   9  14
ATOM     14  N   UNL A   1      31.931  22.648  24.706  1.00  0.00    -0.351 N 
ATOM     15  C   UNL A   1      30.988  22.366  25.767  1.00  0.00     0.146 C 
BRANCH  14  16
ATOM     16  C   UNL A   1      32.919  21.612  24.367  1.00  0.00     0.125 C 
BRANCH  16  17
ATOM     17  C   UNL A   1      32.322  20.504  23.484  1.00  0.00     0.077 C 
BRANCH  17  18
ATOM     18  C   UNL A   1      32.591  19.100  23.968  1.00  0.00     0.042 A 
ATOM     19  C   UNL A   1      33.013  18.113  23.078  1.00  0.00     0.024 A 
ATOM     20  N   UNL A   1      32.396  18.848  25.287  1.00  0.00    -0.261 NA
ATOM     21  C   UNL A   1      33.269  16.833  23.558  1.00  0.00     0.003 A 
ATOM     22  C   UNL A   1      32.660  17.598  25.725  1.00  0.00     0.111 A 
ATOM     23  C   UNL A   1      33.096  16.567  24.910  1.00  0.00     0.020 A 
ENDBRANCH  17  18
ENDBRANCH  16  17
ENDBRANCH  14  16
ENDBRANCH   9  14
ENDBRANCH   3   6
ENDBRANCH   1   2
BRANCH   1  24
ATOM     24  C   UNL A   1      33.709  29.418  25.768  1.00  0.00     0.042 C 
BRANCH  24  25
ATOM     25  C   UNL A   1      33.383  29.408  27.255  1.00  0.00     0.118 C 
BRANCH  25  26
ATOM     26  N   UNL A   1      33.602  30.685  27.929  1.00  0.00    -0.352 N 
ATOM     27  C   UNL A   1      34.683  31.203  28.609  1.00  0.00     0.251 C 
ATOM     28  H   UNL A   1      32.829  31.292  27.890  1.00  0.00     0.163 HD
ATOM     29  O   UNL A   1      34.575  32.285  29.171  1.00  0.00    -0.269 OA
BRANCH  27  30
ATOM     30  C   UNL A   1      35.955  30.449  28.715  1.00  0.00     0.039 A 
ATOM     31  C   UNL A   1      36.856  30.486  27.645  1.00  0.00     0.014 A 
ATOM     32  C   UNL A   1      36.275  29.715  29.853  1.00  0.00     0.014 A 
ATOM     33  C   UNL A   1      38.117  29.894  27.773  1.00  0.00     0.010 A 
ATOM     34  C   UNL A   1      37.570  29.247  30.033  1.00  0.00     0.010 A 
ATOM     35  C   UNL A   1      38.510  29.332  28.997  1.00  0.00    -0.014 A 
BRANCH  35  36
ATOM     36  C   UNL A   1      39.890  28.826  29.232  1.00  0.00     0.031 A 
ATOM     37  C   UNL A   1      40.934  29.731  29.834  1.00  0.00     0.074 A 
ATOM     38  C   UNL A   1      40.238  27.596  28.801  1.00  0.00     0.049 A 
ATOM     39  N   UNL A   1      42.221  29.534  29.967  1.00  0.00    -0.248 NA
ATOM     40  C   UNL A   1      40.477  31.049  30.306  1.00  0.00     0.031 C 
ATOM     41  C   UNL A   1      39.344  26.634  28.150  1.00  0.00     0.029 A 
ATOM     42  N   UNL A   1      41.447  26.948  28.839  1.00  0.00    -0.354 N 
ATOM     43  C   UNL A   1      42.730  30.716  30.492  1.00  0.00     0.074 A 
ATOM     44  C   UNL A   1      41.624  31.641  30.604  1.00  0.00     0.031 C 
ATOM     45  C   UNL A   1      40.025  25.507  27.887  1.00  0.00     0.029 A 
ATOM     46  C   UNL A   1      41.412  25.683  28.302  1.00  0.00     0.049 A 
ATOM     47  H   UNL A   1      42.263  27.351  29.215  1.00  0.00     0.167 HD
ATOM     48  C   UNL A   1      43.998  31.003  30.871  1.00  0.00     0.031 A 
ATOM     49  C   UNL A   1      42.388  24.768  28.153  1.00  0.00     0.031 A 
ATOM     50  C   UNL A   1      45.088  30.070  30.811  1.00  0.00     0.049 A 
ATOM     51  C   UNL A   1      43.779  25.096  28.613  1.00  0.00     0.074 A 
ATOM     52  C   UNL A   1      46.393  30.239  31.243  1.00  0.00     0.029 A 
ATOM     53  N   UNL A   1      44.998  28.785  30.299  1.00  0.00    -0.354 N 
ATOM     54  N   UNL A   1      44.231  26.201  29.155  1.00  0.00    -0.248 NA
ATOM     55  C   UNL A   1      44.795  24.045  28.449  1.00  0.00     0.031 C 
ATOM     56  C   UNL A   1      47.101  29.066  30.962  1.00  0.00     0.029 A 
ATOM     57  C   UNL A   1      46.225  28.153  30.395  1.00  0.00     0.049 A 
ATOM     58  H   UNL A   1      44.181  28.383  29.923  1.00  0.00     0.167 HD
ATOM     59  C   UNL A   1      45.574  25.969  29.421  1.00  0.00     0.074 A 
ATOM     60  C   UNL A   1      45.861  24.615  28.995  1.00  0.00     0.031 C 
ATOM     61  C   UNL A   1      46.489  26.803  29.971  1.00  0.00     0.031 A 
BRANCH  48  62
ATOM     62  C   UNL A   1      44.265  32.387  31.394  1.00  0.00    -0.014 A 
ATOM     63  C   UNL A   1      44.493  33.464  30.522  1.00  0.00     0.009 A 
ATOM     64  C   UNL A   1      44.271  32.622  32.779  1.00  0.00     0.009 A 
ATOM     65  C   UNL A   1      44.765  34.737  31.026  1.00  0.00     0.001 A 
ATOM     66  C   UNL A   1      44.512  33.903  33.278  1.00  0.00     0.001 A 
ATOM     67  C   UNL A   1      44.771  34.957  32.403  1.00  0.00     0.000 A 
ENDBRANCH  48  62
BRANCH  49  68
ATOM     68  C   UNL A   1      42.081  23.437  27.568  1.00  0.00    -0.014 A 
ATOM     69  C   UNL A   1      41.548  22.419  28.374  1.00  0.00     0.009 A 
ATOM     70  C   UNL A   1      42.318  23.174  26.210  1.00  0.00     0.009 A 
ATOM     71  C   UNL A   1      41.286  21.156  27.840  1.00  0.00     0.001 A 
ATOM     72  C   UNL A   1      42.029  21.918  25.673  1.00  0.00     0.001 A 
ATOM     73  C   UNL A   1      41.523  20.908  26.489  1.00  0.00     0.000 A 
ENDBRANCH  49  68
BRANCH  61  74
ATOM     74  C   UNL A   1      47.873  26.262  30.179  1.00  0.00    -0.014 A 
ATOM     75  C   UNL A   1      48.286  25.782  31.431  1.00  0.00     0.009 A 
ATOM     76  C   UNL A   1      48.762  26.194  29.095  1.00  0.00     0.009 A 
ATOM     77  C   UNL A   1      49.572  25.268  31.600  1.00  0.00     0.001 A 
ATOM     78  C   UNL A   1      50.038  25.656  29.259  1.00  0.00     0.001 A 
ATOM     79  C   UNL A   1      50.445  25.201  30.513  1.00  0.00     0.000 A 
ENDBRANCH  61  74
ENDBRANCH  35  36
ENDBRANCH  27  30
ENDBRANCH  25  26
ENDBRANCH  24  25
ENDBRANCH   1  24
TORSDOF 15
ENDMDL
MODEL 3
REMARK VINA RESULT:     -10.5      2.783      7.984
REMARK SMILES CC(C)c1nc(N(C)CCc2ccccn2)sc1C(=O)NCCCNC(=O)c1ccc(-c2c3nc(c(-c4ccccc4)c4ccc([nH]4)c(-c4ccccc4)c4nc(c(-c5ccccc5)c5ccc2[nH]5)C=C4)C=C3)cc1
REMARK SMILES IDX 22 1 21 2 19 3 20 4 18 6 4 7 5 8 6 9 17 10 2 11 1 12 3 13
REMARK SMILES IDX 7 14 8 15 9 16 10 17 11 18 12 19 16 20 13 21 15 22 14 23
REMARK SMILES IDX 23 24 24 25 25 26 26 27 27 29 28 30 29 31 75 32 30 33 74 34
REMARK SMILES IDX 31 35 32 36 33 37 68 38 34 39 73 40 67 41 69 42 35 43 72 44
REMARK SMILES IDX 66 45 65 46 36 48 58 49 43 50 57 51 44 52 47 53 56 54 70 55
REMARK SMILES IDX 45 56 46 57 55 59 71 60 48 61 37 62 38 63 42 64 39 65 41 66
REMARK SMILES IDX 40 67 59 68 60 69 64 70 61 71 63 72 62 73 49 74 50 75 54 76
REMARK SMILES IDX 51 77 53 78 52 79
REMARK H PARENT 21 5 25 28 69 47 47 58
REMARK Flexibility Score: inf
ROOT
ATOM      1  C   UNL A   1      32.943  29.196  24.244  1.00  0.00     0.118 C 
ENDROOT
BRANCH   1   2
ATOM      2  N   UNL A   1      31.879  29.263  23.274  1.00  0.00    -0.351 N 
ATOM      3  C   UNL A   1      31.094  28.246  22.778  1.00  0.00     0.263 C 
ATOM      4  O   UNL A   1      30.241  28.595  21.957  1.00  0.00    -0.268 OA
ATOM      5  H   UNL A   1      31.687  30.161  22.917  1.00  0.00     0.163 HD
BRANCH   3   6
ATOM      6  C   UNL A   1      31.324  26.861  23.147  1.00  0.00     0.117 A 
ATOM      7  C   UNL A   1      31.063  26.075  24.266  1.00  0.00     0.069 A 
ATOM      8  N   UNL A   1      31.571  24.791  24.167  1.00  0.00    -0.224 NA
ATOM      9  C   UNL A   1      32.216  24.573  23.047  1.00  0.00     0.186 A 
ATOM     10  S   UNL A   1      32.068  25.872  21.935  1.00  0.00    -0.091 S 
BRANCH   7  11
ATOM     11  C   UNL A   1      30.389  26.409  25.581  1.00  0.00     0.034 C 
ATOM     12  C   UNL A   1      29.521  25.272  26.117  1.00  0.00     0.014 C 
ATOM     13  C   UNL A   1      31.368  26.857  26.677  1.00  0.00     0.014 C 
ENDBRANCH   7  11
BRANCH   9  14
ATOM     14  N   UNL A   1      32.979  23.461  22.855  1.00  0.00    -0.351 N 
ATOM     15  C   UNL A   1      32.463  22.200  22.367  1.00  0.00     0.146 C 
BRANCH  14  16
ATOM     16  C   UNL A   1      34.398  23.523  23.240  1.00  0.00     0.125 C 
BRANCH  16  17
ATOM     17  C   UNL A   1      34.839  22.290  24.044  1.00  0.00     0.077 C 
BRANCH  17  18
ATOM     18  C   UNL A   1      36.145  22.453  24.781  1.00  0.00     0.042 A 
ATOM     19  C   UNL A   1      37.099  21.436  24.765  1.00  0.00     0.024 A 
ATOM     20  N   UNL A   1      36.338  23.614  25.456  1.00  0.00    -0.261 NA
ATOM     21  C   UNL A   1      38.301  21.624  25.440  1.00  0.00     0.003 A 
ATOM     22  C   UNL A   1      37.518  23.770  26.097  1.00  0.00     0.111 A 
ATOM     23  C   UNL A   1      38.522  22.816  26.116  1.00  0.00     0.020 A 
ENDBRANCH  17  18
ENDBRANCH  16  17
ENDBRANCH  14  16
ENDBRANCH   9  14
ENDBRANCH   3   6
ENDBRANCH   1   2
BRANCH   1  24
ATOM     24  C   UNL A   1      32.612  29.754  25.612  1.00  0.00     0.042 C 
BRANCH  24  25
ATOM     25  C   UNL A   1      33.741  29.628  26.625  1.00  0.00     0.118 C 
BRANCH  25  26
ATOM     26  N   UNL A   1      33.803  30.717  27.597  1.00  0.00    -0.352 N 
ATOM     27  C   UNL A   1      34.755  31.081  28.525  1.00  0.00     0.251 C 
ATOM     28  H   UNL A   1      33.013  31.303  27.588  1.00  0.00     0.163 HD
ATOM     29  O   UNL A   1      34.517  32.000  29.297  1.00  0.00    -0.269 OA
BRANCH  27  30
ATOM     30  C   UNL A   1      36.037  30.345  28.637  1.00  0.00     0.039 A 
ATOM     31  C   UNL A   1      36.943  30.398  27.573  1.00  0.00     0.014 A 
ATOM     32  C   UNL A   1      36.360  29.613  29.775  1.00  0.00     0.014 A 
ATOM     33  C   UNL A   1      38.212  29.824  27.707  1.00  0.00     0.010 A 
ATOM     34  C   UNL A   1      37.661  29.163  29.962  1.00  0.00     0.010 A 
ATOM     35  C   UNL A   1      38.606  29.264  28.932  1.00  0.00    -0.014 A 
BRANCH  35  36
ATOM     36  C   UNL A   1      39.991  28.778  29.174  1.00  0.00     0.031 A 
ATOM     37  C   UNL A   1      41.022  29.700  29.774  1.00  0.00     0.074 A 
ATOM     38  C   UNL A   1      40.357  27.551  28.751  1.00  0.00     0.049 A 
ATOM     39  N   UNL A   1      42.311  29.521  29.913  1.00  0.00    -0.248 NA
ATOM     40  C   UNL A   1      40.547  31.015  30.236  1.00  0.00     0.031 C 
ATOM     41  C   UNL A   1      39.478  26.572  28.103  1.00  0.00     0.029 A 
ATOM     42  N   UNL A   1      41.574  26.918  28.796  1.00  0.00    -0.354 N 
ATOM     43  C   UNL A   1      42.802  30.713  30.431  1.00  0.00     0.074 A 
ATOM     44  C   UNL A   1      41.685  31.623  30.535  1.00  0.00     0.031 C 
ATOM     45  C   UNL A   1      40.175  25.453  27.849  1.00  0.00     0.029 A 
ATOM     46  C   UNL A   1      41.558  25.649  28.267  1.00  0.00     0.049 A 
ATOM     47  H   UNL A   1      42.384  27.334  29.173  1.00  0.00     0.167 HD
ATOM     48  C   UNL A   1      44.066  31.019  30.813  1.00  0.00     0.031 A 
ATOM     49  C   UNL A   1      42.547  24.747  28.126  1.00  0.00     0.031 A 
ATOM     50  C   UNL A   1      45.168  30.099  30.762  1.00  0.00     0.049 A 
ATOM     51  C   UNL A   1      43.932  25.095  28.589  1.00  0.00     0.074 A 
ATOM     52  C   UNL A   1      46.469  30.288  31.197  1.00  0.00     0.029 A 
ATOM     53  N   UNL A   1      45.096  28.810  30.257  1.00  0.00    -0.354 N 
ATOM     54  N   UNL A   1      44.367  26.209  29.126  1.00  0.00    -0.248 NA
ATOM     55  C   UNL A   1      44.962  24.057  28.434  1.00  0.00     0.031 C 
ATOM     56  C   UNL A   1      47.194  29.122  30.925  1.00  0.00     0.029 A 
ATOM     57  C   UNL A   1      46.331  28.195  30.360  1.00  0.00     0.049 A 
ATOM     58  H   UNL A   1      44.286  28.396  29.881  1.00  0.00     0.167 HD
ATOM     59  C   UNL A   1      45.712  25.997  29.398  1.00  0.00     0.074 A 
ATOM     60  C   UNL A   1      46.018  24.644  28.980  1.00  0.00     0.031 C 
ATOM     61  C   UNL A   1      46.614  26.847  29.945  1.00  0.00     0.031 A 
BRANCH  48  62
ATOM     62  C   UNL A   1      44.313  32.408  31.329  1.00  0.00    -0.014 A 
ATOM     63  C   UNL A   1      44.204  32.707  32.698  1.00  0.00     0.009 A 
ATOM     64  C   UNL A   1      44.680  33.430  30.439  1.00  0.00     0.009 A 
ATOM     65  C   UNL A   1      44.413  34.009  33.156  1.00  0.00     0.001 A 
ATOM     66  C   UNL A   1      44.919  34.724  30.905  1.00  0.00     0.001 A 
ATOM     67  C   UNL A   1      44.774  35.015  32.261  1.00  0.00     0.000 A 
ENDBRANCH  48  62
BRANCH  49  68
ATOM     68  C   UNL A   1      42.258  23.409  27.548  1.00  0.00    -0.014 A 
ATOM     69  C   UNL A   1      42.510  23.159  26.190  1.00  0.00     0.009 A 
ATOM     70  C   UNL A   1      41.730  22.379  28.342  1.00  0.00     0.009 A 
ATOM     71  C   UNL A   1      42.213  21.914  25.632  1.00  0.00     0.001 A 
ATOM     72  C   UNL A   1      41.459  21.127  27.786  1.00  0.00     0.001 A 
ATOM     73  C   UNL A   1      41.691  20.898  26.431  1.00  0.00     0.000 A 
ENDBRANCH  49  68
BRANCH  61  74
ATOM     74  C   UNL A   1      48.005  26.325  30.160  1.00  0.00    -0.014 A 
ATOM     75  C   UNL A   1      48.971  26.387  29.144  1.00  0.00     0.009 A 
ATOM     76  C   UNL A   1      48.364  25.804  31.413  1.00  0.00     0.009 A 
ATOM     77  C   UNL A   1      50.263  25.911  29.370  1.00  0.00     0.001 A 
ATOM     78  C   UNL A   1      49.664  25.353  31.645  1.00  0.00     0.001 A 
ATOM     79  C   UNL A   1      50.609  25.399  30.622  1.00  0.00     0.000 A 
ENDBRANCH  61  74
ENDBRANCH  35  36
ENDBRANCH  27  30
ENDBRANCH  25  26
ENDBRANCH  24  25
ENDBRANCH   1  24
TORSDOF 15
ENDMDL
