MODEL 1
REMARK VINA RESULT:     -12.2      0.000      0.000
REMARK SMILES Cc1cccc(C(=O)N2CCC[C@H]2c2nnc(SCC(=O)Nc3ccc(C(=O)NCCCNC(=O)c4ccc(-c5c6nc(c(-c7ccccc7)c7ccc([nH]7)c(-c7ccccc7)c7nc(c(-c8ccccc8)c8ccc5[nH]8)C=C7)C=C6)cc4)cc3)n2C)c1
REMARK SMILES IDX 23 1 24 2 25 3 26 4 84 5 85 6 22 7 20 8 21 9 19 11 18 12
REMARK SMILES IDX 17 13 14 14 15 15 86 16 16 17 87 18 13 19 9 20 10 21 11 22
REMARK SMILES IDX 12 23 7 24 8 25 6 26 1 27 2 28 3 29 88 30 4 31 5 32 27 33
REMARK SMILES IDX 28 34 29 35 30 37 31 38 32 39 33 40 34 41 35 43 36 44 37 45
REMARK SMILES IDX 83 46 38 47 82 48 39 49 40 50 41 51 76 52 42 53 81 54 75 55
REMARK SMILES IDX 77 56 43 57 80 58 74 59 73 60 44 62 66 63 51 64 65 65 52 66
REMARK SMILES IDX 55 67 64 68 78 69 53 70 54 71 63 73 79 74 56 75 45 76 46 77
REMARK SMILES IDX 50 78 47 79 49 80 48 81 67 82 68 83 72 84 69 85 71 86 70 87
REMARK SMILES IDX 57 88 58 89 62 90 59 91 61 92 60 93
REMARK H PARENT 22 10 29 36 33 42 77 61 55 72
REMARK Flexibility Score: inf
ROOT
ATOM      1  C   UNL A   1      34.991  32.623  28.555  1.00  0.00     0.041 A 
ATOM      2  C   UNL A   1      35.913  33.602  28.225  1.00  0.00     0.027 A 
ATOM      3  C   UNL A   1      35.557  34.942  28.265  1.00  0.00     0.016 A 
ATOM      4  C   UNL A   1      34.285  35.344  28.656  1.00  0.00     0.039 A 
ATOM      5  C   UNL A   1      33.322  34.341  28.865  1.00  0.00     0.016 A 
ATOM      6  C   UNL A   1      33.667  32.980  28.789  1.00  0.00     0.027 A 
ENDROOT
BRANCH   1   7
ATOM      7  N   UNL A   1      35.399  31.289  28.624  1.00  0.00    -0.325 N 
ATOM      8  C   UNL A   1      34.769  30.215  28.035  1.00  0.00     0.234 C 
ATOM      9  O   UNL A   1      35.094  29.069  28.357  1.00  0.00    -0.274 OA
ATOM     10  H   UNL A   1      36.213  31.098  29.143  1.00  0.00     0.169 HD
BRANCH   8  11
ATOM     11  C   UNL A   1      33.884  30.459  26.819  1.00  0.00     0.178 C 
BRANCH  11  12
ATOM     12  S   UNL A   1      32.119  30.124  26.900  1.00  0.00    -0.076 SA
BRANCH  12  13
ATOM     13  C   UNL A   1      31.886  28.449  26.592  1.00  0.00     0.191 A 
ATOM     14  C   UNL A   1      31.672  26.527  25.574  1.00  0.00     0.156 A 
ATOM     15  N   UNL A   1      31.115  26.423  26.767  1.00  0.00    -0.132 NA
ATOM     16  N   UNL A   1      32.134  27.816  25.411  1.00  0.00    -0.307 N 
ATOM     17  N   UNL A   1      31.246  27.636  27.402  1.00  0.00    -0.123 NA
ATOM     18  C   UNL A   1      32.701  28.347  24.199  1.00  0.00     0.154 C 
BRANCH  14  19
ATOM     19  C   UNL A   1      31.815  25.470  24.535  1.00  0.00     0.154 C 
ATOM     20  N   UNL A   1      31.952  24.131  25.091  1.00  0.00    -0.328 N 
ATOM     21  C   UNL A   1      30.916  23.249  24.570  1.00  0.00     0.120 C 
ATOM     22  C   UNL A   1      30.545  23.900  23.246  1.00  0.00     0.024 C 
ATOM     23  C   UNL A   1      30.612  25.388  23.589  1.00  0.00     0.035 C 
BRANCH  20  24
ATOM     24  C   UNL A   1      33.090  23.810  25.809  1.00  0.00     0.254 C 
ATOM     25  O   UNL A   1      33.112  23.727  27.035  1.00  0.00    -0.269 OA
BRANCH  24  26
ATOM     26  C   UNL A   1      34.395  23.750  25.112  1.00  0.00     0.040 A 
ATOM     27  C   UNL A   1      38.077  23.877  26.061  1.00  0.00     0.044 C 
ATOM     28  C   UNL A   1      36.822  23.693  25.263  1.00  0.00    -0.050 A 
ATOM     29  C   UNL A   1      36.872  23.198  23.955  1.00  0.00     0.003 A 
ATOM     30  C   UNL A   1      35.574  23.946  25.842  1.00  0.00     0.017 A 
ATOM     31  C   UNL A   1      35.696  22.979  23.231  1.00  0.00     0.001 A 
ATOM     32  C   UNL A   1      34.456  23.253  23.808  1.00  0.00     0.014 A 
ENDBRANCH  24  26
ENDBRANCH  20  24
ENDBRANCH  14  19
ENDBRANCH  12  13
ENDBRANCH  11  12
ENDBRANCH   8  11
ENDBRANCH   1   7
BRANCH   4  33
ATOM     33  C   UNL A   1      33.880  36.775  28.793  1.00  0.00     0.251 C 
ATOM     34  O   UNL A   1      34.018  37.520  27.822  1.00  0.00    -0.269 OA
ATOM     35  N   UNL A   1      33.327  37.301  29.942  1.00  0.00    -0.352 N 
ATOM     36  H   UNL A   1      33.217  38.279  29.923  1.00  0.00     0.163 HD
BRANCH  35  37
ATOM     37  C   UNL A   1      32.876  36.674  31.180  1.00  0.00     0.118 C 
BRANCH  37  38
ATOM     38  C   UNL A   1      33.641  37.180  32.405  1.00  0.00     0.042 C 
BRANCH  38  39
ATOM     39  C   UNL A   1      34.060  36.104  33.387  1.00  0.00     0.118 C 
BRANCH  39  40
ATOM     40  N   UNL A   1      33.653  34.753  33.004  1.00  0.00    -0.352 N 
ATOM     41  C   UNL A   1      34.477  33.677  32.709  1.00  0.00     0.251 C 
ATOM     42  H   UNL A   1      32.684  34.587  32.951  1.00  0.00     0.163 HD
ATOM     43  O   UNL A   1      34.031  32.568  32.469  1.00  0.00    -0.269 OA
BRANCH  41  44
ATOM     44  C   UNL A   1      35.938  33.894  32.825  1.00  0.00     0.039 A 
ATOM     45  C   UNL A   1      36.595  34.385  31.695  1.00  0.00     0.014 A 
ATOM     46  C   UNL A   1      36.637  33.281  33.860  1.00  0.00     0.014 A 
ATOM     47  C   UNL A   1      37.914  34.008  31.476  1.00  0.00     0.010 A 
ATOM     48  C   UNL A   1      37.911  32.816  33.593  1.00  0.00     0.010 A 
ATOM     49  C   UNL A   1      38.511  33.110  32.363  1.00  0.00    -0.014 A 
BRANCH  49  50
ATOM     50  C   UNL A   1      39.694  32.335  32.003  1.00  0.00     0.031 A 
ATOM     51  C   UNL A   1      39.558  31.128  31.171  1.00  0.00     0.074 A 
ATOM     52  C   UNL A   1      40.918  32.693  32.456  1.00  0.00     0.049 A 
ATOM     53  N   UNL A   1      40.329  30.095  31.250  1.00  0.00    -0.248 NA
ATOM     54  C   UNL A   1      38.458  30.963  30.229  1.00  0.00     0.031 C 
ATOM     55  C   UNL A   1      42.206  32.141  32.044  1.00  0.00     0.029 A 
ATOM     56  N   UNL A   1      41.228  33.468  33.576  1.00  0.00    -0.354 N 
ATOM     57  C   UNL A   1      40.028  29.283  30.181  1.00  0.00     0.074 A 
ATOM     58  C   UNL A   1      38.786  29.803  29.658  1.00  0.00     0.031 C 
ATOM     59  C   UNL A   1      43.085  32.316  33.043  1.00  0.00     0.029 A 
ATOM     60  C   UNL A   1      42.358  32.880  34.167  1.00  0.00     0.049 A 
ATOM     61  H   UNL A   1      40.747  34.269  33.889  1.00  0.00     0.167 HD
ATOM     62  C   UNL A   1      40.939  28.362  29.755  1.00  0.00     0.031 A 
ATOM     63  C   UNL A   1      42.396  32.425  35.452  1.00  0.00     0.031 A 
ATOM     64  C   UNL A   1      42.087  28.267  30.658  1.00  0.00     0.049 A 
ATOM     65  C   UNL A   1      42.776  30.964  35.560  1.00  0.00     0.074 A 
ATOM     66  C   UNL A   1      43.385  28.749  30.594  1.00  0.00     0.029 A 
ATOM     67  N   UNL A   1      41.897  27.829  31.963  1.00  0.00    -0.354 N 
ATOM     68  N   UNL A   1      42.808  30.142  34.549  1.00  0.00    -0.248 NA
ATOM     69  C   UNL A   1      43.051  30.293  36.831  1.00  0.00     0.031 C 
ATOM     70  C   UNL A   1      43.951  28.663  31.893  1.00  0.00     0.029 A 
ATOM     71  C   UNL A   1      43.006  28.108  32.738  1.00  0.00     0.049 A 
ATOM     72  H   UNL A   1      41.083  27.381  32.290  1.00  0.00     0.167 HD
ATOM     73  C   UNL A   1      43.034  28.868  35.002  1.00  0.00     0.074 A 
ATOM     74  C   UNL A   1      43.213  29.019  36.434  1.00  0.00     0.031 C 
ATOM     75  C   UNL A   1      43.008  27.793  34.162  1.00  0.00     0.031 A 
BRANCH  62  76
ATOM     76  C   UNL A   1      40.931  27.776  28.356  1.00  0.00    -0.014 A 
ATOM     77  C   UNL A   1      40.789  26.386  28.185  1.00  0.00     0.009 A 
ATOM     78  C   UNL A   1      41.140  28.511  27.176  1.00  0.00     0.009 A 
ATOM     79  C   UNL A   1      40.949  25.765  26.938  1.00  0.00     0.001 A 
ATOM     80  C   UNL A   1      41.335  27.899  25.930  1.00  0.00     0.001 A 
ATOM     81  C   UNL A   1      41.253  26.521  25.813  1.00  0.00     0.000 A 
ENDBRANCH  62  76
BRANCH  63  82
ATOM     82  C   UNL A   1      41.436  33.097  36.367  1.00  0.00    -0.014 A 
ATOM     83  C   UNL A   1      40.242  32.424  36.695  1.00  0.00     0.009 A 
ATOM     84  C   UNL A   1      41.855  34.161  37.178  1.00  0.00     0.009 A 
ATOM     85  C   UNL A   1      39.555  32.728  37.872  1.00  0.00     0.001 A 
ATOM     86  C   UNL A   1      41.154  34.469  38.350  1.00  0.00     0.001 A 
ATOM     87  C   UNL A   1      40.029  33.729  38.715  1.00  0.00     0.000 A 
ENDBRANCH  63  82
BRANCH  75  88
ATOM     88  C   UNL A   1      43.025  26.346  34.586  1.00  0.00    -0.014 A 
ATOM     89  C   UNL A   1      41.982  25.712  35.275  1.00  0.00     0.009 A 
ATOM     90  C   UNL A   1      44.095  25.526  34.163  1.00  0.00     0.009 A 
ATOM     91  C   UNL A   1      42.031  24.342  35.574  1.00  0.00     0.001 A 
ATOM     92  C   UNL A   1      44.126  24.152  34.419  1.00  0.00     0.001 A 
ATOM     93  C   UNL A   1      43.097  23.562  35.140  1.00  0.00     0.000 A 
ENDBRANCH  75  88
ENDBRANCH  49  50
ENDBRANCH  41  44
ENDBRANCH  39  40
ENDBRANCH  38  39
ENDBRANCH  37  38
ENDBRANCH  35  37
ENDBRANCH   4  33
TORSDOF 17
ENDMDL
MODEL 2
REMARK VINA RESULT:     -12.1      3.015      6.112
REMARK SMILES Cc1cccc(C(=O)N2CCC[C@H]2c2nnc(SCC(=O)Nc3ccc(C(=O)NCCCNC(=O)c4ccc(-c5c6nc(c(-c7ccccc7)c7ccc([nH]7)c(-c7ccccc7)c7nc(c(-c8ccccc8)c8ccc5[nH]8)C=C7)C=C6)cc4)cc3)n2C)c1
REMARK SMILES IDX 23 1 24 2 25 3 26 4 84 5 85 6 22 7 20 8 21 9 19 11 18 12
REMARK SMILES IDX 17 13 14 14 15 15 86 16 16 17 87 18 13 19 9 20 10 21 11 22
REMARK SMILES IDX 12 23 7 24 8 25 6 26 1 27 2 28 3 29 88 30 4 31 5 32 27 33
REMARK SMILES IDX 28 34 29 35 30 37 31 38 32 39 33 40 34 41 35 43 36 44 37 45
REMARK SMILES IDX 83 46 38 47 82 48 39 49 40 50 41 51 76 52 42 53 81 54 75 55
REMARK SMILES IDX 77 56 43 57 80 58 74 59 73 60 44 62 66 63 51 64 65 65 52 66
REMARK SMILES IDX 55 67 64 68 78 69 53 70 54 71 63 73 79 74 56 75 45 76 46 77
REMARK SMILES IDX 50 78 47 79 49 80 48 81 67 82 68 83 72 84 69 85 71 86 70 87
REMARK SMILES IDX 57 88 58 89 62 90 59 91 61 92 60 93
REMARK H PARENT 22 10 29 36 33 42 77 61 55 72
REMARK Flexibility Score: inf
ROOT
ATOM      1  C   UNL A   1      33.055  25.180  24.704  1.00  0.00     0.041 A 
ATOM      2  C   UNL A   1      32.420  24.868  25.894  1.00  0.00     0.027 A 
ATOM      3  C   UNL A   1      32.055  25.872  26.778  1.00  0.00     0.016 A 
ATOM      4  C   UNL A   1      32.289  27.212  26.491  1.00  0.00     0.039 A 
ATOM      5  C   UNL A   1      33.045  27.509  25.344  1.00  0.00     0.016 A 
ATOM      6  C   UNL A   1      33.452  26.492  24.463  1.00  0.00     0.027 A 
ENDROOT
BRANCH   1   7
ATOM      7  N   UNL A   1      33.309  24.170  23.773  1.00  0.00    -0.325 N 
ATOM      8  C   UNL A   1      34.549  23.767  23.330  1.00  0.00     0.234 C 
ATOM      9  O   UNL A   1      34.631  23.028  22.345  1.00  0.00    -0.274 OA
ATOM     10  H   UNL A   1      32.528  23.703  23.398  1.00  0.00     0.169 HD
BRANCH   8  11
ATOM     11  C   UNL A   1      35.764  24.020  24.214  1.00  0.00     0.178 C 
BRANCH  11  12
ATOM     12  S   UNL A   1      35.957  23.133  25.766  1.00  0.00    -0.076 SA
BRANCH  12  13
ATOM     13  C   UNL A   1      37.636  22.853  26.008  1.00  0.00     0.191 A 
ATOM     14  C   UNL A   1      39.595  21.890  26.110  1.00  0.00     0.156 A 
ATOM     15  N   UNL A   1      39.625  22.962  26.881  1.00  0.00    -0.132 NA
ATOM     16  N   UNL A   1      38.331  21.765  25.573  1.00  0.00    -0.307 N 
ATOM     17  N   UNL A   1      38.388  23.562  26.819  1.00  0.00    -0.123 NA
ATOM     18  C   UNL A   1      37.877  20.660  24.770  1.00  0.00     0.154 C 
BRANCH  14  19
ATOM     19  C   UNL A   1      40.703  20.939  25.821  1.00  0.00     0.154 C 
ATOM     20  N   UNL A   1      41.943  21.274  26.507  1.00  0.00    -0.328 N 
ATOM     21  C   UNL A   1      42.396  20.159  27.328  1.00  0.00     0.120 C 
ATOM     22  C   UNL A   1      41.757  18.955  26.654  1.00  0.00     0.024 C 
ATOM     23  C   UNL A   1      40.389  19.501  26.248  1.00  0.00     0.035 C 
BRANCH  20  24
ATOM     24  C   UNL A   1      42.621  22.427  26.153  1.00  0.00     0.254 C 
ATOM     25  O   UNL A   1      42.799  22.772  24.986  1.00  0.00    -0.269 OA
BRANCH  24  26
ATOM     26  C   UNL A   1      43.343  23.194  27.193  1.00  0.00     0.040 A 
ATOM     27  C   UNL A   1      46.317  25.560  27.363  1.00  0.00     0.044 C 
ATOM     28  C   UNL A   1      45.091  24.790  27.750  1.00  0.00    -0.050 A 
ATOM     29  C   UNL A   1      44.472  25.007  28.986  1.00  0.00     0.003 A 
ATOM     30  C   UNL A   1      44.505  23.895  26.849  1.00  0.00     0.017 A 
ATOM     31  C   UNL A   1      43.299  24.326  29.324  1.00  0.00     0.001 A 
ATOM     32  C   UNL A   1      42.732  23.420  28.429  1.00  0.00     0.014 A 
ENDBRANCH  24  26
ENDBRANCH  20  24
ENDBRANCH  14  19
ENDBRANCH  12  13
ENDBRANCH  11  12
ENDBRANCH   8  11
ENDBRANCH   1   7
BRANCH   4  33
ATOM     33  C   UNL A   1      31.842  28.332  27.373  1.00  0.00     0.251 C 
ATOM     34  O   UNL A   1      30.903  28.134  28.145  1.00  0.00    -0.269 OA
ATOM     35  N   UNL A   1      32.447  29.571  27.391  1.00  0.00    -0.352 N 
ATOM     36  H   UNL A   1      31.975  30.241  27.937  1.00  0.00     0.163 HD
BRANCH  35  37
ATOM     37  C   UNL A   1      33.660  30.071  26.751  1.00  0.00     0.118 C 
BRANCH  37  38
ATOM     38  C   UNL A   1      34.876  30.015  27.679  1.00  0.00     0.042 C 
BRANCH  38  39
ATOM     39  C   UNL A   1      35.370  31.362  28.167  1.00  0.00     0.118 C 
BRANCH  39  40
ATOM     40  N   UNL A   1      34.306  32.279  28.574  1.00  0.00    -0.352 N 
ATOM     41  C   UNL A   1      34.369  33.266  29.547  1.00  0.00     0.251 C 
ATOM     42  H   UNL A   1      33.446  32.186  28.104  1.00  0.00     0.163 HD
ATOM     43  O   UNL A   1      33.440  34.026  29.758  1.00  0.00    -0.269 OA
BRANCH  41  44
ATOM     44  C   UNL A   1      35.668  33.450  30.236  1.00  0.00     0.039 A 
ATOM     45  C   UNL A   1      36.660  34.142  29.539  1.00  0.00     0.014 A 
ATOM     46  C   UNL A   1      35.977  32.648  31.331  1.00  0.00     0.014 A 
ATOM     47  C   UNL A   1      37.989  33.806  29.765  1.00  0.00     0.010 A 
ATOM     48  C   UNL A   1      37.288  32.235  31.480  1.00  0.00     0.010 A 
ATOM     49  C   UNL A   1      38.277  32.753  30.636  1.00  0.00    -0.014 A 
BRANCH  49  50
ATOM     50  C   UNL A   1      39.557  32.054  30.611  1.00  0.00     0.031 A 
ATOM     51  C   UNL A   1      39.686  30.780  29.885  1.00  0.00     0.074 A 
ATOM     52  C   UNL A   1      40.625  32.547  31.281  1.00  0.00     0.049 A 
ATOM     53  N   UNL A   1      40.486  29.824  30.223  1.00  0.00    -0.248 NA
ATOM     54  C   UNL A   1      38.834  30.452  28.749  1.00  0.00     0.031 C 
ATOM     55  C   UNL A   1      42.005  32.073  31.207  1.00  0.00     0.029 A 
ATOM     56  N   UNL A   1      40.629  33.428  32.364  1.00  0.00    -0.354 N 
ATOM     57  C   UNL A   1      40.481  28.910  29.195  1.00  0.00     0.074 A 
ATOM     58  C   UNL A   1      39.354  29.283  28.371  1.00  0.00     0.031 C 
ATOM     59  C   UNL A   1      42.629  32.397  32.351  1.00  0.00     0.029 A 
ATOM     60  C   UNL A   1      41.637  32.984  33.235  1.00  0.00     0.049 A 
ATOM     61  H   UNL A   1      40.041  34.208  32.491  1.00  0.00     0.167 HD
ATOM     62  C   UNL A   1      41.521  28.038  29.061  1.00  0.00     0.031 A 
ATOM     63  C   UNL A   1      41.419  32.632  34.535  1.00  0.00     0.031 A 
ATOM     64  C   UNL A   1      42.446  28.109  30.194  1.00  0.00     0.049 A 
ATOM     65  C   UNL A   1      41.860  31.221  34.858  1.00  0.00     0.074 A 
ATOM     66  C   UNL A   1      43.691  28.691  30.366  1.00  0.00     0.029 A 
ATOM     67  N   UNL A   1      42.000  27.757  31.463  1.00  0.00    -0.354 N 
ATOM     68  N   UNL A   1      42.167  30.330  33.958  1.00  0.00    -0.248 NA
ATOM     69  C   UNL A   1      41.890  30.674  36.215  1.00  0.00     0.031 C 
ATOM     70  C   UNL A   1      43.961  28.752  31.758  1.00  0.00     0.029 A 
ATOM     71  C   UNL A   1      42.891  28.186  32.429  1.00  0.00     0.049 A 
ATOM     72  H   UNL A   1      41.165  27.269  31.648  1.00  0.00     0.167 HD
ATOM     73  C   UNL A   1      42.369  29.117  34.565  1.00  0.00     0.074 A 
ATOM     74  C   UNL A   1      42.218  29.392  35.981  1.00  0.00     0.031 C 
ATOM     75  C   UNL A   1      42.599  27.982  33.842  1.00  0.00     0.031 A 
BRANCH  62  76
ATOM     76  C   UNL A   1      41.860  27.348  27.754  1.00  0.00    -0.014 A 
ATOM     77  C   UNL A   1      42.996  27.752  27.027  1.00  0.00     0.009 A 
ATOM     78  C   UNL A   1      41.071  26.360  27.140  1.00  0.00     0.009 A 
ATOM     79  C   UNL A   1      43.265  27.279  25.735  1.00  0.00     0.001 A 
ATOM     80  C   UNL A   1      41.311  25.906  25.836  1.00  0.00     0.001 A 
ATOM     81  C   UNL A   1      42.403  26.377  25.126  1.00  0.00     0.000 A 
ENDBRANCH  62  76
BRANCH  63  82
ATOM     82  C   UNL A   1      40.240  33.291  35.157  1.00  0.00    -0.014 A 
ATOM     83  C   UNL A   1      38.988  32.653  35.055  1.00  0.00     0.009 A 
ATOM     84  C   UNL A   1      40.413  34.285  36.130  1.00  0.00     0.009 A 
ATOM     85  C   UNL A   1      37.978  32.915  35.983  1.00  0.00     0.001 A 
ATOM     86  C   UNL A   1      39.392  34.553  37.049  1.00  0.00     0.001 A 
ATOM     87  C   UNL A   1      38.192  33.843  36.999  1.00  0.00     0.000 A 
ENDBRANCH  63  82
BRANCH  75  88
ATOM     88  C   UNL A   1      42.615  26.579  34.393  1.00  0.00    -0.014 A 
ATOM     89  C   UNL A   1      41.588  26.021  35.167  1.00  0.00     0.009 A 
ATOM     90  C   UNL A   1      43.663  25.710  34.012  1.00  0.00     0.009 A 
ATOM     91  C   UNL A   1      41.633  24.683  35.586  1.00  0.00     0.001 A 
ATOM     92  C   UNL A   1      43.688  24.365  34.389  1.00  0.00     0.001 A 
ATOM     93  C   UNL A   1      42.677  23.854  35.190  1.00  0.00     0.000 A 
ENDBRANCH  75  88
ENDBRANCH  49  50
ENDBRANCH  41  44
ENDBRANCH  39  40
ENDBRANCH  38  39
ENDBRANCH  37  38
ENDBRANCH  35  37
ENDBRANCH   4  33
TORSDOF 17
ENDMDL
MODEL 3
REMARK VINA RESULT:     -11.9      5.293     11.469
REMARK SMILES Cc1cccc(C(=O)N2CCC[C@H]2c2nnc(SCC(=O)Nc3ccc(C(=O)NCCCNC(=O)c4ccc(-c5c6nc(c(-c7ccccc7)c7ccc([nH]7)c(-c7ccccc7)c7nc(c(-c8ccccc8)c8ccc5[nH]8)C=C7)C=C6)cc4)cc3)n2C)c1
REMARK SMILES IDX 23 1 24 2 25 3 26 4 84 5 85 6 22 7 20 8 21 9 19 11 18 12
REMARK SMILES IDX 17 13 14 14 15 15 86 16 16 17 87 18 13 19 9 20 10 21 11 22
REMARK SMILES IDX 12 23 7 24 8 25 6 26 1 27 2 28 3 29 88 30 4 31 5 32 27 33
REMARK SMILES IDX 28 34 29 35 30 37 31 38 32 39 33 40 34 41 35 43 36 44 37 45
REMARK SMILES IDX 83 46 38 47 82 48 39 49 40 50 41 51 76 52 42 53 81 54 75 55
REMARK SMILES IDX 77 56 43 57 80 58 74 59 73 60 44 62 66 63 51 64 65 65 52 66
REMARK SMILES IDX 55 67 64 68 78 69 53 70 54 71 63 73 79 74 56 75 45 76 46 77
REMARK SMILES IDX 50 78 47 79 49 80 48 81 67 82 68 83 72 84 69 85 71 86 70 87
REMARK SMILES IDX 57 88 58 89 62 90 59 91 61 92 60 93
REMARK H PARENT 22 10 29 36 33 42 77 61 55 72
REMARK Flexibility Score: inf
ROOT
ATOM      1  C   UNL A   1      40.875  21.927  27.012  1.00  0.00     0.041 A 
ATOM      2  C   UNL A   1      41.797  21.927  25.978  1.00  0.00     0.027 A 
ATOM      3  C   UNL A   1      42.532  20.785  25.696  1.00  0.00     0.016 A 
ATOM      4  C   UNL A   1      42.353  19.610  26.415  1.00  0.00     0.039 A 
ATOM      5  C   UNL A   1      41.511  19.658  27.540  1.00  0.00     0.016 A 
ATOM      6  C   UNL A   1      40.791  20.823  27.855  1.00  0.00     0.027 A 
ENDROOT
BRANCH   1   7
ATOM      7  N   UNL A   1      40.060  23.044  27.207  1.00  0.00    -0.325 N 
ATOM      8  C   UNL A   1      38.913  23.346  26.506  1.00  0.00     0.234 C 
ATOM      9  O   UNL A   1      38.412  24.468  26.615  1.00  0.00    -0.274 OA
ATOM     10  H   UNL A   1      40.331  23.677  27.911  1.00  0.00     0.169 HD
BRANCH   8  11
ATOM     11  C   UNL A   1      38.147  22.216  25.829  1.00  0.00     0.178 C 
BRANCH  11  12
ATOM     12  S   UNL A   1      36.370  22.061  26.057  1.00  0.00    -0.076 SA
BRANCH  12  13
ATOM     13  C   UNL A   1      35.603  23.159  24.978  1.00  0.00     0.191 A 
ATOM     14  C   UNL A   1      34.094  24.204  23.792  1.00  0.00     0.156 A 
ATOM     15  N   UNL A   1      35.276  24.441  23.251  1.00  0.00    -0.132 NA
ATOM     16  N   UNL A   1      34.260  23.356  24.867  1.00  0.00    -0.307 N 
ATOM     17  N   UNL A   1      36.222  23.776  23.997  1.00  0.00    -0.123 NA
ATOM     18  C   UNL A   1      33.191  22.781  25.642  1.00  0.00     0.154 C 
BRANCH  14  19
ATOM     19  C   UNL A   1      32.770  24.737  23.367  1.00  0.00     0.154 C 
ATOM     20  N   UNL A   1      32.543  26.114  23.782  1.00  0.00    -0.328 N 
ATOM     21  C   UNL A   1      32.251  26.957  22.631  1.00  0.00     0.120 C 
ATOM     22  C   UNL A   1      31.703  25.970  21.612  1.00  0.00     0.024 C 
ATOM     23  C   UNL A   1      32.584  24.744  21.846  1.00  0.00     0.035 C 
BRANCH  20  24
ATOM     24  C   UNL A   1      32.409  26.400  25.129  1.00  0.00     0.254 C 
ATOM     25  O   UNL A   1      31.723  25.728  25.896  1.00  0.00    -0.269 OA
BRANCH  24  26
ATOM     26  C   UNL A   1      32.946  27.675  25.657  1.00  0.00     0.040 A 
ATOM     27  C   UNL A   1      31.604  31.129  26.517  1.00  0.00     0.044 C 
ATOM     28  C   UNL A   1      32.518  29.946  26.413  1.00  0.00    -0.050 A 
ATOM     29  C   UNL A   1      33.763  29.946  27.054  1.00  0.00     0.003 A 
ATOM     30  C   UNL A   1      32.108  28.795  25.734  1.00  0.00     0.017 A 
ATOM     31  C   UNL A   1      34.592  28.822  26.999  1.00  0.00     0.001 A 
ATOM     32  C   UNL A   1      34.185  27.685  26.302  1.00  0.00     0.014 A 
ENDBRANCH  24  26
ENDBRANCH  20  24
ENDBRANCH  14  19
ENDBRANCH  12  13
ENDBRANCH  11  12
ENDBRANCH   8  11
ENDBRANCH   1   7
BRANCH   4  33
ATOM     33  C   UNL A   1      43.061  18.333  26.096  1.00  0.00     0.251 C 
ATOM     34  O   UNL A   1      42.388  17.346  25.800  1.00  0.00    -0.269 OA
ATOM     35  N   UNL A   1      44.435  18.210  26.085  1.00  0.00    -0.352 N 
ATOM     36  H   UNL A   1      44.754  17.286  25.969  1.00  0.00     0.163 HD
BRANCH  35  37
ATOM     37  C   UNL A   1      45.501  19.199  26.212  1.00  0.00     0.118 C 
BRANCH  37  38
ATOM     38  C   UNL A   1      46.540  19.085  25.094  1.00  0.00     0.042 C 
BRANCH  38  39
ATOM     39  C   UNL A   1      46.827  20.376  24.353  1.00  0.00     0.118 C 
BRANCH  39  40
ATOM     40  N   UNL A   1      45.650  20.984  23.733  1.00  0.00    -0.352 N 
ATOM     41  C   UNL A   1      45.071  22.206  24.043  1.00  0.00     0.251 C 
ATOM     42  H   UNL A   1      45.220  20.468  23.013  1.00  0.00     0.163 HD
ATOM     43  O   UNL A   1      44.129  22.653  23.412  1.00  0.00    -0.269 OA
BRANCH  41  44
ATOM     44  C   UNL A   1      45.729  23.016  25.094  1.00  0.00     0.039 A 
ATOM     45  C   UNL A   1      45.513  22.628  26.418  1.00  0.00     0.014 A 
ATOM     46  C   UNL A   1      46.197  24.289  24.780  1.00  0.00     0.014 A 
ATOM     47  C   UNL A   1      45.498  23.607  27.404  1.00  0.00     0.010 A 
ATOM     48  C   UNL A   1      46.075  25.278  25.738  1.00  0.00     0.010 A 
ATOM     49  C   UNL A   1      45.641  24.943  27.026  1.00  0.00    -0.014 A 
BRANCH  49  50
ATOM     50  C   UNL A   1      45.218  26.042  27.887  1.00  0.00     0.031 A 
ATOM     51  C   UNL A   1      43.819  26.500  27.861  1.00  0.00     0.074 A 
ATOM     52  C   UNL A   1      46.107  26.673  28.688  1.00  0.00     0.049 A 
ATOM     53  N   UNL A   1      43.444  27.717  28.079  1.00  0.00    -0.248 NA
ATOM     54  C   UNL A   1      42.726  25.612  27.487  1.00  0.00     0.031 C 
ATOM     55  C   UNL A   1      45.813  27.654  29.730  1.00  0.00     0.029 A 
ATOM     56  N   UNL A   1      47.496  26.736  28.550  1.00  0.00    -0.354 N 
ATOM     57  C   UNL A   1      42.073  27.706  28.184  1.00  0.00     0.074 A 
ATOM     58  C   UNL A   1      41.674  26.408  27.687  1.00  0.00     0.031 C 
ATOM     59  C   UNL A   1      46.895  28.429  29.905  1.00  0.00     0.029 A 
ATOM     60  C   UNL A   1      47.872  28.043  28.902  1.00  0.00     0.049 A 
ATOM     61  H   UNL A   1      48.093  26.007  28.263  1.00  0.00     0.167 HD
ATOM     62  C   UNL A   1      41.436  28.725  28.826  1.00  0.00     0.031 A 
ATOM     63  C   UNL A   1      48.541  28.892  28.071  1.00  0.00     0.031 A 
ATOM     64  C   UNL A   1      42.352  29.812  29.175  1.00  0.00     0.049 A 
ATOM     65  C   UNL A   1      47.815  30.200  27.837  1.00  0.00     0.074 A 
ATOM     66  C   UNL A   1      42.960  30.195  30.360  1.00  0.00     0.029 A 
ATOM     67  N   UNL A   1      42.985  30.524  28.163  1.00  0.00    -0.354 N 
ATOM     68  N   UNL A   1      46.571  30.410  28.161  1.00  0.00    -0.248 NA
ATOM     69  C   UNL A   1      48.404  31.335  27.127  1.00  0.00     0.031 C 
ATOM     70  C   UNL A   1      44.014  31.093  30.044  1.00  0.00     0.029 A 
ATOM     71  C   UNL A   1      44.030  31.272  28.672  1.00  0.00     0.049 A 
ATOM     72  H   UNL A   1      42.724  30.501  27.213  1.00  0.00     0.167 HD
ATOM     73  C   UNL A   1      46.171  31.629  27.677  1.00  0.00     0.074 A 
ATOM     74  C   UNL A   1      47.364  32.184  27.066  1.00  0.00     0.031 C 
ATOM     75  C   UNL A   1      44.878  32.054  27.781  1.00  0.00     0.031 A 
BRANCH  62  76
ATOM     76  C   UNL A   1      40.043  28.593  29.411  1.00  0.00    -0.014 A 
ATOM     77  C   UNL A   1      38.984  29.342  28.863  1.00  0.00     0.009 A 
ATOM     78  C   UNL A   1      39.716  27.823  30.541  1.00  0.00     0.009 A 
ATOM     79  C   UNL A   1      37.719  29.399  29.465  1.00  0.00     0.001 A 
ATOM     80  C   UNL A   1      38.465  27.899  31.170  1.00  0.00     0.001 A 
ATOM     81  C   UNL A   1      37.468  28.700  30.638  1.00  0.00     0.000 A 
ENDBRANCH  62  76
BRANCH  63  82
ATOM     82  C   UNL A   1      49.369  28.212  27.039  1.00  0.00    -0.014 A 
ATOM     83  C   UNL A   1      50.569  27.596  27.446  1.00  0.00     0.009 A 
ATOM     84  C   UNL A   1      48.810  27.853  25.805  1.00  0.00     0.009 A 
ATOM     85  C   UNL A   1      51.126  26.559  26.694  1.00  0.00     0.001 A 
ATOM     86  C   UNL A   1      49.381  26.822  25.050  1.00  0.00     0.001 A 
ATOM     87  C   UNL A   1      50.514  26.151  25.512  1.00  0.00     0.000 A 
ENDBRANCH  63  82
BRANCH  75  88
ATOM     88  C   UNL A   1      44.294  33.264  27.097  1.00  0.00    -0.014 A 
ATOM     89  C   UNL A   1      44.081  33.365  25.715  1.00  0.00     0.009 A 
ATOM     90  C   UNL A   1      43.805  34.325  27.892  1.00  0.00     0.009 A 
ATOM     91  C   UNL A   1      43.464  34.491  25.152  1.00  0.00     0.001 A 
ATOM     92  C   UNL A   1      43.148  35.428  27.339  1.00  0.00     0.001 A 
ATOM     93  C   UNL A   1      42.991  35.518  25.963  1.00  0.00     0.000 A 
ENDBRANCH  75  88
ENDBRANCH  49  50
ENDBRANCH  41  44
ENDBRANCH  39  40
ENDBRANCH  38  39
ENDBRANCH  37  38
ENDBRANCH  35  37
ENDBRANCH   4  33
TORSDOF 17
ENDMDL
