MODEL 1
REMARK VINA RESULT:      -9.7      0.000      0.000
REMARK SMILES CCC[N@@H+](C)CC[C@@H]1CCC[C@]1([NH2+]C)C(=O)NCCCNC(=O)c1ccc(-c2c3nc(c(-c4ccccc4)c4ccc([nH]4)c(-c4ccccc4)c4nc(c(-c5ccccc5)c5ccc2[nH]5)C=C4)C=C3)cc1
REMARK SMILES IDX 15 1 16 2 17 3 12 5 8 6 9 7 10 8 11 9 7 10 6 11 4 12 5 13
REMARK SMILES IDX 3 15 2 16 1 17 13 18 14 19 18 22 19 23 20 24 21 25 22 26
REMARK SMILES IDX 23 28 24 29 25 30 71 31 26 32 70 33 27 34 28 35 29 36 64 37
REMARK SMILES IDX 30 38 69 39 63 40 65 41 31 42 68 43 62 44 61 45 32 47 54 48
REMARK SMILES IDX 39 49 53 50 40 51 43 52 52 53 66 54 41 55 42 56 51 58 67 59
REMARK SMILES IDX 44 60 33 61 34 62 38 63 35 64 37 65 36 66 55 67 56 68 60 69
REMARK SMILES IDX 57 70 59 71 58 72 45 73 46 74 50 75 47 76 49 77 48 78
REMARK H PARENT 17 4 4 14 13 20 13 21 21 27 65 46 43 57
REMARK Flexibility Score: inf
ROOT
ATOM      1  C   UNL A   1      31.640  24.880  26.543  1.00  0.00     0.281 C 
ATOM      2  O   UNL A   1      31.097  24.052  27.303  1.00  0.00    -0.268 OA
ATOM      3  N   UNL A   1      31.231  26.142  26.879  1.00  0.00    -0.351 N 
ATOM      4  H   UNL A   1      30.682  26.097  27.695  1.00  0.00     0.163 HD
ENDROOT
BRANCH   1   5
ATOM      5  C   UNL A   1      32.696  24.327  25.418  1.00  0.00     0.178 C 
ATOM      6  C   UNL A   1      33.011  24.940  23.946  1.00  0.00     0.066 C 
ATOM      7  C   UNL A   1      31.937  24.464  22.947  1.00  0.00     0.011 C 
ATOM      8  C   UNL A   1      31.071  23.502  23.716  1.00  0.00     0.008 C 
ATOM      9  C   UNL A   1      31.973  23.025  24.851  1.00  0.00     0.079 C 
BRANCH   6  10
ATOM     10  C   UNL A   1      33.592  26.292  23.483  1.00  0.00     0.072 C 
BRANCH  10  11
ATOM     11  C   UNL A   1      33.209  26.916  22.119  1.00  0.00     0.262 C 
BRANCH  11  12
ATOM     12  N   UNL A   1      32.558  28.225  22.160  1.00  0.00    -0.337 N 
ATOM     13  C   UNL A   1      33.411  29.093  22.985  1.00  0.00     0.332 C 
ATOM     14  H   UNL A   1      32.466  28.652  21.238  1.00  0.00     0.347 HD
BRANCH  12  15
ATOM     15  C   UNL A   1      31.173  28.089  22.637  1.00  0.00     0.261 C 
BRANCH  15  16
ATOM     16  C   UNL A   1      30.210  29.272  22.557  1.00  0.00     0.058 C 
ATOM     17  C   UNL A   1      28.756  28.929  22.776  1.00  0.00     0.010 C 
ENDBRANCH  15  16
ENDBRANCH  12  15
ENDBRANCH  11  12
ENDBRANCH  10  11
ENDBRANCH   6  10
BRANCH   5  18
ATOM     18  N   UNL A   1      33.974  23.956  26.099  1.00  0.00    -0.336 N 
ATOM     19  C   UNL A   1      35.015  23.468  25.190  1.00  0.00     0.331 C 
ATOM     20  H   UNL A   1      33.774  23.223  26.780  1.00  0.00     0.346 HD
ATOM     21  H   UNL A   1      34.336  24.806  26.532  1.00  0.00     0.346 HD
ENDBRANCH   5  18
ENDBRANCH   1   5
BRANCH   3  22
ATOM     22  C   UNL A   1      31.329  27.548  26.439  1.00  0.00     0.118 C 
BRANCH  22  23
ATOM     23  C   UNL A   1      32.324  28.413  27.273  1.00  0.00     0.042 C 
BRANCH  23  24
ATOM     24  C   UNL A   1      33.225  29.498  26.668  1.00  0.00     0.118 C 
BRANCH  24  25
ATOM     25  N   UNL A   1      33.544  30.571  27.593  1.00  0.00    -0.352 N 
ATOM     26  C   UNL A   1      34.615  30.861  28.409  1.00  0.00     0.251 C 
ATOM     27  H   UNL A   1      32.830  31.246  27.649  1.00  0.00     0.163 HD
ATOM     28  O   UNL A   1      34.446  31.786  29.207  1.00  0.00    -0.269 OA
BRANCH  26  29
ATOM     29  C   UNL A   1      35.952  30.181  28.415  1.00  0.00     0.039 A 
ATOM     30  C   UNL A   1      36.347  29.579  29.627  1.00  0.00     0.014 A 
ATOM     31  C   UNL A   1      36.904  30.257  27.396  1.00  0.00     0.014 A 
ATOM     32  C   UNL A   1      37.653  29.098  29.826  1.00  0.00     0.010 A 
ATOM     33  C   UNL A   1      38.201  29.722  27.577  1.00  0.00     0.010 A 
ATOM     34  C   UNL A   1      38.609  29.170  28.805  1.00  0.00    -0.014 A 
BRANCH  34  35
ATOM     35  C   UNL A   1      40.031  28.759  29.058  1.00  0.00     0.031 A 
ATOM     36  C   UNL A   1      40.533  27.401  28.611  1.00  0.00     0.074 A 
ATOM     37  C   UNL A   1      40.899  29.590  29.674  1.00  0.00     0.049 A 
ATOM     38  N   UNL A   1      41.726  26.866  28.744  1.00  0.00    -0.248 NA
ATOM     39  C   UNL A   1      39.560  26.521  27.949  1.00  0.00     0.031 C 
ATOM     40  C   UNL A   1      40.577  30.922  30.187  1.00  0.00     0.029 A 
ATOM     41  N   UNL A   1      42.236  29.437  29.969  1.00  0.00    -0.354 N 
ATOM     42  C   UNL A   1      41.631  25.580  28.221  1.00  0.00     0.074 A 
ATOM     43  C   UNL A   1      40.256  25.404  27.800  1.00  0.00     0.031 C 
ATOM     44  C   UNL A   1      41.687  31.476  30.704  1.00  0.00     0.029 A 
ATOM     45  C   UNL A   1      42.798  30.534  30.582  1.00  0.00     0.049 A 
ATOM     46  H   UNL A   1      42.743  28.620  29.760  1.00  0.00     0.167 HD
ATOM     47  C   UNL A   1      42.591  24.630  28.083  1.00  0.00     0.031 A 
ATOM     48  C   UNL A   1      44.061  30.767  30.991  1.00  0.00     0.031 A 
ATOM     49  C   UNL A   1      43.973  24.801  28.452  1.00  0.00     0.049 A 
ATOM     50  C   UNL A   1      45.125  29.726  30.775  1.00  0.00     0.074 A 
ATOM     51  C   UNL A   1      45.025  23.912  28.301  1.00  0.00     0.029 A 
ATOM     52  N   UNL A   1      44.497  25.943  29.033  1.00  0.00    -0.354 N 
ATOM     53  N   UNL A   1      45.019  28.533  30.241  1.00  0.00    -0.248 NA
ATOM     54  C   UNL A   1      46.492  30.075  31.197  1.00  0.00     0.031 C 
ATOM     55  C   UNL A   1      46.183  24.509  28.812  1.00  0.00     0.029 A 
ATOM     56  C   UNL A   1      45.857  25.784  29.245  1.00  0.00     0.049 A 
ATOM     57  H   UNL A   1      43.981  26.750  29.260  1.00  0.00     0.167 HD
ATOM     58  C   UNL A   1      46.304  28.003  30.240  1.00  0.00     0.074 A 
ATOM     59  C   UNL A   1      47.176  29.008  30.810  1.00  0.00     0.031 C 
ATOM     60  C   UNL A   1      46.720  26.790  29.804  1.00  0.00     0.031 A 
BRANCH  47  61
ATOM     61  C   UNL A   1      42.173  23.304  27.503  1.00  0.00    -0.014 A 
ATOM     62  C   UNL A   1      42.432  22.981  26.161  1.00  0.00     0.009 A 
ATOM     63  C   UNL A   1      41.532  22.356  28.316  1.00  0.00     0.009 A 
ATOM     64  C   UNL A   1      42.013  21.757  25.634  1.00  0.00     0.001 A 
ATOM     65  C   UNL A   1      41.140  21.121  27.794  1.00  0.00     0.001 A 
ATOM     66  C   UNL A   1      41.369  20.828  26.450  1.00  0.00     0.000 A 
ENDBRANCH  47  61
BRANCH  48  67
ATOM     67  C   UNL A   1      44.413  32.073  31.611  1.00  0.00    -0.014 A 
ATOM     68  C   UNL A   1      44.366  32.231  33.006  1.00  0.00     0.009 A 
ATOM     69  C   UNL A   1      44.790  33.166  30.817  1.00  0.00     0.009 A 
ATOM     70  C   UNL A   1      44.671  33.463  33.590  1.00  0.00     0.001 A 
ATOM     71  C   UNL A   1      45.118  34.391  31.406  1.00  0.00     0.001 A 
ATOM     72  C   UNL A   1      45.051  34.539  32.791  1.00  0.00     0.000 A 
ENDBRANCH  48  67
BRANCH  60  73
ATOM     73  C   UNL A   1      48.192  26.499  29.888  1.00  0.00    -0.014 A 
ATOM     74  C   UNL A   1      49.072  26.887  28.866  1.00  0.00     0.009 A 
ATOM     75  C   UNL A   1      48.706  25.845  31.018  1.00  0.00     0.009 A 
ATOM     76  C   UNL A   1      50.435  26.590  28.958  1.00  0.00     0.001 A 
ATOM     77  C   UNL A   1      50.072  25.571  31.117  1.00  0.00     0.001 A 
ATOM     78  C   UNL A   1      50.932  25.935  30.083  1.00  0.00     0.000 A 
ENDBRANCH  60  73
ENDBRANCH  34  35
ENDBRANCH  26  29
ENDBRANCH  24  25
ENDBRANCH  23  24
ENDBRANCH  22  23
ENDBRANCH   3  22
TORSDOF 16
ENDMDL
MODEL 2
REMARK VINA RESULT:      -9.6      2.609      4.355
REMARK SMILES CCC[N@@H+](C)CC[C@@H]1CCC[C@]1([NH2+]C)C(=O)NCCCNC(=O)c1ccc(-c2c3nc(c(-c4ccccc4)c4ccc([nH]4)c(-c4ccccc4)c4nc(c(-c5ccccc5)c5ccc2[nH]5)C=C4)C=C3)cc1
REMARK SMILES IDX 15 1 16 2 17 3 12 5 8 6 9 7 10 8 11 9 7 10 6 11 4 12 5 13
REMARK SMILES IDX 3 15 2 16 1 17 13 18 14 19 18 22 19 23 20 24 21 25 22 26
REMARK SMILES IDX 23 28 24 29 25 30 71 31 26 32 70 33 27 34 28 35 29 36 64 37
REMARK SMILES IDX 30 38 69 39 63 40 65 41 31 42 68 43 62 44 61 45 32 47 54 48
REMARK SMILES IDX 39 49 53 50 40 51 43 52 52 53 66 54 41 55 42 56 51 58 67 59
REMARK SMILES IDX 44 60 33 61 34 62 38 63 35 64 37 65 36 66 55 67 56 68 60 69
REMARK SMILES IDX 57 70 59 71 58 72 45 73 46 74 50 75 47 76 49 77 48 78
REMARK H PARENT 17 4 4 14 13 20 13 21 21 27 65 46 43 57
REMARK Flexibility Score: inf
ROOT
ATOM      1  C   UNL A   1      31.954  28.045  27.222  1.00  0.00     0.281 C 
ATOM      2  O   UNL A   1      31.085  27.771  28.076  1.00  0.00    -0.268 OA
ATOM      3  N   UNL A   1      32.882  28.887  27.772  1.00  0.00    -0.351 N 
ATOM      4  H   UNL A   1      32.690  28.998  28.730  1.00  0.00     0.163 HD
ENDROOT
BRANCH   1   5
ATOM      5  C   UNL A   1      31.840  27.343  25.745  1.00  0.00     0.178 C 
ATOM      6  C   UNL A   1      33.044  26.876  24.757  1.00  0.00     0.066 C 
ATOM      7  C   UNL A   1      33.566  28.094  23.968  1.00  0.00     0.011 C 
ATOM      8  C   UNL A   1      32.658  29.235  24.341  1.00  0.00     0.008 C 
ATOM      9  C   UNL A   1      31.378  28.546  24.808  1.00  0.00     0.079 C 
BRANCH   6  10
ATOM     10  C   UNL A   1      34.166  25.830  24.906  1.00  0.00     0.072 C 
BRANCH  10  11
ATOM     11  C   UNL A   1      34.028  24.402  24.324  1.00  0.00     0.262 C 
BRANCH  11  12
ATOM     12  N   UNL A   1      32.761  24.084  23.666  1.00  0.00    -0.337 N 
ATOM     13  C   UNL A   1      32.257  22.856  24.298  1.00  0.00     0.332 C 
ATOM     14  H   UNL A   1      32.059  24.815  23.785  1.00  0.00     0.347 HD
BRANCH  12  15
ATOM     15  C   UNL A   1      32.952  23.996  22.211  1.00  0.00     0.261 C 
BRANCH  15  16
ATOM     16  C   UNL A   1      32.878  25.253  21.346  1.00  0.00     0.058 C 
ATOM     17  C   UNL A   1      31.621  26.073  21.515  1.00  0.00     0.010 C 
ENDBRANCH  15  16
ENDBRANCH  12  15
ENDBRANCH  11  12
ENDBRANCH  10  11
ENDBRANCH   6  10
BRANCH   5  18
ATOM     18  N   UNL A   1      30.783  26.287  25.794  1.00  0.00    -0.336 N 
ATOM     19  C   UNL A   1      29.818  26.358  24.694  1.00  0.00     0.331 C 
ATOM     20  H   UNL A   1      30.274  26.383  26.673  1.00  0.00     0.346 HD
ATOM     21  H   UNL A   1      31.259  25.389  25.713  1.00  0.00     0.346 HD
ENDBRANCH   5  18
ENDBRANCH   1   5
BRANCH   3  22
ATOM     22  C   UNL A   1      34.073  29.687  27.421  1.00  0.00     0.118 C 
BRANCH  22  23
ATOM     23  C   UNL A   1      33.782  31.203  27.190  1.00  0.00     0.042 C 
BRANCH  23  24
ATOM     24  C   UNL A   1      32.388  31.832  27.316  1.00  0.00     0.118 C 
BRANCH  24  25
ATOM     25  N   UNL A   1      32.416  33.261  27.569  1.00  0.00    -0.352 N 
ATOM     26  C   UNL A   1      33.177  34.090  28.364  1.00  0.00     0.251 C 
ATOM     27  H   UNL A   1      31.736  33.751  27.053  1.00  0.00     0.163 HD
ATOM     28  O   UNL A   1      32.781  35.255  28.459  1.00  0.00    -0.269 OA
BRANCH  26  29
ATOM     29  C   UNL A   1      34.427  33.725  29.108  1.00  0.00     0.039 A 
ATOM     30  C   UNL A   1      35.648  34.093  28.507  1.00  0.00     0.014 A 
ATOM     31  C   UNL A   1      34.489  32.898  30.231  1.00  0.00     0.014 A 
ATOM     32  C   UNL A   1      36.884  33.628  28.990  1.00  0.00     0.010 A 
ATOM     33  C   UNL A   1      35.736  32.476  30.751  1.00  0.00     0.010 A 
ATOM     34  C   UNL A   1      36.949  32.801  30.118  1.00  0.00    -0.014 A 
BRANCH  34  35
ATOM     35  C   UNL A   1      38.259  32.217  30.563  1.00  0.00     0.031 A 
ATOM     36  C   UNL A   1      38.784  30.936  29.948  1.00  0.00     0.074 A 
ATOM     37  C   UNL A   1      39.007  32.824  31.510  1.00  0.00     0.049 A 
ATOM     38  N   UNL A   1      39.890  30.277  30.205  1.00  0.00    -0.248 NA
ATOM     39  C   UNL A   1      37.941  30.300  28.925  1.00  0.00     0.031 C 
ATOM     40  C   UNL A   1      38.643  34.049  32.220  1.00  0.00     0.029 A 
ATOM     41  N   UNL A   1      40.238  32.492  32.034  1.00  0.00    -0.354 N 
ATOM     42  C   UNL A   1      39.853  29.136  29.409  1.00  0.00     0.074 A 
ATOM     43  C   UNL A   1      38.599  29.177  28.685  1.00  0.00     0.031 C 
ATOM     44  C   UNL A   1      39.636  34.384  33.062  1.00  0.00     0.029 A 
ATOM     45  C   UNL A   1      40.701  33.387  32.971  1.00  0.00     0.049 A 
ATOM     46  H   UNL A   1      40.739  31.690  31.763  1.00  0.00     0.167 HD
ATOM     47  C   UNL A   1      40.775  28.149  29.270  1.00  0.00     0.031 A 
ATOM     48  C   UNL A   1      41.851  33.415  33.673  1.00  0.00     0.031 A 
ATOM     49  C   UNL A   1      42.047  28.113  29.945  1.00  0.00     0.049 A 
ATOM     50  C   UNL A   1      42.887  32.344  33.462  1.00  0.00     0.074 A 
ATOM     51  C   UNL A   1      43.063  27.179  29.826  1.00  0.00     0.029 A 
ATOM     52  N   UNL A   1      42.483  29.062  30.854  1.00  0.00    -0.354 N 
ATOM     53  N   UNL A   1      42.845  31.298  32.674  1.00  0.00    -0.248 NA
ATOM     54  C   UNL A   1      44.141  32.474  34.222  1.00  0.00     0.031 C 
ATOM     55  C   UNL A   1      44.106  27.552  30.682  1.00  0.00     0.029 A 
ATOM     56  C   UNL A   1      43.753  28.738  31.302  1.00  0.00     0.049 A 
ATOM     57  H   UNL A   1      41.967  29.851  31.138  1.00  0.00     0.167 HD
ATOM     58  C   UNL A   1      44.072  30.663  32.823  1.00  0.00     0.074 A 
ATOM     59  C   UNL A   1      44.843  31.448  33.763  1.00  0.00     0.031 C 
ATOM     60  C   UNL A   1      44.517  29.528  32.231  1.00  0.00     0.031 A 
BRANCH  47  61
ATOM     61  C   UNL A   1      40.434  27.010  28.345  1.00  0.00    -0.014 A 
ATOM     62  C   UNL A   1      39.622  25.945  28.768  1.00  0.00     0.009 A 
ATOM     63  C   UNL A   1      40.912  27.014  27.026  1.00  0.00     0.009 A 
ATOM     64  C   UNL A   1      39.338  24.884  27.904  1.00  0.00     0.001 A 
ATOM     65  C   UNL A   1      40.603  25.966  26.154  1.00  0.00     0.001 A 
ATOM     66  C   UNL A   1      39.827  24.896  26.598  1.00  0.00     0.000 A 
ENDBRANCH  47  61
BRANCH  48  67
ATOM     67  C   UNL A   1      42.118  34.532  34.619  1.00  0.00    -0.014 A 
ATOM     68  C   UNL A   1      41.762  34.416  35.972  1.00  0.00     0.009 A 
ATOM     69  C   UNL A   1      42.723  35.718  34.177  1.00  0.00     0.009 A 
ATOM     70  C   UNL A   1      41.987  35.472  36.859  1.00  0.00     0.001 A 
ATOM     71  C   UNL A   1      42.969  36.764  35.071  1.00  0.00     0.001 A 
ATOM     72  C   UNL A   1      42.594  36.642  36.408  1.00  0.00     0.000 A 
ENDBRANCH  48  67
BRANCH  60  73
ATOM     73  C   UNL A   1      45.918  29.091  32.552  1.00  0.00    -0.014 A 
ATOM     74  C   UNL A   1      46.185  28.222  33.622  1.00  0.00     0.009 A 
ATOM     75  C   UNL A   1      46.984  29.537  31.756  1.00  0.00     0.009 A 
ATOM     76  C   UNL A   1      47.498  27.842  33.912  1.00  0.00     0.001 A 
ATOM     77  C   UNL A   1      48.292  29.137  32.034  1.00  0.00     0.001 A 
ATOM     78  C   UNL A   1      48.549  28.297  33.117  1.00  0.00     0.000 A 
ENDBRANCH  60  73
ENDBRANCH  34  35
ENDBRANCH  26  29
ENDBRANCH  24  25
ENDBRANCH  23  24
ENDBRANCH  22  23
ENDBRANCH   3  22
TORSDOF 16
ENDMDL
MODEL 3
REMARK VINA RESULT:      -9.5      1.891      3.198
REMARK SMILES CCC[N@@H+](C)CC[C@@H]1CCC[C@]1([NH2+]C)C(=O)NCCCNC(=O)c1ccc(-c2c3nc(c(-c4ccccc4)c4ccc([nH]4)c(-c4ccccc4)c4nc(c(-c5ccccc5)c5ccc2[nH]5)C=C4)C=C3)cc1
REMARK SMILES IDX 15 1 16 2 17 3 12 5 8 6 9 7 10 8 11 9 7 10 6 11 4 12 5 13
REMARK SMILES IDX 3 15 2 16 1 17 13 18 14 19 18 22 19 23 20 24 21 25 22 26
REMARK SMILES IDX 23 28 24 29 25 30 71 31 26 32 70 33 27 34 28 35 29 36 64 37
REMARK SMILES IDX 30 38 69 39 63 40 65 41 31 42 68 43 62 44 61 45 32 47 54 48
REMARK SMILES IDX 39 49 53 50 40 51 43 52 52 53 66 54 41 55 42 56 51 58 67 59
REMARK SMILES IDX 44 60 33 61 34 62 38 63 35 64 37 65 36 66 55 67 56 68 60 69
REMARK SMILES IDX 57 70 59 71 58 72 45 73 46 74 50 75 47 76 49 77 48 78
REMARK H PARENT 17 4 4 14 13 20 13 21 21 27 65 46 43 57
REMARK Flexibility Score: inf
ROOT
ATOM      1  C   UNL A   1      33.087  28.828  24.231  1.00  0.00     0.281 C 
ATOM      2  O   UNL A   1      33.740  29.093  23.200  1.00  0.00    -0.268 OA
ATOM      3  N   UNL A   1      33.063  29.924  25.050  1.00  0.00    -0.351 N 
ATOM      4  H   UNL A   1      33.488  30.682  24.587  1.00  0.00     0.163 HD
ENDROOT
BRANCH   1   5
ATOM      5  C   UNL A   1      32.397  27.346  24.353  1.00  0.00     0.178 C 
ATOM      6  C   UNL A   1      32.513  26.094  23.322  1.00  0.00     0.066 C 
ATOM      7  C   UNL A   1      31.520  26.290  22.157  1.00  0.00     0.011 C 
ATOM      8  C   UNL A   1      30.734  27.527  22.503  1.00  0.00     0.008 C 
ATOM      9  C   UNL A   1      30.865  27.631  24.021  1.00  0.00     0.079 C 
BRANCH   6  10
ATOM     10  C   UNL A   1      33.706  25.239  22.851  1.00  0.00     0.072 C 
BRANCH  10  11
ATOM     11  C   UNL A   1      33.644  23.693  22.840  1.00  0.00     0.262 C 
BRANCH  11  12
ATOM     12  N   UNL A   1      34.503  22.998  23.800  1.00  0.00    -0.337 N 
ATOM     13  C   UNL A   1      33.853  21.711  24.089  1.00  0.00     0.332 C 
ATOM     14  H   UNL A   1      35.436  22.809  23.433  1.00  0.00     0.347 HD
BRANCH  12  15
ATOM     15  C   UNL A   1      34.741  23.846  24.977  1.00  0.00     0.261 C 
BRANCH  15  16
ATOM     16  C   UNL A   1      35.902  23.545  25.923  1.00  0.00     0.058 C 
ATOM     17  C   UNL A   1      37.277  23.673  25.310  1.00  0.00     0.010 C 
ENDBRANCH  15  16
ENDBRANCH  12  15
ENDBRANCH  11  12
ENDBRANCH  10  11
ENDBRANCH   6  10
BRANCH   5  18
ATOM     18  N   UNL A   1      32.542  26.861  25.760  1.00  0.00    -0.336 N 
ATOM     19  C   UNL A   1      31.307  26.930  26.545  1.00  0.00     0.331 C 
ATOM     20  H   UNL A   1      33.249  27.432  26.224  1.00  0.00     0.346 HD
ATOM     21  H   UNL A   1      32.805  25.877  25.708  1.00  0.00     0.346 HD
ENDBRANCH   5  18
ENDBRANCH   1   5
BRANCH   3  22
ATOM     22  C   UNL A   1      32.621  30.361  26.389  1.00  0.00     0.118 C 
BRANCH  22  23
ATOM     23  C   UNL A   1      33.776  30.518  27.426  1.00  0.00     0.042 C 
BRANCH  23  24
ATOM     24  C   UNL A   1      34.349  31.872  27.865  1.00  0.00     0.118 C 
BRANCH  24  25
ATOM     25  N   UNL A   1      34.620  31.954  29.289  1.00  0.00    -0.352 N 
ATOM     26  C   UNL A   1      35.555  31.393  30.131  1.00  0.00     0.251 C 
ATOM     27  H   UNL A   1      33.992  32.546  29.761  1.00  0.00     0.163 HD
ATOM     28  O   UNL A   1      35.356  31.554  31.338  1.00  0.00    -0.269 OA
BRANCH  26  29
ATOM     29  C   UNL A   1      36.781  30.625  29.732  1.00  0.00     0.039 A 
ATOM     30  C   UNL A   1      37.513  30.021  30.774  1.00  0.00     0.014 A 
ATOM     31  C   UNL A   1      37.353  30.620  28.459  1.00  0.00     0.014 A 
ATOM     32  C   UNL A   1      38.784  29.458  30.560  1.00  0.00     0.010 A 
ATOM     33  C   UNL A   1      38.607  30.003  28.232  1.00  0.00     0.010 A 
ATOM     34  C   UNL A   1      39.359  29.449  29.283  1.00  0.00    -0.014 A 
BRANCH  34  35
ATOM     35  C   UNL A   1      40.761  28.948  29.079  1.00  0.00     0.031 A 
ATOM     36  C   UNL A   1      41.014  27.528  28.618  1.00  0.00     0.074 A 
ATOM     37  C   UNL A   1      41.825  29.753  29.287  1.00  0.00     0.049 A 
ATOM     38  N   UNL A   1      42.153  26.914  28.390  1.00  0.00    -0.248 NA
ATOM     39  C   UNL A   1      39.833  26.681  28.407  1.00  0.00     0.031 C 
ATOM     40  C   UNL A   1      41.763  31.138  29.753  1.00  0.00     0.029 A 
ATOM     41  N   UNL A   1      43.174  29.520  29.127  1.00  0.00    -0.354 N 
ATOM     42  C   UNL A   1      41.824  25.605  28.051  1.00  0.00     0.074 A 
ATOM     43  C   UNL A   1      40.381  25.506  28.136  1.00  0.00     0.031 C 
ATOM     44  C   UNL A   1      43.007  31.641  29.811  1.00  0.00     0.029 A 
ATOM     45  C   UNL A   1      43.963  30.610  29.410  1.00  0.00     0.049 A 
ATOM     46  H   UNL A   1      43.539  28.653  28.837  1.00  0.00     0.167 HD
ATOM     47  C   UNL A   1      42.632  24.578  27.687  1.00  0.00     0.031 A 
ATOM     48  C   UNL A   1      45.299  30.775  29.347  1.00  0.00     0.031 A 
ATOM     49  C   UNL A   1      44.063  24.668  27.551  1.00  0.00     0.049 A 
ATOM     50  C   UNL A   1      46.175  29.642  28.883  1.00  0.00     0.074 A 
ATOM     51  C   UNL A   1      44.956  23.692  27.138  1.00  0.00     0.029 A 
ATOM     52  N   UNL A   1      44.809  25.805  27.813  1.00  0.00    -0.354 N 
ATOM     53  N   UNL A   1      45.835  28.427  28.529  1.00  0.00    -0.248 NA
ATOM     54  C   UNL A   1      47.618  29.915  28.786  1.00  0.00     0.031 C 
ATOM     55  C   UNL A   1      46.247  24.234  27.172  1.00  0.00     0.029 A 
ATOM     56  C   UNL A   1      46.150  25.557  27.568  1.00  0.00     0.049 A 
ATOM     57  H   UNL A   1      44.440  26.663  28.125  1.00  0.00     0.167 HD
ATOM     58  C   UNL A   1      47.015  27.801  28.145  1.00  0.00     0.074 A 
ATOM     59  C   UNL A   1      48.076  28.775  28.291  1.00  0.00     0.031 C 
ATOM     60  C   UNL A   1      47.199  26.532  27.708  1.00  0.00     0.031 A 
BRANCH  47  61
ATOM     61  C   UNL A   1      41.978  23.250  27.407  1.00  0.00    -0.014 A 
ATOM     62  C   UNL A   1      41.610  22.878  26.104  1.00  0.00     0.009 A 
ATOM     63  C   UNL A   1      41.747  22.349  28.458  1.00  0.00     0.009 A 
ATOM     64  C   UNL A   1      40.980  21.653  25.868  1.00  0.00     0.001 A 
ATOM     65  C   UNL A   1      41.144  21.112  28.215  1.00  0.00     0.001 A 
ATOM     66  C   UNL A   1      40.749  20.771  26.922  1.00  0.00     0.000 A 
ENDBRANCH  47  61
BRANCH  48  67
ATOM     67  C   UNL A   1      45.904  32.091  29.689  1.00  0.00    -0.014 A 
ATOM     68  C   UNL A   1      46.277  32.378  31.011  1.00  0.00     0.009 A 
ATOM     69  C   UNL A   1      46.106  33.066  28.700  1.00  0.00     0.009 A 
ATOM     70  C   UNL A   1      46.822  33.622  31.341  1.00  0.00     0.001 A 
ATOM     71  C   UNL A   1      46.673  34.301  29.028  1.00  0.00     0.001 A 
ATOM     72  C   UNL A   1      47.023  34.579  30.349  1.00  0.00     0.000 A 
ENDBRANCH  48  67
BRANCH  60  73
ATOM     73  C   UNL A   1      48.595  26.135  27.319  1.00  0.00    -0.014 A 
ATOM     74  C   UNL A   1      49.067  26.319  26.009  1.00  0.00     0.009 A 
ATOM     75  C   UNL A   1      49.457  25.591  28.283  1.00  0.00     0.009 A 
ATOM     76  C   UNL A   1      50.364  25.927  25.665  1.00  0.00     0.001 A 
ATOM     77  C   UNL A   1      50.759  25.222  27.942  1.00  0.00     0.001 A 
ATOM     78  C   UNL A   1      51.207  25.382  26.632  1.00  0.00     0.000 A 
ENDBRANCH  60  73
ENDBRANCH  34  35
ENDBRANCH  26  29
ENDBRANCH  24  25
ENDBRANCH  23  24
ENDBRANCH  22  23
ENDBRANCH   3  22
TORSDOF 16
ENDMDL
