MODEL 1
REMARK VINA RESULT:     -10.3      0.000      0.000
REMARK SMILES CC(C)C[C@H](NC(=O)[C@@H](NC(=O)[C@H](C)NC(=O)CNC(=O)OCc1ccccc1)C(C)C)C(=O)NCCCNC(=O)c1ccc(-c2c3nc(c(-c4ccccc4)c4ccc([nH]4)c(-c4ccccc4)c4nc(c(-c5ccccc5)c5ccc2[nH]5)C=C4)C=C3)cc1
REMARK SMILES IDX 6 1 7 2 8 3 5 5 4 6 2 7 1 8 3 9 33 10 34 11 35 12 36 14
REMARK SMILES IDX 37 15 38 16 39 17 40 18 41 20 42 21 43 22 89 23 44 24 88 25
REMARK SMILES IDX 45 26 46 27 47 28 82 29 48 30 87 31 81 32 83 33 49 34 86 35
REMARK SMILES IDX 80 36 79 37 50 39 72 40 57 41 71 42 58 43 61 44 70 45 84 46
REMARK SMILES IDX 59 47 60 48 69 50 85 51 62 52 51 53 52 54 56 55 53 56 55 57
REMARK SMILES IDX 54 58 73 59 74 60 78 61 75 62 77 63 76 64 63 65 64 66 68 67
REMARK SMILES IDX 65 68 67 69 66 70 9 71 10 72 11 73 12 75 13 76 14 77 15 78
REMARK SMILES IDX 16 79 17 81 18 82 19 83 20 84 21 86 22 87 23 88 24 89 25 90
REMARK SMILES IDX 29 91 26 92 28 93 27 94 30 95 31 96 32 97
REMARK H PARENT 6 4 35 13 39 19 83 38 61 49 10 74 15 80 19 85
REMARK Flexibility Score: inf
ROOT
ATOM      1  N   UNL A   1      34.910  23.897  25.009  1.00  0.00    -0.343 N 
ATOM      2  C   UNL A   1      33.931  24.800  24.797  1.00  0.00     0.243 C 
ATOM      3  O   UNL A   1      34.315  25.981  24.833  1.00  0.00    -0.273 OA
ATOM      4  H   UNL A   1      35.583  24.242  25.638  1.00  0.00     0.164 HD
ENDROOT
BRANCH   1   5
ATOM      5  C   UNL A   1      35.252  22.531  24.557  1.00  0.00     0.171 C 
BRANCH   5   6
ATOM      6  C   UNL A   1      34.141  21.638  23.992  1.00  0.00     0.038 C 
BRANCH   6   7
ATOM      7  C   UNL A   1      33.217  20.868  24.964  1.00  0.00    -0.015 C 
ATOM      8  C   UNL A   1      33.158  19.388  24.619  1.00  0.00     0.007 C 
ATOM      9  C   UNL A   1      33.625  20.991  26.436  1.00  0.00     0.007 C 
ENDBRANCH   6   7
ENDBRANCH   5   6
BRANCH   5  10
ATOM     10  C   UNL A   1      36.550  22.601  23.731  1.00  0.00     0.242 C 
ATOM     11  O   UNL A   1      36.595  23.220  22.665  1.00  0.00    -0.273 OA
ATOM     12  N   UNL A   1      37.689  22.001  24.171  1.00  0.00    -0.354 N 
ATOM     13  H   UNL A   1      38.481  22.109  23.596  1.00  0.00     0.163 HD
BRANCH  12  14
ATOM     14  C   UNL A   1      37.886  21.228  25.372  1.00  0.00     0.117 C 
BRANCH  14  15
ATOM     15  C   UNL A   1      38.655  19.953  25.110  1.00  0.00     0.042 C 
BRANCH  15  16
ATOM     16  C   UNL A   1      39.572  19.632  26.272  1.00  0.00     0.118 C 
BRANCH  16  17
ATOM     17  N   UNL A   1      40.869  19.126  25.829  1.00  0.00    -0.352 N 
ATOM     18  C   UNL A   1      42.074  19.775  25.755  1.00  0.00     0.251 C 
ATOM     19  H   UNL A   1      40.879  18.185  25.543  1.00  0.00     0.163 HD
ATOM     20  O   UNL A   1      43.018  19.273  25.178  1.00  0.00    -0.269 OA
BRANCH  18  21
ATOM     21  C   UNL A   1      42.176  21.101  26.382  1.00  0.00     0.039 A 
ATOM     22  C   UNL A   1      42.186  21.190  27.771  1.00  0.00     0.014 A 
ATOM     23  C   UNL A   1      42.316  22.237  25.581  1.00  0.00     0.014 A 
ATOM     24  C   UNL A   1      42.383  22.434  28.358  1.00  0.00     0.010 A 
ATOM     25  C   UNL A   1      42.651  23.442  26.163  1.00  0.00     0.010 A 
ATOM     26  C   UNL A   1      42.648  23.558  27.556  1.00  0.00    -0.014 A 
BRANCH  26  27
ATOM     27  C   UNL A   1      42.888  24.879  28.169  1.00  0.00     0.031 A 
ATOM     28  C   UNL A   1      44.285  25.288  28.539  1.00  0.00     0.074 A 
ATOM     29  C   UNL A   1      41.838  25.686  28.406  1.00  0.00     0.049 A 
ATOM     30  N   UNL A   1      44.704  26.427  29.027  1.00  0.00    -0.248 NA
ATOM     31  C   UNL A   1      45.349  24.281  28.375  1.00  0.00     0.031 C 
ATOM     32  C   UNL A   1      40.433  25.351  28.157  1.00  0.00     0.029 A 
ATOM     33  N   UNL A   1      41.795  26.966  28.888  1.00  0.00    -0.354 N 
ATOM     34  C   UNL A   1      46.068  26.264  29.235  1.00  0.00     0.074 A 
ATOM     35  C   UNL A   1      46.394  24.899  28.900  1.00  0.00     0.031 C 
ATOM     36  C   UNL A   1      39.672  26.423  28.423  1.00  0.00     0.029 A 
ATOM     37  C   UNL A   1      40.531  27.503  28.893  1.00  0.00     0.049 A 
ATOM     38  H   UNL A   1      42.590  27.454  29.201  1.00  0.00     0.167 HD
ATOM     39  C   UNL A   1      46.975  27.184  29.635  1.00  0.00     0.031 A 
ATOM     40  C   UNL A   1      40.120  28.741  29.221  1.00  0.00     0.031 A 
ATOM     41  C   UNL A   1      46.639  28.544  29.949  1.00  0.00     0.049 A 
ATOM     42  C   UNL A   1      41.151  29.752  29.634  1.00  0.00     0.074 A 
ATOM     43  C   UNL A   1      47.481  29.580  30.311  1.00  0.00     0.029 A 
ATOM     44  N   UNL A   1      45.351  29.056  29.937  1.00  0.00    -0.354 N 
ATOM     45  N   UNL A   1      42.451  29.612  29.743  1.00  0.00    -0.248 NA
ATOM     46  C   UNL A   1      40.659  31.098  29.946  1.00  0.00     0.031 C 
ATOM     47  C   UNL A   1      46.692  30.707  30.568  1.00  0.00     0.029 A 
ATOM     48  C   UNL A   1      45.368  30.389  30.304  1.00  0.00     0.049 A 
ATOM     49  H   UNL A   1      44.541  28.545  29.703  1.00  0.00     0.167 HD
ATOM     50  C   UNL A   1      42.936  30.859  30.111  1.00  0.00     0.074 A 
ATOM     51  C   UNL A   1      41.791  31.746  30.177  1.00  0.00     0.031 C 
ATOM     52  C   UNL A   1      44.210  31.242  30.374  1.00  0.00     0.031 A 
BRANCH  39  53
ATOM     53  C   UNL A   1      48.407  26.736  29.746  1.00  0.00    -0.014 A 
ATOM     54  C   UNL A   1      49.295  26.848  28.662  1.00  0.00     0.009 A 
ATOM     55  C   UNL A   1      48.880  26.204  30.956  1.00  0.00     0.009 A 
ATOM     56  C   UNL A   1      50.612  26.400  28.774  1.00  0.00     0.001 A 
ATOM     57  C   UNL A   1      50.207  25.788  31.074  1.00  0.00     0.001 A 
ATOM     58  C   UNL A   1      51.069  25.876  29.982  1.00  0.00     0.000 A 
ENDBRANCH  39  53
BRANCH  40  59
ATOM     59  C   UNL A   1      38.682  29.101  29.123  1.00  0.00    -0.014 A 
ATOM     60  C   UNL A   1      37.871  29.115  30.268  1.00  0.00     0.009 A 
ATOM     61  C   UNL A   1      38.113  29.433  27.884  1.00  0.00     0.009 A 
ATOM     62  C   UNL A   1      36.511  29.421  30.168  1.00  0.00     0.001 A 
ATOM     63  C   UNL A   1      36.760  29.769  27.793  1.00  0.00     0.001 A 
ATOM     64  C   UNL A   1      35.958  29.750  28.932  1.00  0.00     0.000 A 
ENDBRANCH  40  59
BRANCH  52  65
ATOM     65  C   UNL A   1      44.422  32.687  30.724  1.00  0.00    -0.014 A 
ATOM     66  C   UNL A   1      44.690  33.648  29.737  1.00  0.00     0.009 A 
ATOM     67  C   UNL A   1      44.346  33.092  32.066  1.00  0.00     0.009 A 
ATOM     68  C   UNL A   1      44.934  34.975  30.093  1.00  0.00     0.001 A 
ATOM     69  C   UNL A   1      44.552  34.425  32.416  1.00  0.00     0.001 A 
ATOM     70  C   UNL A   1      44.862  35.363  31.432  1.00  0.00     0.000 A 
ENDBRANCH  52  65
ENDBRANCH  26  27
ENDBRANCH  18  21
ENDBRANCH  16  17
ENDBRANCH  15  16
ENDBRANCH  14  15
ENDBRANCH  12  14
ENDBRANCH   5  10
ENDBRANCH   1   5
BRANCH   2  71
ATOM     71  C   UNL A   1      32.396  24.538  24.743  1.00  0.00     0.174 C 
BRANCH  71  72
ATOM     72  N   UNL A   1      31.402  24.945  25.781  1.00  0.00    -0.342 N 
ATOM     73  C   UNL A   1      30.553  26.011  25.954  1.00  0.00     0.242 C 
ATOM     74  H   UNL A   1      31.341  24.294  26.517  1.00  0.00     0.164 HD
ATOM     75  O   UNL A   1      29.561  25.774  26.657  1.00  0.00    -0.273 OA
BRANCH  73  76
ATOM     76  C   UNL A   1      30.765  27.447  25.361  1.00  0.00     0.168 C 
ATOM     77  C   UNL A   1      30.293  27.661  23.925  1.00  0.00     0.041 C 
BRANCH  76  78
ATOM     78  N   UNL A   1      32.169  27.852  25.407  1.00  0.00    -0.343 N 
ATOM     79  C   UNL A   1      32.694  28.992  25.956  1.00  0.00     0.240 C 
ATOM     80  H   UNL A   1      32.813  27.232  24.993  1.00  0.00     0.164 HD
ATOM     81  O   UNL A   1      33.847  29.306  25.656  1.00  0.00    -0.273 OA
BRANCH  79  82
ATOM     82  C   UNL A   1      31.882  29.804  26.998  1.00  0.00     0.219 C 
BRANCH  82  83
ATOM     83  N   UNL A   1      31.659  31.205  26.656  1.00  0.00    -0.312 N 
ATOM     84  C   UNL A   1      32.327  32.289  27.149  1.00  0.00     0.407 C 
ATOM     85  H   UNL A   1      30.951  31.387  25.996  1.00  0.00     0.167 HD
ATOM     86  O   UNL A   1      31.801  33.404  27.098  1.00  0.00    -0.225 OA
BRANCH  84  87
ATOM     87  O   UNL A   1      33.520  32.026  27.740  1.00  0.00    -0.445 OA
BRANCH  87  88
ATOM     88  C   UNL A   1      34.204  33.144  28.338  1.00  0.00     0.270 C 
BRANCH  88  89
ATOM     89  C   UNL A   1      35.515  33.081  29.080  1.00  0.00    -0.011 A 
ATOM     90  C   UNL A   1      35.446  33.043  30.492  1.00  0.00     0.007 A 
ATOM     91  C   UNL A   1      36.747  33.313  28.475  1.00  0.00     0.007 A 
ATOM     92  C   UNL A   1      36.583  33.222  31.275  1.00  0.00     0.000 A 
ATOM     93  C   UNL A   1      37.888  33.492  29.265  1.00  0.00     0.000 A 
ATOM     94  C   UNL A   1      37.807  33.447  30.659  1.00  0.00     0.000 A 
ENDBRANCH  88  89
ENDBRANCH  87  88
ENDBRANCH  84  87
ENDBRANCH  82  83
ENDBRANCH  79  82
ENDBRANCH  76  78
ENDBRANCH  73  76
ENDBRANCH  71  72
BRANCH  71  95
ATOM     95  C   UNL A   1      31.840  24.689  23.329  1.00  0.00     0.015 C 
ATOM     96  C   UNL A   1      32.818  24.521  22.165  1.00  0.00     0.010 C 
ATOM     97  C   UNL A   1      30.620  23.751  23.271  1.00  0.00     0.010 C 
ENDBRANCH  71  95
ENDBRANCH   2  71
TORSDOF 23
ENDMDL
MODEL 2
REMARK VINA RESULT:     -10.2      3.023      9.859
REMARK SMILES CC(C)C[C@H](NC(=O)[C@@H](NC(=O)[C@H](C)NC(=O)CNC(=O)OCc1ccccc1)C(C)C)C(=O)NCCCNC(=O)c1ccc(-c2c3nc(c(-c4ccccc4)c4ccc([nH]4)c(-c4ccccc4)c4nc(c(-c5ccccc5)c5ccc2[nH]5)C=C4)C=C3)cc1
REMARK SMILES IDX 6 1 7 2 8 3 5 5 4 6 2 7 1 8 3 9 33 10 34 11 35 12 36 14
REMARK SMILES IDX 37 15 38 16 39 17 40 18 41 20 42 21 43 22 89 23 44 24 88 25
REMARK SMILES IDX 45 26 46 27 47 28 82 29 48 30 87 31 81 32 83 33 49 34 86 35
REMARK SMILES IDX 80 36 79 37 50 39 72 40 57 41 71 42 58 43 61 44 70 45 84 46
REMARK SMILES IDX 59 47 60 48 69 50 85 51 62 52 51 53 52 54 56 55 53 56 55 57
REMARK SMILES IDX 54 58 73 59 74 60 78 61 75 62 77 63 76 64 63 65 64 66 68 67
REMARK SMILES IDX 65 68 67 69 66 70 9 71 10 72 11 73 12 75 13 76 14 77 15 78
REMARK SMILES IDX 16 79 17 81 18 82 19 83 20 84 21 86 22 87 23 88 24 89 25 90
REMARK SMILES IDX 29 91 26 92 28 93 27 94 30 95 31 96 32 97
REMARK H PARENT 6 4 35 13 39 19 83 38 61 49 10 74 15 80 19 85
REMARK Flexibility Score: inf
ROOT
ATOM      1  N   UNL A   1      32.773  27.800  24.559  1.00  0.00    -0.343 N 
ATOM      2  C   UNL A   1      33.114  26.496  24.527  1.00  0.00     0.243 C 
ATOM      3  O   UNL A   1      34.333  26.295  24.398  1.00  0.00    -0.273 OA
ATOM      4  H   UNL A   1      33.366  28.339  23.988  1.00  0.00     0.164 HD
ENDROOT
BRANCH   1   5
ATOM      5  C   UNL A   1      31.753  28.646  25.217  1.00  0.00     0.171 C 
BRANCH   5   6
ATOM      6  C   UNL A   1      30.366  28.767  24.575  1.00  0.00     0.038 C 
BRANCH   6   7
ATOM      7  C   UNL A   1      30.144  29.785  23.432  1.00  0.00    -0.015 C 
ATOM      8  C   UNL A   1      30.641  29.240  22.101  1.00  0.00     0.007 C 
ATOM      9  C   UNL A   1      28.682  30.205  23.250  1.00  0.00     0.007 C 
ENDBRANCH   6   7
ENDBRANCH   5   6
BRANCH   5  10
ATOM     10  C   UNL A   1      31.776  28.352  26.729  1.00  0.00     0.242 C 
ATOM     11  O   UNL A   1      31.169  27.387  27.200  1.00  0.00    -0.273 OA
ATOM     12  N   UNL A   1      32.491  29.136  27.581  1.00  0.00    -0.354 N 
ATOM     13  H   UNL A   1      32.471  28.869  28.528  1.00  0.00     0.163 HD
BRANCH  12  14
ATOM     14  C   UNL A   1      33.274  30.307  27.273  1.00  0.00     0.117 C 
BRANCH  14  15
ATOM     15  C   UNL A   1      32.478  31.583  27.431  1.00  0.00     0.042 C 
BRANCH  15  16
ATOM     16  C   UNL A   1      33.349  32.793  27.169  1.00  0.00     0.118 C 
BRANCH  16  17
ATOM     17  N   UNL A   1      32.873  33.980  27.877  1.00  0.00    -0.352 N 
ATOM     18  C   UNL A   1      33.326  34.530  29.048  1.00  0.00     0.251 C 
ATOM     19  H   UNL A   1      32.121  34.451  27.453  1.00  0.00     0.163 HD
ATOM     20  O   UNL A   1      32.697  35.405  29.610  1.00  0.00    -0.269 OA
BRANCH  18  21
ATOM     21  C   UNL A   1      34.586  34.016  29.603  1.00  0.00     0.039 A 
ATOM     22  C   UNL A   1      34.537  33.126  30.672  1.00  0.00     0.014 A 
ATOM     23  C   UNL A   1      35.801  34.381  29.017  1.00  0.00     0.014 A 
ATOM     24  C   UNL A   1      35.725  32.567  31.128  1.00  0.00     0.010 A 
ATOM     25  C   UNL A   1      36.956  33.717  29.377  1.00  0.00     0.010 A 
ATOM     26  C   UNL A   1      36.934  32.835  30.460  1.00  0.00    -0.014 A 
BRANCH  26  27
ATOM     27  C   UNL A   1      38.196  32.223  30.917  1.00  0.00     0.031 A 
ATOM     28  C   UNL A   1      38.691  30.961  30.270  1.00  0.00     0.074 A 
ATOM     29  C   UNL A   1      38.871  32.801  31.927  1.00  0.00     0.049 A 
ATOM     30  N   UNL A   1      39.804  30.309  30.489  1.00  0.00    -0.248 NA
ATOM     31  C   UNL A   1      37.811  30.323  29.274  1.00  0.00     0.031 C 
ATOM     32  C   UNL A   1      38.436  33.984  32.675  1.00  0.00     0.029 A 
ATOM     33  N   UNL A   1      40.082  32.483  32.482  1.00  0.00    -0.354 N 
ATOM     34  C   UNL A   1      39.747  29.189  29.669  1.00  0.00     0.074 A 
ATOM     35  C   UNL A   1      38.462  29.203  29.010  1.00  0.00     0.031 C 
ATOM     36  C   UNL A   1      39.397  34.332  33.544  1.00  0.00     0.029 A 
ATOM     37  C   UNL A   1      40.495  33.379  33.437  1.00  0.00     0.049 A 
ATOM     38  H   UNL A   1      40.604  31.690  32.222  1.00  0.00     0.167 HD
ATOM     39  C   UNL A   1      40.698  28.252  29.455  1.00  0.00     0.031 A 
ATOM     40  C   UNL A   1      41.646  33.432  34.129  1.00  0.00     0.031 A 
ATOM     41  C   UNL A   1      41.978  28.260  30.104  1.00  0.00     0.049 A 
ATOM     42  C   UNL A   1      42.698  32.396  33.853  1.00  0.00     0.074 A 
ATOM     43  C   UNL A   1      43.043  27.395  29.926  1.00  0.00     0.029 A 
ATOM     44  N   UNL A   1      42.366  29.186  31.061  1.00  0.00    -0.354 N 
ATOM     45  N   UNL A   1      42.668  31.391  33.010  1.00  0.00    -0.248 NA
ATOM     46  C   UNL A   1      43.950  32.518  34.607  1.00  0.00     0.031 C 
ATOM     47  C   UNL A   1      44.057  27.769  30.815  1.00  0.00     0.029 A 
ATOM     48  C   UNL A   1      43.647  28.904  31.499  1.00  0.00     0.049 A 
ATOM     49  H   UNL A   1      41.811  29.934  31.382  1.00  0.00     0.167 HD
ATOM     50  C   UNL A   1      43.907  30.775  33.113  1.00  0.00     0.074 A 
ATOM     51  C   UNL A   1      44.672  31.540  34.079  1.00  0.00     0.031 C 
ATOM     52  C   UNL A   1      44.377  29.676  32.472  1.00  0.00     0.031 A 
BRANCH  39  53
ATOM     53  C   UNL A   1      40.376  27.153  28.479  1.00  0.00    -0.014 A 
ATOM     54  C   UNL A   1      39.629  26.028  28.866  1.00  0.00     0.009 A 
ATOM     55  C   UNL A   1      40.816  27.248  27.150  1.00  0.00     0.009 A 
ATOM     56  C   UNL A   1      39.365  25.003  27.955  1.00  0.00     0.001 A 
ATOM     57  C   UNL A   1      40.522  26.238  26.233  1.00  0.00     0.001 A 
ATOM     58  C   UNL A   1      39.807  25.112  26.638  1.00  0.00     0.000 A 
ENDBRANCH  39  53
BRANCH  40  59
ATOM     59  C   UNL A   1      41.879  34.527  35.107  1.00  0.00    -0.014 A 
ATOM     60  C   UNL A   1      42.483  35.727  34.703  1.00  0.00     0.009 A 
ATOM     61  C   UNL A   1      41.496  34.378  36.449  1.00  0.00     0.009 A 
ATOM     62  C   UNL A   1      42.733  36.741  35.632  1.00  0.00     0.001 A 
ATOM     63  C   UNL A   1      41.717  35.406  37.368  1.00  0.00     0.001 A 
ATOM     64  C   UNL A   1      42.346  36.582  36.961  1.00  0.00     0.000 A 
ENDBRANCH  40  59
BRANCH  52  65
ATOM     65  C   UNL A   1      45.788  29.266  32.780  1.00  0.00    -0.014 A 
ATOM     66  C   UNL A   1      46.078  28.360  33.812  1.00  0.00     0.009 A 
ATOM     67  C   UNL A   1      46.843  29.795  32.021  1.00  0.00     0.009 A 
ATOM     68  C   UNL A   1      47.401  28.035  34.113  1.00  0.00     0.001 A 
ATOM     69  C   UNL A   1      48.162  29.440  32.299  1.00  0.00     0.001 A 
ATOM     70  C   UNL A   1      48.442  28.573  33.354  1.00  0.00     0.000 A 
ENDBRANCH  52  65
ENDBRANCH  26  27
ENDBRANCH  18  21
ENDBRANCH  16  17
ENDBRANCH  15  16
ENDBRANCH  14  15
ENDBRANCH  12  14
ENDBRANCH   5  10
ENDBRANCH   1   5
BRANCH   2  71
ATOM     71  C   UNL A   1      32.161  25.270  24.407  1.00  0.00     0.174 C 
BRANCH  71  72
ATOM     72  N   UNL A   1      31.500  24.560  25.544  1.00  0.00    -0.342 N 
ATOM     73  C   UNL A   1      31.929  23.764  26.578  1.00  0.00     0.242 C 
ATOM     74  H   UNL A   1      30.525  24.696  25.554  1.00  0.00     0.164 HD
ATOM     75  O   UNL A   1      31.189  23.761  27.571  1.00  0.00    -0.273 OA
BRANCH  73  76
ATOM     76  C   UNL A   1      33.227  22.883  26.568  1.00  0.00     0.168 C 
ATOM     77  C   UNL A   1      33.457  22.009  27.798  1.00  0.00     0.041 C 
BRANCH  76  78
ATOM     78  N   UNL A   1      34.432  23.692  26.395  1.00  0.00    -0.343 N 
ATOM     79  C   UNL A   1      35.511  23.426  25.595  1.00  0.00     0.240 C 
ATOM     80  H   UNL A   1      34.472  24.527  26.916  1.00  0.00     0.164 HD
ATOM     81  O   UNL A   1      36.549  24.061  25.786  1.00  0.00    -0.273 OA
BRANCH  79  82
ATOM     82  C   UNL A   1      35.387  22.417  24.424  1.00  0.00     0.219 C 
BRANCH  82  83
ATOM     83  N   UNL A   1      34.374  22.746  23.427  1.00  0.00    -0.312 N 
ATOM     84  C   UNL A   1      33.284  21.998  23.084  1.00  0.00     0.407 C 
ATOM     85  H   UNL A   1      34.489  23.600  22.950  1.00  0.00     0.167 HD
ATOM     86  O   UNL A   1      32.746  22.173  21.988  1.00  0.00    -0.225 OA
BRANCH  84  87
ATOM     87  O   UNL A   1      32.921  21.045  23.979  1.00  0.00    -0.445 OA
BRANCH  87  88
ATOM     88  C   UNL A   1      32.334  19.844  23.439  1.00  0.00     0.270 C 
BRANCH  88  89
ATOM     89  C   UNL A   1      32.702  18.433  23.823  1.00  0.00    -0.011 A 
ATOM     90  C   UNL A   1      32.453  18.053  25.162  1.00  0.00     0.007 A 
ATOM     91  C   UNL A   1      33.481  17.602  23.024  1.00  0.00     0.007 A 
ATOM     92  C   UNL A   1      32.965  16.867  25.683  1.00  0.00     0.000 A 
ATOM     93  C   UNL A   1      33.994  16.411  23.550  1.00  0.00     0.000 A 
ATOM     94  C   UNL A   1      33.737  16.045  24.873  1.00  0.00     0.000 A 
ENDBRANCH  88  89
ENDBRANCH  87  88
ENDBRANCH  84  87
ENDBRANCH  82  83
ENDBRANCH  79  82
ENDBRANCH  76  78
ENDBRANCH  73  76
ENDBRANCH  71  72
BRANCH  71  95
ATOM     95  C   UNL A   1      31.246  25.373  23.189  1.00  0.00     0.015 C 
ATOM     96  C   UNL A   1      31.907  25.590  21.827  1.00  0.00     0.010 C 
ATOM     97  C   UNL A   1      30.334  24.135  23.260  1.00  0.00     0.010 C 
ENDBRANCH  71  95
ENDBRANCH   2  71
TORSDOF 23
ENDMDL
MODEL 3
REMARK VINA RESULT:      -9.9      1.529      5.663
REMARK SMILES CC(C)C[C@H](NC(=O)[C@@H](NC(=O)[C@H](C)NC(=O)CNC(=O)OCc1ccccc1)C(C)C)C(=O)NCCCNC(=O)c1ccc(-c2c3nc(c(-c4ccccc4)c4ccc([nH]4)c(-c4ccccc4)c4nc(c(-c5ccccc5)c5ccc2[nH]5)C=C4)C=C3)cc1
REMARK SMILES IDX 6 1 7 2 8 3 5 5 4 6 2 7 1 8 3 9 33 10 34 11 35 12 36 14
REMARK SMILES IDX 37 15 38 16 39 17 40 18 41 20 42 21 43 22 89 23 44 24 88 25
REMARK SMILES IDX 45 26 46 27 47 28 82 29 48 30 87 31 81 32 83 33 49 34 86 35
REMARK SMILES IDX 80 36 79 37 50 39 72 40 57 41 71 42 58 43 61 44 70 45 84 46
REMARK SMILES IDX 59 47 60 48 69 50 85 51 62 52 51 53 52 54 56 55 53 56 55 57
REMARK SMILES IDX 54 58 73 59 74 60 78 61 75 62 77 63 76 64 63 65 64 66 68 67
REMARK SMILES IDX 65 68 67 69 66 70 9 71 10 72 11 73 12 75 13 76 14 77 15 78
REMARK SMILES IDX 16 79 17 81 18 82 19 83 20 84 21 86 22 87 23 88 24 89 25 90
REMARK SMILES IDX 29 91 26 92 28 93 27 94 30 95 31 96 32 97
REMARK H PARENT 6 4 35 13 39 19 83 38 61 49 10 74 15 80 19 85
REMARK Flexibility Score: inf
ROOT
ATOM      1  N   UNL A   1      34.831  24.294  24.471  1.00  0.00    -0.343 N 
ATOM      2  C   UNL A   1      33.851  25.206  24.315  1.00  0.00     0.243 C 
ATOM      3  O   UNL A   1      34.258  26.341  24.016  1.00  0.00    -0.273 OA
ATOM      4  H   UNL A   1      35.646  24.706  24.839  1.00  0.00     0.164 HD
ENDROOT
BRANCH   1   5
ATOM      5  C   UNL A   1      35.022  22.846  24.242  1.00  0.00     0.171 C 
BRANCH   5   6
ATOM      6  C   UNL A   1      33.845  22.018  23.712  1.00  0.00     0.038 C 
BRANCH   6   7
ATOM      7  C   UNL A   1      33.105  21.052  24.666  1.00  0.00    -0.015 C 
ATOM      8  C   UNL A   1      33.856  19.738  24.818  1.00  0.00     0.007 C 
ATOM      9  C   UNL A   1      32.871  21.624  26.068  1.00  0.00     0.007 C 
ENDBRANCH   6   7
ENDBRANCH   5   6
BRANCH   5  10
ATOM     10  C   UNL A   1      36.372  22.637  23.529  1.00  0.00     0.242 C 
ATOM     11  O   UNL A   1      36.656  23.267  22.508  1.00  0.00    -0.273 OA
ATOM     12  N   UNL A   1      37.295  21.770  24.025  1.00  0.00    -0.354 N 
ATOM     13  H   UNL A   1      38.140  21.710  23.523  1.00  0.00     0.163 HD
BRANCH  12  14
ATOM     14  C   UNL A   1      37.196  20.929  25.192  1.00  0.00     0.117 C 
BRANCH  14  15
ATOM     15  C   UNL A   1      38.220  19.817  25.181  1.00  0.00     0.042 C 
BRANCH  15  16
ATOM     16  C   UNL A   1      39.395  20.161  26.071  1.00  0.00     0.118 C 
BRANCH  16  17
ATOM     17  N   UNL A   1      40.404  19.104  26.088  1.00  0.00    -0.352 N 
ATOM     18  C   UNL A   1      41.770  19.210  26.113  1.00  0.00     0.251 C 
ATOM     19  H   UNL A   1      40.052  18.186  26.082  1.00  0.00     0.163 HD
ATOM     20  O   UNL A   1      42.474  18.238  25.925  1.00  0.00    -0.269 OA
BRANCH  18  21
ATOM     21  C   UNL A   1      42.349  20.539  26.359  1.00  0.00     0.039 A 
ATOM     22  C   UNL A   1      42.657  21.351  25.272  1.00  0.00     0.014 A 
ATOM     23  C   UNL A   1      42.527  20.985  27.672  1.00  0.00     0.014 A 
ATOM     24  C   UNL A   1      43.110  22.642  25.512  1.00  0.00     0.010 A 
ATOM     25  C   UNL A   1      42.839  22.309  27.904  1.00  0.00     0.010 A 
ATOM     26  C   UNL A   1      43.171  23.136  26.828  1.00  0.00    -0.014 A 
BRANCH  26  27
ATOM     27  C   UNL A   1      43.622  24.516  27.092  1.00  0.00     0.031 A 
ATOM     28  C   UNL A   1      42.640  25.541  27.585  1.00  0.00     0.074 A 
ATOM     29  C   UNL A   1      44.908  24.835  26.863  1.00  0.00     0.049 A 
ATOM     30  N   UNL A   1      42.857  26.783  27.933  1.00  0.00    -0.248 NA
ATOM     31  C   UNL A   1      41.225  25.136  27.667  1.00  0.00     0.031 C 
ATOM     32  C   UNL A   1      45.924  23.934  26.310  1.00  0.00     0.029 A 
ATOM     33  N   UNL A   1      45.587  26.001  27.092  1.00  0.00    -0.354 N 
ATOM     34  C   UNL A   1      41.610  27.301  28.260  1.00  0.00     0.074 A 
ATOM     35  C   UNL A   1      40.633  26.272  27.995  1.00  0.00     0.031 C 
ATOM     36  C   UNL A   1      47.111  24.559  26.307  1.00  0.00     0.029 A 
ATOM     37  C   UNL A   1      46.931  25.910  26.823  1.00  0.00     0.049 A 
ATOM     38  H   UNL A   1      45.156  26.824  27.417  1.00  0.00     0.167 HD
ATOM     39  C   UNL A   1      41.310  28.516  28.774  1.00  0.00     0.031 A 
ATOM     40  C   UNL A   1      47.909  26.816  26.997  1.00  0.00     0.031 A 
ATOM     41  C   UNL A   1      42.294  29.525  29.049  1.00  0.00     0.049 A 
ATOM     42  C   UNL A   1      47.555  28.148  27.595  1.00  0.00     0.074 A 
ATOM     43  C   UNL A   1      42.117  30.771  29.619  1.00  0.00     0.029 A 
ATOM     44  N   UNL A   1      43.647  29.397  28.770  1.00  0.00    -0.354 N 
ATOM     45  N   UNL A   1      46.384  28.596  27.984  1.00  0.00    -0.248 NA
ATOM     46  C   UNL A   1      48.662  29.088  27.801  1.00  0.00     0.031 C 
ATOM     47  C   UNL A   1      43.358  31.419  29.638  1.00  0.00     0.029 A 
ATOM     48  C   UNL A   1      44.316  30.550  29.138  1.00  0.00     0.049 A 
ATOM     49  H   UNL A   1      44.069  28.603  28.368  1.00  0.00     0.167 HD
ATOM     50  C   UNL A   1      46.618  29.861  28.504  1.00  0.00     0.074 A 
ATOM     51  C   UNL A   1      48.046  30.093  28.406  1.00  0.00     0.031 C 
ATOM     52  C   UNL A   1      45.736  30.756  29.016  1.00  0.00     0.031 A 
BRANCH  39  53
ATOM     53  C   UNL A   1      39.863  28.803  29.066  1.00  0.00    -0.014 A 
ATOM     54  C   UNL A   1      39.037  29.431  28.118  1.00  0.00     0.009 A 
ATOM     55  C   UNL A   1      39.313  28.431  30.302  1.00  0.00     0.009 A 
ATOM     56  C   UNL A   1      37.703  29.717  28.417  1.00  0.00     0.001 A 
ATOM     57  C   UNL A   1      37.970  28.688  30.585  1.00  0.00     0.001 A 
ATOM     58  C   UNL A   1      37.170  29.340  29.648  1.00  0.00     0.000 A 
ENDBRANCH  39  53
BRANCH  40  59
ATOM     59  C   UNL A   1      49.313  26.475  26.649  1.00  0.00    -0.014 A 
ATOM     60  C   UNL A   1      49.819  26.755  25.370  1.00  0.00     0.009 A 
ATOM     61  C   UNL A   1      50.155  25.870  27.594  1.00  0.00     0.009 A 
ATOM     62  C   UNL A   1      51.129  26.402  25.035  1.00  0.00     0.001 A 
ATOM     63  C   UNL A   1      51.474  25.548  27.266  1.00  0.00     0.001 A 
ATOM     64  C   UNL A   1      51.955  25.803  25.983  1.00  0.00     0.000 A 
ENDBRANCH  40  59
BRANCH  52  65
ATOM     65  C   UNL A   1      46.307  32.046  29.531  1.00  0.00    -0.014 A 
ATOM     66  C   UNL A   1      46.441  33.170  28.702  1.00  0.00     0.009 A 
ATOM     67  C   UNL A   1      46.712  32.136  30.872  1.00  0.00     0.009 A 
ATOM     68  C   UNL A   1      47.022  34.340  29.190  1.00  0.00     0.001 A 
ATOM     69  C   UNL A   1      47.258  33.319  31.367  1.00  0.00     0.001 A 
ATOM     70  C   UNL A   1      47.427  34.415  30.523  1.00  0.00     0.000 A 
ENDBRANCH  52  65
ENDBRANCH  26  27
ENDBRANCH  18  21
ENDBRANCH  16  17
ENDBRANCH  15  16
ENDBRANCH  14  15
ENDBRANCH  12  14
ENDBRANCH   5  10
ENDBRANCH   1   5
BRANCH   2  71
ATOM     71  C   UNL A   1      32.344  25.049  24.680  1.00  0.00     0.174 C 
BRANCH  71  72
ATOM     72  N   UNL A   1      31.665  25.642  25.872  1.00  0.00    -0.342 N 
ATOM     73  C   UNL A   1      31.218  26.894  26.216  1.00  0.00     0.242 C 
ATOM     74  H   UNL A   1      31.500  24.976  26.578  1.00  0.00     0.164 HD
ATOM     75  O   UNL A   1      30.299  26.905  27.047  1.00  0.00    -0.273 OA
BRANCH  73  76
ATOM     76  C   UNL A   1      31.787  28.247  25.664  1.00  0.00     0.168 C 
ATOM     77  C   UNL A   1      31.529  28.533  24.186  1.00  0.00     0.041 C 
BRANCH  76  78
ATOM     78  N   UNL A   1      33.230  28.353  25.868  1.00  0.00    -0.343 N 
ATOM     79  C   UNL A   1      33.908  29.323  26.557  1.00  0.00     0.240 C 
ATOM     80  H   UNL A   1      33.779  27.644  25.461  1.00  0.00     0.164 HD
ATOM     81  O   UNL A   1      35.125  29.415  26.388  1.00  0.00    -0.273 OA
BRANCH  79  82
ATOM     82  C   UNL A   1      33.168  30.213  27.589  1.00  0.00     0.219 C 
BRANCH  82  83
ATOM     83  N   UNL A   1      33.287  31.650  27.368  1.00  0.00    -0.312 N 
ATOM     84  C   UNL A   1      33.931  32.555  28.163  1.00  0.00     0.407 C 
ATOM     85  H   UNL A   1      32.857  32.005  26.556  1.00  0.00     0.167 HD
ATOM     86  O   UNL A   1      33.630  33.749  28.093  1.00  0.00    -0.225 OA
BRANCH  84  87
ATOM     87  O   UNL A   1      34.824  32.034  29.041  1.00  0.00    -0.445 OA
BRANCH  87  88
ATOM     88  C   UNL A   1      35.379  32.943  30.011  1.00  0.00     0.270 C 
BRANCH  88  89
ATOM     89  C   UNL A   1      36.728  32.813  30.671  1.00  0.00    -0.011 A 
ATOM     90  C   UNL A   1      37.860  33.067  29.862  1.00  0.00     0.007 A 
ATOM     91  C   UNL A   1      36.916  32.225  31.918  1.00  0.00     0.007 A 
ATOM     92  C   UNL A   1      39.144  32.750  30.296  1.00  0.00     0.000 A 
ATOM     93  C   UNL A   1      38.207  31.907  32.353  1.00  0.00     0.000 A 
ATOM     94  C   UNL A   1      39.317  32.168  31.546  1.00  0.00     0.000 A 
ENDBRANCH  88  89
ENDBRANCH  87  88
ENDBRANCH  84  87
ENDBRANCH  82  83
ENDBRANCH  79  82
ENDBRANCH  76  78
ENDBRANCH  73  76
ENDBRANCH  71  72
BRANCH  71  95
ATOM     95  C   UNL A   1      31.450  25.074  23.442  1.00  0.00     0.015 C 
ATOM     96  C   UNL A   1      32.125  25.309  22.090  1.00  0.00     0.010 C 
ATOM     97  C   UNL A   1      30.617  23.782  23.517  1.00  0.00     0.010 C 
ENDBRANCH  71  95
ENDBRANCH   2  71
TORSDOF 23
ENDMDL
