MODEL 1
REMARK VINA RESULT:     -12.1      0.000      0.000
REMARK SMILES COc1ccccc1[C@@H]1C[N@@H+](Cc2cn3cc(C)ccc3n2)C[C@H]1C(=O)NCCCNC(=O)c1ccc(-c2c3nc(c(-c4ccccc4)c4ccc([nH]4)c(-c4ccccc4)c4nc(c(-c5ccccc5)c5ccc2[nH]5)C=C4)C=C3)cc1
REMARK SMILES IDX 29 1 28 2 27 3 25 4 26 5 24 7 9 8 10 9 11 10 23 11 8 13 3 14
REMARK SMILES IDX 4 15 5 16 7 17 6 18 2 19 1 20 12 21 13 22 14 23 22 24 15 25
REMARK SMILES IDX 21 26 16 27 20 28 17 29 19 30 18 31 30 32 31 33 32 34 33 36
REMARK SMILES IDX 34 37 35 38 81 39 36 40 80 41 37 42 38 43 39 44 74 45 40 46
REMARK SMILES IDX 79 47 73 48 75 49 41 50 78 51 72 52 71 53 42 55 64 56 49 57
REMARK SMILES IDX 63 58 50 59 53 60 62 61 76 62 51 63 52 64 61 66 77 67 54 68
REMARK SMILES IDX 43 69 44 70 48 71 45 72 47 73 46 74 65 75 66 76 70 77 67 78
REMARK SMILES IDX 69 79 68 80 55 81 56 82 60 83 57 84 59 85 58 86
REMARK H PARENT 27 6 11 12 31 35 75 54 53 65
REMARK Flexibility Score: inf
ROOT
ATOM      1  C   UNL A   1      45.312  23.705  28.524  1.00  0.00     0.042 C 
ENDROOT
BRANCH   1   2
ATOM      2  C   UNL A   1      44.879  24.288  27.158  1.00  0.00     0.117 C 
BRANCH   2   3
ATOM      3  N   UNL A   1      44.012  23.507  26.261  1.00  0.00    -0.356 N 
ATOM      4  C   UNL A   1      42.691  23.177  26.146  1.00  0.00     0.229 C 
ATOM      5  O   UNL A   1      42.442  22.498  25.132  1.00  0.00    -0.275 OA
ATOM      6  H   UNL A   1      44.537  23.105  25.531  1.00  0.00     0.163 HD
BRANCH   4   7
ATOM      7  C   UNL A   1      41.492  23.554  27.054  1.00  0.00     0.146 C 
ATOM      8  C   UNL A   1      40.474  24.581  26.453  1.00  0.00     0.096 C 
ATOM      9  C   UNL A   1      39.085  24.081  26.884  1.00  0.00     0.272 C 
ATOM     10  N   UNL A   1      39.226  22.626  27.030  1.00  0.00    -0.329 N 
ATOM     11  C   UNL A   1      40.578  22.452  27.582  1.00  0.00     0.276 C 
ATOM     12  H   UNL A   1      38.527  22.232  27.660  1.00  0.00     0.348 HD
BRANCH   8  13
ATOM     13  C   UNL A   1      40.622  26.094  26.414  1.00  0.00     0.004 A 
ATOM     14  C   UNL A   1      41.574  26.859  25.733  1.00  0.00     0.122 A 
ATOM     15  C   UNL A   1      41.650  28.250  25.955  1.00  0.00     0.047 A 
ATOM     16  C   UNL A   1      40.825  28.898  26.877  1.00  0.00     0.004 A 
ATOM     17  C   UNL A   1      39.802  26.791  27.353  1.00  0.00     0.008 A 
ATOM     18  C   UNL A   1      39.907  28.159  27.595  1.00  0.00     0.001 A 
BRANCH  14  19
ATOM     19  O   UNL A   1      42.622  26.387  24.991  1.00  0.00    -0.496 OA
ATOM     20  C   UNL A   1      43.837  27.109  25.092  1.00  0.00     0.278 C 
ENDBRANCH  14  19
ENDBRANCH   8  13
BRANCH  10  21
ATOM     21  C   UNL A   1      38.888  21.830  25.820  1.00  0.00     0.321 C 
BRANCH  21  22
ATOM     22  C   UNL A   1      37.479  21.938  25.287  1.00  0.00     0.114 A 
ATOM     23  C   UNL A   1      36.886  22.780  24.360  1.00  0.00     0.122 A 
ATOM     24  N   UNL A   1      36.520  21.102  25.782  1.00  0.00    -0.228 NA
ATOM     25  N   UNL A   1      35.575  22.354  24.232  1.00  0.00    -0.306 N 
ATOM     26  C   UNL A   1      35.440  21.263  25.065  1.00  0.00     0.137 A 
ATOM     27  C   UNL A   1      34.512  22.834  23.468  1.00  0.00     0.096 A 
ATOM     28  C   UNL A   1      34.236  20.514  25.028  1.00  0.00     0.048 A 
ATOM     29  C   UNL A   1      33.326  22.187  23.500  1.00  0.00    -0.034 A 
ATOM     30  C   UNL A   1      33.215  20.952  24.275  1.00  0.00     0.009 A 
ATOM     31  C   UNL A   1      32.111  22.647  22.769  1.00  0.00     0.046 C 
ENDBRANCH  21  22
ENDBRANCH  10  21
ENDBRANCH   4   7
ENDBRANCH   2   3
ENDBRANCH   1   2
BRANCH   1  32
ATOM     32  C   UNL A   1      44.396  24.050  29.673  1.00  0.00     0.118 C 
BRANCH  32  33
ATOM     33  N   UNL A   1      45.089  24.426  30.901  1.00  0.00    -0.352 N 
ATOM     34  C   UNL A   1      44.962  25.531  31.724  1.00  0.00     0.251 C 
ATOM     35  H   UNL A   1      45.768  23.777  31.197  1.00  0.00     0.163 HD
ATOM     36  O   UNL A   1      45.734  25.659  32.659  1.00  0.00    -0.269 OA
BRANCH  34  37
ATOM     37  C   UNL A   1      43.899  26.551  31.508  1.00  0.00     0.039 A 
ATOM     38  C   UNL A   1      43.353  26.747  30.228  1.00  0.00     0.014 A 
ATOM     39  C   UNL A   1      43.456  27.360  32.544  1.00  0.00     0.014 A 
ATOM     40  C   UNL A   1      42.489  27.823  30.008  1.00  0.00     0.010 A 
ATOM     41  C   UNL A   1      42.440  28.245  32.380  1.00  0.00     0.010 A 
ATOM     42  C   UNL A   1      42.103  28.608  31.098  1.00  0.00    -0.014 A 
BRANCH  42  43
ATOM     43  C   UNL A   1      41.263  29.786  31.016  1.00  0.00     0.031 A 
ATOM     44  C   UNL A   1      42.012  30.989  30.612  1.00  0.00     0.074 A 
ATOM     45  C   UNL A   1      39.912  29.708  30.950  1.00  0.00     0.049 A 
ATOM     46  N   UNL A   1      42.328  32.009  31.332  1.00  0.00    -0.248 NA
ATOM     47  C   UNL A   1      42.660  30.960  29.292  1.00  0.00     0.031 C 
ATOM     48  C   UNL A   1      39.046  28.516  30.946  1.00  0.00     0.029 A 
ATOM     49  N   UNL A   1      39.019  30.709  30.739  1.00  0.00    -0.354 N 
ATOM     50  C   UNL A   1      43.015  32.861  30.474  1.00  0.00     0.074 A 
ATOM     51  C   UNL A   1      43.404  32.064  29.341  1.00  0.00     0.031 C 
ATOM     52  C   UNL A   1      37.799  28.855  30.540  1.00  0.00     0.029 A 
ATOM     53  C   UNL A   1      37.731  30.297  30.409  1.00  0.00     0.049 A 
ATOM     54  H   UNL A   1      39.265  31.660  30.816  1.00  0.00     0.167 HD
ATOM     55  C   UNL A   1      42.924  34.212  30.613  1.00  0.00     0.031 A 
ATOM     56  C   UNL A   1      36.698  31.099  30.037  1.00  0.00     0.031 A 
ATOM     57  C   UNL A   1      42.352  34.566  31.890  1.00  0.00     0.049 A 
ATOM     58  C   UNL A   1      37.045  32.473  30.473  1.00  0.00     0.074 A 
ATOM     59  C   UNL A   1      42.688  34.307  33.204  1.00  0.00     0.029 A 
ATOM     60  N   UNL A   1      41.015  34.895  31.900  1.00  0.00    -0.354 N 
ATOM     61  N   UNL A   1      37.155  32.819  31.725  1.00  0.00    -0.248 NA
ATOM     62  C   UNL A   1      37.738  33.330  29.524  1.00  0.00     0.031 C 
ATOM     63  C   UNL A   1      41.448  34.005  33.842  1.00  0.00     0.029 A 
ATOM     64  C   UNL A   1      40.419  34.195  32.917  1.00  0.00     0.049 A 
ATOM     65  H   UNL A   1      40.567  35.520  31.286  1.00  0.00     0.167 HD
ATOM     66  C   UNL A   1      38.272  33.642  31.765  1.00  0.00     0.074 A 
ATOM     67  C   UNL A   1      38.528  34.000  30.369  1.00  0.00     0.031 C 
ATOM     68  C   UNL A   1      39.053  33.713  32.883  1.00  0.00     0.031 A 
BRANCH  55  69
ATOM     69  C   UNL A   1      42.913  35.164  29.441  1.00  0.00    -0.014 A 
ATOM     70  C   UNL A   1      41.718  35.304  28.715  1.00  0.00     0.009 A 
ATOM     71  C   UNL A   1      44.073  35.706  28.854  1.00  0.00     0.009 A 
ATOM     72  C   UNL A   1      41.706  35.868  27.435  1.00  0.00     0.001 A 
ATOM     73  C   UNL A   1      44.058  36.308  27.594  1.00  0.00     0.001 A 
ATOM     74  C   UNL A   1      42.878  36.359  26.869  1.00  0.00     0.000 A 
ENDBRANCH  55  69
BRANCH  56  75
ATOM     75  C   UNL A   1      35.560  30.837  29.126  1.00  0.00    -0.014 A 
ATOM     76  C   UNL A   1      34.604  31.833  28.858  1.00  0.00     0.009 A 
ATOM     77  C   UNL A   1      35.570  29.705  28.291  1.00  0.00     0.009 A 
ATOM     78  C   UNL A   1      33.725  31.721  27.770  1.00  0.00     0.001 A 
ATOM     79  C   UNL A   1      34.692  29.594  27.205  1.00  0.00     0.001 A 
ATOM     80  C   UNL A   1      33.780  30.609  26.934  1.00  0.00     0.000 A 
ENDBRANCH  56  75
BRANCH  68  81
ATOM     81  C   UNL A   1      38.563  33.021  34.137  1.00  0.00    -0.014 A 
ATOM     82  C   UNL A   1      38.797  31.661  34.414  1.00  0.00     0.009 A 
ATOM     83  C   UNL A   1      38.006  33.813  35.150  1.00  0.00     0.009 A 
ATOM     84  C   UNL A   1      38.470  31.113  35.661  1.00  0.00     0.001 A 
ATOM     85  C   UNL A   1      37.699  33.272  36.400  1.00  0.00     0.001 A 
ATOM     86  C   UNL A   1      37.929  31.922  36.656  1.00  0.00     0.000 A 
ENDBRANCH  68  81
ENDBRANCH  42  43
ENDBRANCH  34  37
ENDBRANCH  32  33
ENDBRANCH   1  32
TORSDOF 14
ENDMDL
MODEL 2
REMARK VINA RESULT:     -11.7      2.844      5.625
REMARK SMILES COc1ccccc1[C@@H]1C[N@@H+](Cc2cn3cc(C)ccc3n2)C[C@H]1C(=O)NCCCNC(=O)c1ccc(-c2c3nc(c(-c4ccccc4)c4ccc([nH]4)c(-c4ccccc4)c4nc(c(-c5ccccc5)c5ccc2[nH]5)C=C4)C=C3)cc1
REMARK SMILES IDX 29 1 28 2 27 3 25 4 26 5 24 7 9 8 10 9 11 10 23 11 8 13 3 14
REMARK SMILES IDX 4 15 5 16 7 17 6 18 2 19 1 20 12 21 13 22 14 23 22 24 15 25
REMARK SMILES IDX 21 26 16 27 20 28 17 29 19 30 18 31 30 32 31 33 32 34 33 36
REMARK SMILES IDX 34 37 35 38 81 39 36 40 80 41 37 42 38 43 39 44 74 45 40 46
REMARK SMILES IDX 79 47 73 48 75 49 41 50 78 51 72 52 71 53 42 55 64 56 49 57
REMARK SMILES IDX 63 58 50 59 53 60 62 61 76 62 51 63 52 64 61 66 77 67 54 68
REMARK SMILES IDX 43 69 44 70 48 71 45 72 47 73 46 74 65 75 66 76 70 77 67 78
REMARK SMILES IDX 69 79 68 80 55 81 56 82 60 83 57 84 59 85 58 86
REMARK H PARENT 27 6 11 12 31 35 75 54 53 65
REMARK Flexibility Score: inf
ROOT
ATOM      1  C   UNL A   1      38.247  21.231  25.185  1.00  0.00     0.042 C 
ENDROOT
BRANCH   1   2
ATOM      2  C   UNL A   1      36.734  21.550  25.192  1.00  0.00     0.117 C 
BRANCH   2   3
ATOM      3  N   UNL A   1      36.129  22.292  24.073  1.00  0.00    -0.356 N 
ATOM      4  C   UNL A   1      35.185  23.261  23.880  1.00  0.00     0.229 C 
ATOM      5  O   UNL A   1      35.068  23.600  22.687  1.00  0.00    -0.275 OA
ATOM      6  H   UNL A   1      36.518  22.007  23.215  1.00  0.00     0.163 HD
BRANCH   4   7
ATOM      7  C   UNL A   1      34.297  24.001  24.914  1.00  0.00     0.146 C 
ATOM      8  C   UNL A   1      33.170  24.911  24.320  1.00  0.00     0.096 C 
ATOM      9  C   UNL A   1      31.949  24.699  25.233  1.00  0.00     0.272 C 
ATOM     10  N   UNL A   1      32.100  23.340  25.770  1.00  0.00    -0.329 N 
ATOM     11  C   UNL A   1      33.550  23.194  25.972  1.00  0.00     0.276 C 
ATOM     12  H   UNL A   1      31.600  23.215  26.650  1.00  0.00     0.348 HD
BRANCH   8  13
ATOM     13  C   UNL A   1      33.327  26.327  23.788  1.00  0.00     0.004 A 
ATOM     14  C   UNL A   1      33.494  26.746  22.464  1.00  0.00     0.122 A 
ATOM     15  C   UNL A   1      33.792  28.097  22.185  1.00  0.00     0.047 A 
ATOM     16  C   UNL A   1      33.970  29.040  23.200  1.00  0.00     0.004 A 
ATOM     17  C   UNL A   1      33.525  27.318  24.797  1.00  0.00     0.008 A 
ATOM     18  C   UNL A   1      33.855  28.642  24.517  1.00  0.00     0.001 A 
BRANCH  14  19
ATOM     19  O   UNL A   1      33.608  25.944  21.362  1.00  0.00    -0.496 OA
ATOM     20  C   UNL A   1      32.397  25.578  20.725  1.00  0.00     0.278 C 
ENDBRANCH  14  19
ENDBRANCH   8  13
BRANCH  10  21
ATOM     21  C   UNL A   1      31.421  22.270  24.991  1.00  0.00     0.321 C 
BRANCH  21  22
ATOM     22  C   UNL A   1      32.122  20.937  24.881  1.00  0.00     0.114 A 
ATOM     23  C   UNL A   1      32.722  20.110  25.817  1.00  0.00     0.122 A 
ATOM     24  N   UNL A   1      32.274  20.370  23.648  1.00  0.00    -0.228 NA
ATOM     25  N   UNL A   1      33.137  18.982  25.128  1.00  0.00    -0.306 N 
ATOM     26  C   UNL A   1      32.751  19.165  23.817  1.00  0.00     0.137 A 
ATOM     27  C   UNL A   1      33.815  17.837  25.543  1.00  0.00     0.096 A 
ATOM     28  C   UNL A   1      32.906  18.097  22.898  1.00  0.00     0.048 A 
ATOM     29  C   UNL A   1      34.059  16.850  24.652  1.00  0.00    -0.034 A 
ATOM     30  C   UNL A   1      33.533  16.978  23.294  1.00  0.00     0.009 A 
ATOM     31  C   UNL A   1      34.824  15.611  24.976  1.00  0.00     0.046 C 
ENDBRANCH  21  22
ENDBRANCH  10  21
ENDBRANCH   4   7
ENDBRANCH   2   3
ENDBRANCH   1   2
BRANCH   1  32
ATOM     32  C   UNL A   1      39.064  22.041  26.163  1.00  0.00     0.118 C 
BRANCH  32  33
ATOM     33  N   UNL A   1      40.506  21.949  25.962  1.00  0.00    -0.352 N 
ATOM     34  C   UNL A   1      41.530  22.834  26.249  1.00  0.00     0.251 C 
ATOM     35  H   UNL A   1      40.804  21.107  25.547  1.00  0.00     0.163 HD
ATOM     36  O   UNL A   1      42.664  22.555  25.895  1.00  0.00    -0.269 OA
BRANCH  34  37
ATOM     37  C   UNL A   1      41.287  24.099  26.994  1.00  0.00     0.039 A 
ATOM     38  C   UNL A   1      40.191  24.916  26.665  1.00  0.00     0.014 A 
ATOM     39  C   UNL A   1      42.152  24.528  27.990  1.00  0.00     0.014 A 
ATOM     40  C   UNL A   1      40.078  26.180  27.250  1.00  0.00     0.010 A 
ATOM     41  C   UNL A   1      41.906  25.642  28.725  1.00  0.00     0.010 A 
ATOM     42  C   UNL A   1      41.000  26.551  28.232  1.00  0.00    -0.014 A 
BRANCH  42  43
ATOM     43  C   UNL A   1      41.044  27.845  28.884  1.00  0.00     0.031 A 
ATOM     44  C   UNL A   1      42.036  28.751  28.276  1.00  0.00     0.074 A 
ATOM     45  C   UNL A   1      40.048  28.284  29.689  1.00  0.00     0.049 A 
ATOM     46  N   UNL A   1      43.160  29.144  28.765  1.00  0.00    -0.248 NA
ATOM     47  C   UNL A   1      41.838  29.105  26.862  1.00  0.00     0.031 C 
ATOM     48  C   UNL A   1      38.791  27.614  30.066  1.00  0.00     0.029 A 
ATOM     49  N   UNL A   1      39.897  29.511  30.251  1.00  0.00    -0.354 N 
ATOM     50  C   UNL A   1      43.698  29.993  27.805  1.00  0.00     0.074 A 
ATOM     51  C   UNL A   1      42.984  29.725  26.585  1.00  0.00     0.031 C 
ATOM     52  C   UNL A   1      37.937  28.514  30.611  1.00  0.00     0.029 A 
ATOM     53  C   UNL A   1      38.632  29.777  30.768  1.00  0.00     0.049 A 
ATOM     54  H   UNL A   1      40.631  30.166  30.291  1.00  0.00     0.167 HD
ATOM     55  C   UNL A   1      44.455  31.065  28.166  1.00  0.00     0.031 A 
ATOM     56  C   UNL A   1      38.198  30.963  31.270  1.00  0.00     0.031 A 
ATOM     57  C   UNL A   1      44.865  30.969  29.547  1.00  0.00     0.049 A 
ATOM     58  C   UNL A   1      39.406  31.764  31.577  1.00  0.00     0.074 A 
ATOM     59  C   UNL A   1      45.572  30.038  30.282  1.00  0.00     0.029 A 
ATOM     60  N   UNL A   1      44.141  31.701  30.461  1.00  0.00    -0.354 N 
ATOM     61  N   UNL A   1      40.266  31.435  32.499  1.00  0.00    -0.248 NA
ATOM     62  C   UNL A   1      39.908  32.658  30.544  1.00  0.00     0.031 C 
ATOM     63  C   UNL A   1      44.859  29.933  31.513  1.00  0.00     0.029 A 
ATOM     64  C   UNL A   1      43.824  30.872  31.506  1.00  0.00     0.049 A 
ATOM     65  H   UNL A   1      43.893  32.650  30.378  1.00  0.00     0.167 HD
ATOM     66  C   UNL A   1      41.506  31.698  31.935  1.00  0.00     0.074 A 
ATOM     67  C   UNL A   1      41.221  32.541  30.772  1.00  0.00     0.031 C 
ATOM     68  C   UNL A   1      42.608  30.971  32.285  1.00  0.00     0.031 A 
BRANCH  55  69
ATOM     69  C   UNL A   1      44.423  32.384  27.431  1.00  0.00    -0.014 A 
ATOM     70  C   UNL A   1      43.768  33.466  28.044  1.00  0.00     0.009 A 
ATOM     71  C   UNL A   1      44.754  32.537  26.071  1.00  0.00     0.009 A 
ATOM     72  C   UNL A   1      43.383  34.593  27.310  1.00  0.00     0.001 A 
ATOM     73  C   UNL A   1      44.409  33.678  25.344  1.00  0.00     0.001 A 
ATOM     74  C   UNL A   1      43.693  34.693  25.957  1.00  0.00     0.000 A 
ENDBRANCH  55  69
BRANCH  56  75
ATOM     75  C   UNL A   1      36.844  31.564  31.275  1.00  0.00    -0.014 A 
ATOM     76  C   UNL A   1      36.132  31.731  32.477  1.00  0.00     0.009 A 
ATOM     77  C   UNL A   1      36.367  32.243  30.139  1.00  0.00     0.009 A 
ATOM     78  C   UNL A   1      35.016  32.578  32.548  1.00  0.00     0.001 A 
ATOM     79  C   UNL A   1      35.253  33.088  30.210  1.00  0.00     0.001 A 
ATOM     80  C   UNL A   1      34.587  33.269  31.418  1.00  0.00     0.000 A 
ENDBRANCH  56  75
BRANCH  68  81
ATOM     81  C   UNL A   1      42.480  30.003  33.442  1.00  0.00    -0.014 A 
ATOM     82  C   UNL A   1      42.038  28.675  33.295  1.00  0.00     0.009 A 
ATOM     83  C   UNL A   1      42.996  30.392  34.685  1.00  0.00     0.009 A 
ATOM     84  C   UNL A   1      42.099  27.773  34.366  1.00  0.00     0.001 A 
ATOM     85  C   UNL A   1      43.076  29.489  35.747  1.00  0.00     0.001 A 
ATOM     86  C   UNL A   1      42.626  28.179  35.588  1.00  0.00     0.000 A 
ENDBRANCH  68  81
ENDBRANCH  42  43
ENDBRANCH  34  37
ENDBRANCH  32  33
ENDBRANCH   1  32
TORSDOF 14
ENDMDL
MODEL 3
REMARK VINA RESULT:     -11.7      3.555      8.945
REMARK SMILES COc1ccccc1[C@@H]1C[N@@H+](Cc2cn3cc(C)ccc3n2)C[C@H]1C(=O)NCCCNC(=O)c1ccc(-c2c3nc(c(-c4ccccc4)c4ccc([nH]4)c(-c4ccccc4)c4nc(c(-c5ccccc5)c5ccc2[nH]5)C=C4)C=C3)cc1
REMARK SMILES IDX 29 1 28 2 27 3 25 4 26 5 24 7 9 8 10 9 11 10 23 11 8 13 3 14
REMARK SMILES IDX 4 15 5 16 7 17 6 18 2 19 1 20 12 21 13 22 14 23 22 24 15 25
REMARK SMILES IDX 21 26 16 27 20 28 17 29 19 30 18 31 30 32 31 33 32 34 33 36
REMARK SMILES IDX 34 37 35 38 81 39 36 40 80 41 37 42 38 43 39 44 74 45 40 46
REMARK SMILES IDX 79 47 73 48 75 49 41 50 78 51 72 52 71 53 42 55 64 56 49 57
REMARK SMILES IDX 63 58 50 59 53 60 62 61 76 62 51 63 52 64 61 66 77 67 54 68
REMARK SMILES IDX 43 69 44 70 48 71 45 72 47 73 46 74 65 75 66 76 70 77 67 78
REMARK SMILES IDX 69 79 68 80 55 81 56 82 60 83 57 84 59 85 58 86
REMARK H PARENT 27 6 11 12 31 35 75 54 53 65
REMARK Flexibility Score: inf
ROOT
ATOM      1  C   UNL A   1      33.948  29.186  27.625  1.00  0.00     0.042 C 
ENDROOT
BRANCH   1   2
ATOM      2  C   UNL A   1      33.520  28.428  26.346  1.00  0.00     0.117 C 
BRANCH   2   3
ATOM      3  N   UNL A   1      34.186  27.169  25.974  1.00  0.00    -0.356 N 
ATOM      4  C   UNL A   1      33.846  25.876  25.693  1.00  0.00     0.229 C 
ATOM      5  O   UNL A   1      34.822  25.172  25.369  1.00  0.00    -0.275 OA
ATOM      6  H   UNL A   1      35.161  27.296  25.908  1.00  0.00     0.163 HD
BRANCH   4   7
ATOM      7  C   UNL A   1      32.453  25.197  25.682  1.00  0.00     0.146 C 
ATOM      8  C   UNL A   1      31.734  25.131  24.293  1.00  0.00     0.096 C 
ATOM      9  C   UNL A   1      31.068  23.745  24.241  1.00  0.00     0.272 C 
ATOM     10  N   UNL A   1      31.900  22.885  25.093  1.00  0.00    -0.329 N 
ATOM     11  C   UNL A   1      32.313  23.767  26.196  1.00  0.00     0.276 C 
ATOM     12  H   UNL A   1      31.384  22.081  25.450  1.00  0.00     0.348 HD
BRANCH   8  13
ATOM     13  C   UNL A   1      30.941  26.243  23.624  1.00  0.00     0.004 A 
ATOM     14  C   UNL A   1      31.415  27.308  22.850  1.00  0.00     0.122 A 
ATOM     15  C   UNL A   1      30.535  28.336  22.452  1.00  0.00     0.047 A 
ATOM     16  C   UNL A   1      29.194  28.354  22.842  1.00  0.00     0.004 A 
ATOM     17  C   UNL A   1      29.567  26.301  24.008  1.00  0.00     0.008 A 
ATOM     18  C   UNL A   1      28.712  27.339  23.643  1.00  0.00     0.001 A 
BRANCH  14  19
ATOM     19  O   UNL A   1      32.724  27.602  22.581  1.00  0.00    -0.496 OA
ATOM     20  C   UNL A   1      33.115  28.949  22.771  1.00  0.00     0.278 C 
ENDBRANCH  14  19
ENDBRANCH   8  13
BRANCH  10  21
ATOM     21  C   UNL A   1      32.979  22.145  24.387  1.00  0.00     0.321 C 
BRANCH  21  22
ATOM     22  C   UNL A   1      33.071  20.656  24.623  1.00  0.00     0.114 A 
ATOM     23  C   UNL A   1      32.128  19.695  24.951  1.00  0.00     0.122 A 
ATOM     24  N   UNL A   1      34.294  20.050  24.554  1.00  0.00    -0.228 NA
ATOM     25  N   UNL A   1      32.798  18.483  24.966  1.00  0.00    -0.306 N 
ATOM     26  C   UNL A   1      34.105  18.759  24.625  1.00  0.00     0.137 A 
ATOM     27  C   UNL A   1      32.369  17.188  25.253  1.00  0.00     0.096 A 
ATOM     28  C   UNL A   1      35.002  17.682  24.408  1.00  0.00     0.048 A 
ATOM     29  C   UNL A   1      33.241  16.161  25.147  1.00  0.00    -0.034 A 
ATOM     30  C   UNL A   1      34.592  16.429  24.654  1.00  0.00     0.009 A 
ATOM     31  C   UNL A   1      32.903  14.748  25.484  1.00  0.00     0.046 C 
ENDBRANCH  21  22
ENDBRANCH  10  21
ENDBRANCH   4   7
ENDBRANCH   2   3
ENDBRANCH   1   2
BRANCH   1  32
ATOM     32  C   UNL A   1      34.489  30.574  27.381  1.00  0.00     0.118 C 
BRANCH  32  33
ATOM     33  N   UNL A   1      34.277  31.503  28.486  1.00  0.00    -0.352 N 
ATOM     34  C   UNL A   1      35.038  31.783  29.607  1.00  0.00     0.251 C 
ATOM     35  H   UNL A   1      33.444  32.025  28.423  1.00  0.00     0.163 HD
ATOM     36  O   UNL A   1      34.591  32.551  30.444  1.00  0.00    -0.269 OA
BRANCH  34  37
ATOM     37  C   UNL A   1      36.389  31.190  29.806  1.00  0.00     0.039 A 
ATOM     38  C   UNL A   1      37.537  31.994  29.712  1.00  0.00     0.014 A 
ATOM     39  C   UNL A   1      36.552  29.833  30.040  1.00  0.00     0.014 A 
ATOM     40  C   UNL A   1      38.799  31.393  29.726  1.00  0.00     0.010 A 
ATOM     41  C   UNL A   1      37.770  29.289  30.294  1.00  0.00     0.010 A 
ATOM     42  C   UNL A   1      38.884  30.015  29.946  1.00  0.00    -0.014 A 
BRANCH  42  43
ATOM     43  C   UNL A   1      40.112  29.247  29.930  1.00  0.00     0.031 A 
ATOM     44  C   UNL A   1      40.664  29.032  31.280  1.00  0.00     0.074 A 
ATOM     45  C   UNL A   1      40.491  28.509  28.859  1.00  0.00     0.049 A 
ATOM     46  N   UNL A   1      41.714  29.560  31.805  1.00  0.00    -0.248 NA
ATOM     47  C   UNL A   1      39.826  28.286  32.232  1.00  0.00     0.031 C 
ATOM     48  C   UNL A   1      39.808  28.326  27.566  1.00  0.00     0.029 A 
ATOM     49  N   UNL A   1      41.535  27.647  28.755  1.00  0.00    -0.354 N 
ATOM     50  C   UNL A   1      41.796  29.017  33.082  1.00  0.00     0.074 A 
ATOM     51  C   UNL A   1      40.499  28.463  33.368  1.00  0.00     0.031 C 
ATOM     52  C   UNL A   1      40.343  27.268  26.911  1.00  0.00     0.029 A 
ATOM     53  C   UNL A   1      41.498  26.799  27.651  1.00  0.00     0.049 A 
ATOM     54  H   UNL A   1      42.267  27.624  29.413  1.00  0.00     0.167 HD
ATOM     55  C   UNL A   1      43.003  28.780  33.664  1.00  0.00     0.031 A 
ATOM     56  C   UNL A   1      42.355  25.777  27.391  1.00  0.00     0.031 A 
ATOM     57  C   UNL A   1      44.063  29.457  32.955  1.00  0.00     0.049 A 
ATOM     58  C   UNL A   1      43.560  26.007  28.223  1.00  0.00     0.074 A 
ATOM     59  C   UNL A   1      44.316  30.774  32.624  1.00  0.00     0.029 A 
ATOM     60  N   UNL A   1      44.806  28.698  32.078  1.00  0.00    -0.354 N 
ATOM     61  N   UNL A   1      44.364  27.019  28.051  1.00  0.00    -0.248 NA
ATOM     62  C   UNL A   1      43.604  25.390  29.539  1.00  0.00     0.031 C 
ATOM     63  C   UNL A   1      44.784  30.725  31.277  1.00  0.00     0.029 A 
ATOM     64  C   UNL A   1      44.889  29.385  30.895  1.00  0.00     0.049 A 
ATOM     65  H   UNL A   1      45.205  27.819  32.268  1.00  0.00     0.167 HD
ATOM     66  C   UNL A   1      44.671  27.446  29.335  1.00  0.00     0.074 A 
ATOM     67  C   UNL A   1      44.256  26.347  30.208  1.00  0.00     0.031 C 
ATOM     68  C   UNL A   1      44.953  28.758  29.591  1.00  0.00     0.031 A 
BRANCH  55  69
ATOM     69  C   UNL A   1      43.271  27.593  34.558  1.00  0.00    -0.014 A 
ATOM     70  C   UNL A   1      43.432  26.335  33.954  1.00  0.00     0.009 A 
ATOM     71  C   UNL A   1      43.097  27.604  35.955  1.00  0.00     0.009 A 
ATOM     72  C   UNL A   1      43.328  25.153  34.697  1.00  0.00     0.001 A 
ATOM     73  C   UNL A   1      43.034  26.428  36.707  1.00  0.00     0.001 A 
ATOM     74  C   UNL A   1      43.116  25.200  36.071  1.00  0.00     0.000 A 
ENDBRANCH  55  69
BRANCH  56  75
ATOM     75  C   UNL A   1      42.132  24.494  26.685  1.00  0.00    -0.014 A 
ATOM     76  C   UNL A   1      43.095  23.979  25.799  1.00  0.00     0.009 A 
ATOM     77  C   UNL A   1      41.103  23.629  27.100  1.00  0.00     0.009 A 
ATOM     78  C   UNL A   1      43.055  22.639  25.383  1.00  0.00     0.001 A 
ATOM     79  C   UNL A   1      41.064  22.292  26.684  1.00  0.00     0.001 A 
ATOM     80  C   UNL A   1      42.049  21.792  25.839  1.00  0.00     0.000 A 
ENDBRANCH  56  75
BRANCH  68  81
ATOM     81  C   UNL A   1      45.112  29.693  28.412  1.00  0.00    -0.014 A 
ATOM     82  C   UNL A   1      44.040  30.397  27.831  1.00  0.00     0.009 A 
ATOM     83  C   UNL A   1      46.411  30.011  27.994  1.00  0.00     0.009 A 
ATOM     84  C   UNL A   1      44.265  31.375  26.854  1.00  0.00     0.001 A 
ATOM     85  C   UNL A   1      46.638  31.000  27.035  1.00  0.00     0.001 A 
ATOM     86  C   UNL A   1      45.565  31.682  26.464  1.00  0.00     0.000 A 
ENDBRANCH  68  81
ENDBRANCH  42  43
ENDBRANCH  34  37
ENDBRANCH  32  33
ENDBRANCH   1  32
TORSDOF 14
ENDMDL
