MODEL 1
REMARK VINA RESULT:      -9.8      0.000      0.000
REMARK SMILES COc1cc(/C=C2/SC(=O)N(c3ccc(C)c(C)c3)C2=O)ccc1OCCC(=O)NCCCNC(=O)c1ccc(-c2c3nc(c(-c4ccccc4)c4ccc([nH]4)c(-c4ccccc4)c4nc(c(-c5ccccc5)c5ccc2[nH]5)C=C4)C=C3)cc1
REMARK SMILES IDX 28 1 29 2 30 3 27 5 26 6 25 7 24 8 3 9 4 10 5 11 23 12 22 13
REMARK SMILES IDX 2 14 1 15 6 16 7 17 8 18 20 19 9 20 11 21 21 22 10 23 12 24
REMARK SMILES IDX 13 25 19 26 14 27 17 28 15 29 18 30 16 31 31 32 32 33 33 34
REMARK SMILES IDX 34 35 35 36 36 38 37 39 38 40 84 41 39 42 83 43 40 44 41 45
REMARK SMILES IDX 42 46 77 47 43 48 82 49 76 50 78 51 44 52 81 53 75 54 74 55
REMARK SMILES IDX 45 57 67 58 52 59 66 60 53 61 56 62 65 63 79 64 54 65 55 66
REMARK SMILES IDX 64 68 80 69 57 70 46 71 47 72 51 73 48 74 50 75 49 76 68 77
REMARK SMILES IDX 69 78 73 79 70 80 72 81 71 82 58 83 59 84 63 85 60 86 62 87
REMARK SMILES IDX 61 88
REMARK H PARENT 30 4 34 37 78 56 56 67
REMARK Flexibility Score: inf
ROOT
ATOM      1  C   UNL A   1      49.363  28.519  26.914  1.00  0.00     0.223 C 
ATOM      2  O   UNL A   1      49.308  29.652  26.437  1.00  0.00    -0.275 OA
ATOM      3  N   UNL A   1      49.536  27.458  26.055  1.00  0.00    -0.356 N 
ATOM      4  H   UNL A   1      50.101  27.599  25.261  1.00  0.00     0.163 HD
ENDROOT
BRANCH   1   5
ATOM      5  C   UNL A   1      49.264  28.273  28.422  1.00  0.00     0.141 C 
BRANCH   5   6
ATOM      6  C   UNL A   1      49.855  29.329  29.364  1.00  0.00     0.239 C 
BRANCH   6   7
ATOM      7  O   UNL A   1      49.047  29.562  30.538  1.00  0.00    -0.489 OA
BRANCH   7   8
ATOM      8  C   UNL A   1      47.875  30.199  30.231  1.00  0.00     0.161 A 
ATOM      9  C   UNL A   1      46.310  29.326  30.245  1.00  0.00     0.161 A 
ATOM     10  C   UNL A   1      44.789  30.220  30.325  1.00  0.00     0.058 A 
ATOM     11  C   UNL A   1      44.743  32.004  30.289  1.00  0.00    -0.020 A 
ATOM     12  C   UNL A   1      47.903  32.011  30.228  1.00  0.00     0.051 A 
ATOM     13  C   UNL A   1      46.312  32.928  30.340  1.00  0.00     0.012 A 
BRANCH   9  14
ATOM     14  O   UNL A   1      46.267  27.978  30.511  1.00  0.00    -0.493 OA
ATOM     15  C   UNL A   1      45.909  27.228  29.338  1.00  0.00     0.278 C 
ENDBRANCH   9  14
BRANCH  11  16
ATOM     16  C   UNL A   1      43.452  32.538  29.802  1.00  0.00     0.029 C 
ATOM     17  C   UNL A   1      42.744  33.488  30.468  1.00  0.00     0.083 C 
ATOM     18  S   UNL A   1      41.092  33.838  30.107  1.00  0.00    -0.022 SA
ATOM     19  C   UNL A   1      43.030  34.286  31.735  1.00  0.00     0.272 C 
ATOM     20  C   UNL A   1      40.750  34.287  31.800  1.00  0.00     0.298 C 
ATOM     21  N   UNL A   1      41.912  34.350  32.539  1.00  0.00    -0.236 N 
ATOM     22  O   UNL A   1      44.044  34.948  31.900  1.00  0.00    -0.268 OA
ATOM     23  O   UNL A   1      39.595  34.476  32.145  1.00  0.00    -0.260 OA
BRANCH  21  24
ATOM     24  C   UNL A   1      41.975  34.623  33.969  1.00  0.00     0.053 A 
ATOM     25  C   UNL A   1      41.599  35.860  34.529  1.00  0.00     0.027 A 
ATOM     26  C   UNL A   1      42.484  33.685  34.883  1.00  0.00     0.030 A 
ATOM     27  C   UNL A   1      41.728  36.138  35.906  1.00  0.00     0.006 A 
ATOM     28  C   UNL A   1      42.642  33.958  36.269  1.00  0.00    -0.046 A 
ATOM     29  C   UNL A   1      42.277  35.205  36.787  1.00  0.00    -0.048 A 
ATOM     30  C   UNL A   1      43.182  32.880  37.168  1.00  0.00     0.044 C 
ATOM     31  C   UNL A   1      42.397  35.541  38.253  1.00  0.00     0.044 C 
ENDBRANCH  21  24
ENDBRANCH  11  16
ENDBRANCH   7   8
ENDBRANCH   6   7
ENDBRANCH   5   6
ENDBRANCH   1   5
BRANCH   3  32
ATOM     32  C   UNL A   1      48.938  26.133  26.239  1.00  0.00     0.117 C 
BRANCH  32  33
ATOM     33  C   UNL A   1      47.561  26.063  25.221  1.00  0.00     0.042 C 
BRANCH  33  34
ATOM     34  C   UNL A   1      46.013  27.482  24.629  1.00  0.00     0.118 C 
BRANCH  34  35
ATOM     35  N   UNL A   1      44.352  27.520  24.904  1.00  0.00    -0.352 N 
ATOM     36  C   UNL A   1      43.368  26.532  25.090  1.00  0.00     0.251 C 
ATOM     37  H   UNL A   1      43.991  28.434  24.942  1.00  0.00     0.163 HD
ATOM     38  O   UNL A   1      43.503  25.318  25.021  1.00  0.00    -0.269 OA
BRANCH  36  39
ATOM     39  C   UNL A   1      42.038  27.055  25.512  1.00  0.00     0.039 A 
ATOM     40  C   UNL A   1      41.123  26.177  26.093  1.00  0.00     0.014 A 
ATOM     41  C   UNL A   1      41.862  28.422  25.639  1.00  0.00     0.014 A 
ATOM     42  C   UNL A   1      40.243  26.662  27.060  1.00  0.00     0.010 A 
ATOM     43  C   UNL A   1      41.109  28.883  26.696  1.00  0.00     0.010 A 
ATOM     44  C   UNL A   1      40.367  27.991  27.481  1.00  0.00    -0.014 A 
BRANCH  44  45
ATOM     45  C   UNL A   1      39.938  28.442  28.833  1.00  0.00     0.031 A 
ATOM     46  C   UNL A   1      38.773  29.388  28.968  1.00  0.00     0.074 A 
ATOM     47  C   UNL A   1      40.791  28.240  29.864  1.00  0.00     0.049 A 
ATOM     48  N   UNL A   1      38.411  30.110  29.997  1.00  0.00    -0.248 NA
ATOM     49  C   UNL A   1      37.993  29.658  27.746  1.00  0.00     0.031 C 
ATOM     50  C   UNL A   1      42.089  27.550  29.773  1.00  0.00     0.029 A 
ATOM     51  N   UNL A   1      40.748  28.649  31.175  1.00  0.00    -0.354 N 
ATOM     52  C   UNL A   1      37.450  30.993  29.514  1.00  0.00     0.074 A 
ATOM     53  C   UNL A   1      37.313  30.737  28.100  1.00  0.00     0.031 C 
ATOM     54  C   UNL A   1      42.702  27.575  30.965  1.00  0.00     0.029 A 
ATOM     55  C   UNL A   1      41.881  28.331  31.895  1.00  0.00     0.049 A 
ATOM     56  H   UNL A   1      39.978  29.125  31.565  1.00  0.00     0.167 HD
ATOM     57  C   UNL A   1      36.761  31.943  30.190  1.00  0.00     0.031 A 
ATOM     58  C   UNL A   1      42.246  28.656  33.149  1.00  0.00     0.031 A 
ATOM     59  C   UNL A   1      36.943  32.190  31.595  1.00  0.00     0.049 A 
ATOM     60  C   UNL A   1      41.349  29.567  33.935  1.00  0.00     0.074 A 
ATOM     61  C   UNL A   1      36.193  32.992  32.435  1.00  0.00     0.029 A 
ATOM     62  N   UNL A   1      37.962  31.642  32.362  1.00  0.00    -0.354 N 
ATOM     63  N   UNL A   1      40.279  30.209  33.532  1.00  0.00    -0.248 NA
ATOM     64  C   UNL A   1      41.713  29.811  35.335  1.00  0.00     0.031 C 
ATOM     65  C   UNL A   1      36.797  32.980  33.697  1.00  0.00     0.029 A 
ATOM     66  C   UNL A   1      37.883  32.120  33.657  1.00  0.00     0.049 A 
ATOM     67  H   UNL A   1      38.639  31.009  32.034  1.00  0.00     0.167 HD
ATOM     68  C   UNL A   1      39.830  30.921  34.633  1.00  0.00     0.074 A 
ATOM     69  C   UNL A   1      40.730  30.609  35.727  1.00  0.00     0.031 C 
ATOM     70  C   UNL A   1      38.779  31.769  34.730  1.00  0.00     0.031 A 
BRANCH  57  71
ATOM     71  C   UNL A   1      35.742  32.755  29.429  1.00  0.00    -0.014 A 
ATOM     72  C   UNL A   1      34.495  32.210  29.075  1.00  0.00     0.009 A 
ATOM     73  C   UNL A   1      35.997  34.097  29.102  1.00  0.00     0.009 A 
ATOM     74  C   UNL A   1      33.553  32.965  28.375  1.00  0.00     0.001 A 
ATOM     75  C   UNL A   1      35.035  34.867  28.441  1.00  0.00     0.001 A 
ATOM     76  C   UNL A   1      33.819  34.297  28.068  1.00  0.00     0.000 A 
ENDBRANCH  57  71
BRANCH  58  77
ATOM     77  C   UNL A   1      43.517  28.147  33.736  1.00  0.00    -0.014 A 
ATOM     78  C   UNL A   1      43.564  26.866  34.310  1.00  0.00     0.009 A 
ATOM     79  C   UNL A   1      44.680  28.931  33.745  1.00  0.00     0.009 A 
ATOM     80  C   UNL A   1      44.734  26.398  34.914  1.00  0.00     0.001 A 
ATOM     81  C   UNL A   1      45.859  28.450  34.324  1.00  0.00     0.001 A 
ATOM     82  C   UNL A   1      45.881  27.190  34.919  1.00  0.00     0.000 A 
ENDBRANCH  58  77
BRANCH  70  83
ATOM     83  C   UNL A   1      38.508  32.363  36.080  1.00  0.00    -0.014 A 
ATOM     84  C   UNL A   1      37.838  31.639  37.078  1.00  0.00     0.009 A 
ATOM     85  C   UNL A   1      38.978  33.653  36.366  1.00  0.00     0.009 A 
ATOM     86  C   UNL A   1      37.616  32.215  38.330  1.00  0.00     0.001 A 
ATOM     87  C   UNL A   1      38.784  34.212  37.627  1.00  0.00     0.001 A 
ATOM     88  C   UNL A   1      38.093  33.496  38.605  1.00  0.00     0.000 A 
ENDBRANCH  70  83
ENDBRANCH  44  45
ENDBRANCH  36  39
ENDBRANCH  34  35
ENDBRANCH  33  34
ENDBRANCH  32  33
ENDBRANCH   3  32
TORSDOF 16
ENDMDL
MODEL 2
REMARK VINA RESULT:      -9.1      4.952     13.314
REMARK SMILES COc1cc(/C=C2/SC(=O)N(c3ccc(C)c(C)c3)C2=O)ccc1OCCC(=O)NCCCNC(=O)c1ccc(-c2c3nc(c(-c4ccccc4)c4ccc([nH]4)c(-c4ccccc4)c4nc(c(-c5ccccc5)c5ccc2[nH]5)C=C4)C=C3)cc1
REMARK SMILES IDX 28 1 29 2 30 3 27 5 26 6 25 7 24 8 3 9 4 10 5 11 23 12 22 13
REMARK SMILES IDX 2 14 1 15 6 16 7 17 8 18 20 19 9 20 11 21 21 22 10 23 12 24
REMARK SMILES IDX 13 25 19 26 14 27 17 28 15 29 18 30 16 31 31 32 32 33 33 34
REMARK SMILES IDX 34 35 35 36 36 38 37 39 38 40 84 41 39 42 83 43 40 44 41 45
REMARK SMILES IDX 42 46 77 47 43 48 82 49 76 50 78 51 44 52 81 53 75 54 74 55
REMARK SMILES IDX 45 57 67 58 52 59 66 60 53 61 56 62 65 63 79 64 54 65 55 66
REMARK SMILES IDX 64 68 80 69 57 70 46 71 47 72 51 73 48 74 50 75 49 76 68 77
REMARK SMILES IDX 69 78 73 79 70 80 72 81 71 82 58 83 59 84 63 85 60 86 62 87
REMARK SMILES IDX 61 88
REMARK H PARENT 30 4 34 37 78 56 56 67
REMARK Flexibility Score: inf
ROOT
ATOM      1  C   UNL A   1      38.459  33.058  31.261  1.00  0.00     0.223 C 
ATOM      2  O   UNL A   1      38.253  33.655  32.318  1.00  0.00    -0.275 OA
ATOM      3  N   UNL A   1      38.703  31.705  31.314  1.00  0.00    -0.356 N 
ATOM      4  H   UNL A   1      38.228  31.181  31.999  1.00  0.00     0.163 HD
ENDROOT
BRANCH   1   5
ATOM      5  C   UNL A   1      38.430  33.777  29.910  1.00  0.00     0.141 C 
BRANCH   5   6
ATOM      6  C   UNL A   1      37.331  33.390  28.913  1.00  0.00     0.239 C 
BRANCH   6   7
ATOM      7  O   UNL A   1      36.364  32.467  29.460  1.00  0.00    -0.489 OA
BRANCH   7   8
ATOM      8  C   UNL A   1      35.425  32.106  28.532  1.00  0.00     0.161 A 
ATOM      9  C   UNL A   1      35.441  30.480  27.776  1.00  0.00     0.161 A 
ATOM     10  C   UNL A   1      33.998  29.856  26.971  1.00  0.00     0.058 A 
ATOM     11  C   UNL A   1      32.522  30.841  26.787  1.00  0.00    -0.020 A 
ATOM     12  C   UNL A   1      33.946  33.147  28.413  1.00  0.00     0.051 A 
ATOM     13  C   UNL A   1      32.443  32.472  27.597  1.00  0.00     0.012 A 
BRANCH   9  14
ATOM     14  O   UNL A   1      36.438  29.583  28.076  1.00  0.00    -0.493 OA
ATOM     15  C   UNL A   1      37.617  29.836  27.292  1.00  0.00     0.278 C 
ENDBRANCH   9  14
BRANCH  11  16
ATOM     16  C   UNL A   1      31.677  30.409  25.651  1.00  0.00     0.029 C 
ATOM     17  C   UNL A   1      31.407  29.104  25.384  1.00  0.00     0.083 C 
ATOM     18  S   UNL A   1      30.746  28.583  23.877  1.00  0.00    -0.022 SA
ATOM     19  C   UNL A   1      31.762  27.810  26.107  1.00  0.00     0.272 C 
ATOM     20  C   UNL A   1      31.586  27.010  23.979  1.00  0.00     0.298 C 
ATOM     21  N   UNL A   1      32.173  26.843  25.214  1.00  0.00    -0.236 N 
ATOM     22  O   UNL A   1      31.511  27.604  27.286  1.00  0.00    -0.268 OA
ATOM     23  O   UNL A   1      31.582  26.270  23.009  1.00  0.00    -0.260 OA
BRANCH  21  24
ATOM     24  C   UNL A   1      32.992  25.700  25.598  1.00  0.00     0.053 A 
ATOM     25  C   UNL A   1      34.320  25.528  25.159  1.00  0.00     0.027 A 
ATOM     26  C   UNL A   1      32.482  24.651  26.381  1.00  0.00     0.030 A 
ATOM     27  C   UNL A   1      35.081  24.385  25.481  1.00  0.00     0.006 A 
ATOM     28  C   UNL A   1      33.227  23.482  26.694  1.00  0.00    -0.046 A 
ATOM     29  C   UNL A   1      34.537  23.336  26.224  1.00  0.00    -0.048 A 
ATOM     30  C   UNL A   1      32.596  22.423  27.554  1.00  0.00     0.044 C 
ATOM     31  C   UNL A   1      35.385  22.131  26.547  1.00  0.00     0.044 C 
ENDBRANCH  21  24
ENDBRANCH  11  16
ENDBRANCH   7   8
ENDBRANCH   6   7
ENDBRANCH   5   6
ENDBRANCH   1   5
BRANCH   3  32
ATOM     32  C   UNL A   1      39.621  30.990  30.424  1.00  0.00     0.117 C 
BRANCH  32  33
ATOM     33  C   UNL A   1      39.231  29.325  30.542  1.00  0.00     0.042 C 
BRANCH  33  34
ATOM     34  C   UNL A   1      39.730  27.543  29.385  1.00  0.00     0.118 C 
BRANCH  34  35
ATOM     35  N   UNL A   1      41.202  26.908  28.871  1.00  0.00    -0.352 N 
ATOM     36  C   UNL A   1      41.596  25.681  28.308  1.00  0.00     0.251 C 
ATOM     37  H   UNL A   1      41.953  27.533  28.992  1.00  0.00     0.163 HD
ATOM     38  O   UNL A   1      40.904  24.691  28.111  1.00  0.00    -0.269 OA
BRANCH  36  39
ATOM     39  C   UNL A   1      43.003  25.647  27.818  1.00  0.00     0.039 A 
ATOM     40  C   UNL A   1      43.237  25.652  26.442  1.00  0.00     0.014 A 
ATOM     41  C   UNL A   1      44.028  25.951  28.696  1.00  0.00     0.014 A 
ATOM     42  C   UNL A   1      44.384  26.278  25.956  1.00  0.00     0.010 A 
ATOM     43  C   UNL A   1      45.083  26.701  28.225  1.00  0.00     0.010 A 
ATOM     44  C   UNL A   1      45.216  26.956  26.854  1.00  0.00    -0.014 A 
BRANCH  44  45
ATOM     45  C   UNL A   1      46.077  28.096  26.437  1.00  0.00     0.031 A 
ATOM     46  C   UNL A   1      47.564  27.895  26.295  1.00  0.00     0.074 A 
ATOM     47  C   UNL A   1      45.548  29.341  26.501  1.00  0.00     0.049 A 
ATOM     48  N   UNL A   1      48.514  28.790  26.215  1.00  0.00    -0.248 NA
ATOM     49  C   UNL A   1      48.056  26.508  26.388  1.00  0.00     0.031 C 
ATOM     50  C   UNL A   1      44.165  29.659  26.890  1.00  0.00     0.029 A 
ATOM     51  N   UNL A   1      46.112  30.580  26.316  1.00  0.00    -0.354 N 
ATOM     52  C   UNL A   1      49.704  28.085  26.368  1.00  0.00     0.074 A 
ATOM     53  C   UNL A   1      49.353  26.701  26.576  1.00  0.00     0.031 C 
ATOM     54  C   UNL A   1      43.990  30.988  26.903  1.00  0.00     0.029 A 
ATOM     55  C   UNL A   1      45.255  31.627  26.585  1.00  0.00     0.049 A 
ATOM     56  H   UNL A   1      47.043  30.709  26.019  1.00  0.00     0.167 HD
ATOM     57  C   UNL A   1      50.973  28.558  26.353  1.00  0.00     0.031 A 
ATOM     58  C   UNL A   1      45.474  32.954  26.624  1.00  0.00     0.031 A 
ATOM     59  C   UNL A   1      51.287  29.950  26.170  1.00  0.00     0.049 A 
ATOM     60  C   UNL A   1      46.875  33.449  26.413  1.00  0.00     0.074 A 
ATOM     61  C   UNL A   1      52.521  30.537  25.961  1.00  0.00     0.029 A 
ATOM     62  N   UNL A   1      50.351  30.974  26.191  1.00  0.00    -0.354 N 
ATOM     63  N   UNL A   1      47.981  32.753  26.302  1.00  0.00    -0.248 NA
ATOM     64  C   UNL A   1      47.063  34.902  26.346  1.00  0.00     0.031 C 
ATOM     65  C   UNL A   1      52.339  31.923  25.918  1.00  0.00     0.029 A 
ATOM     66  C   UNL A   1      50.985  32.193  26.036  1.00  0.00     0.049 A 
ATOM     67  H   UNL A   1      49.380  30.851  26.300  1.00  0.00     0.167 HD
ATOM     68  C   UNL A   1      48.996  33.681  26.136  1.00  0.00     0.074 A 
ATOM     69  C   UNL A   1      48.368  34.989  26.134  1.00  0.00     0.031 C 
ATOM     70  C   UNL A   1      50.328  33.475  26.012  1.00  0.00     0.031 A 
BRANCH  57  71
ATOM     71  C   UNL A   1      52.101  27.568  26.512  1.00  0.00    -0.014 A 
ATOM     72  C   UNL A   1      52.659  27.300  27.775  1.00  0.00     0.009 A 
ATOM     73  C   UNL A   1      52.584  26.851  25.406  1.00  0.00     0.009 A 
ATOM     74  C   UNL A   1      53.700  26.381  27.920  1.00  0.00     0.001 A 
ATOM     75  C   UNL A   1      53.596  25.897  25.559  1.00  0.00     0.001 A 
ATOM     76  C   UNL A   1      54.160  25.671  26.813  1.00  0.00     0.000 A 
ENDBRANCH  57  71
BRANCH  58  77
ATOM     77  C   UNL A   1      44.363  33.909  26.893  1.00  0.00    -0.014 A 
ATOM     78  C   UNL A   1      43.962  34.171  28.213  1.00  0.00     0.009 A 
ATOM     79  C   UNL A   1      43.686  34.551  25.845  1.00  0.00     0.009 A 
ATOM     80  C   UNL A   1      42.885  35.022  28.476  1.00  0.00     0.001 A 
ATOM     81  C   UNL A   1      42.626  35.425  26.111  1.00  0.00     0.001 A 
ATOM     82  C   UNL A   1      42.219  35.649  27.424  1.00  0.00     0.000 A 
ENDBRANCH  58  77
BRANCH  70  83
ATOM     83  C   UNL A   1      51.185  34.687  25.795  1.00  0.00    -0.014 A 
ATOM     84  C   UNL A   1      51.810  35.343  26.866  1.00  0.00     0.009 A 
ATOM     85  C   UNL A   1      51.404  35.145  24.488  1.00  0.00     0.009 A 
ATOM     86  C   UNL A   1      52.614  36.459  26.630  1.00  0.00     0.001 A 
ATOM     87  C   UNL A   1      52.234  36.238  24.252  1.00  0.00     0.001 A 
ATOM     88  C   UNL A   1      52.830  36.901  25.325  1.00  0.00     0.000 A 
ENDBRANCH  70  83
ENDBRANCH  44  45
ENDBRANCH  36  39
ENDBRANCH  34  35
ENDBRANCH  33  34
ENDBRANCH  32  33
ENDBRANCH   3  32
TORSDOF 16
ENDMDL
MODEL 3
REMARK VINA RESULT:      -9.1      4.764     12.305
REMARK SMILES COc1cc(/C=C2/SC(=O)N(c3ccc(C)c(C)c3)C2=O)ccc1OCCC(=O)NCCCNC(=O)c1ccc(-c2c3nc(c(-c4ccccc4)c4ccc([nH]4)c(-c4ccccc4)c4nc(c(-c5ccccc5)c5ccc2[nH]5)C=C4)C=C3)cc1
REMARK SMILES IDX 28 1 29 2 30 3 27 5 26 6 25 7 24 8 3 9 4 10 5 11 23 12 22 13
REMARK SMILES IDX 2 14 1 15 6 16 7 17 8 18 20 19 9 20 11 21 21 22 10 23 12 24
REMARK SMILES IDX 13 25 19 26 14 27 17 28 15 29 18 30 16 31 31 32 32 33 33 34
REMARK SMILES IDX 34 35 35 36 36 38 37 39 38 40 84 41 39 42 83 43 40 44 41 45
REMARK SMILES IDX 42 46 77 47 43 48 82 49 76 50 78 51 44 52 81 53 75 54 74 55
REMARK SMILES IDX 45 57 67 58 52 59 66 60 53 61 56 62 65 63 79 64 54 65 55 66
REMARK SMILES IDX 64 68 80 69 57 70 46 71 47 72 51 73 48 74 50 75 49 76 68 77
REMARK SMILES IDX 69 78 73 79 70 80 72 81 71 82 58 83 59 84 63 85 60 86 62 87
REMARK SMILES IDX 61 88
REMARK H PARENT 30 4 34 37 78 56 56 67
REMARK Flexibility Score: inf
ROOT
ATOM      1  C   UNL A   1      37.991  29.589  33.358  1.00  0.00     0.223 C 
ATOM      2  O   UNL A   1      38.089  30.026  34.505  1.00  0.00    -0.275 OA
ATOM      3  N   UNL A   1      39.034  28.848  32.852  1.00  0.00    -0.356 N 
ATOM      4  H   UNL A   1      39.526  28.265  33.475  1.00  0.00     0.163 HD
ENDROOT
BRANCH   1   5
ATOM      5  C   UNL A   1      36.744  29.835  32.505  1.00  0.00     0.141 C 
BRANCH   5   6
ATOM      6  C   UNL A   1      36.434  31.277  32.084  1.00  0.00     0.239 C 
BRANCH   6   7
ATOM      7  O   UNL A   1      36.854  31.580  30.735  1.00  0.00    -0.489 OA
BRANCH   7   8
ATOM      8  C   UNL A   1      35.873  31.303  29.822  1.00  0.00     0.161 A 
ATOM      9  C   UNL A   1      34.741  32.574  29.259  1.00  0.00     0.161 A 
ATOM     10  C   UNL A   1      33.817  32.351  27.770  1.00  0.00     0.058 A 
ATOM     11  C   UNL A   1      33.892  30.833  26.834  1.00  0.00    -0.020 A 
ATOM     12  C   UNL A   1      36.025  29.750  28.901  1.00  0.00     0.051 A 
ATOM     13  C   UNL A   1      35.078  29.545  27.337  1.00  0.00     0.012 A 
BRANCH   9  14
ATOM     14  O   UNL A   1      34.803  33.843  29.782  1.00  0.00    -0.493 OA
ATOM     15  C   UNL A   1      34.302  33.875  31.130  1.00  0.00     0.278 C 
ENDBRANCH   9  14
BRANCH  11  16
ATOM     16  C   UNL A   1      32.691  30.611  25.999  1.00  0.00     0.029 C 
ATOM     17  C   UNL A   1      32.064  29.409  25.908  1.00  0.00     0.083 C 
ATOM     18  S   UNL A   1      30.911  29.055  24.673  1.00  0.00    -0.022 SA
ATOM     19  C   UNL A   1      32.297  28.071  26.600  1.00  0.00     0.272 C 
ATOM     20  C   UNL A   1      31.360  27.327  24.658  1.00  0.00     0.298 C 
ATOM     21  N   UNL A   1      32.210  27.029  25.701  1.00  0.00    -0.236 N 
ATOM     22  O   UNL A   1      32.340  27.938  27.814  1.00  0.00    -0.268 OA
ATOM     23  O   UNL A   1      30.918  26.604  23.781  1.00  0.00    -0.260 OA
BRANCH  21  24
ATOM     24  C   UNL A   1      32.817  25.724  25.933  1.00  0.00     0.053 A 
ATOM     25  C   UNL A   1      32.126  24.658  26.542  1.00  0.00     0.027 A 
ATOM     26  C   UNL A   1      34.163  25.464  25.624  1.00  0.00     0.030 A 
ATOM     27  C   UNL A   1      32.743  23.420  26.824  1.00  0.00     0.006 A 
ATOM     28  C   UNL A   1      34.805  24.232  25.923  1.00  0.00    -0.046 A 
ATOM     29  C   UNL A   1      34.093  23.202  26.548  1.00  0.00    -0.048 A 
ATOM     30  C   UNL A   1      36.246  24.048  25.537  1.00  0.00     0.044 C 
ATOM     31  C   UNL A   1      34.714  21.864  26.864  1.00  0.00     0.044 C 
ENDBRANCH  21  24
ENDBRANCH  11  16
ENDBRANCH   7   8
ENDBRANCH   6   7
ENDBRANCH   5   6
ENDBRANCH   1   5
BRANCH   3  32
ATOM     32  C   UNL A   1      39.464  28.865  31.452  1.00  0.00     0.117 C 
BRANCH  32  33
ATOM     33  C   UNL A   1      38.871  27.427  30.733  1.00  0.00     0.042 C 
BRANCH  33  34
ATOM     34  C   UNL A   1      39.279  26.355  28.876  1.00  0.00     0.118 C 
BRANCH  34  35
ATOM     35  N   UNL A   1      40.717  25.937  28.107  1.00  0.00    -0.352 N 
ATOM     36  C   UNL A   1      41.057  25.597  26.785  1.00  0.00     0.251 C 
ATOM     37  H   UNL A   1      41.489  25.928  28.717  1.00  0.00     0.163 HD
ATOM     38  O   UNL A   1      40.305  25.453  25.832  1.00  0.00    -0.269 OA
BRANCH  36  39
ATOM     39  C   UNL A   1      42.522  25.500  26.528  1.00  0.00     0.039 A 
ATOM     40  C   UNL A   1      43.034  26.031  25.343  1.00  0.00     0.014 A 
ATOM     41  C   UNL A   1      43.372  25.211  27.581  1.00  0.00     0.014 A 
ATOM     42  C   UNL A   1      44.320  26.569  25.346  1.00  0.00     0.010 A 
ATOM     43  C   UNL A   1      44.579  25.871  27.640  1.00  0.00     0.010 A 
ATOM     44  C   UNL A   1      45.020  26.641  26.556  1.00  0.00    -0.014 A 
BRANCH  44  45
ATOM     45  C   UNL A   1      46.072  27.663  26.808  1.00  0.00     0.031 A 
ATOM     46  C   UNL A   1      45.685  29.113  26.948  1.00  0.00     0.074 A 
ATOM     47  C   UNL A   1      47.361  27.306  26.594  1.00  0.00     0.049 A 
ATOM     48  N   UNL A   1      46.443  30.177  26.894  1.00  0.00    -0.248 NA
ATOM     49  C   UNL A   1      44.243  29.409  27.024  1.00  0.00     0.031 C 
ATOM     50  C   UNL A   1      47.817  25.965  26.192  1.00  0.00     0.029 A 
ATOM     51  N   UNL A   1      48.522  28.039  26.608  1.00  0.00    -0.354 N 
ATOM     52  C   UNL A   1      45.566  31.255  26.812  1.00  0.00     0.074 A 
ATOM     53  C   UNL A   1      44.228  30.712  26.790  1.00  0.00     0.031 C 
ATOM     54  C   UNL A   1      49.146  25.972  26.012  1.00  0.00     0.029 A 
ATOM     55  C   UNL A   1      49.637  27.323  26.222  1.00  0.00     0.049 A 
ATOM     56  H   UNL A   1      48.556  28.988  26.869  1.00  0.00     0.167 HD
ATOM     57  C   UNL A   1      45.856  32.576  26.743  1.00  0.00     0.031 A 
ATOM     58  C   UNL A   1      50.906  27.718  26.008  1.00  0.00     0.031 A 
ATOM     59  C   UNL A   1      47.202  33.082  26.740  1.00  0.00     0.049 A 
ATOM     60  C   UNL A   1      51.223  29.179  26.129  1.00  0.00     0.074 A 
ATOM     61  C   UNL A   1      47.633  34.391  26.850  1.00  0.00     0.029 A 
ATOM     62  N   UNL A   1      48.336  32.293  26.604  1.00  0.00    -0.354 N 
ATOM     63  N   UNL A   1      50.399  30.184  26.309  1.00  0.00    -0.248 NA
ATOM     64  C   UNL A   1      52.633  29.566  26.006  1.00  0.00     0.031 C 
ATOM     65  C   UNL A   1      49.026  34.400  26.718  1.00  0.00     0.029 A 
ATOM     66  C   UNL A   1      49.465  33.092  26.590  1.00  0.00     0.049 A 
ATOM     67  H   UNL A   1      48.337  31.312  26.529  1.00  0.00     0.167 HD
ATOM     68  C   UNL A   1      51.191  31.321  26.336  1.00  0.00     0.074 A 
ATOM     69  C   UNL A   1      52.563  30.877  26.181  1.00  0.00     0.031 C 
ATOM     70  C   UNL A   1      50.818  32.616  26.461  1.00  0.00     0.031 A 
BRANCH  57  71
ATOM     71  C   UNL A   1      44.706  33.553  26.692  1.00  0.00    -0.014 A 
ATOM     72  C   UNL A   1      44.118  33.918  25.468  1.00  0.00     0.009 A 
ATOM     73  C   UNL A   1      44.163  34.080  27.875  1.00  0.00     0.009 A 
ATOM     74  C   UNL A   1      43.052  34.819  25.424  1.00  0.00     0.001 A 
ATOM     75  C   UNL A   1      43.066  34.947  27.833  1.00  0.00     0.001 A 
ATOM     76  C   UNL A   1      42.520  35.325  26.608  1.00  0.00     0.000 A 
ENDBRANCH  57  71
BRANCH  58  77
ATOM     77  C   UNL A   1      51.964  26.737  25.639  1.00  0.00    -0.014 A 
ATOM     78  C   UNL A   1      52.445  26.681  24.321  1.00  0.00     0.009 A 
ATOM     79  C   UNL A   1      52.492  25.845  26.586  1.00  0.00     0.009 A 
ATOM     80  C   UNL A   1      53.398  25.729  23.949  1.00  0.00     0.001 A 
ATOM     81  C   UNL A   1      53.466  24.912  26.219  1.00  0.00     0.001 A 
ATOM     82  C   UNL A   1      53.909  24.846  24.899  1.00  0.00     0.000 A 
ENDBRANCH  58  77
BRANCH  70  83
ATOM     83  C   UNL A   1      51.917  33.637  26.505  1.00  0.00    -0.014 A 
ATOM     84  C   UNL A   1      52.555  33.976  27.707  1.00  0.00     0.009 A 
ATOM     85  C   UNL A   1      52.347  34.229  25.308  1.00  0.00     0.009 A 
ATOM     86  C   UNL A   1      53.585  34.918  27.711  1.00  0.00     0.001 A 
ATOM     87  C   UNL A   1      53.398  35.144  25.311  1.00  0.00     0.001 A 
ATOM     88  C   UNL A   1      54.009  35.496  26.514  1.00  0.00     0.000 A 
ENDBRANCH  70  83
ENDBRANCH  44  45
ENDBRANCH  36  39
ENDBRANCH  34  35
ENDBRANCH  33  34
ENDBRANCH  32  33
ENDBRANCH   3  32
TORSDOF 16
ENDMDL
