MODEL 1
REMARK VINA RESULT:     -11.4      0.000      0.000
REMARK SMILES C[C@@H](Oc1ccccc1Cl)C(=O)N1CC[C@H](C(=O)NCCCNC(=O)c2ccc(-c3c4nc(c(-c5ccccc5)c5ccc([nH]5)c(-c5ccccc5)c5nc(c(-c6ccccc6)c6ccc3[nH]6)C=C5)C=C4)cc2)[C@@H]1C
REMARK SMILES IDX 20 1 19 2 17 3 18 4 16 6 13 7 14 8 74 9 15 10 75 11 11 12
REMARK SMILES IDX 12 13 2 14 1 15 3 16 4 17 5 18 9 19 6 20 8 21 10 22 7 23
REMARK SMILES IDX 21 24 22 25 23 26 24 27 25 29 26 30 27 31 73 32 28 33 72 34
REMARK SMILES IDX 29 35 30 36 31 37 66 38 32 39 71 40 65 41 67 42 33 43 70 44
REMARK SMILES IDX 64 45 63 46 34 48 56 49 41 50 55 51 42 52 45 53 54 54 68 55
REMARK SMILES IDX 43 56 44 57 53 59 69 60 46 61 35 62 36 63 40 64 37 65 39 66
REMARK SMILES IDX 38 67 57 68 58 69 62 70 59 71 61 72 60 73 47 74 48 75 52 76
REMARK SMILES IDX 49 77 51 78 50 79
REMARK H PARENT 19 5 23 28 67 47 45 58
REMARK Flexibility Score: inf
ROOT
ATOM      1  C   UNL A   1      36.966  20.496  24.915  1.00  0.00     0.117 C 
ENDROOT
BRANCH   1   2
ATOM      2  N   UNL A   1      35.717  19.766  25.037  1.00  0.00    -0.356 N 
ATOM      3  C   UNL A   1      34.430  20.181  24.882  1.00  0.00     0.225 C 
ATOM      4  O   UNL A   1      33.546  19.330  24.996  1.00  0.00    -0.275 OA
ATOM      5  H   UNL A   1      35.817  18.815  25.270  1.00  0.00     0.163 HD
BRANCH   3   6
ATOM      6  C   UNL A   1      34.120  21.645  24.599  1.00  0.00     0.102 C 
ATOM      7  N   UNL A   1      32.472  22.897  25.808  1.00  0.00    -0.336 N 
ATOM      8  C   UNL A   1      31.765  21.999  24.920  1.00  0.00     0.121 C 
ATOM      9  C   UNL A   1      33.898  22.536  25.854  1.00  0.00     0.094 C 
ATOM     10  C   UNL A   1      32.791  21.752  23.829  1.00  0.00     0.037 C 
ATOM     11  C   UNL A   1      34.236  21.846  27.179  1.00  0.00     0.032 C 
BRANCH   7  12
ATOM     12  C   UNL A   1      31.806  23.982  26.343  1.00  0.00     0.263 C 
ATOM     13  O   UNL A   1      31.162  23.870  27.393  1.00  0.00    -0.271 OA
BRANCH  12  14
ATOM     14  C   UNL A   1      31.778  25.330  25.596  1.00  0.00     0.259 C 
ATOM     15  C   UNL A   1      30.828  26.347  26.209  1.00  0.00     0.064 C 
BRANCH  14  16
ATOM     16  O   UNL A   1      33.117  25.845  25.522  1.00  0.00    -0.479 OA
BRANCH  16  17
ATOM     17  C   UNL A   1      33.329  26.610  24.404  1.00  0.00     0.139 A 
ATOM     18  C   UNL A   1      33.213  26.028  23.139  1.00  0.00     0.048 A 
ATOM     19  C   UNL A   1      33.753  27.936  24.527  1.00  0.00     0.083 A 
ATOM     20  C   UNL A   1      33.467  26.792  21.997  1.00  0.00     0.004 A 
ATOM     21  C   UNL A   1      33.986  28.703  23.384  1.00  0.00     0.024 A 
ATOM     22  Cl  UNL A   1      34.018  28.664  26.071  1.00  0.00    -0.080 Cl
ATOM     23  C   UNL A   1      33.840  28.131  22.119  1.00  0.00     0.002 A 
ENDBRANCH  16  17
ENDBRANCH  14  16
ENDBRANCH  12  14
ENDBRANCH   7  12
ENDBRANCH   3   6
ENDBRANCH   1   2
BRANCH   1  24
ATOM     24  C   UNL A   1      38.180  19.572  24.879  1.00  0.00     0.042 C 
BRANCH  24  25
ATOM     25  C   UNL A   1      39.133  19.696  26.063  1.00  0.00     0.118 C 
BRANCH  25  26
ATOM     26  N   UNL A   1      40.424  19.067  25.837  1.00  0.00    -0.352 N 
ATOM     27  C   UNL A   1      41.692  19.588  25.958  1.00  0.00     0.251 C 
ATOM     28  H   UNL A   1      40.386  18.125  25.554  1.00  0.00     0.163 HD
ATOM     29  O   UNL A   1      42.658  18.926  25.595  1.00  0.00    -0.269 OA
BRANCH  27  30
ATOM     30  C   UNL A   1      41.899  20.955  26.490  1.00  0.00     0.039 A 
ATOM     31  C   UNL A   1      41.908  21.140  27.876  1.00  0.00     0.014 A 
ATOM     32  C   UNL A   1      42.071  22.053  25.642  1.00  0.00     0.014 A 
ATOM     33  C   UNL A   1      42.166  22.406  28.409  1.00  0.00     0.010 A 
ATOM     34  C   UNL A   1      42.407  23.297  26.175  1.00  0.00     0.010 A 
ATOM     35  C   UNL A   1      42.461  23.487  27.564  1.00  0.00    -0.014 A 
BRANCH  35  36
ATOM     36  C   UNL A   1      42.845  24.814  28.114  1.00  0.00     0.031 A 
ATOM     37  C   UNL A   1      41.804  25.871  28.361  1.00  0.00     0.074 A 
ATOM     38  C   UNL A   1      44.146  25.096  28.326  1.00  0.00     0.049 A 
ATOM     39  N   UNL A   1      41.960  27.103  28.778  1.00  0.00    -0.248 NA
ATOM     40  C   UNL A   1      40.408  25.504  28.080  1.00  0.00     0.031 C 
ATOM     41  C   UNL A   1      45.261  24.178  28.092  1.00  0.00     0.029 A 
ATOM     42  N   UNL A   1      44.750  26.244  28.776  1.00  0.00    -0.354 N 
ATOM     43  C   UNL A   1      40.689  27.662  28.790  1.00  0.00     0.074 A 
ATOM     44  C   UNL A   1      39.781  26.652  28.290  1.00  0.00     0.031 C 
ATOM     45  C   UNL A   1      46.410  24.788  28.423  1.00  0.00     0.029 A 
ATOM     46  C   UNL A   1      46.120  26.154  28.846  1.00  0.00     0.049 A 
ATOM     47  H   UNL A   1      44.250  27.055  29.025  1.00  0.00     0.167 HD
ATOM     48  C   UNL A   1      40.307  28.899  29.191  1.00  0.00     0.031 A 
ATOM     49  C   UNL A   1      47.042  27.069  29.197  1.00  0.00     0.031 A 
ATOM     50  C   UNL A   1      41.209  29.906  29.684  1.00  0.00     0.049 A 
ATOM     51  C   UNL A   1      46.600  28.443  29.616  1.00  0.00     0.074 A 
ATOM     52  C   UNL A   1      40.909  31.166  30.173  1.00  0.00     0.029 A 
ATOM     53  N   UNL A   1      42.588  29.774  29.739  1.00  0.00    -0.354 N 
ATOM     54  N   UNL A   1      45.386  28.931  29.693  1.00  0.00    -0.248 NA
ATOM     55  C   UNL A   1      47.656  29.389  30.005  1.00  0.00     0.031 C 
ATOM     56  C   UNL A   1      42.112  31.822  30.459  1.00  0.00     0.029 A 
ATOM     57  C   UNL A   1      43.156  30.943  30.219  1.00  0.00     0.049 A 
ATOM     58  H   UNL A   1      43.089  28.968  29.476  1.00  0.00     0.167 HD
ATOM     59  C   UNL A   1      45.529  30.230  30.165  1.00  0.00     0.074 A 
ATOM     60  C   UNL A   1      46.946  30.448  30.369  1.00  0.00     0.031 C 
ATOM     61  C   UNL A   1      44.569  31.156  30.410  1.00  0.00     0.031 A 
BRANCH  48  62
ATOM     62  C   UNL A   1      38.842  29.236  29.087  1.00  0.00    -0.014 A 
ATOM     63  C   UNL A   1      37.973  29.078  30.178  1.00  0.00     0.009 A 
ATOM     64  C   UNL A   1      38.329  29.738  27.881  1.00  0.00     0.009 A 
ATOM     65  C   UNL A   1      36.612  29.365  30.048  1.00  0.00     0.001 A 
ATOM     66  C   UNL A   1      36.974  30.057  27.764  1.00  0.00     0.001 A 
ATOM     67  C   UNL A   1      36.115  29.858  28.842  1.00  0.00     0.000 A 
ENDBRANCH  48  62
BRANCH  49  68
ATOM     68  C   UNL A   1      48.485  26.706  29.176  1.00  0.00    -0.014 A 
ATOM     69  C   UNL A   1      49.091  26.122  30.299  1.00  0.00     0.009 A 
ATOM     70  C   UNL A   1      49.257  26.924  28.024  1.00  0.00     0.009 A 
ATOM     71  C   UNL A   1      50.445  25.781  30.275  1.00  0.00     0.001 A 
ATOM     72  C   UNL A   1      50.603  26.554  27.993  1.00  0.00     0.001 A 
ATOM     73  C   UNL A   1      51.198  25.990  29.120  1.00  0.00     0.000 A 
ENDBRANCH  49  68
BRANCH  61  74
ATOM     74  C   UNL A   1      45.014  32.484  30.959  1.00  0.00    -0.014 A 
ATOM     75  C   UNL A   1      45.302  33.569  30.116  1.00  0.00     0.009 A 
ATOM     76  C   UNL A   1      45.100  32.665  32.350  1.00  0.00     0.009 A 
ATOM     77  C   UNL A   1      45.700  34.795  30.653  1.00  0.00     0.001 A 
ATOM     78  C   UNL A   1      45.465  33.901  32.885  1.00  0.00     0.001 A 
ATOM     79  C   UNL A   1      45.774  34.962  32.035  1.00  0.00     0.000 A 
ENDBRANCH  61  74
ENDBRANCH  35  36
ENDBRANCH  27  30
ENDBRANCH  25  26
ENDBRANCH  24  25
ENDBRANCH   1  24
TORSDOF 14
ENDMDL
MODEL 2
REMARK VINA RESULT:     -11.4      0.345      5.902
REMARK SMILES C[C@@H](Oc1ccccc1Cl)C(=O)N1CC[C@H](C(=O)NCCCNC(=O)c2ccc(-c3c4nc(c(-c5ccccc5)c5ccc([nH]5)c(-c5ccccc5)c5nc(c(-c6ccccc6)c6ccc3[nH]6)C=C5)C=C4)cc2)[C@@H]1C
REMARK SMILES IDX 20 1 19 2 17 3 18 4 16 6 13 7 14 8 74 9 15 10 75 11 11 12
REMARK SMILES IDX 12 13 2 14 1 15 3 16 4 17 5 18 9 19 6 20 8 21 10 22 7 23
REMARK SMILES IDX 21 24 22 25 23 26 24 27 25 29 26 30 27 31 73 32 28 33 72 34
REMARK SMILES IDX 29 35 30 36 31 37 66 38 32 39 71 40 65 41 67 42 33 43 70 44
REMARK SMILES IDX 64 45 63 46 34 48 56 49 41 50 55 51 42 52 45 53 54 54 68 55
REMARK SMILES IDX 43 56 44 57 53 59 69 60 46 61 35 62 36 63 40 64 37 65 39 66
REMARK SMILES IDX 38 67 57 68 58 69 62 70 59 71 61 72 60 73 47 74 48 75 52 76
REMARK SMILES IDX 49 77 51 78 50 79
REMARK H PARENT 19 5 23 28 67 47 45 58
REMARK Flexibility Score: inf
ROOT
ATOM      1  C   UNL A   1      36.982  20.687  24.948  1.00  0.00     0.117 C 
ENDROOT
BRANCH   1   2
ATOM      2  N   UNL A   1      35.731  19.957  25.043  1.00  0.00    -0.356 N 
ATOM      3  C   UNL A   1      34.446  20.377  24.891  1.00  0.00     0.225 C 
ATOM      4  O   UNL A   1      33.560  19.524  24.977  1.00  0.00    -0.275 OA
ATOM      5  H   UNL A   1      35.829  18.999  25.251  1.00  0.00     0.163 HD
BRANCH   3   6
ATOM      6  C   UNL A   1      34.139  21.849  24.646  1.00  0.00     0.102 C 
ATOM      7  N   UNL A   1      32.432  23.050  25.825  1.00  0.00    -0.336 N 
ATOM      8  C   UNL A   1      31.770  22.179  24.875  1.00  0.00     0.121 C 
ATOM      9  C   UNL A   1      33.857  22.693  25.920  1.00  0.00     0.094 C 
ATOM     10  C   UNL A   1      32.845  21.977  23.822  1.00  0.00     0.037 C 
ATOM     11  C   UNL A   1      34.140  21.959  27.234  1.00  0.00     0.032 C 
BRANCH   7  12
ATOM     12  C   UNL A   1      31.736  24.112  26.367  1.00  0.00     0.263 C 
ATOM     13  O   UNL A   1      31.074  23.967  27.402  1.00  0.00    -0.271 OA
BRANCH  12  14
ATOM     14  C   UNL A   1      31.697  25.473  25.646  1.00  0.00     0.259 C 
ATOM     15  C   UNL A   1      30.722  26.463  26.263  1.00  0.00     0.064 C 
BRANCH  14  16
ATOM     16  O   UNL A   1      33.029  26.011  25.603  1.00  0.00    -0.479 OA
BRANCH  16  17
ATOM     17  C   UNL A   1      33.282  26.707  24.450  1.00  0.00     0.139 A 
ATOM     18  C   UNL A   1      33.154  26.066  23.215  1.00  0.00     0.048 A 
ATOM     19  C   UNL A   1      33.759  28.021  24.510  1.00  0.00     0.083 A 
ATOM     20  C   UNL A   1      33.449  26.759  22.038  1.00  0.00     0.004 A 
ATOM     21  C   UNL A   1      34.033  28.716  23.331  1.00  0.00     0.024 A 
ATOM     22  Cl  UNL A   1      34.039  28.816  26.017  1.00  0.00    -0.080 Cl
ATOM     23  C   UNL A   1      33.876  28.087  22.096  1.00  0.00     0.002 A 
ENDBRANCH  16  17
ENDBRANCH  14  16
ENDBRANCH  12  14
ENDBRANCH   7  12
ENDBRANCH   3   6
ENDBRANCH   1   2
BRANCH   1  24
ATOM     24  C   UNL A   1      38.197  19.765  24.935  1.00  0.00     0.042 C 
BRANCH  24  25
ATOM     25  C   UNL A   1      39.285  20.101  25.950  1.00  0.00     0.118 C 
BRANCH  25  26
ATOM     26  N   UNL A   1      40.435  19.215  25.882  1.00  0.00    -0.352 N 
ATOM     27  C   UNL A   1      41.766  19.479  26.111  1.00  0.00     0.251 C 
ATOM     28  H   UNL A   1      40.232  18.284  25.635  1.00  0.00     0.163 HD
ATOM     29  O   UNL A   1      42.606  18.617  25.875  1.00  0.00    -0.269 OA
BRANCH  27  30
ATOM     30  C   UNL A   1      42.198  20.807  26.607  1.00  0.00     0.039 A 
ATOM     31  C   UNL A   1      42.615  21.765  25.678  1.00  0.00     0.014 A 
ATOM     32  C   UNL A   1      42.208  21.112  27.971  1.00  0.00     0.014 A 
ATOM     33  C   UNL A   1      42.966  23.047  26.109  1.00  0.00     0.010 A 
ATOM     34  C   UNL A   1      42.481  22.413  28.390  1.00  0.00     0.010 A 
ATOM     35  C   UNL A   1      42.860  23.396  27.464  1.00  0.00    -0.014 A 
BRANCH  35  36
ATOM     36  C   UNL A   1      43.123  24.785  27.927  1.00  0.00     0.031 A 
ATOM     37  C   UNL A   1      44.517  25.223  28.282  1.00  0.00     0.074 A 
ATOM     38  C   UNL A   1      42.092  25.637  28.097  1.00  0.00     0.049 A 
ATOM     39  N   UNL A   1      44.926  26.372  28.760  1.00  0.00    -0.248 NA
ATOM     40  C   UNL A   1      45.589  24.231  28.101  1.00  0.00     0.031 C 
ATOM     41  C   UNL A   1      40.687  25.331  27.828  1.00  0.00     0.029 A 
ATOM     42  N   UNL A   1      42.069  26.934  28.549  1.00  0.00    -0.354 N 
ATOM     43  C   UNL A   1      46.295  26.235  28.953  1.00  0.00     0.074 A 
ATOM     44  C   UNL A   1      46.637  24.877  28.590  1.00  0.00     0.031 C 
ATOM     45  C   UNL A   1      39.942  26.415  28.096  1.00  0.00     0.029 A 
ATOM     46  C   UNL A   1      40.808  27.476  28.600  1.00  0.00     0.049 A 
ATOM     47  H   UNL A   1      42.879  27.427  28.810  1.00  0.00     0.167 HD
ATOM     48  C   UNL A   1      47.190  27.158  29.381  1.00  0.00     0.031 A 
ATOM     49  C   UNL A   1      40.389  28.685  29.018  1.00  0.00     0.031 A 
ATOM     50  C   UNL A   1      46.850  28.508  29.747  1.00  0.00     0.049 A 
ATOM     51  C   UNL A   1      41.394  29.686  29.513  1.00  0.00     0.074 A 
ATOM     52  C   UNL A   1      47.695  29.535  30.133  1.00  0.00     0.029 A 
ATOM     53  N   UNL A   1      45.561  29.017  29.785  1.00  0.00    -0.354 N 
ATOM     54  N   UNL A   1      42.696  29.565  29.618  1.00  0.00    -0.248 NA
ATOM     55  C   UNL A   1      40.873  30.993  29.937  1.00  0.00     0.031 C 
ATOM     56  C   UNL A   1      46.911  30.643  30.470  1.00  0.00     0.029 A 
ATOM     57  C   UNL A   1      45.584  30.331  30.223  1.00  0.00     0.049 A 
ATOM     58  H   UNL A   1      44.749  28.518  29.536  1.00  0.00     0.167 HD
ATOM     59  C   UNL A   1      43.152  30.788  30.095  1.00  0.00     0.074 A 
ATOM     60  C   UNL A   1      41.990  31.640  30.243  1.00  0.00     0.031 C 
ATOM     61  C   UNL A   1      44.422  31.170  30.378  1.00  0.00     0.031 A 
BRANCH  48  62
ATOM     62  C   UNL A   1      48.627  26.722  29.501  1.00  0.00    -0.014 A 
ATOM     63  C   UNL A   1      49.127  26.160  30.687  1.00  0.00     0.009 A 
ATOM     64  C   UNL A   1      49.488  26.856  28.401  1.00  0.00     0.009 A 
ATOM     65  C   UNL A   1      50.471  25.794  30.786  1.00  0.00     0.001 A 
ATOM     66  C   UNL A   1      50.823  26.457  28.491  1.00  0.00     0.001 A 
ATOM     67  C   UNL A   1      51.317  25.939  29.687  1.00  0.00     0.000 A 
ENDBRANCH  48  62
BRANCH  49  68
ATOM     68  C   UNL A   1      38.939  29.017  28.976  1.00  0.00    -0.014 A 
ATOM     69  C   UNL A   1      38.133  28.838  30.111  1.00  0.00     0.009 A 
ATOM     70  C   UNL A   1      38.360  29.533  27.806  1.00  0.00     0.009 A 
ATOM     71  C   UNL A   1      36.772  29.152  30.068  1.00  0.00     0.001 A 
ATOM     72  C   UNL A   1      37.006  29.874  27.776  1.00  0.00     0.001 A 
ATOM     73  C   UNL A   1      36.212  29.676  28.904  1.00  0.00     0.000 A 
ENDBRANCH  49  68
BRANCH  61  74
ATOM     74  C   UNL A   1      44.631  32.583  30.849  1.00  0.00    -0.014 A 
ATOM     75  C   UNL A   1      44.818  33.640  29.943  1.00  0.00     0.009 A 
ATOM     76  C   UNL A   1      44.593  32.869  32.224  1.00  0.00     0.009 A 
ATOM     77  C   UNL A   1      44.996  34.945  30.406  1.00  0.00     0.001 A 
ATOM     78  C   UNL A   1      44.737  34.178  32.682  1.00  0.00     0.001 A 
ATOM     79  C   UNL A   1      44.948  35.214  31.774  1.00  0.00     0.000 A 
ENDBRANCH  61  74
ENDBRANCH  35  36
ENDBRANCH  27  30
ENDBRANCH  25  26
ENDBRANCH  24  25
ENDBRANCH   1  24
TORSDOF 14
ENDMDL
MODEL 3
REMARK VINA RESULT:     -11.3      1.586      2.229
REMARK SMILES C[C@@H](Oc1ccccc1Cl)C(=O)N1CC[C@H](C(=O)NCCCNC(=O)c2ccc(-c3c4nc(c(-c5ccccc5)c5ccc([nH]5)c(-c5ccccc5)c5nc(c(-c6ccccc6)c6ccc3[nH]6)C=C5)C=C4)cc2)[C@@H]1C
REMARK SMILES IDX 20 1 19 2 17 3 18 4 16 6 13 7 14 8 74 9 15 10 75 11 11 12
REMARK SMILES IDX 12 13 2 14 1 15 3 16 4 17 5 18 9 19 6 20 8 21 10 22 7 23
REMARK SMILES IDX 21 24 22 25 23 26 24 27 25 29 26 30 27 31 73 32 28 33 72 34
REMARK SMILES IDX 29 35 30 36 31 37 66 38 32 39 71 40 65 41 67 42 33 43 70 44
REMARK SMILES IDX 64 45 63 46 34 48 56 49 41 50 55 51 42 52 45 53 54 54 68 55
REMARK SMILES IDX 43 56 44 57 53 59 69 60 46 61 35 62 36 63 40 64 37 65 39 66
REMARK SMILES IDX 38 67 57 68 58 69 62 70 59 71 61 72 60 73 47 74 48 75 52 76
REMARK SMILES IDX 49 77 51 78 50 79
REMARK H PARENT 19 5 23 28 67 47 45 58
REMARK Flexibility Score: inf
ROOT
ATOM      1  C   UNL A   1      36.917  20.522  25.045  1.00  0.00     0.117 C 
ENDROOT
BRANCH   1   2
ATOM      2  N   UNL A   1      35.661  19.796  25.091  1.00  0.00    -0.356 N 
ATOM      3  C   UNL A   1      34.379  20.234  24.960  1.00  0.00     0.225 C 
ATOM      4  O   UNL A   1      33.487  19.384  24.990  1.00  0.00    -0.275 OA
ATOM      5  H   UNL A   1      35.751  18.827  25.239  1.00  0.00     0.163 HD
BRANCH   3   6
ATOM      6  C   UNL A   1      34.084  21.720  24.805  1.00  0.00     0.102 C 
ATOM      7  N   UNL A   1      32.391  22.862  26.061  1.00  0.00    -0.336 N 
ATOM      8  C   UNL A   1      31.718  22.056  25.064  1.00  0.00     0.121 C 
ATOM      9  C   UNL A   1      33.814  22.489  26.129  1.00  0.00     0.094 C 
ATOM     10  C   UNL A   1      32.787  21.908  23.996  1.00  0.00     0.037 C 
ATOM     11  C   UNL A   1      34.096  21.675  27.395  1.00  0.00     0.032 C 
BRANCH   7  12
ATOM     12  C   UNL A   1      31.706  23.895  26.669  1.00  0.00     0.263 C 
ATOM     13  O   UNL A   1      30.682  23.671  27.325  1.00  0.00    -0.271 OA
BRANCH  12  14
ATOM     14  C   UNL A   1      32.154  25.356  26.470  1.00  0.00     0.259 C 
ATOM     15  C   UNL A   1      33.065  25.557  25.270  1.00  0.00     0.064 C 
BRANCH  14  16
ATOM     16  O   UNL A   1      30.986  26.190  26.383  1.00  0.00    -0.479 OA
BRANCH  16  17
ATOM     17  C   UNL A   1      31.293  27.519  26.249  1.00  0.00     0.139 A 
ATOM     18  C   UNL A   1      31.767  28.232  27.354  1.00  0.00     0.048 A 
ATOM     19  C   UNL A   1      31.044  28.182  25.044  1.00  0.00     0.083 A 
ATOM     20  C   UNL A   1      32.044  29.595  27.234  1.00  0.00     0.004 A 
ATOM     21  C   UNL A   1      31.341  29.541  24.922  1.00  0.00     0.024 A 
ATOM     22  Cl  UNL A   1      30.355  27.368  23.686  1.00  0.00    -0.080 Cl
ATOM     23  C   UNL A   1      31.843  30.247  26.016  1.00  0.00     0.002 A 
ENDBRANCH  16  17
ENDBRANCH  14  16
ENDBRANCH  12  14
ENDBRANCH   7  12
ENDBRANCH   3   6
ENDBRANCH   1   2
BRANCH   1  24
ATOM     24  C   UNL A   1      38.123  19.595  24.934  1.00  0.00     0.042 C 
BRANCH  24  25
ATOM     25  C   UNL A   1      39.337  19.996  25.766  1.00  0.00     0.118 C 
BRANCH  25  26
ATOM     26  N   UNL A   1      40.360  18.966  25.834  1.00  0.00    -0.352 N 
ATOM     27  C   UNL A   1      41.706  19.076  26.096  1.00  0.00     0.251 C 
ATOM     28  H   UNL A   1      40.042  18.049  25.667  1.00  0.00     0.163 HD
ATOM     29  O   UNL A   1      42.431  18.094  25.980  1.00  0.00    -0.269 OA
BRANCH  27  30
ATOM     30  C   UNL A   1      42.296  20.380  26.482  1.00  0.00     0.039 A 
ATOM     31  C   UNL A   1      42.919  21.151  25.497  1.00  0.00     0.014 A 
ATOM     32  C   UNL A   1      42.252  20.842  27.800  1.00  0.00     0.014 A 
ATOM     33  C   UNL A   1      43.426  22.414  25.815  1.00  0.00     0.010 A 
ATOM     34  C   UNL A   1      42.687  22.133  28.099  1.00  0.00     0.010 A 
ATOM     35  C   UNL A   1      43.276  22.934  27.110  1.00  0.00    -0.014 A 
BRANCH  35  36
ATOM     36  C   UNL A   1      43.710  24.317  27.442  1.00  0.00     0.031 A 
ATOM     37  C   UNL A   1      42.702  25.363  27.832  1.00  0.00     0.074 A 
ATOM     38  C   UNL A   1      45.009  24.654  27.322  1.00  0.00     0.049 A 
ATOM     39  N   UNL A   1      42.888  26.633  28.094  1.00  0.00    -0.248 NA
ATOM     40  C   UNL A   1      41.298  24.932  27.913  1.00  0.00     0.031 C 
ATOM     41  C   UNL A   1      46.086  23.750  26.915  1.00  0.00     0.029 A 
ATOM     42  N   UNL A   1      45.644  25.857  27.520  1.00  0.00    -0.354 N 
ATOM     43  C   UNL A   1      41.627  27.155  28.352  1.00  0.00     0.074 A 
ATOM     44  C   UNL A   1      40.680  26.077  28.164  1.00  0.00     0.031 C 
ATOM     45  C   UNL A   1      47.248  24.421  26.918  1.00  0.00     0.029 A 
ATOM     46  C   UNL A   1      46.995  25.812  27.279  1.00  0.00     0.049 A 
ATOM     47  H   UNL A   1      45.174  26.672  27.808  1.00  0.00     0.167 HD
ATOM     48  C   UNL A   1      41.286  28.412  28.725  1.00  0.00     0.031 A 
ATOM     49  C   UNL A   1      47.928  26.782  27.328  1.00  0.00     0.031 A 
ATOM     50  C   UNL A   1      42.227  29.486  28.908  1.00  0.00     0.049 A 
ATOM     51  C   UNL A   1      47.526  28.176  27.719  1.00  0.00     0.074 A 
ATOM     52  C   UNL A   1      41.985  30.778  29.343  1.00  0.00     0.029 A 
ATOM     53  N   UNL A   1      43.587  29.399  28.653  1.00  0.00    -0.354 N 
ATOM     54  N   UNL A   1      46.338  28.634  28.033  1.00  0.00    -0.248 NA
ATOM     55  C   UNL A   1      48.595  29.183  27.771  1.00  0.00     0.031 C 
ATOM     56  C   UNL A   1      43.188  31.491  29.286  1.00  0.00     0.029 A 
ATOM     57  C   UNL A   1      44.191  30.624  28.887  1.00  0.00     0.049 A 
ATOM     58  H   UNL A   1      44.054  28.587  28.351  1.00  0.00     0.167 HD
ATOM     59  C   UNL A   1      46.521  29.976  28.347  1.00  0.00     0.074 A 
ATOM     60  C   UNL A   1      47.935  30.252  28.198  1.00  0.00     0.031 C 
ATOM     61  C   UNL A   1      45.598  30.894  28.727  1.00  0.00     0.031 A 
BRANCH  48  62
ATOM     62  C   UNL A   1      39.822  28.696  28.933  1.00  0.00    -0.014 A 
ATOM     63  C   UNL A   1      39.017  29.197  27.898  1.00  0.00     0.009 A 
ATOM     64  C   UNL A   1      39.235  28.439  30.182  1.00  0.00     0.009 A 
ATOM     65  C   UNL A   1      37.669  29.485  28.124  1.00  0.00     0.001 A 
ATOM     66  C   UNL A   1      37.879  28.695  30.396  1.00  0.00     0.001 A 
ATOM     67  C   UNL A   1      37.101  29.230  29.372  1.00  0.00     0.000 A 
ENDBRANCH  48  62
BRANCH  49  68
ATOM     68  C   UNL A   1      49.344  26.459  27.004  1.00  0.00    -0.014 A 
ATOM     69  C   UNL A   1      49.817  26.566  25.687  1.00  0.00     0.009 A 
ATOM     70  C   UNL A   1      50.233  26.061  28.015  1.00  0.00     0.009 A 
ATOM     71  C   UNL A   1      51.147  26.263  25.387  1.00  0.00     0.001 A 
ATOM     72  C   UNL A   1      51.569  25.788  27.716  1.00  0.00     0.001 A 
ATOM     73  C   UNL A   1      52.023  25.882  26.402  1.00  0.00     0.000 A 
ENDBRANCH  49  68
BRANCH  61  74
ATOM     74  C   UNL A   1      46.091  32.279  29.044  1.00  0.00    -0.014 A 
ATOM     75  C   UNL A   1      46.142  33.283  28.063  1.00  0.00     0.009 A 
ATOM     76  C   UNL A   1      46.466  32.598  30.359  1.00  0.00     0.009 A 
ATOM     77  C   UNL A   1      46.591  34.565  28.387  1.00  0.00     0.001 A 
ATOM     78  C   UNL A   1      46.881  33.889  30.688  1.00  0.00     0.001 A 
ATOM     79  C   UNL A   1      46.953  34.869  29.699  1.00  0.00     0.000 A 
ENDBRANCH  61  74
ENDBRANCH  35  36
ENDBRANCH  27  30
ENDBRANCH  25  26
ENDBRANCH  24  25
ENDBRANCH   1  24
TORSDOF 14
ENDMDL
