MODEL 1
REMARK VINA RESULT:     -10.5      0.000      0.000
REMARK SMILES O=C(NCCCNC(=O)[C@H]1C[C@H]1c1ccc(C2CC2)cc1)c1ccc(-c2c3nc(c(-c4ccccc4)c4ccc([nH]4)c(-c4ccccc4)c4nc(c(-c5ccccc5)c5ccc2[nH]5)C=C4)C=C3)cc1
REMARK SMILES IDX 5 1 4 2 3 3 1 4 2 5 22 7 23 8 69 9 24 10 68 11 25 12 26 13
REMARK SMILES IDX 27 14 62 15 28 16 67 17 61 18 63 19 29 20 66 21 60 22 59 23
REMARK SMILES IDX 30 25 52 26 37 27 51 28 38 29 41 30 50 31 64 32 39 33 40 34
REMARK SMILES IDX 49 36 65 37 42 38 31 39 32 40 36 41 33 42 35 43 34 44 53 45
REMARK SMILES IDX 54 46 58 47 55 48 57 49 56 50 43 51 44 52 48 53 45 54 47 55
REMARK SMILES IDX 46 56 6 57 7 58 8 59 9 61 10 62 11 63 12 64 13 65 14 66
REMARK SMILES IDX 21 67 15 68 20 69 16 70 17 71 18 72 19 73
REMARK H PARENT 3 6 63 24 41 35 7 60
REMARK Flexibility Score: inf
ROOT
ATOM      1  C   UNL A   1      34.009  28.377  26.052  1.00  0.00     0.042 C 
ENDROOT
BRANCH   1   2
ATOM      2  C   UNL A   1      33.489  28.719  27.445  1.00  0.00     0.118 C 
BRANCH   2   3
ATOM      3  N   UNL A   1      33.562  30.139  27.774  1.00  0.00    -0.352 N 
ATOM      4  O   UNL A   1      34.428  32.064  28.567  1.00  0.00    -0.269 OA
ATOM      5  C   UNL A   1      34.608  30.885  28.271  1.00  0.00     0.251 C 
ATOM      6  H   UNL A   1      32.732  30.642  27.617  1.00  0.00     0.163 HD
BRANCH   5   7
ATOM      7  C   UNL A   1      35.940  30.272  28.484  1.00  0.00     0.039 A 
ATOM      8  C   UNL A   1      36.279  29.705  29.710  1.00  0.00     0.014 A 
ATOM      9  C   UNL A   1      36.868  30.255  27.435  1.00  0.00     0.014 A 
ATOM     10  C   UNL A   1      37.588  29.305  29.948  1.00  0.00     0.010 A 
ATOM     11  C   UNL A   1      38.155  29.741  27.642  1.00  0.00     0.010 A 
ATOM     12  C   UNL A   1      38.539  29.295  28.914  1.00  0.00    -0.014 A 
BRANCH  12  13
ATOM     13  C   UNL A   1      39.888  28.733  29.196  1.00  0.00     0.031 A 
ATOM     14  C   UNL A   1      40.276  27.341  28.774  1.00  0.00     0.074 A 
ATOM     15  C   UNL A   1      40.800  29.535  29.783  1.00  0.00     0.049 A 
ATOM     16  N   UNL A   1      41.446  26.755  28.863  1.00  0.00    -0.248 NA
ATOM     17  C   UNL A   1      39.227  26.495  28.185  1.00  0.00     0.031 C 
ATOM     18  C   UNL A   1      40.542  30.900  30.254  1.00  0.00     0.029 A 
ATOM     19  N   UNL A   1      42.132  29.342  30.047  1.00  0.00    -0.354 N 
ATOM     20  C   UNL A   1      41.275  25.477  28.343  1.00  0.00     0.074 A 
ATOM     21  C   UNL A   1      39.880  25.358  27.976  1.00  0.00     0.031 C 
ATOM     22  C   UNL A   1      41.690  31.443  30.680  1.00  0.00     0.029 A 
ATOM     23  C   UNL A   1      42.747  30.445  30.590  1.00  0.00     0.049 A 
ATOM     24  H   UNL A   1      42.602  28.496  29.866  1.00  0.00     0.167 HD
ATOM     25  C   UNL A   1      42.198  24.498  28.178  1.00  0.00     0.031 A 
ATOM     26  C   UNL A   1      44.017  30.635  30.990  1.00  0.00     0.031 A 
ATOM     27  C   UNL A   1      43.585  24.611  28.558  1.00  0.00     0.049 A 
ATOM     28  C   UNL A   1      45.002  29.514  30.834  1.00  0.00     0.074 A 
ATOM     29  C   UNL A   1      44.596  23.675  28.419  1.00  0.00     0.029 A 
ATOM     30  N   UNL A   1      44.154  25.724  29.156  1.00  0.00    -0.354 N 
ATOM     31  N   UNL A   1      44.829  28.328  30.303  1.00  0.00    -0.248 NA
ATOM     32  C   UNL A   1      46.362  29.762  31.329  1.00  0.00     0.031 C 
ATOM     33  C   UNL A   1      45.763  24.199  28.986  1.00  0.00     0.029 A 
ATOM     34  C   UNL A   1      45.497  25.489  29.413  1.00  0.00     0.049 A 
ATOM     35  H   UNL A   1      43.678  26.559  29.365  1.00  0.00     0.167 HD
ATOM     36  C   UNL A   1      46.060  27.694  30.388  1.00  0.00     0.074 A 
ATOM     37  C   UNL A   1      46.979  28.643  30.982  1.00  0.00     0.031 C 
ATOM     38  C   UNL A   1      46.399  26.435  30.016  1.00  0.00     0.031 A 
BRANCH  25  39
ATOM     39  C   UNL A   1      41.743  23.199  27.566  1.00  0.00    -0.014 A 
ATOM     40  C   UNL A   1      41.970  22.914  26.211  1.00  0.00     0.009 A 
ATOM     41  C   UNL A   1      41.154  22.213  28.374  1.00  0.00     0.009 A 
ATOM     42  C   UNL A   1      41.597  21.680  25.673  1.00  0.00     0.001 A 
ATOM     43  C   UNL A   1      40.807  20.969  27.841  1.00  0.00     0.001 A 
ATOM     44  C   UNL A   1      41.023  20.706  26.489  1.00  0.00     0.000 A 
ENDBRANCH  25  39
BRANCH  26  45
ATOM     45  C   UNL A   1      44.419  31.922  31.615  1.00  0.00    -0.014 A 
ATOM     46  C   UNL A   1      44.940  32.972  30.844  1.00  0.00     0.009 A 
ATOM     47  C   UNL A   1      44.306  32.095  33.005  1.00  0.00     0.009 A 
ATOM     48  C   UNL A   1      45.376  34.150  31.456  1.00  0.00     0.001 A 
ATOM     49  C   UNL A   1      44.703  33.288  33.609  1.00  0.00     0.001 A 
ATOM     50  C   UNL A   1      45.253  34.308  32.837  1.00  0.00     0.000 A 
ENDBRANCH  26  45
BRANCH  38  51
ATOM     51  C   UNL A   1      47.833  26.032  30.223  1.00  0.00    -0.014 A 
ATOM     52  C   UNL A   1      48.293  25.578  31.470  1.00  0.00     0.009 A 
ATOM     53  C   UNL A   1      48.739  26.113  29.154  1.00  0.00     0.009 A 
ATOM     54  C   UNL A   1      49.640  25.267  31.656  1.00  0.00     0.001 A 
ATOM     55  C   UNL A   1      50.079  25.767  29.333  1.00  0.00     0.001 A 
ATOM     56  C   UNL A   1      50.532  25.359  30.587  1.00  0.00     0.000 A 
ENDBRANCH  38  51
ENDBRANCH  12  13
ENDBRANCH   5   7
ENDBRANCH   2   3
ENDBRANCH   1   2
BRANCH   1  57
ATOM     57  C   UNL A   1      33.306  29.109  24.914  1.00  0.00     0.117 C 
BRANCH  57  58
ATOM     58  N   UNL A   1      33.936  28.869  23.628  1.00  0.00    -0.356 N 
ATOM     59  C   UNL A   1      33.527  28.077  22.589  1.00  0.00     0.223 C 
ATOM     60  H   UNL A   1      34.785  29.346  23.482  1.00  0.00     0.163 HD
ATOM     61  O   UNL A   1      34.221  28.015  21.579  1.00  0.00    -0.275 OA
BRANCH  59  62
ATOM     62  C   UNL A   1      32.250  27.335  22.729  1.00  0.00     0.086 C 
ATOM     63  C   UNL A   1      32.018  26.155  21.815  1.00  0.00     0.023 C 
ATOM     64  C   UNL A   1      32.072  25.941  23.307  1.00  0.00     0.032 C 
BRANCH  64  65
ATOM     65  C   UNL A   1      33.163  25.092  23.916  1.00  0.00    -0.044 A 
ATOM     66  C   UNL A   1      33.353  25.025  25.304  1.00  0.00     0.004 A 
ATOM     67  C   UNL A   1      34.099  24.413  23.127  1.00  0.00     0.004 A 
ATOM     68  C   UNL A   1      34.409  24.293  25.869  1.00  0.00     0.004 A 
ATOM     69  C   UNL A   1      35.152  23.676  23.693  1.00  0.00     0.004 A 
ATOM     70  C   UNL A   1      35.333  23.590  25.081  1.00  0.00    -0.045 A 
BRANCH  70  71
ATOM     71  C   UNL A   1      36.435  22.790  25.751  1.00  0.00     0.019 C 
ATOM     72  C   UNL A   1      37.517  22.065  24.988  1.00  0.00     0.009 C 
ATOM     73  C   UNL A   1      37.852  23.313  25.751  1.00  0.00     0.009 C 
ENDBRANCH  70  71
ENDBRANCH  64  65
ENDBRANCH  59  62
ENDBRANCH  57  58
ENDBRANCH   1  57
TORSDOF 12
ENDMDL
MODEL 2
REMARK VINA RESULT:     -10.3      3.042      7.940
REMARK SMILES O=C(NCCCNC(=O)[C@H]1C[C@H]1c1ccc(C2CC2)cc1)c1ccc(-c2c3nc(c(-c4ccccc4)c4ccc([nH]4)c(-c4ccccc4)c4nc(c(-c5ccccc5)c5ccc2[nH]5)C=C4)C=C3)cc1
REMARK SMILES IDX 5 1 4 2 3 3 1 4 2 5 22 7 23 8 69 9 24 10 68 11 25 12 26 13
REMARK SMILES IDX 27 14 62 15 28 16 67 17 61 18 63 19 29 20 66 21 60 22 59 23
REMARK SMILES IDX 30 25 52 26 37 27 51 28 38 29 41 30 50 31 64 32 39 33 40 34
REMARK SMILES IDX 49 36 65 37 42 38 31 39 32 40 36 41 33 42 35 43 34 44 53 45
REMARK SMILES IDX 54 46 58 47 55 48 57 49 56 50 43 51 44 52 48 53 45 54 47 55
REMARK SMILES IDX 46 56 6 57 7 58 8 59 9 61 10 62 11 63 12 64 13 65 14 66
REMARK SMILES IDX 21 67 15 68 20 69 16 70 17 71 18 72 19 73
REMARK H PARENT 3 6 63 24 41 35 7 60
REMARK Flexibility Score: inf
ROOT
ATOM      1  C   UNL A   1      36.143  23.639  26.094  1.00  0.00     0.042 C 
ENDROOT
BRANCH   1   2
ATOM      2  C   UNL A   1      37.269  23.664  25.065  1.00  0.00     0.118 C 
BRANCH   2   3
ATOM      3  N   UNL A   1      38.381  22.772  25.378  1.00  0.00    -0.352 N 
ATOM      4  O   UNL A   1      40.386  22.124  26.178  1.00  0.00    -0.269 OA
ATOM      5  C   UNL A   1      39.524  22.996  26.113  1.00  0.00     0.251 C 
ATOM      6  H   UNL A   1      38.300  21.865  25.003  1.00  0.00     0.163 HD
BRANCH   5   7
ATOM      7  C   UNL A   1      39.741  24.293  26.796  1.00  0.00     0.039 A 
ATOM      8  C   UNL A   1      40.425  25.329  26.166  1.00  0.00     0.014 A 
ATOM      9  C   UNL A   1      39.241  24.482  28.092  1.00  0.00     0.014 A 
ATOM     10  C   UNL A   1      40.779  26.463  26.888  1.00  0.00     0.010 A 
ATOM     11  C   UNL A   1      39.497  25.677  28.777  1.00  0.00     0.010 A 
ATOM     12  C   UNL A   1      40.302  26.665  28.194  1.00  0.00    -0.014 A 
BRANCH  12  13
ATOM     13  C   UNL A   1      40.606  27.956  28.867  1.00  0.00     0.031 A 
ATOM     14  C   UNL A   1      39.591  29.064  28.961  1.00  0.00     0.074 A 
ATOM     15  C   UNL A   1      41.805  28.093  29.470  1.00  0.00     0.049 A 
ATOM     16  N   UNL A   1      39.679  30.204  29.605  1.00  0.00    -0.248 NA
ATOM     17  C   UNL A   1      38.320  28.881  28.244  1.00  0.00     0.031 C 
ATOM     18  C   UNL A   1      42.882  27.097  29.437  1.00  0.00     0.029 A 
ATOM     19  N   UNL A   1      42.308  29.096  30.258  1.00  0.00    -0.354 N 
ATOM     20  C   UNL A   1      38.482  30.871  29.371  1.00  0.00     0.074 A 
ATOM     21  C   UNL A   1      37.698  30.027  28.495  1.00  0.00     0.031 C 
ATOM     22  C   UNL A   1      43.883  27.505  30.227  1.00  0.00     0.029 A 
ATOM     23  C   UNL A   1      43.559  28.823  30.758  1.00  0.00     0.049 A 
ATOM     24  H   UNL A   1      41.821  29.930  30.448  1.00  0.00     0.167 HD
ATOM     25  C   UNL A   1      38.072  32.071  29.850  1.00  0.00     0.031 A 
ATOM     26  C   UNL A   1      44.371  29.554  31.543  1.00  0.00     0.031 A 
ATOM     27  C   UNL A   1      38.861  32.919  30.710  1.00  0.00     0.049 A 
ATOM     28  C   UNL A   1      43.903  30.898  32.018  1.00  0.00     0.074 A 
ATOM     29  C   UNL A   1      38.523  34.147  31.254  1.00  0.00     0.029 A 
ATOM     30  N   UNL A   1      40.143  32.631  31.147  1.00  0.00    -0.354 N 
ATOM     31  N   UNL A   1      42.751  31.491  31.818  1.00  0.00    -0.248 NA
ATOM     32  C   UNL A   1      44.848  31.671  32.834  1.00  0.00     0.031 C 
ATOM     33  C   UNL A   1      39.623  34.629  31.971  1.00  0.00     0.029 A 
ATOM     34  C   UNL A   1      40.620  33.669  31.933  1.00  0.00     0.049 A 
ATOM     35  H   UNL A   1      40.643  31.811  30.932  1.00  0.00     0.167 HD
ATOM     36  C   UNL A   1      42.829  32.700  32.494  1.00  0.00     0.074 A 
ATOM     37  C   UNL A   1      44.123  32.734  33.144  1.00  0.00     0.031 C 
ATOM     38  C   UNL A   1      41.914  33.698  32.564  1.00  0.00     0.031 A 
BRANCH  25  39
ATOM     39  C   UNL A   1      36.705  32.557  29.448  1.00  0.00    -0.014 A 
ATOM     40  C   UNL A   1      36.505  33.259  28.249  1.00  0.00     0.009 A 
ATOM     41  C   UNL A   1      35.587  32.239  30.238  1.00  0.00     0.009 A 
ATOM     42  C   UNL A   1      35.221  33.649  27.860  1.00  0.00     0.001 A 
ATOM     43  C   UNL A   1      34.302  32.606  29.835  1.00  0.00     0.001 A 
ATOM     44  C   UNL A   1      34.120  33.316  28.649  1.00  0.00     0.000 A 
ENDBRANCH  25  39
BRANCH  26  45
ATOM     45  C   UNL A   1      45.725  29.049  31.893  1.00  0.00    -0.014 A 
ATOM     46  C   UNL A   1      45.947  28.326  33.074  1.00  0.00     0.009 A 
ATOM     47  C   UNL A   1      46.816  29.318  31.049  1.00  0.00     0.009 A 
ATOM     48  C   UNL A   1      47.237  27.918  33.421  1.00  0.00     0.001 A 
ATOM     49  C   UNL A   1      48.096  28.874  31.377  1.00  0.00     0.001 A 
ATOM     50  C   UNL A   1      48.309  28.188  32.570  1.00  0.00     0.000 A 
ENDBRANCH  26  45
BRANCH  38  51
ATOM     51  C   UNL A   1      42.283  34.896  33.396  1.00  0.00    -0.014 A 
ATOM     52  C   UNL A   1      42.974  35.986  32.843  1.00  0.00     0.009 A 
ATOM     53  C   UNL A   1      41.938  34.930  34.757  1.00  0.00     0.009 A 
ATOM     54  C   UNL A   1      43.359  37.060  33.646  1.00  0.00     0.001 A 
ATOM     55  C   UNL A   1      42.293  36.022  35.550  1.00  0.00     0.001 A 
ATOM     56  C   UNL A   1      43.016  37.078  34.998  1.00  0.00     0.000 A 
ENDBRANCH  38  51
ENDBRANCH  12  13
ENDBRANCH   5   7
ENDBRANCH   2   3
ENDBRANCH   1   2
BRANCH   1  57
ATOM     57  C   UNL A   1      35.467  22.284  26.262  1.00  0.00     0.117 C 
BRANCH  57  58
ATOM     58  N   UNL A   1      34.493  22.281  27.339  1.00  0.00    -0.356 N 
ATOM     59  C   UNL A   1      33.130  22.402  27.285  1.00  0.00     0.223 C 
ATOM     60  H   UNL A   1      34.869  22.176  28.243  1.00  0.00     0.163 HD
ATOM     61  O   UNL A   1      32.489  22.375  28.330  1.00  0.00    -0.275 OA
BRANCH  59  62
ATOM     62  C   UNL A   1      32.488  22.551  25.956  1.00  0.00     0.086 C 
ATOM     63  C   UNL A   1      31.031  22.948  25.919  1.00  0.00     0.023 C 
ATOM     64  C   UNL A   1      32.064  23.853  25.296  1.00  0.00     0.032 C 
BRANCH  64  65
ATOM     65  C   UNL A   1      32.295  25.240  25.850  1.00  0.00    -0.044 A 
ATOM     66  C   UNL A   1      31.256  25.982  26.428  1.00  0.00     0.004 A 
ATOM     67  C   UNL A   1      33.527  25.892  25.721  1.00  0.00     0.004 A 
ATOM     68  C   UNL A   1      31.450  27.296  26.879  1.00  0.00     0.004 A 
ATOM     69  C   UNL A   1      33.723  27.206  26.177  1.00  0.00     0.004 A 
ATOM     70  C   UNL A   1      32.691  27.943  26.775  1.00  0.00    -0.045 A 
BRANCH  70  71
ATOM     71  C   UNL A   1      32.849  29.355  27.310  1.00  0.00     0.019 C 
ATOM     72  C   UNL A   1      34.000  30.258  26.944  1.00  0.00     0.009 C 
ATOM     73  C   UNL A   1      32.632  30.535  26.394  1.00  0.00     0.009 C 
ENDBRANCH  70  71
ENDBRANCH  64  65
ENDBRANCH  59  62
ENDBRANCH  57  58
ENDBRANCH   1  57
TORSDOF 12
ENDMDL
MODEL 3
REMARK VINA RESULT:     -10.0      0.590      6.284
REMARK SMILES O=C(NCCCNC(=O)[C@H]1C[C@H]1c1ccc(C2CC2)cc1)c1ccc(-c2c3nc(c(-c4ccccc4)c4ccc([nH]4)c(-c4ccccc4)c4nc(c(-c5ccccc5)c5ccc2[nH]5)C=C4)C=C3)cc1
REMARK SMILES IDX 5 1 4 2 3 3 1 4 2 5 22 7 23 8 69 9 24 10 68 11 25 12 26 13
REMARK SMILES IDX 27 14 62 15 28 16 67 17 61 18 63 19 29 20 66 21 60 22 59 23
REMARK SMILES IDX 30 25 52 26 37 27 51 28 38 29 41 30 50 31 64 32 39 33 40 34
REMARK SMILES IDX 49 36 65 37 42 38 31 39 32 40 36 41 33 42 35 43 34 44 53 45
REMARK SMILES IDX 54 46 58 47 55 48 57 49 56 50 43 51 44 52 48 53 45 54 47 55
REMARK SMILES IDX 46 56 6 57 7 58 8 59 9 61 10 62 11 63 12 64 13 65 14 66
REMARK SMILES IDX 21 67 15 68 20 69 16 70 17 71 18 72 19 73
REMARK H PARENT 3 6 63 24 41 35 7 60
REMARK Flexibility Score: inf
ROOT
ATOM      1  C   UNL A   1      32.841  28.372  25.975  1.00  0.00     0.042 C 
ENDROOT
BRANCH   1   2
ATOM      2  C   UNL A   1      33.922  28.818  26.955  1.00  0.00     0.118 C 
BRANCH   2   3
ATOM      3  N   UNL A   1      33.668  30.117  27.570  1.00  0.00    -0.352 N 
ATOM      4  O   UNL A   1      34.041  31.944  28.838  1.00  0.00    -0.269 OA
ATOM      5  C   UNL A   1      34.488  30.915  28.337  1.00  0.00     0.251 C 
ATOM      6  H   UNL A   1      32.767  30.480  27.412  1.00  0.00     0.163 HD
BRANCH   5   7
ATOM      7  C   UNL A   1      35.895  30.528  28.593  1.00  0.00     0.039 A 
ATOM      8  C   UNL A   1      36.894  30.800  27.662  1.00  0.00     0.014 A 
ATOM      9  C   UNL A   1      36.226  29.886  29.793  1.00  0.00     0.014 A 
ATOM     10  C   UNL A   1      38.165  30.266  27.834  1.00  0.00     0.010 A 
ATOM     11  C   UNL A   1      37.539  29.452  30.020  1.00  0.00     0.010 A 
ATOM     12  C   UNL A   1      38.514  29.605  29.024  1.00  0.00    -0.014 A 
BRANCH  12  13
ATOM     13  C   UNL A   1      39.925  29.171  29.206  1.00  0.00     0.031 A 
ATOM     14  C   UNL A   1      40.939  30.032  29.911  1.00  0.00     0.074 A 
ATOM     15  C   UNL A   1      40.270  27.936  28.786  1.00  0.00     0.049 A 
ATOM     16  N   UNL A   1      42.178  29.742  30.232  1.00  0.00    -0.248 NA
ATOM     17  C   UNL A   1      40.522  31.386  30.303  1.00  0.00     0.031 C 
ATOM     18  C   UNL A   1      39.381  27.011  28.074  1.00  0.00     0.029 A 
ATOM     19  N   UNL A   1      41.436  27.229  28.928  1.00  0.00    -0.354 N 
ATOM     20  C   UNL A   1      42.686  30.873  30.860  1.00  0.00     0.074 A 
ATOM     21  C   UNL A   1      41.636  31.868  30.842  1.00  0.00     0.031 C 
ATOM     22  C   UNL A   1      40.008  25.839  27.907  1.00  0.00     0.029 A 
ATOM     23  C   UNL A   1      41.365  25.951  28.425  1.00  0.00     0.049 A 
ATOM     24  H   UNL A   1      42.244  27.599  29.350  1.00  0.00     0.167 HD
ATOM     25  C   UNL A   1      43.912  31.059  31.409  1.00  0.00     0.031 A 
ATOM     26  C   UNL A   1      42.291  24.977  28.367  1.00  0.00     0.031 A 
ATOM     27  C   UNL A   1      44.963  30.073  31.413  1.00  0.00     0.049 A 
ATOM     28  C   UNL A   1      43.652  25.234  28.945  1.00  0.00     0.074 A 
ATOM     29  C   UNL A   1      46.234  30.169  31.956  1.00  0.00     0.029 A 
ATOM     30  N   UNL A   1      44.870  28.813  30.844  1.00  0.00    -0.354 N 
ATOM     31  N   UNL A   1      44.098  26.296  29.570  1.00  0.00    -0.248 NA
ATOM     32  C   UNL A   1      44.636  24.152  28.813  1.00  0.00     0.031 C 
ATOM     33  C   UNL A   1      46.929  28.990  31.664  1.00  0.00     0.029 A 
ATOM     34  C   UNL A   1      46.068  28.132  31.002  1.00  0.00     0.049 A 
ATOM     35  H   UNL A   1      44.071  28.453  30.395  1.00  0.00     0.167 HD
ATOM     36  C   UNL A   1      45.409  26.005  29.917  1.00  0.00     0.074 A 
ATOM     37  C   UNL A   1      45.669  24.652  29.471  1.00  0.00     0.031 C 
ATOM     38  C   UNL A   1      46.320  26.790  30.542  1.00  0.00     0.031 A 
BRANCH  25  39
ATOM     39  C   UNL A   1      44.199  32.392  32.050  1.00  0.00    -0.014 A 
ATOM     40  C   UNL A   1      43.972  32.605  33.418  1.00  0.00     0.009 A 
ATOM     41  C   UNL A   1      44.781  33.422  31.293  1.00  0.00     0.009 A 
ATOM     42  C   UNL A   1      44.302  33.828  34.010  1.00  0.00     0.001 A 
ATOM     43  C   UNL A   1      45.135  34.633  31.892  1.00  0.00     0.001 A 
ATOM     44  C   UNL A   1      44.889  34.837  33.249  1.00  0.00     0.000 A 
ENDBRANCH  25  39
BRANCH  26  45
ATOM     45  C   UNL A   1      41.976  23.686  27.701  1.00  0.00    -0.014 A 
ATOM     46  C   UNL A   1      41.406  22.621  28.415  1.00  0.00     0.009 A 
ATOM     47  C   UNL A   1      42.274  23.505  26.339  1.00  0.00     0.009 A 
ATOM     48  C   UNL A   1      41.180  21.393  27.789  1.00  0.00     0.001 A 
ATOM     49  C   UNL A   1      42.009  22.292  25.707  1.00  0.00     0.001 A 
ATOM     50  C   UNL A   1      41.477  21.230  26.436  1.00  0.00     0.000 A 
ENDBRANCH  26  45
BRANCH  38  51
ATOM     51  C   UNL A   1      47.673  26.185  30.798  1.00  0.00    -0.014 A 
ATOM     52  C   UNL A   1      48.653  26.133  29.792  1.00  0.00     0.009 A 
ATOM     53  C   UNL A   1      47.969  25.652  32.062  1.00  0.00     0.009 A 
ATOM     54  C   UNL A   1      49.879  25.512  30.032  1.00  0.00     0.001 A 
ATOM     55  C   UNL A   1      49.210  25.065  32.310  1.00  0.00     0.001 A 
ATOM     56  C   UNL A   1      50.158  24.981  31.291  1.00  0.00     0.000 A 
ENDBRANCH  38  51
ENDBRANCH  12  13
ENDBRANCH   5   7
ENDBRANCH   2   3
ENDBRANCH   1   2
BRANCH   1  57
ATOM     57  C   UNL A   1      32.628  29.312  24.794  1.00  0.00     0.117 C 
BRANCH  57  58
ATOM     58  N   UNL A   1      33.620  29.125  23.751  1.00  0.00    -0.356 N 
ATOM     59  C   UNL A   1      33.642  28.226  22.718  1.00  0.00     0.223 C 
ATOM     60  H   UNL A   1      34.392  29.734  23.792  1.00  0.00     0.163 HD
ATOM     61  O   UNL A   1      34.590  28.238  21.940  1.00  0.00    -0.275 OA
BRANCH  59  62
ATOM     62  C   UNL A   1      32.506  27.282  22.581  1.00  0.00     0.086 C 
ATOM     63  C   UNL A   1      32.629  26.177  21.559  1.00  0.00     0.023 C 
ATOM     64  C   UNL A   1      32.481  25.827  23.018  1.00  0.00     0.032 C 
BRANCH  64  65
ATOM     65  C   UNL A   1      33.592  25.103  23.744  1.00  0.00    -0.044 A 
ATOM     66  C   UNL A   1      34.376  24.133  23.105  1.00  0.00     0.004 A 
ATOM     67  C   UNL A   1      33.825  25.289  25.112  1.00  0.00     0.004 A 
ATOM     68  C   UNL A   1      35.360  23.409  23.795  1.00  0.00     0.004 A 
ATOM     69  C   UNL A   1      34.814  24.568  25.801  1.00  0.00     0.004 A 
ATOM     70  C   UNL A   1      35.615  23.612  25.160  1.00  0.00    -0.045 A 
BRANCH  70  71
ATOM     71  C   UNL A   1      36.715  22.822  25.845  1.00  0.00     0.019 C 
ATOM     72  C   UNL A   1      37.910  22.260  25.115  1.00  0.00     0.009 C 
ATOM     73  C   UNL A   1      38.081  23.438  26.028  1.00  0.00     0.009 C 
ENDBRANCH  70  71
ENDBRANCH  64  65
ENDBRANCH  59  62
ENDBRANCH  57  58
ENDBRANCH   1  57
TORSDOF 12
ENDMDL
