MODEL 1
REMARK VINA RESULT:     -11.3      0.000      0.000
REMARK SMILES C[NH2+][C@@]1(C(=O)NCCCNC(=O)c2ccc(-c3c4nc(c(-c5ccccc5)c5ccc([nH]5)c(-c5ccccc5)c5nc(c(-c6ccccc6)c6ccc3[nH]6)C=C5)C=C4)cc2)CC[C@H](Oc2cc(C)cc(C)c2C)C1
REMARK SMILES IDX 8 1 7 2 6 3 4 4 5 5 3 7 61 8 74 9 62 10 63 11 2 12 1 13
REMARK SMILES IDX 64 16 65 17 66 18 72 19 67 20 70 21 73 22 68 23 69 24 71 25
REMARK SMILES IDX 9 26 10 27 11 28 12 30 13 31 14 32 60 33 15 34 59 35 16 36
REMARK SMILES IDX 17 37 18 38 53 39 19 40 58 41 52 42 54 43 20 44 57 45 51 46
REMARK SMILES IDX 50 47 21 49 43 50 28 51 42 52 29 53 32 54 41 55 55 56 30 57
REMARK SMILES IDX 31 58 40 60 56 61 33 62 22 63 23 64 27 65 24 66 26 67 25 68
REMARK SMILES IDX 44 69 45 70 49 71 46 72 48 73 47 74 34 75 35 76 39 77 36 78
REMARK SMILES IDX 38 79 37 80
REMARK H PARENT 6 6 2 14 2 15 10 29 54 48 32 59
REMARK Flexibility Score: inf
ROOT
ATOM      1  C   UNL A   1      32.011  28.228  26.957  1.00  0.00     0.042 C 
ENDROOT
BRANCH   1   2
ATOM      2  C   UNL A   1      31.497  28.602  25.575  1.00  0.00     0.118 C 
BRANCH   2   3
ATOM      3  N   UNL A   1      30.833  27.482  24.945  1.00  0.00    -0.351 N 
ATOM      4  C   UNL A   1      31.044  26.770  23.813  1.00  0.00     0.281 C 
ATOM      5  O   UNL A   1      30.018  26.172  23.457  1.00  0.00    -0.268 OA
ATOM      6  H   UNL A   1      30.053  27.166  25.456  1.00  0.00     0.163 HD
BRANCH   4   7
ATOM      7  C   UNL A   1      32.402  26.677  22.990  1.00  0.00     0.179 C 
ATOM      8  C   UNL A   1      32.340  25.755  21.765  1.00  0.00     0.083 C 
ATOM      9  C   UNL A   1      33.600  26.159  23.810  1.00  0.00     0.124 C 
ATOM     10  C   UNL A   1      33.134  24.499  22.072  1.00  0.00     0.052 C 
ATOM     11  C   UNL A   1      33.921  24.714  23.364  1.00  0.00     0.180 C 
BRANCH   7  12
ATOM     12  N   UNL A   1      32.740  28.011  22.379  1.00  0.00    -0.336 N 
ATOM     13  C   UNL A   1      34.002  28.630  22.760  1.00  0.00     0.331 C 
ATOM     14  H   UNL A   1      32.756  27.887  21.367  1.00  0.00     0.346 HD
ATOM     15  H   UNL A   1      32.025  28.645  22.732  1.00  0.00     0.346 HD
ENDBRANCH   7  12
BRANCH  11  16
ATOM     16  O   UNL A   1      33.650  23.874  24.486  1.00  0.00    -0.490 OA
BRANCH  16  17
ATOM     17  C   UNL A   1      34.429  22.841  24.923  1.00  0.00     0.123 A 
ATOM     18  C   UNL A   1      35.769  22.944  25.295  1.00  0.00     0.050 A 
ATOM     19  C   UNL A   1      33.840  21.562  24.804  1.00  0.00    -0.006 A 
ATOM     20  C   UNL A   1      36.598  21.815  25.314  1.00  0.00    -0.047 A 
ATOM     21  C   UNL A   1      34.667  20.420  24.851  1.00  0.00    -0.044 A 
ATOM     22  C   UNL A   1      32.359  21.413  24.539  1.00  0.00     0.049 C 
ATOM     23  C   UNL A   1      38.080  21.960  25.481  1.00  0.00     0.044 C 
ATOM     24  C   UNL A   1      36.040  20.561  25.087  1.00  0.00     0.007 A 
ATOM     25  C   UNL A   1      34.160  19.031  24.621  1.00  0.00     0.045 C 
ENDBRANCH  16  17
ENDBRANCH  11  16
ENDBRANCH   4   7
ENDBRANCH   2   3
ENDBRANCH   1   2
BRANCH   1  26
ATOM     26  C   UNL A   1      33.459  28.602  27.224  1.00  0.00     0.118 C 
BRANCH  26  27
ATOM     27  N   UNL A   1      33.595  29.977  27.692  1.00  0.00    -0.352 N 
ATOM     28  C   UNL A   1      34.611  30.670  28.303  1.00  0.00     0.251 C 
ATOM     29  H   UNL A   1      32.789  30.522  27.538  1.00  0.00     0.163 HD
ATOM     30  O   UNL A   1      34.343  31.786  28.760  1.00  0.00    -0.269 OA
BRANCH  28  31
ATOM     31  C   UNL A   1      35.997  30.149  28.465  1.00  0.00     0.039 A 
ATOM     32  C   UNL A   1      36.358  29.601  29.710  1.00  0.00     0.014 A 
ATOM     33  C   UNL A   1      36.975  30.237  27.478  1.00  0.00     0.014 A 
ATOM     34  C   UNL A   1      37.641  29.080  29.928  1.00  0.00     0.010 A 
ATOM     35  C   UNL A   1      38.229  29.646  27.660  1.00  0.00     0.010 A 
ATOM     36  C   UNL A   1      38.581  29.075  28.892  1.00  0.00    -0.014 A 
BRANCH  36  37
ATOM     37  C   UNL A   1      39.975  28.609  29.101  1.00  0.00     0.031 A 
ATOM     38  C   UNL A   1      40.975  29.559  29.694  1.00  0.00     0.074 A 
ATOM     39  C   UNL A   1      40.368  27.379  28.717  1.00  0.00     0.049 A 
ATOM     40  N   UNL A   1      42.253  29.384  29.915  1.00  0.00    -0.248 NA
ATOM     41  C   UNL A   1      40.474  30.891  30.071  1.00  0.00     0.031 C 
ATOM     42  C   UNL A   1      39.504  26.366  28.122  1.00  0.00     0.029 A 
ATOM     43  N   UNL A   1      41.602  26.775  28.753  1.00  0.00    -0.354 N 
ATOM     44  C   UNL A   1      42.706  30.583  30.447  1.00  0.00     0.074 A 
ATOM     45  C   UNL A   1      41.585  31.497  30.459  1.00  0.00     0.031 C 
ATOM     46  C   UNL A   1      40.226  25.267  27.843  1.00  0.00     0.029 A 
ATOM     47  C   UNL A   1      41.612  25.504  28.227  1.00  0.00     0.049 A 
ATOM     48  H   UNL A   1      42.403  27.211  29.123  1.00  0.00     0.167 HD
ATOM     49  C   UNL A   1      43.939  30.892  30.911  1.00  0.00     0.031 A 
ATOM     50  C   UNL A   1      42.623  24.629  28.074  1.00  0.00     0.031 A 
ATOM     51  C   UNL A   1      45.056  29.989  30.893  1.00  0.00     0.049 A 
ATOM     52  C   UNL A   1      43.997  25.012  28.553  1.00  0.00     0.074 A 
ATOM     53  C   UNL A   1      46.337  30.191  31.374  1.00  0.00     0.029 A 
ATOM     54  N   UNL A   1      45.025  28.711  30.355  1.00  0.00    -0.354 N 
ATOM     55  N   UNL A   1      44.392  26.122  29.129  1.00  0.00    -0.248 NA
ATOM     56  C   UNL A   1      45.060  24.011  28.382  1.00  0.00     0.031 C 
ATOM     57  C   UNL A   1      47.096  29.056  31.077  1.00  0.00     0.029 A 
ATOM     58  C   UNL A   1      46.272  28.122  30.469  1.00  0.00     0.049 A 
ATOM     59  H   UNL A   1      44.233  28.285  29.953  1.00  0.00     0.167 HD
ATOM     60  C   UNL A   1      45.736  25.938  29.424  1.00  0.00     0.074 A 
ATOM     61  C   UNL A   1      46.087  24.607  28.974  1.00  0.00     0.031 C 
ATOM     62  C   UNL A   1      46.602  26.794  30.020  1.00  0.00     0.031 A 
BRANCH  49  63
ATOM     63  C   UNL A   1      44.132  32.277  31.459  1.00  0.00    -0.014 A 
ATOM     64  C   UNL A   1      44.532  33.339  30.630  1.00  0.00     0.009 A 
ATOM     65  C   UNL A   1      43.917  32.524  32.822  1.00  0.00     0.009 A 
ATOM     66  C   UNL A   1      44.756  34.608  31.164  1.00  0.00     0.001 A 
ATOM     67  C   UNL A   1      44.112  33.802  33.349  1.00  0.00     0.001 A 
ATOM     68  C   UNL A   1      44.543  34.839  32.523  1.00  0.00     0.000 A 
ENDBRANCH  49  63
BRANCH  50  69
ATOM     69  C   UNL A   1      42.382  23.292  27.466  1.00  0.00    -0.014 A 
ATOM     70  C   UNL A   1      41.892  22.232  28.246  1.00  0.00     0.009 A 
ATOM     71  C   UNL A   1      42.668  23.057  26.112  1.00  0.00     0.009 A 
ATOM     72  C   UNL A   1      41.728  20.959  27.694  1.00  0.00     0.001 A 
ATOM     73  C   UNL A   1      42.476  21.790  25.555  1.00  0.00     0.001 A 
ATOM     74  C   UNL A   1      42.019  20.739  26.350  1.00  0.00     0.000 A 
ENDBRANCH  50  69
BRANCH  62  75
ATOM     75  C   UNL A   1      48.000  26.301  30.265  1.00  0.00    -0.014 A 
ATOM     76  C   UNL A   1      49.005  26.431  29.295  1.00  0.00     0.009 A 
ATOM     77  C   UNL A   1      48.326  25.744  31.512  1.00  0.00     0.009 A 
ATOM     78  C   UNL A   1      50.301  25.985  29.557  1.00  0.00     0.001 A 
ATOM     79  C   UNL A   1      49.629  25.328  31.784  1.00  0.00     0.001 A 
ATOM     80  C   UNL A   1      50.613  25.440  30.803  1.00  0.00     0.000 A 
ENDBRANCH  62  75
ENDBRANCH  36  37
ENDBRANCH  28  31
ENDBRANCH  26  27
ENDBRANCH   1  26
TORSDOF 13
ENDMDL
MODEL 2
REMARK VINA RESULT:     -11.2      1.400      2.014
REMARK SMILES C[NH2+][C@@]1(C(=O)NCCCNC(=O)c2ccc(-c3c4nc(c(-c5ccccc5)c5ccc([nH]5)c(-c5ccccc5)c5nc(c(-c6ccccc6)c6ccc3[nH]6)C=C5)C=C4)cc2)CC[C@H](Oc2cc(C)cc(C)c2C)C1
REMARK SMILES IDX 8 1 7 2 6 3 4 4 5 5 3 7 61 8 74 9 62 10 63 11 2 12 1 13
REMARK SMILES IDX 64 16 65 17 66 18 72 19 67 20 70 21 73 22 68 23 69 24 71 25
REMARK SMILES IDX 9 26 10 27 11 28 12 30 13 31 14 32 60 33 15 34 59 35 16 36
REMARK SMILES IDX 17 37 18 38 53 39 19 40 58 41 52 42 54 43 20 44 57 45 51 46
REMARK SMILES IDX 50 47 21 49 43 50 28 51 42 52 29 53 32 54 41 55 55 56 30 57
REMARK SMILES IDX 31 58 40 60 56 61 33 62 22 63 23 64 27 65 24 66 26 67 25 68
REMARK SMILES IDX 44 69 45 70 49 71 46 72 48 73 47 74 34 75 35 76 39 77 36 78
REMARK SMILES IDX 38 79 37 80
REMARK H PARENT 6 6 2 14 2 15 10 29 54 48 32 59
REMARK Flexibility Score: inf
ROOT
ATOM      1  C   UNL A   1      33.258  28.043  26.911  1.00  0.00     0.042 C 
ENDROOT
BRANCH   1   2
ATOM      2  C   UNL A   1      31.751  27.870  27.031  1.00  0.00     0.118 C 
BRANCH   2   3
ATOM      3  N   UNL A   1      31.379  26.475  26.950  1.00  0.00    -0.351 N 
ATOM      4  C   UNL A   1      30.912  25.674  25.964  1.00  0.00     0.281 C 
ATOM      5  O   UNL A   1      30.353  24.668  26.426  1.00  0.00    -0.268 OA
ATOM      6  H   UNL A   1      31.493  26.001  27.806  1.00  0.00     0.163 HD
BRANCH   4   7
ATOM      7  C   UNL A   1      31.021  25.934  24.399  1.00  0.00     0.179 C 
ATOM      8  C   UNL A   1      30.670  24.720  23.528  1.00  0.00     0.083 C 
ATOM      9  C   UNL A   1      32.425  26.362  23.929  1.00  0.00     0.124 C 
ATOM     10  C   UNL A   1      31.954  24.179  22.925  1.00  0.00     0.052 C 
ATOM     11  C   UNL A   1      33.080  25.179  23.179  1.00  0.00     0.180 C 
BRANCH   7  12
ATOM     12  N   UNL A   1      30.003  26.954  23.962  1.00  0.00    -0.336 N 
ATOM     13  C   UNL A   1      30.492  28.257  23.530  1.00  0.00     0.331 C 
ATOM     14  H   UNL A   1      29.483  26.551  23.183  1.00  0.00     0.346 HD
ATOM     15  H   UNL A   1      29.457  27.149  24.800  1.00  0.00     0.346 HD
ENDBRANCH   7  12
BRANCH  11  16
ATOM     16  O   UNL A   1      34.201  24.773  23.965  1.00  0.00    -0.490 OA
BRANCH  16  17
ATOM     17  C   UNL A   1      34.296  23.623  24.695  1.00  0.00     0.123 A 
ATOM     18  C   UNL A   1      33.548  23.328  25.834  1.00  0.00     0.050 A 
ATOM     19  C   UNL A   1      35.370  22.777  24.333  1.00  0.00    -0.006 A 
ATOM     20  C   UNL A   1      33.986  22.363  26.751  1.00  0.00    -0.047 A 
ATOM     21  C   UNL A   1      35.796  21.785  25.242  1.00  0.00    -0.044 A 
ATOM     22  C   UNL A   1      36.115  22.984  23.034  1.00  0.00     0.049 C 
ATOM     23  C   UNL A   1      33.312  22.215  28.081  1.00  0.00     0.044 C 
ATOM     24  C   UNL A   1      35.111  21.602  26.448  1.00  0.00     0.007 A 
ATOM     25  C   UNL A   1      36.991  20.918  25.004  1.00  0.00     0.045 C 
ENDBRANCH  16  17
ENDBRANCH  11  16
ENDBRANCH   4   7
ENDBRANCH   2   3
ENDBRANCH   1   2
BRANCH   1  26
ATOM     26  C   UNL A   1      33.702  29.216  26.054  1.00  0.00     0.118 C 
BRANCH  26  27
ATOM     27  N   UNL A   1      33.702  30.471  26.796  1.00  0.00    -0.352 N 
ATOM     28  C   UNL A   1      34.528  31.000  27.758  1.00  0.00     0.251 C 
ATOM     29  H   UNL A   1      32.952  31.064  26.558  1.00  0.00     0.163 HD
ATOM     30  O   UNL A   1      34.141  32.017  28.342  1.00  0.00    -0.269 OA
BRANCH  28  31
ATOM     31  C   UNL A   1      35.837  30.408  28.150  1.00  0.00     0.039 A 
ATOM     32  C   UNL A   1      35.954  29.849  29.435  1.00  0.00     0.014 A 
ATOM     33  C   UNL A   1      36.971  30.441  27.343  1.00  0.00     0.014 A 
ATOM     34  C   UNL A   1      37.153  29.262  29.864  1.00  0.00     0.010 A 
ATOM     35  C   UNL A   1      38.144  29.787  27.731  1.00  0.00     0.010 A 
ATOM     36  C   UNL A   1      38.253  29.204  29.002  1.00  0.00    -0.014 A 
BRANCH  36  37
ATOM     37  C   UNL A   1      39.565  28.667  29.441  1.00  0.00     0.031 A 
ATOM     38  C   UNL A   1      40.427  29.506  30.342  1.00  0.00     0.074 A 
ATOM     39  C   UNL A   1      40.019  27.476  29.004  1.00  0.00     0.049 A 
ATOM     40  N   UNL A   1      41.626  29.261  30.803  1.00  0.00    -0.248 NA
ATOM     41  C   UNL A   1      39.871  30.803  30.762  1.00  0.00     0.031 C 
ATOM     42  C   UNL A   1      39.290  26.570  28.124  1.00  0.00     0.029 A 
ATOM     43  N   UNL A   1      41.210  26.829  29.225  1.00  0.00    -0.354 N 
ATOM     44  C   UNL A   1      41.968  30.374  31.559  1.00  0.00     0.074 A 
ATOM     45  C   UNL A   1      40.880  31.320  31.445  1.00  0.00     0.031 C 
ATOM     46  C   UNL A   1      40.043  25.486  27.872  1.00  0.00     0.029 A 
ATOM     47  C   UNL A   1      41.318  25.627  28.564  1.00  0.00     0.049 A 
ATOM     48  H   UNL A   1      41.919  27.190  29.805  1.00  0.00     0.167 HD
ATOM     49  C   UNL A   1      43.078  30.583  32.304  1.00  0.00     0.031 A 
ATOM     50  C   UNL A   1      42.330  24.740  28.523  1.00  0.00     0.031 A 
ATOM     51  C   UNL A   1      44.163  29.648  32.413  1.00  0.00     0.049 A 
ATOM     52  C   UNL A   1      43.574  25.015  29.323  1.00  0.00     0.074 A 
ATOM     53  C   UNL A   1      45.315  29.748  33.173  1.00  0.00     0.029 A 
ATOM     54  N   UNL A   1      44.234  28.443  31.731  1.00  0.00    -0.354 N 
ATOM     55  N   UNL A   1      43.849  26.037  30.097  1.00  0.00    -0.248 NA
ATOM     56  C   UNL A   1      44.638  24.004  29.260  1.00  0.00     0.031 C 
ATOM     57  C   UNL A   1      46.108  28.628  32.908  1.00  0.00     0.029 A 
ATOM     58  C   UNL A   1      45.422  27.801  32.032  1.00  0.00     0.049 A 
ATOM     59  H   UNL A   1      43.542  28.095  31.124  1.00  0.00     0.167 HD
ATOM     60  C   UNL A   1      45.097  25.772  30.644  1.00  0.00     0.074 A 
ATOM     61  C   UNL A   1      45.522  24.490  30.120  1.00  0.00     0.031 C 
ATOM     62  C   UNL A   1      45.825  26.522  31.507  1.00  0.00     0.031 A 
BRANCH  49  63
ATOM     63  C   UNL A   1      43.165  31.888  33.044  1.00  0.00    -0.014 A 
ATOM     64  C   UNL A   1      42.654  32.021  34.346  1.00  0.00     0.009 A 
ATOM     65  C   UNL A   1      43.760  32.999  32.430  1.00  0.00     0.009 A 
ATOM     66  C   UNL A   1      42.697  33.253  34.999  1.00  0.00     0.001 A 
ATOM     67  C   UNL A   1      43.830  34.223  33.098  1.00  0.00     0.001 A 
ATOM     68  C   UNL A   1      43.287  34.352  34.377  1.00  0.00     0.000 A 
ENDBRANCH  49  63
BRANCH  50  69
ATOM     69  C   UNL A   1      42.209  23.492  27.721  1.00  0.00    -0.014 A 
ATOM     70  C   UNL A   1      42.593  23.473  26.370  1.00  0.00     0.009 A 
ATOM     71  C   UNL A   1      41.680  22.322  28.289  1.00  0.00     0.009 A 
ATOM     72  C   UNL A   1      42.417  22.322  25.597  1.00  0.00     0.001 A 
ATOM     73  C   UNL A   1      41.532  21.164  27.521  1.00  0.00     0.001 A 
ATOM     74  C   UNL A   1      41.889  21.169  26.173  1.00  0.00     0.000 A 
ENDBRANCH  50  69
BRANCH  62  75
ATOM     75  C   UNL A   1      47.135  25.954  31.979  1.00  0.00    -0.014 A 
ATOM     76  C   UNL A   1      48.323  26.156  31.261  1.00  0.00     0.009 A 
ATOM     77  C   UNL A   1      47.182  25.250  33.192  1.00  0.00     0.009 A 
ATOM     78  C   UNL A   1      49.529  25.636  31.735  1.00  0.00     0.001 A 
ATOM     79  C   UNL A   1      48.394  24.759  33.680  1.00  0.00     0.001 A 
ATOM     80  C   UNL A   1      49.565  24.944  32.946  1.00  0.00     0.000 A 
ENDBRANCH  62  75
ENDBRANCH  36  37
ENDBRANCH  28  31
ENDBRANCH  26  27
ENDBRANCH   1  26
TORSDOF 13
ENDMDL
MODEL 3
REMARK VINA RESULT:     -11.1      2.925      7.238
REMARK SMILES C[NH2+][C@@]1(C(=O)NCCCNC(=O)c2ccc(-c3c4nc(c(-c5ccccc5)c5ccc([nH]5)c(-c5ccccc5)c5nc(c(-c6ccccc6)c6ccc3[nH]6)C=C5)C=C4)cc2)CC[C@H](Oc2cc(C)cc(C)c2C)C1
REMARK SMILES IDX 8 1 7 2 6 3 4 4 5 5 3 7 61 8 74 9 62 10 63 11 2 12 1 13
REMARK SMILES IDX 64 16 65 17 66 18 72 19 67 20 70 21 73 22 68 23 69 24 71 25
REMARK SMILES IDX 9 26 10 27 11 28 12 30 13 31 14 32 60 33 15 34 59 35 16 36
REMARK SMILES IDX 17 37 18 38 53 39 19 40 58 41 52 42 54 43 20 44 57 45 51 46
REMARK SMILES IDX 50 47 21 49 43 50 28 51 42 52 29 53 32 54 41 55 55 56 30 57
REMARK SMILES IDX 31 58 40 60 56 61 33 62 22 63 23 64 27 65 24 66 26 67 25 68
REMARK SMILES IDX 44 69 45 70 49 71 46 72 48 73 47 74 34 75 35 76 39 77 36 78
REMARK SMILES IDX 38 79 37 80
REMARK H PARENT 6 6 2 14 2 15 10 29 54 48 32 59
REMARK Flexibility Score: inf
ROOT
ATOM      1  C   UNL A   1      31.120  31.718  25.972  1.00  0.00     0.042 C 
ENDROOT
BRANCH   1   2
ATOM      2  C   UNL A   1      31.117  30.299  25.423  1.00  0.00     0.118 C 
BRANCH   2   3
ATOM      3  N   UNL A   1      32.452  29.879  25.058  1.00  0.00    -0.351 N 
ATOM      4  C   UNL A   1      32.958  29.021  24.141  1.00  0.00     0.281 C 
ATOM      5  O   UNL A   1      34.108  28.667  24.440  1.00  0.00    -0.268 OA
ATOM      6  H   UNL A   1      33.150  30.316  25.598  1.00  0.00     0.163 HD
BRANCH   4   7
ATOM      7  C   UNL A   1      32.225  28.489  22.833  1.00  0.00     0.179 C 
ATOM      8  C   UNL A   1      30.968  27.654  23.107  1.00  0.00     0.083 C 
ATOM      9  C   UNL A   1      33.105  27.595  21.938  1.00  0.00     0.124 C 
ATOM     10  C   UNL A   1      31.284  26.201  22.799  1.00  0.00     0.052 C 
ATOM     11  C   UNL A   1      32.632  26.130  22.082  1.00  0.00     0.180 C 
BRANCH   7  12
ATOM     12  N   UNL A   1      31.683  29.641  22.029  1.00  0.00    -0.336 N 
ATOM     13  C   UNL A   1      30.236  29.784  21.940  1.00  0.00     0.331 C 
ATOM     14  H   UNL A   1      32.049  30.499  22.441  1.00  0.00     0.346 HD
ATOM     15  H   UNL A   1      31.982  29.452  21.073  1.00  0.00     0.346 HD
ENDBRANCH   7  12
BRANCH  11  16
ATOM     16  O   UNL A   1      33.705  25.417  22.698  1.00  0.00    -0.490 OA
BRANCH  16  17
ATOM     17  C   UNL A   1      33.628  24.171  23.252  1.00  0.00     0.123 A 
ATOM     18  C   UNL A   1      33.220  23.016  22.585  1.00  0.00     0.050 A 
ATOM     19  C   UNL A   1      33.816  24.132  24.653  1.00  0.00    -0.006 A 
ATOM     20  C   UNL A   1      32.763  21.900  23.296  1.00  0.00    -0.047 A 
ATOM     21  C   UNL A   1      33.382  22.997  25.370  1.00  0.00    -0.044 A 
ATOM     22  C   UNL A   1      34.388  25.320  25.391  1.00  0.00     0.049 C 
ATOM     23  C   UNL A   1      32.107  20.757  22.581  1.00  0.00     0.044 C 
ATOM     24  C   UNL A   1      32.844  21.902  24.686  1.00  0.00     0.007 A 
ATOM     25  C   UNL A   1      33.430  22.905  26.862  1.00  0.00     0.045 C 
ENDBRANCH  16  17
ENDBRANCH  11  16
ENDBRANCH   4   7
ENDBRANCH   2   3
ENDBRANCH   1   2
BRANCH   1  26
ATOM     26  C   UNL A   1      32.260  32.033  26.927  1.00  0.00     0.118 C 
BRANCH  26  27
ATOM     27  N   UNL A   1      32.250  33.428  27.353  1.00  0.00    -0.352 N 
ATOM     28  C   UNL A   1      33.032  34.157  28.216  1.00  0.00     0.251 C 
ATOM     29  H   UNL A   1      31.533  33.958  26.935  1.00  0.00     0.163 HD
ATOM     30  O   UNL A   1      32.641  35.289  28.519  1.00  0.00    -0.269 OA
BRANCH  28  31
ATOM     31  C   UNL A   1      34.299  33.656  28.818  1.00  0.00     0.039 A 
ATOM     32  C   UNL A   1      35.515  34.126  28.289  1.00  0.00     0.014 A 
ATOM     33  C   UNL A   1      34.349  32.697  29.826  1.00  0.00     0.014 A 
ATOM     34  C   UNL A   1      36.745  33.707  28.816  1.00  0.00     0.010 A 
ATOM     35  C   UNL A   1      35.566  32.338  30.411  1.00  0.00     0.010 A 
ATOM     36  C   UNL A   1      36.779  32.827  29.903  1.00  0.00    -0.014 A 
BRANCH  36  37
ATOM     37  C   UNL A   1      38.056  32.294  30.441  1.00  0.00     0.031 A 
ATOM     38  C   UNL A   1      38.587  30.999  29.894  1.00  0.00     0.074 A 
ATOM     39  C   UNL A   1      38.710  32.915  31.441  1.00  0.00     0.049 A 
ATOM     40  N   UNL A   1      39.650  30.325  30.252  1.00  0.00    -0.248 NA
ATOM     41  C   UNL A   1      37.807  30.370  28.815  1.00  0.00     0.031 C 
ATOM     42  C   UNL A   1      38.299  34.167  32.065  1.00  0.00     0.029 A 
ATOM     43  N   UNL A   1      39.851  32.569  32.123  1.00  0.00    -0.354 N 
ATOM     44  C   UNL A   1      39.660  29.193  29.448  1.00  0.00     0.074 A 
ATOM     45  C   UNL A   1      38.468  29.239  28.630  1.00  0.00     0.031 C 
ATOM     46  C   UNL A   1      39.166  34.489  33.040  1.00  0.00     0.029 A 
ATOM     47  C   UNL A   1      40.189  33.454  33.120  1.00  0.00     0.049 A 
ATOM     48  H   UNL A   1      40.378  31.764  31.916  1.00  0.00     0.167 HD
ATOM     49  C   UNL A   1      40.590  28.213  29.376  1.00  0.00     0.031 A 
ATOM     50  C   UNL A   1      41.210  33.434  33.998  1.00  0.00     0.031 A 
ATOM     51  C   UNL A   1      41.770  28.162  30.193  1.00  0.00     0.049 A 
ATOM     52  C   UNL A   1      42.207  32.309  33.931  1.00  0.00     0.074 A 
ATOM     53  C   UNL A   1      42.795  27.233  30.171  1.00  0.00     0.029 A 
ATOM     54  N   UNL A   1      42.079  29.077  31.188  1.00  0.00    -0.354 N 
ATOM     55  N   UNL A   1      42.246  31.287  33.110  1.00  0.00    -0.248 NA
ATOM     56  C   UNL A   1      43.314  32.347  34.897  1.00  0.00     0.031 C 
ATOM     57  C   UNL A   1      43.695  27.555  31.190  1.00  0.00     0.029 A 
ATOM     58  C   UNL A   1      43.265  28.720  31.805  1.00  0.00     0.049 A 
ATOM     59  H   UNL A   1      41.535  29.864  31.421  1.00  0.00     0.167 HD
ATOM     60  C   UNL A   1      43.398  30.585  33.434  1.00  0.00     0.074 A 
ATOM     61  C   UNL A   1      44.036  31.302  34.519  1.00  0.00     0.031 C 
ATOM     62  C   UNL A   1      43.888  29.449  32.879  1.00  0.00     0.031 A 
BRANCH  49  63
ATOM     63  C   UNL A   1      40.343  27.113  28.383  1.00  0.00    -0.014 A 
ATOM     64  C   UNL A   1      39.614  25.965  28.736  1.00  0.00     0.009 A 
ATOM     65  C   UNL A   1      40.849  27.222  27.081  1.00  0.00     0.009 A 
ATOM     66  C   UNL A   1      39.437  24.929  27.818  1.00  0.00     0.001 A 
ATOM     67  C   UNL A   1      40.645  26.199  26.154  1.00  0.00     0.001 A 
ATOM     68  C   UNL A   1      39.950  25.048  26.527  1.00  0.00     0.000 A 
ENDBRANCH  49  63
BRANCH  50  69
ATOM     69  C   UNL A   1      41.367  34.522  35.001  1.00  0.00    -0.014 A 
ATOM     70  C   UNL A   1      40.723  34.442  36.246  1.00  0.00     0.009 A 
ATOM     71  C   UNL A   1      42.134  35.661  34.710  1.00  0.00     0.009 A 
ATOM     72  C   UNL A   1      40.812  35.493  37.162  1.00  0.00     0.001 A 
ATOM     73  C   UNL A   1      42.246  36.698  35.640  1.00  0.00     0.001 A 
ATOM     74  C   UNL A   1      41.575  36.619  36.860  1.00  0.00     0.000 A 
ENDBRANCH  50  69
BRANCH  62  75
ATOM     75  C   UNL A   1      45.202  28.937  33.400  1.00  0.00    -0.014 A 
ATOM     76  C   UNL A   1      46.424  29.386  32.878  1.00  0.00     0.009 A 
ATOM     77  C   UNL A   1      45.210  28.029  34.471  1.00  0.00     0.009 A 
ATOM     78  C   UNL A   1      47.629  28.910  33.397  1.00  0.00     0.001 A 
ATOM     79  C   UNL A   1      46.416  27.579  35.009  1.00  0.00     0.001 A 
ATOM     80  C   UNL A   1      47.625  28.013  34.466  1.00  0.00     0.000 A 
ENDBRANCH  62  75
ENDBRANCH  36  37
ENDBRANCH  28  31
ENDBRANCH  26  27
ENDBRANCH   1  26
TORSDOF 13
ENDMDL
