MODEL 1
REMARK VINA RESULT:     -11.0      0.000      0.000
REMARK SMILES C[NH2+][C@]1(C(=O)NCCCNC(=O)c2ccc(-c3c4nc(c(-c5ccccc5)c5ccc([nH]5)c(-c5ccccc5)c5nc(c(-c6ccccc6)c6ccc3[nH]6)C=C5)C=C4)cc2)CCC[C@@H](Sc2nccn2C)C1
REMARK SMILES IDX 8 1 7 2 6 3 4 4 5 5 3 7 61 8 72 9 62 10 64 11 63 12 2 13
REMARK SMILES IDX 1 14 65 17 66 18 67 19 70 20 68 21 69 22 71 23 9 24 10 25
REMARK SMILES IDX 11 26 12 28 13 29 14 30 60 31 15 32 59 33 16 34 17 35 18 36
REMARK SMILES IDX 53 37 19 38 58 39 52 40 54 41 20 42 57 43 51 44 50 45 21 47
REMARK SMILES IDX 43 48 28 49 42 50 29 51 32 52 41 53 55 54 30 55 31 56 40 58
REMARK SMILES IDX 56 59 33 60 22 61 23 62 27 63 24 64 26 65 25 66 44 67 45 68
REMARK SMILES IDX 49 69 46 70 48 71 47 72 34 73 35 74 39 75 36 76 38 77 37 78
REMARK H PARENT 6 6 2 15 2 16 10 27 54 46 32 57
REMARK Flexibility Score: inf
ROOT
ATOM      1  C   UNL A   1      31.341  32.233  26.665  1.00  0.00     0.042 C 
ENDROOT
BRANCH   1   2
ATOM      2  C   UNL A   1      31.585  30.864  26.055  1.00  0.00     0.118 C 
BRANCH   2   3
ATOM      3  N   UNL A   1      31.497  29.794  27.032  1.00  0.00    -0.351 N 
ATOM      4  C   UNL A   1      32.029  28.537  27.058  1.00  0.00     0.281 C 
ATOM      5  O   UNL A   1      31.699  27.863  28.038  1.00  0.00    -0.268 OA
ATOM      6  H   UNL A   1      30.953  30.016  27.823  1.00  0.00     0.163 HD
BRANCH   4   7
ATOM      7  C   UNL A   1      32.940  28.003  25.888  1.00  0.00     0.176 C 
ATOM      8  C   UNL A   1      33.443  26.604  26.349  1.00  0.00     0.079 C 
ATOM      9  C   UNL A   1      32.178  27.981  24.528  1.00  0.00     0.094 C 
ATOM     10  C   UNL A   1      34.046  25.753  25.241  1.00  0.00     0.008 C 
ATOM     11  C   UNL A   1      32.686  26.950  23.507  1.00  0.00     0.061 C 
ATOM     12  C   UNL A   1      33.053  25.590  24.101  1.00  0.00     0.015 C 
BRANCH   7  13
ATOM     13  N   UNL A   1      34.196  28.806  25.723  1.00  0.00    -0.336 N 
ATOM     14  C   UNL A   1      34.889  29.178  26.952  1.00  0.00     0.331 C 
ATOM     15  H   UNL A   1      34.843  28.260  25.155  1.00  0.00     0.346 HD
ATOM     16  H   UNL A   1      33.903  29.685  25.297  1.00  0.00     0.346 HD
ENDBRANCH   7  13
BRANCH  11  17
ATOM     17  S   UNL A   1      31.556  26.764  22.070  1.00  0.00    -0.084 SA
BRANCH  17  18
ATOM     18  C   UNL A   1      30.330  27.954  22.360  1.00  0.00     0.167 A 
ATOM     19  N   UNL A   1      30.322  29.167  21.855  1.00  0.00    -0.231 NA
ATOM     20  N   UNL A   1      29.212  27.724  23.119  1.00  0.00    -0.329 N 
ATOM     21  C   UNL A   1      29.151  29.738  22.281  1.00  0.00     0.132 A 
ATOM     22  C   UNL A   1      28.451  28.868  23.080  1.00  0.00     0.108 A 
ATOM     23  C   UNL A   1      28.835  26.543  23.853  1.00  0.00     0.152 C 
ENDBRANCH  17  18
ENDBRANCH  11  17
ENDBRANCH   4   7
ENDBRANCH   2   3
ENDBRANCH   1   2
BRANCH   1  24
ATOM     24  C   UNL A   1      32.589  32.883  27.236  1.00  0.00     0.118 C 
BRANCH  24  25
ATOM     25  N   UNL A   1      32.373  34.264  27.647  1.00  0.00    -0.352 N 
ATOM     26  C   UNL A   1      33.019  35.010  28.601  1.00  0.00     0.251 C 
ATOM     27  H   UNL A   1      31.654  34.734  27.166  1.00  0.00     0.163 HD
ATOM     28  O   UNL A   1      32.577  36.107  28.928  1.00  0.00    -0.269 OA
BRANCH  26  29
ATOM     29  C   UNL A   1      34.227  34.476  29.264  1.00  0.00     0.039 A 
ATOM     30  C   UNL A   1      34.092  33.833  30.497  1.00  0.00     0.014 A 
ATOM     31  C   UNL A   1      35.484  34.589  28.667  1.00  0.00     0.014 A 
ATOM     32  C   UNL A   1      35.206  33.234  31.089  1.00  0.00     0.010 A 
ATOM     33  C   UNL A   1      36.566  33.901  29.203  1.00  0.00     0.010 A 
ATOM     34  C   UNL A   1      36.442  33.221  30.423  1.00  0.00    -0.014 A 
BRANCH  34  35
ATOM     35  C   UNL A   1      37.618  32.510  30.984  1.00  0.00     0.031 A 
ATOM     36  C   UNL A   1      38.288  33.026  32.228  1.00  0.00     0.074 A 
ATOM     37  C   UNL A   1      38.124  31.441  30.337  1.00  0.00     0.049 A 
ATOM     38  N   UNL A   1      39.364  32.584  32.829  1.00  0.00    -0.248 NA
ATOM     39  C   UNL A   1      37.691  34.211  32.864  1.00  0.00     0.031 C 
ATOM     40  C   UNL A   1      37.594  30.868  29.097  1.00  0.00     0.029 A 
ATOM     41  N   UNL A   1      39.205  30.648  30.631  1.00  0.00    -0.354 N 
ATOM     42  C   UNL A   1      39.580  33.446  33.896  1.00  0.00     0.074 A 
ATOM     43  C   UNL A   1      38.560  34.469  33.829  1.00  0.00     0.031 C 
ATOM     44  C   UNL A   1      38.331  29.797  28.757  1.00  0.00     0.029 A 
ATOM     45  C   UNL A   1      39.410  29.636  29.725  1.00  0.00     0.049 A 
ATOM     46  H   UNL A   1      39.780  30.792  31.418  1.00  0.00     0.167 HD
ATOM     47  C   UNL A   1      40.528  33.383  34.861  1.00  0.00     0.031 A 
ATOM     48  C   UNL A   1      40.365  28.688  29.675  1.00  0.00     0.031 A 
ATOM     49  C   UNL A   1      41.533  32.358  34.938  1.00  0.00     0.049 A 
ATOM     50  C   UNL A   1      41.414  28.647  30.750  1.00  0.00     0.074 A 
ATOM     51  C   UNL A   1      42.501  32.172  35.908  1.00  0.00     0.029 A 
ATOM     52  N   UNL A   1      41.700  31.346  34.005  1.00  0.00    -0.354 N 
ATOM     53  N   UNL A   1      41.561  29.428  31.793  1.00  0.00    -0.248 NA
ATOM     54  C   UNL A   1      42.424  27.584  30.648  1.00  0.00     0.031 C 
ATOM     55  C   UNL A   1      43.290  31.079  35.534  1.00  0.00     0.029 A 
ATOM     56  C   UNL A   1      42.771  30.547  34.364  1.00  0.00     0.049 A 
ATOM     57  H   UNL A   1      41.139  31.215  33.206  1.00  0.00     0.167 HD
ATOM     58  C   UNL A   1      42.657  28.933  32.486  1.00  0.00     0.074 A 
ATOM     59  C   UNL A   1      43.129  27.775  31.755  1.00  0.00     0.031 C 
ATOM     60  C   UNL A   1      43.224  29.396  33.628  1.00  0.00     0.031 A 
BRANCH  47  61
ATOM     61  C   UNL A   1      40.522  34.458  35.913  1.00  0.00    -0.014 A 
ATOM     62  C   UNL A   1      41.281  35.630  35.761  1.00  0.00     0.009 A 
ATOM     63  C   UNL A   1      39.719  34.314  37.054  1.00  0.00     0.009 A 
ATOM     64  C   UNL A   1      41.264  36.617  36.748  1.00  0.00     0.001 A 
ATOM     65  C   UNL A   1      39.678  35.317  38.024  1.00  0.00     0.001 A 
ATOM     66  C   UNL A   1      40.458  36.463  37.876  1.00  0.00     0.000 A 
ENDBRANCH  47  61
BRANCH  48  67
ATOM     67  C   UNL A   1      40.369  27.686  28.575  1.00  0.00    -0.014 A 
ATOM     68  C   UNL A   1      41.055  27.944  27.379  1.00  0.00     0.009 A 
ATOM     69  C   UNL A   1      39.673  26.474  28.709  1.00  0.00     0.009 A 
ATOM     70  C   UNL A   1      41.019  27.025  26.328  1.00  0.00     0.001 A 
ATOM     71  C   UNL A   1      39.664  25.544  27.668  1.00  0.00     0.001 A 
ATOM     72  C   UNL A   1      40.327  25.824  26.474  1.00  0.00     0.000 A 
ENDBRANCH  48  67
BRANCH  60  73
ATOM     73  C   UNL A   1      44.388  28.622  34.182  1.00  0.00    -0.014 A 
ATOM     74  C   UNL A   1      45.710  28.948  33.844  1.00  0.00     0.009 A 
ATOM     75  C   UNL A   1      44.153  27.578  35.091  1.00  0.00     0.009 A 
ATOM     76  C   UNL A   1      46.774  28.220  34.382  1.00  0.00     0.001 A 
ATOM     77  C   UNL A   1      45.220  26.874  35.651  1.00  0.00     0.001 A 
ATOM     78  C   UNL A   1      46.529  27.188  35.288  1.00  0.00     0.000 A 
ENDBRANCH  60  73
ENDBRANCH  34  35
ENDBRANCH  26  29
ENDBRANCH  24  25
ENDBRANCH   1  24
TORSDOF 13
ENDMDL
MODEL 2
REMARK VINA RESULT:     -10.8      0.560      6.046
REMARK SMILES C[NH2+][C@]1(C(=O)NCCCNC(=O)c2ccc(-c3c4nc(c(-c5ccccc5)c5ccc([nH]5)c(-c5ccccc5)c5nc(c(-c6ccccc6)c6ccc3[nH]6)C=C5)C=C4)cc2)CCC[C@@H](Sc2nccn2C)C1
REMARK SMILES IDX 8 1 7 2 6 3 4 4 5 5 3 7 61 8 72 9 62 10 64 11 63 12 2 13
REMARK SMILES IDX 1 14 65 17 66 18 67 19 70 20 68 21 69 22 71 23 9 24 10 25
REMARK SMILES IDX 11 26 12 28 13 29 14 30 60 31 15 32 59 33 16 34 17 35 18 36
REMARK SMILES IDX 53 37 19 38 58 39 52 40 54 41 20 42 57 43 51 44 50 45 21 47
REMARK SMILES IDX 43 48 28 49 42 50 29 51 32 52 41 53 55 54 30 55 31 56 40 58
REMARK SMILES IDX 56 59 33 60 22 61 23 62 27 63 24 64 26 65 25 66 44 67 45 68
REMARK SMILES IDX 49 69 46 70 48 71 47 72 34 73 35 74 39 75 36 76 38 77 37 78
REMARK H PARENT 6 6 2 15 2 16 10 27 54 46 32 57
REMARK Flexibility Score: inf
ROOT
ATOM      1  C   UNL A   1      31.390  32.205  26.650  1.00  0.00     0.042 C 
ENDROOT
BRANCH   1   2
ATOM      2  C   UNL A   1      31.726  30.845  26.065  1.00  0.00     0.118 C 
BRANCH   2   3
ATOM      3  N   UNL A   1      31.573  29.769  27.027  1.00  0.00    -0.351 N 
ATOM      4  C   UNL A   1      32.059  28.493  27.053  1.00  0.00     0.281 C 
ATOM      5  O   UNL A   1      31.678  27.821  28.016  1.00  0.00    -0.268 OA
ATOM      6  H   UNL A   1      31.017  30.002  27.805  1.00  0.00     0.163 HD
BRANCH   4   7
ATOM      7  C   UNL A   1      32.981  27.938  25.902  1.00  0.00     0.176 C 
ATOM      8  C   UNL A   1      33.444  26.529  26.374  1.00  0.00     0.079 C 
ATOM      9  C   UNL A   1      32.247  27.932  24.526  1.00  0.00     0.094 C 
ATOM     10  C   UNL A   1      34.050  25.663  25.278  1.00  0.00     0.008 C 
ATOM     11  C   UNL A   1      32.753  26.890  23.517  1.00  0.00     0.061 C 
ATOM     12  C   UNL A   1      33.077  25.523  24.118  1.00  0.00     0.015 C 
BRANCH   7  13
ATOM     13  N   UNL A   1      34.259  28.712  25.763  1.00  0.00    -0.336 N 
ATOM     14  C   UNL A   1      34.903  29.121  27.006  1.00  0.00     0.331 C 
ATOM     15  H   UNL A   1      34.920  28.134  25.246  1.00  0.00     0.346 HD
ATOM     16  H   UNL A   1      34.001  29.579  25.291  1.00  0.00     0.346 HD
ENDBRANCH   7  13
BRANCH  11  17
ATOM     17  S   UNL A   1      31.649  26.728  22.057  1.00  0.00    -0.084 SA
BRANCH  17  18
ATOM     18  C   UNL A   1      30.378  27.861  22.381  1.00  0.00     0.167 A 
ATOM     19  N   UNL A   1      30.301  29.072  21.878  1.00  0.00    -0.231 NA
ATOM     20  N   UNL A   1      29.291  27.580  23.168  1.00  0.00    -0.329 N 
ATOM     21  C   UNL A   1      29.117  29.589  22.336  1.00  0.00     0.132 A 
ATOM     22  C   UNL A   1      28.479  28.688  23.152  1.00  0.00     0.108 A 
ATOM     23  C   UNL A   1      28.989  26.383  23.911  1.00  0.00     0.152 C 
ENDBRANCH  17  18
ENDBRANCH  11  17
ENDBRANCH   4   7
ENDBRANCH   2   3
ENDBRANCH   1   2
BRANCH   1  24
ATOM     24  C   UNL A   1      32.547  32.862  27.381  1.00  0.00     0.118 C 
BRANCH  24  25
ATOM     25  N   UNL A   1      32.305  34.269  27.679  1.00  0.00    -0.352 N 
ATOM     26  C   UNL A   1      32.921  35.095  28.585  1.00  0.00     0.251 C 
ATOM     27  H   UNL A   1      31.590  34.689  27.148  1.00  0.00     0.163 HD
ATOM     28  O   UNL A   1      32.459  36.209  28.816  1.00  0.00    -0.269 OA
BRANCH  26  29
ATOM     29  C   UNL A   1      34.122  34.632  29.311  1.00  0.00     0.039 A 
ATOM     30  C   UNL A   1      33.976  34.134  30.608  1.00  0.00     0.014 A 
ATOM     31  C   UNL A   1      35.383  34.669  28.712  1.00  0.00     0.014 A 
ATOM     32  C   UNL A   1      35.083  33.598  31.270  1.00  0.00     0.010 A 
ATOM     33  C   UNL A   1      36.458  34.039  29.329  1.00  0.00     0.010 A 
ATOM     34  C   UNL A   1      36.322  33.502  30.617  1.00  0.00    -0.014 A 
BRANCH  34  35
ATOM     35  C   UNL A   1      37.490  32.851  31.262  1.00  0.00     0.031 A 
ATOM     36  C   UNL A   1      38.138  31.655  30.618  1.00  0.00     0.074 A 
ATOM     37  C   UNL A   1      37.926  33.294  32.458  1.00  0.00     0.049 A 
ATOM     38  N   UNL A   1      39.121  30.912  31.060  1.00  0.00    -0.248 NA
ATOM     39  C   UNL A   1      37.591  31.217  29.324  1.00  0.00     0.031 C 
ATOM     40  C   UNL A   1      37.357  34.417  33.208  1.00  0.00     0.029 A 
ATOM     41  N   UNL A   1      38.948  32.848  33.257  1.00  0.00    -0.354 N 
ATOM     42  C   UNL A   1      39.294  29.913  30.111  1.00  0.00     0.074 A 
ATOM     43  C   UNL A   1      38.279  30.108  29.099  1.00  0.00     0.031 C 
ATOM     44  C   UNL A   1      38.059  34.591  34.340  1.00  0.00     0.029 A 
ATOM     45  C   UNL A   1      39.095  33.566  34.419  1.00  0.00     0.049 A 
ATOM     46  H   UNL A   1      39.523  32.084  33.020  1.00  0.00     0.167 HD
ATOM     47  C   UNL A   1      40.226  28.932  30.070  1.00  0.00     0.031 A 
ATOM     48  C   UNL A   1      39.962  33.413  35.438  1.00  0.00     0.031 A 
ATOM     49  C   UNL A   1      41.244  28.745  31.069  1.00  0.00     0.049 A 
ATOM     50  C   UNL A   1      40.978  32.308  35.376  1.00  0.00     0.074 A 
ATOM     51  C   UNL A   1      42.270  27.818  31.089  1.00  0.00     0.029 A 
ATOM     52  N   UNL A   1      41.362  29.501  32.225  1.00  0.00    -0.354 N 
ATOM     53  N   UNL A   1      41.173  31.415  34.436  1.00  0.00    -0.248 NA
ATOM     54  C   UNL A   1      41.903  32.196  36.513  1.00  0.00     0.031 C 
ATOM     55  C   UNL A   1      42.977  27.976  32.285  1.00  0.00     0.029 A 
ATOM     56  C   UNL A   1      42.430  29.044  32.978  1.00  0.00     0.049 A 
ATOM     57  H   UNL A   1      40.774  30.250  32.473  1.00  0.00     0.167 HD
ATOM     58  C   UNL A   1      42.260  30.658  34.851  1.00  0.00     0.074 A 
ATOM     59  C   UNL A   1      42.693  31.206  36.121  1.00  0.00     0.031 C 
ATOM     60  C   UNL A   1      42.849  29.604  34.236  1.00  0.00     0.031 A 
BRANCH  47  61
ATOM     61  C   UNL A   1      40.184  27.981  28.906  1.00  0.00    -0.014 A 
ATOM     62  C   UNL A   1      40.840  28.276  27.700  1.00  0.00     0.009 A 
ATOM     63  C   UNL A   1      39.509  26.756  29.029  1.00  0.00     0.009 A 
ATOM     64  C   UNL A   1      40.790  27.381  26.629  1.00  0.00     0.001 A 
ATOM     65  C   UNL A   1      39.488  25.849  27.968  1.00  0.00     0.001 A 
ATOM     66  C   UNL A   1      40.120  26.166  26.766  1.00  0.00     0.000 A 
ENDBRANCH  47  61
BRANCH  48  67
ATOM     67  C   UNL A   1      39.919  34.338  36.602  1.00  0.00    -0.014 A 
ATOM     68  C   UNL A   1      39.180  34.008  37.748  1.00  0.00     0.009 A 
ATOM     69  C   UNL A   1      40.604  35.563  36.569  1.00  0.00     0.009 A 
ATOM     70  C   UNL A   1      39.100  34.897  38.822  1.00  0.00     0.001 A 
ATOM     71  C   UNL A   1      40.548  36.437  37.656  1.00  0.00     0.001 A 
ATOM     72  C   UNL A   1      39.787  36.109  38.777  1.00  0.00     0.000 A 
ENDBRANCH  48  67
BRANCH  60  73
ATOM     73  C   UNL A   1      44.054  29.001  34.905  1.00  0.00    -0.014 A 
ATOM     74  C   UNL A   1      45.347  29.481  34.653  1.00  0.00     0.009 A 
ATOM     75  C   UNL A   1      43.880  27.964  35.836  1.00  0.00     0.009 A 
ATOM     76  C   UNL A   1      46.448  28.911  35.296  1.00  0.00     0.001 A 
ATOM     77  C   UNL A   1      44.979  27.418  36.501  1.00  0.00     0.001 A 
ATOM     78  C   UNL A   1      46.263  27.884  36.222  1.00  0.00     0.000 A 
ENDBRANCH  60  73
ENDBRANCH  34  35
ENDBRANCH  26  29
ENDBRANCH  24  25
ENDBRANCH   1  24
TORSDOF 13
ENDMDL
MODEL 3
REMARK VINA RESULT:     -10.7      3.764      5.737
REMARK SMILES C[NH2+][C@]1(C(=O)NCCCNC(=O)c2ccc(-c3c4nc(c(-c5ccccc5)c5ccc([nH]5)c(-c5ccccc5)c5nc(c(-c6ccccc6)c6ccc3[nH]6)C=C5)C=C4)cc2)CCC[C@@H](Sc2nccn2C)C1
REMARK SMILES IDX 8 1 7 2 6 3 4 4 5 5 3 7 61 8 72 9 62 10 64 11 63 12 2 13
REMARK SMILES IDX 1 14 65 17 66 18 67 19 70 20 68 21 69 22 71 23 9 24 10 25
REMARK SMILES IDX 11 26 12 28 13 29 14 30 60 31 15 32 59 33 16 34 17 35 18 36
REMARK SMILES IDX 53 37 19 38 58 39 52 40 54 41 20 42 57 43 51 44 50 45 21 47
REMARK SMILES IDX 43 48 28 49 42 50 29 51 32 52 41 53 55 54 30 55 31 56 40 58
REMARK SMILES IDX 56 59 33 60 22 61 23 62 27 63 24 64 26 65 25 66 44 67 45 68
REMARK SMILES IDX 49 69 46 70 48 71 47 72 34 73 35 74 39 75 36 76 38 77 37 78
REMARK H PARENT 6 6 2 15 2 16 10 27 54 46 32 57
REMARK Flexibility Score: inf
ROOT
ATOM      1  C   UNL A   1      34.044  28.647  26.174  1.00  0.00     0.042 C 
ENDROOT
BRANCH   1   2
ATOM      2  C   UNL A   1      33.124  29.124  25.064  1.00  0.00     0.118 C 
BRANCH   2   3
ATOM      3  N   UNL A   1      33.741  29.040  23.753  1.00  0.00    -0.351 N 
ATOM      4  C   UNL A   1      33.762  28.047  22.817  1.00  0.00     0.281 C 
ATOM      5  O   UNL A   1      34.442  28.300  21.818  1.00  0.00    -0.268 OA
ATOM      6  H   UNL A   1      34.236  29.850  23.489  1.00  0.00     0.163 HD
BRANCH   4   7
ATOM      7  C   UNL A   1      33.016  26.678  23.049  1.00  0.00     0.176 C 
ATOM      8  C   UNL A   1      33.051  25.939  21.679  1.00  0.00     0.079 C 
ATOM      9  C   UNL A   1      33.651  25.866  24.219  1.00  0.00     0.094 C 
ATOM     10  C   UNL A   1      32.706  24.459  21.752  1.00  0.00     0.008 C 
ATOM     11  C   UNL A   1      33.461  24.343  24.140  1.00  0.00     0.061 C 
ATOM     12  C   UNL A   1      33.619  23.751  22.740  1.00  0.00     0.015 C 
BRANCH   7  13
ATOM     13  N   UNL A   1      31.553  26.859  23.327  1.00  0.00    -0.336 N 
ATOM     14  C   UNL A   1      30.797  27.616  22.334  1.00  0.00     0.331 C 
ATOM     15  H   UNL A   1      31.132  25.934  23.399  1.00  0.00     0.346 HD
ATOM     16  H   UNL A   1      31.505  27.410  24.184  1.00  0.00     0.346 HD
ENDBRANCH   7  13
BRANCH  11  17
ATOM     17  S   UNL A   1      34.492  23.440  25.363  1.00  0.00    -0.084 SA
BRANCH  17  18
ATOM     18  C   UNL A   1      33.973  21.794  25.196  1.00  0.00     0.167 A 
ATOM     19  N   UNL A   1      32.721  21.396  25.187  1.00  0.00    -0.231 NA
ATOM     20  N   UNL A   1      34.830  20.742  25.007  1.00  0.00    -0.329 N 
ATOM     21  C   UNL A   1      32.763  20.044  24.965  1.00  0.00     0.132 A 
ATOM     22  C   UNL A   1      34.063  19.611  24.866  1.00  0.00     0.108 A 
ATOM     23  C   UNL A   1      36.270  20.736  24.962  1.00  0.00     0.152 C 
ENDBRANCH  17  18
ENDBRANCH  11  17
ENDBRANCH   4   7
ENDBRANCH   2   3
ENDBRANCH   1   2
BRANCH   1  24
ATOM     24  C   UNL A   1      33.509  28.911  27.571  1.00  0.00     0.118 C 
BRANCH  24  25
ATOM     25  N   UNL A   1      33.613  30.311  27.964  1.00  0.00    -0.352 N 
ATOM     26  C   UNL A   1      34.662  30.990  28.531  1.00  0.00     0.251 C 
ATOM     27  H   UNL A   1      32.807  30.851  27.797  1.00  0.00     0.163 HD
ATOM     28  O   UNL A   1      34.500  32.131  28.955  1.00  0.00    -0.269 OA
BRANCH  26  29
ATOM     29  C   UNL A   1      35.980  30.335  28.667  1.00  0.00     0.039 A 
ATOM     30  C   UNL A   1      36.869  30.378  27.590  1.00  0.00     0.014 A 
ATOM     31  C   UNL A   1      36.348  29.698  29.853  1.00  0.00     0.014 A 
ATOM     32  C   UNL A   1      38.155  29.855  27.735  1.00  0.00     0.010 A 
ATOM     33  C   UNL A   1      37.659  29.275  30.032  1.00  0.00     0.010 A 
ATOM     34  C   UNL A   1      38.577  29.343  28.973  1.00  0.00    -0.014 A 
BRANCH  34  35
ATOM     35  C   UNL A   1      39.967  28.866  29.182  1.00  0.00     0.031 A 
ATOM     36  C   UNL A   1      40.996  29.784  29.785  1.00  0.00     0.074 A 
ATOM     37  C   UNL A   1      40.320  27.632  28.769  1.00  0.00     0.049 A 
ATOM     38  N   UNL A   1      42.273  29.574  29.983  1.00  0.00    -0.248 NA
ATOM     39  C   UNL A   1      40.539  31.123  30.189  1.00  0.00     0.031 C 
ATOM     40  C   UNL A   1      39.428  26.662  28.130  1.00  0.00     0.029 A 
ATOM     41  N   UNL A   1      41.529  26.986  28.821  1.00  0.00    -0.354 N 
ATOM     42  C   UNL A   1      42.771  30.757  30.514  1.00  0.00     0.074 A 
ATOM     43  C   UNL A   1      41.675  31.699  30.554  1.00  0.00     0.031 C 
ATOM     44  C   UNL A   1      40.112  25.533  27.880  1.00  0.00     0.029 A 
ATOM     45  C   UNL A   1      41.498  25.716  28.297  1.00  0.00     0.049 A 
ATOM     46  H   UNL A   1      42.343  27.393  29.197  1.00  0.00     0.167 HD
ATOM     47  C   UNL A   1      44.022  31.031  30.951  1.00  0.00     0.031 A 
ATOM     48  C   UNL A   1      42.479  24.802  28.160  1.00  0.00     0.031 A 
ATOM     49  C   UNL A   1      45.110  30.090  30.926  1.00  0.00     0.049 A 
ATOM     50  C   UNL A   1      43.863  25.136  28.641  1.00  0.00     0.074 A 
ATOM     51  C   UNL A   1      46.400  30.252  31.399  1.00  0.00     0.029 A 
ATOM     52  N   UNL A   1      45.033  28.812  30.395  1.00  0.00    -0.354 N 
ATOM     53  N   UNL A   1      44.300  26.235  29.206  1.00  0.00    -0.248 NA
ATOM     54  C   UNL A   1      44.889  24.097  28.474  1.00  0.00     0.031 C 
ATOM     55  C   UNL A   1      47.120  29.090  31.105  1.00  0.00     0.029 A 
ATOM     56  C   UNL A   1      46.261  28.182  30.508  1.00  0.00     0.049 A 
ATOM     57  H   UNL A   1      44.226  28.411  29.999  1.00  0.00     0.167 HD
ATOM     58  C   UNL A   1      45.640  26.008  29.492  1.00  0.00     0.074 A 
ATOM     59  C   UNL A   1      45.940  24.661  29.051  1.00  0.00     0.031 C 
ATOM     60  C   UNL A   1      46.541  26.840  30.068  1.00  0.00     0.031 A 
BRANCH  47  61
ATOM     61  C   UNL A   1      44.283  32.409  31.493  1.00  0.00    -0.014 A 
ATOM     62  C   UNL A   1      44.117  32.700  32.858  1.00  0.00     0.009 A 
ATOM     63  C   UNL A   1      44.735  33.423  30.635  1.00  0.00     0.009 A 
ATOM     64  C   UNL A   1      44.363  33.985  33.343  1.00  0.00     0.001 A 
ATOM     65  C   UNL A   1      45.011  34.700  31.128  1.00  0.00     0.001 A 
ATOM     66  C   UNL A   1      44.816  34.982  32.479  1.00  0.00     0.000 A 
ENDBRANCH  47  61
BRANCH  48  67
ATOM     67  C   UNL A   1      42.187  23.476  27.554  1.00  0.00    -0.014 A 
ATOM     68  C   UNL A   1      41.650  22.439  28.332  1.00  0.00     0.009 A 
ATOM     69  C   UNL A   1      42.457  23.234  26.198  1.00  0.00     0.009 A 
ATOM     70  C   UNL A   1      41.421  21.179  27.775  1.00  0.00     0.001 A 
ATOM     71  C   UNL A   1      42.198  21.983  25.635  1.00  0.00     0.001 A 
ATOM     72  C   UNL A   1      41.691  20.953  26.426  1.00  0.00     0.000 A 
ENDBRANCH  48  67
BRANCH  60  73
ATOM     73  C   UNL A   1      47.927  26.303  30.297  1.00  0.00    -0.014 A 
ATOM     74  C   UNL A   1      48.308  25.767  31.537  1.00  0.00     0.009 A 
ATOM     75  C   UNL A   1      48.849  26.295  29.238  1.00  0.00     0.009 A 
ATOM     76  C   UNL A   1      49.598  25.264  31.720  1.00  0.00     0.001 A 
ATOM     77  C   UNL A   1      50.126  25.761  29.415  1.00  0.00     0.001 A 
ATOM     78  C   UNL A   1      50.503  25.257  30.659  1.00  0.00     0.000 A 
ENDBRANCH  60  73
ENDBRANCH  34  35
ENDBRANCH  26  29
ENDBRANCH  24  25
ENDBRANCH   1  24
TORSDOF 13
ENDMDL
