MODEL 1
REMARK VINA RESULT:     -12.5      0.000      0.000
REMARK SMILES Cc1cccc2c1N=CN1C2=[NH+]NC(=O)[C@@H]1CC(=O)NCCCNC(=O)c1ccc(-c2c3nc(c(-c4ccccc4)c4ccc([nH]4)c(-c4ccccc4)c4nc(c(-c5ccccc5)c5ccc2[nH]5)C=C4)C=C3)cc1
REMARK SMILES IDX 22 1 21 2 20 3 18 4 19 5 17 7 16 8 1 9 2 10 3 11 7 12 4 13
REMARK SMILES IDX 6 14 8 15 5 16 11 17 9 18 10 19 12 20 13 21 14 23 15 25
REMARK SMILES IDX 23 26 24 27 25 28 26 30 27 31 28 32 74 33 29 34 73 35 30 36
REMARK SMILES IDX 31 37 32 38 67 39 33 40 72 41 66 42 68 43 34 44 71 45 65 46
REMARK SMILES IDX 64 47 35 49 57 50 42 51 56 52 43 53 46 54 55 55 69 56 44 57
REMARK SMILES IDX 45 58 54 60 70 61 47 62 36 63 37 64 41 65 38 66 40 67 39 68
REMARK SMILES IDX 58 69 59 70 63 71 60 72 62 73 61 74 48 75 49 76 53 77 50 78
REMARK SMILES IDX 52 79 51 80
REMARK H PARENT 20 6 12 22 13 24 24 29 68 48 46 59
REMARK Flexibility Score: inf
ROOT
ATOM      1  C   UNL A   1      38.995  21.421  26.164  1.00  0.00     0.042 C 
ENDROOT
BRANCH   1   2
ATOM      2  C   UNL A   1      37.921  22.445  25.840  1.00  0.00     0.117 C 
BRANCH   2   3
ATOM      3  N   UNL A   1      37.571  22.429  24.432  1.00  0.00    -0.356 N 
ATOM      4  C   UNL A   1      36.540  23.005  23.760  1.00  0.00     0.224 C 
ATOM      5  O   UNL A   1      36.571  22.948  22.531  1.00  0.00    -0.275 OA
ATOM      6  H   UNL A   1      38.188  21.912  23.865  1.00  0.00     0.163 HD
BRANCH   4   7
ATOM      7  C   UNL A   1      35.454  23.786  24.478  1.00  0.00     0.160 C 
BRANCH   7   8
ATOM      8  C   UNL A   1      33.978  23.465  24.188  1.00  0.00     0.284 C 
ATOM      9  C   UNL A   1      34.783  17.220  25.000  1.00  0.00     0.047 C 
ATOM     10  C   UNL A   1      33.774  17.977  24.182  1.00  0.00    -0.024 A 
ATOM     11  C   UNL A   1      33.319  17.370  23.003  1.00  0.00     0.006 A 
ATOM     12  C   UNL A   1      33.441  19.320  24.437  1.00  0.00     0.085 A 
ATOM     13  C   UNL A   1      32.528  18.077  22.106  1.00  0.00     0.001 A 
ATOM     14  C   UNL A   1      32.634  20.001  23.497  1.00  0.00     0.092 A 
ATOM     15  N   UNL A   1      34.039  20.003  25.525  1.00  0.00    -0.215 NA
ATOM     16  C   UNL A   1      32.130  19.371  22.364  1.00  0.00     0.019 A 
ATOM     17  C   UNL A   1      32.717  21.487  23.473  1.00  0.00     0.309 C 
ATOM     18  C   UNL A   1      34.094  21.292  25.420  1.00  0.00     0.317 C 
ATOM     19  N   UNL A   1      33.619  22.043  24.367  1.00  0.00    -0.203 N 
ATOM     20  N   UNL A   1      32.062  22.107  22.538  1.00  0.00    -0.169 N 
ATOM     21  N   UNL A   1      32.405  23.389  22.289  1.00  0.00    -0.193 N 
ATOM     22  H   UNL A   1      31.346  21.661  22.032  1.00  0.00     0.340 HD
ATOM     23  C   UNL A   1      33.488  24.021  22.845  1.00  0.00     0.300 C 
ATOM     24  H   UNL A   1      31.840  23.903  21.668  1.00  0.00     0.216 HD
ATOM     25  O   UNL A   1      33.928  25.040  22.320  1.00  0.00    -0.267 OA
ENDBRANCH   7   8
ENDBRANCH   4   7
ENDBRANCH   2   3
ENDBRANCH   1   2
BRANCH   1  26
ATOM     26  C   UNL A   1      39.079  20.229  25.225  1.00  0.00     0.118 C 
BRANCH  26  27
ATOM     27  N   UNL A   1      40.004  19.218  25.711  1.00  0.00    -0.352 N 
ATOM     28  C   UNL A   1      41.308  19.321  26.127  1.00  0.00     0.251 C 
ATOM     29  H   UNL A   1      39.632  18.307  25.749  1.00  0.00     0.163 HD
ATOM     30  O   UNL A   1      41.966  18.286  26.261  1.00  0.00    -0.269 OA
BRANCH  28  31
ATOM     31  C   UNL A   1      41.959  20.626  26.414  1.00  0.00     0.039 A 
ATOM     32  C   UNL A   1      42.080  21.035  27.752  1.00  0.00     0.014 A 
ATOM     33  C   UNL A   1      42.364  21.501  25.404  1.00  0.00     0.014 A 
ATOM     34  C   UNL A   1      42.650  22.275  28.076  1.00  0.00     0.010 A 
ATOM     35  C   UNL A   1      42.987  22.710  25.725  1.00  0.00     0.010 A 
ATOM     36  C   UNL A   1      43.119  23.119  27.064  1.00  0.00    -0.014 A 
BRANCH  36  37
ATOM     37  C   UNL A   1      43.628  24.485  27.350  1.00  0.00     0.031 A 
ATOM     38  C   UNL A   1      42.634  25.567  27.664  1.00  0.00     0.074 A 
ATOM     39  C   UNL A   1      44.938  24.793  27.275  1.00  0.00     0.049 A 
ATOM     40  N   UNL A   1      42.849  26.835  27.892  1.00  0.00    -0.248 NA
ATOM     41  C   UNL A   1      41.219  25.165  27.763  1.00  0.00     0.031 C 
ATOM     42  C   UNL A   1      46.026  23.843  27.092  1.00  0.00     0.029 A 
ATOM     43  N   UNL A   1      45.581  26.007  27.317  1.00  0.00    -0.354 N 
ATOM     44  C   UNL A   1      41.608  27.371  28.200  1.00  0.00     0.074 A 
ATOM     45  C   UNL A   1      40.632  26.316  28.056  1.00  0.00     0.031 C 
ATOM     46  C   UNL A   1      47.179  24.498  26.903  1.00  0.00     0.029 A 
ATOM     47  C   UNL A   1      46.929  25.925  27.052  1.00  0.00     0.049 A 
ATOM     48  H   UNL A   1      45.122  26.854  27.518  1.00  0.00     0.167 HD
ATOM     49  C   UNL A   1      41.316  28.625  28.614  1.00  0.00     0.031 A 
ATOM     50  C   UNL A   1      47.878  26.876  26.980  1.00  0.00     0.031 A 
ATOM     51  C   UNL A   1      42.285  29.674  28.755  1.00  0.00     0.049 A 
ATOM     52  C   UNL A   1      47.516  28.285  27.338  1.00  0.00     0.074 A 
ATOM     53  C   UNL A   1      42.085  30.967  29.201  1.00  0.00     0.029 A 
ATOM     54  N   UNL A   1      43.630  29.554  28.448  1.00  0.00    -0.354 N 
ATOM     55  N   UNL A   1      46.348  28.761  27.688  1.00  0.00    -0.248 NA
ATOM     56  C   UNL A   1      48.602  29.274  27.346  1.00  0.00     0.031 C 
ATOM     57  C   UNL A   1      43.302  31.647  29.116  1.00  0.00     0.029 A 
ATOM     58  C   UNL A   1      44.268  30.761  28.663  1.00  0.00     0.049 A 
ATOM     59  H   UNL A   1      44.067  28.731  28.126  1.00  0.00     0.167 HD
ATOM     60  C   UNL A   1      46.562  30.094  28.000  1.00  0.00     0.074 A 
ATOM     61  C   UNL A   1      47.971  30.355  27.788  1.00  0.00     0.031 C 
ATOM     62  C   UNL A   1      45.668  31.010  28.440  1.00  0.00     0.031 A 
BRANCH  49  63
ATOM     63  C   UNL A   1      39.892  28.921  28.969  1.00  0.00    -0.014 A 
ATOM     64  C   UNL A   1      38.986  29.354  27.987  1.00  0.00     0.009 A 
ATOM     65  C   UNL A   1      39.432  28.698  30.274  1.00  0.00     0.009 A 
ATOM     66  C   UNL A   1      37.646  29.566  28.310  1.00  0.00     0.001 A 
ATOM     67  C   UNL A   1      38.086  28.891  30.589  1.00  0.00     0.001 A 
ATOM     68  C   UNL A   1      37.195  29.327  29.608  1.00  0.00     0.000 A 
ENDBRANCH  49  63
BRANCH  50  69
ATOM     69  C   UNL A   1      49.274  26.492  26.654  1.00  0.00    -0.014 A 
ATOM     70  C   UNL A   1      50.132  26.015  27.657  1.00  0.00     0.009 A 
ATOM     71  C   UNL A   1      49.735  26.533  25.329  1.00  0.00     0.009 A 
ATOM     72  C   UNL A   1      51.426  25.595  27.341  1.00  0.00     0.001 A 
ATOM     73  C   UNL A   1      51.026  26.100  25.014  1.00  0.00     0.001 A 
ATOM     74  C   UNL A   1      51.871  25.633  26.020  1.00  0.00     0.000 A 
ENDBRANCH  50  69
BRANCH  62  75
ATOM     75  C   UNL A   1      46.166  32.393  28.729  1.00  0.00    -0.014 A 
ATOM     76  C   UNL A   1      46.049  33.409  27.772  1.00  0.00     0.009 A 
ATOM     77  C   UNL A   1      46.631  32.709  30.016  1.00  0.00     0.009 A 
ATOM     78  C   UNL A   1      46.387  34.723  28.100  1.00  0.00     0.001 A 
ATOM     79  C   UNL A   1      46.947  34.027  30.346  1.00  0.00     0.001 A 
ATOM     80  C   UNL A   1      46.823  35.032  29.388  1.00  0.00     0.000 A 
ENDBRANCH  62  75
ENDBRANCH  36  37
ENDBRANCH  28  31
ENDBRANCH  26  27
ENDBRANCH   1  26
TORSDOF 11
ENDMDL
MODEL 2
REMARK VINA RESULT:     -12.5      6.009     10.684
REMARK SMILES Cc1cccc2c1N=CN1C2=[NH+]NC(=O)[C@@H]1CC(=O)NCCCNC(=O)c1ccc(-c2c3nc(c(-c4ccccc4)c4ccc([nH]4)c(-c4ccccc4)c4nc(c(-c5ccccc5)c5ccc2[nH]5)C=C4)C=C3)cc1
REMARK SMILES IDX 22 1 21 2 20 3 18 4 19 5 17 7 16 8 1 9 2 10 3 11 7 12 4 13
REMARK SMILES IDX 6 14 8 15 5 16 11 17 9 18 10 19 12 20 13 21 14 23 15 25
REMARK SMILES IDX 23 26 24 27 25 28 26 30 27 31 28 32 74 33 29 34 73 35 30 36
REMARK SMILES IDX 31 37 32 38 67 39 33 40 72 41 66 42 68 43 34 44 71 45 65 46
REMARK SMILES IDX 64 47 35 49 57 50 42 51 56 52 43 53 46 54 55 55 69 56 44 57
REMARK SMILES IDX 45 58 54 60 70 61 47 62 36 63 37 64 41 65 38 66 40 67 39 68
REMARK SMILES IDX 58 69 59 70 63 71 60 72 62 73 61 74 48 75 49 76 53 77 50 78
REMARK SMILES IDX 52 79 51 80
REMARK H PARENT 20 6 12 22 13 24 24 29 68 48 46 59
REMARK Flexibility Score: inf
ROOT
ATOM      1  C   UNL A   1      33.569  31.582  26.982  1.00  0.00     0.042 C 
ENDROOT
BRANCH   1   2
ATOM      2  C   UNL A   1      33.774  30.091  27.179  1.00  0.00     0.117 C 
BRANCH   2   3
ATOM      3  N   UNL A   1      32.557  29.435  27.619  1.00  0.00    -0.356 N 
ATOM      4  C   UNL A   1      32.084  28.181  27.393  1.00  0.00     0.224 C 
ATOM      5  O   UNL A   1      31.080  27.839  28.020  1.00  0.00    -0.275 OA
ATOM      6  H   UNL A   1      31.971  29.996  28.178  1.00  0.00     0.163 HD
BRANCH   4   7
ATOM      7  C   UNL A   1      32.820  27.198  26.501  1.00  0.00     0.160 C 
BRANCH   7   8
ATOM      8  C   UNL A   1      32.031  26.400  25.448  1.00  0.00     0.284 C 
ATOM      9  C   UNL A   1      29.154  31.567  23.139  1.00  0.00     0.047 C 
ATOM     10  C   UNL A   1      28.720  30.128  23.145  1.00  0.00    -0.024 A 
ATOM     11  C   UNL A   1      27.344  29.872  23.221  1.00  0.00     0.006 A 
ATOM     12  C   UNL A   1      29.626  29.061  23.287  1.00  0.00     0.085 A 
ATOM     13  C   UNL A   1      26.876  28.578  23.411  1.00  0.00     0.001 A 
ATOM     14  C   UNL A   1      29.106  27.760  23.478  1.00  0.00     0.092 A 
ATOM     15  N   UNL A   1      31.014  29.321  23.396  1.00  0.00    -0.215 NA
ATOM     16  C   UNL A   1      27.739  27.506  23.484  1.00  0.00     0.019 A 
ATOM     17  C   UNL A   1      29.990  26.759  24.136  1.00  0.00     0.309 C 
ATOM     18  C   UNL A   1      31.713  28.414  24.001  1.00  0.00     0.317 C 
ATOM     19  N   UNL A   1      31.233  27.234  24.526  1.00  0.00    -0.203 N 
ATOM     20  N   UNL A   1      29.477  25.599  24.414  1.00  0.00    -0.169 N 
ATOM     21  N   UNL A   1      30.134  24.829  25.307  1.00  0.00    -0.193 N 
ATOM     22  H   UNL A   1      28.643  25.293  23.990  1.00  0.00     0.340 HD
ATOM     23  C   UNL A   1      31.210  25.250  26.046  1.00  0.00     0.300 C 
ATOM     24  H   UNL A   1      29.820  23.905  25.436  1.00  0.00     0.216 HD
ATOM     25  O   UNL A   1      31.526  24.634  27.059  1.00  0.00    -0.267 OA
ENDBRANCH   7   8
ENDBRANCH   4   7
ENDBRANCH   2   3
ENDBRANCH   1   2
BRANCH   1  26
ATOM     26  C   UNL A   1      32.179  32.109  27.300  1.00  0.00     0.118 C 
BRANCH  26  27
ATOM     27  N   UNL A   1      32.165  33.556  27.442  1.00  0.00    -0.352 N 
ATOM     28  C   UNL A   1      32.900  34.385  28.252  1.00  0.00     0.251 C 
ATOM     29  H   UNL A   1      31.520  34.018  26.859  1.00  0.00     0.163 HD
ATOM     30  O   UNL A   1      32.539  35.558  28.376  1.00  0.00    -0.269 OA
BRANCH  28  31
ATOM     31  C   UNL A   1      34.106  33.924  28.989  1.00  0.00     0.039 A 
ATOM     32  C   UNL A   1      35.372  34.226  28.460  1.00  0.00     0.014 A 
ATOM     33  C   UNL A   1      34.028  33.123  30.130  1.00  0.00     0.014 A 
ATOM     34  C   UNL A   1      36.541  33.782  29.094  1.00  0.00     0.010 A 
ATOM     35  C   UNL A   1      35.191  32.730  30.798  1.00  0.00     0.010 A 
ATOM     36  C   UNL A   1      36.461  33.039  30.276  1.00  0.00    -0.014 A 
BRANCH  36  37
ATOM     37  C   UNL A   1      37.664  32.453  30.923  1.00  0.00     0.031 A 
ATOM     38  C   UNL A   1      38.228  31.180  30.360  1.00  0.00     0.074 A 
ATOM     39  C   UNL A   1      38.220  32.993  32.026  1.00  0.00     0.049 A 
ATOM     40  N   UNL A   1      39.235  30.469  30.794  1.00  0.00    -0.248 NA
ATOM     41  C   UNL A   1      37.599  30.654  29.135  1.00  0.00     0.031 C 
ATOM     42  C   UNL A   1      37.860  34.271  32.620  1.00  0.00     0.029 A 
ATOM     43  N   UNL A   1      39.197  32.516  32.866  1.00  0.00    -0.354 N 
ATOM     44  C   UNL A   1      39.384  29.440  29.878  1.00  0.00     0.074 A 
ATOM     45  C   UNL A   1      38.322  29.567  28.905  1.00  0.00     0.031 C 
ATOM     46  C   UNL A   1      38.494  34.427  33.791  1.00  0.00     0.029 A 
ATOM     47  C   UNL A   1      39.389  33.295  33.983  1.00  0.00     0.049 A 
ATOM     48  H   UNL A   1      39.709  31.695  32.686  1.00  0.00     0.167 HD
ATOM     49  C   UNL A   1      40.353  28.498  29.825  1.00  0.00     0.031 A 
ATOM     50  C   UNL A   1      40.223  33.153  35.031  1.00  0.00     0.031 A 
ATOM     51  C   UNL A   1      41.406  28.370  30.790  1.00  0.00     0.049 A 
ATOM     52  C   UNL A   1      41.222  32.038  35.012  1.00  0.00     0.074 A 
ATOM     53  C   UNL A   1      42.452  27.465  30.799  1.00  0.00     0.029 A 
ATOM     54  N   UNL A   1      41.545  29.161  31.919  1.00  0.00    -0.354 N 
ATOM     55  N   UNL A   1      41.389  31.109  34.103  1.00  0.00    -0.248 NA
ATOM     56  C   UNL A   1      42.181  31.978  36.123  1.00  0.00     0.031 C 
ATOM     57  C   UNL A   1      43.197  27.676  31.961  1.00  0.00     0.029 A 
ATOM     58  C   UNL A   1      42.642  28.744  32.650  1.00  0.00     0.049 A 
ATOM     59  H   UNL A   1      40.952  29.909  32.163  1.00  0.00     0.167 HD
ATOM     60  C   UNL A   1      42.495  30.380  34.507  1.00  0.00     0.074 A 
ATOM     61  C   UNL A   1      42.955  30.967  35.749  1.00  0.00     0.031 C 
ATOM     62  C   UNL A   1      43.083  29.330  33.888  1.00  0.00     0.031 A 
BRANCH  49  63
ATOM     63  C   UNL A   1      40.331  27.548  28.668  1.00  0.00    -0.014 A 
ATOM     64  C   UNL A   1      41.048  27.836  27.494  1.00  0.00     0.009 A 
ATOM     65  C   UNL A   1      39.655  26.325  28.774  1.00  0.00     0.009 A 
ATOM     66  C   UNL A   1      41.078  26.919  26.445  1.00  0.00     0.001 A 
ATOM     67  C   UNL A   1      39.704  25.401  27.729  1.00  0.00     0.001 A 
ATOM     68  C   UNL A   1      40.413  25.699  26.566  1.00  0.00     0.000 A 
ENDBRANCH  49  63
BRANCH  50  69
ATOM     69  C   UNL A   1      40.203  34.160  36.122  1.00  0.00    -0.014 A 
ATOM     70  C   UNL A   1      40.929  35.354  35.998  1.00  0.00     0.009 A 
ATOM     71  C   UNL A   1      39.404  33.964  37.260  1.00  0.00     0.009 A 
ATOM     72  C   UNL A   1      40.862  36.328  36.997  1.00  0.00     0.001 A 
ATOM     73  C   UNL A   1      39.330  34.947  38.250  1.00  0.00     0.001 A 
ATOM     74  C   UNL A   1      40.060  36.127  38.119  1.00  0.00     0.000 A 
ENDBRANCH  50  69
BRANCH  62  75
ATOM     75  C   UNL A   1      44.295  28.727  34.530  1.00  0.00    -0.014 A 
ATOM     76  C   UNL A   1      44.177  27.618  35.378  1.00  0.00     0.009 A 
ATOM     77  C   UNL A   1      45.572  29.190  34.175  1.00  0.00     0.009 A 
ATOM     78  C   UNL A   1      45.321  26.979  35.859  1.00  0.00     0.001 A 
ATOM     79  C   UNL A   1      46.713  28.535  34.640  1.00  0.00     0.001 A 
ATOM     80  C   UNL A   1      46.585  27.430  35.480  1.00  0.00     0.000 A 
ENDBRANCH  62  75
ENDBRANCH  36  37
ENDBRANCH  28  31
ENDBRANCH  26  27
ENDBRANCH   1  26
TORSDOF 11
ENDMDL
MODEL 3
REMARK VINA RESULT:     -12.4      4.956      9.336
REMARK SMILES Cc1cccc2c1N=CN1C2=[NH+]NC(=O)[C@@H]1CC(=O)NCCCNC(=O)c1ccc(-c2c3nc(c(-c4ccccc4)c4ccc([nH]4)c(-c4ccccc4)c4nc(c(-c5ccccc5)c5ccc2[nH]5)C=C4)C=C3)cc1
REMARK SMILES IDX 22 1 21 2 20 3 18 4 19 5 17 7 16 8 1 9 2 10 3 11 7 12 4 13
REMARK SMILES IDX 6 14 8 15 5 16 11 17 9 18 10 19 12 20 13 21 14 23 15 25
REMARK SMILES IDX 23 26 24 27 25 28 26 30 27 31 28 32 74 33 29 34 73 35 30 36
REMARK SMILES IDX 31 37 32 38 67 39 33 40 72 41 66 42 68 43 34 44 71 45 65 46
REMARK SMILES IDX 64 47 35 49 57 50 42 51 56 52 43 53 46 54 55 55 69 56 44 57
REMARK SMILES IDX 45 58 54 60 70 61 47 62 36 63 37 64 41 65 38 66 40 67 39 68
REMARK SMILES IDX 58 69 59 70 63 71 60 72 62 73 61 74 48 75 49 76 53 77 50 78
REMARK SMILES IDX 52 79 51 80
REMARK H PARENT 20 6 12 22 13 24 24 29 68 48 46 59
REMARK Flexibility Score: inf
ROOT
ATOM      1  C   UNL A   1      31.390  31.030  25.962  1.00  0.00     0.042 C 
ENDROOT
BRANCH   1   2
ATOM      2  C   UNL A   1      31.767  29.781  25.186  1.00  0.00     0.117 C 
BRANCH   2   3
ATOM      3  N   UNL A   1      31.091  29.720  23.904  1.00  0.00    -0.356 N 
ATOM      4  C   UNL A   1      30.763  28.663  23.115  1.00  0.00     0.224 C 
ATOM      5  O   UNL A   1      30.052  28.894  22.137  1.00  0.00    -0.275 OA
ATOM      6  H   UNL A   1      30.823  30.596  23.543  1.00  0.00     0.163 HD
BRANCH   4   7
ATOM      7  C   UNL A   1      31.153  27.242  23.478  1.00  0.00     0.160 C 
BRANCH   7   8
ATOM      8  C   UNL A   1      30.924  26.741  24.914  1.00  0.00     0.284 C 
ATOM      9  C   UNL A   1      36.444  23.608  25.103  1.00  0.00     0.047 C 
ATOM     10  C   UNL A   1      35.160  23.372  25.850  1.00  0.00    -0.024 A 
ATOM     11  C   UNL A   1      34.843  22.047  26.178  1.00  0.00     0.006 A 
ATOM     12  C   UNL A   1      34.193  24.377  26.037  1.00  0.00     0.085 A 
ATOM     13  C   UNL A   1      33.597  21.729  26.705  1.00  0.00     0.001 A 
ATOM     14  C   UNL A   1      32.939  24.009  26.576  1.00  0.00     0.092 A 
ATOM     15  N   UNL A   1      34.427  25.684  25.545  1.00  0.00    -0.215 NA
ATOM     16  C   UNL A   1      32.657  22.703  26.963  1.00  0.00     0.019 A 
ATOM     17  C   UNL A   1      31.783  24.902  26.292  1.00  0.00     0.309 C 
ATOM     18  C   UNL A   1      33.370  26.392  25.299  1.00  0.00     0.317 C 
ATOM     19  N   UNL A   1      32.064  25.995  25.486  1.00  0.00    -0.203 N 
ATOM     20  N   UNL A   1      30.611  24.509  26.691  1.00  0.00    -0.169 N 
ATOM     21  N   UNL A   1      29.536  25.112  26.142  1.00  0.00    -0.193 N 
ATOM     22  H   UNL A   1      30.511  23.799  27.365  1.00  0.00     0.340 HD
ATOM     23  C   UNL A   1      29.596  25.994  25.093  1.00  0.00     0.300 C 
ATOM     24  H   UNL A   1      28.650  24.906  26.520  1.00  0.00     0.216 HD
ATOM     25  O   UNL A   1      28.584  26.225  24.438  1.00  0.00    -0.267 OA
ENDBRANCH   7   8
ENDBRANCH   4   7
ENDBRANCH   2   3
ENDBRANCH   1   2
BRANCH   1  26
ATOM     26  C   UNL A   1      32.399  31.499  26.997  1.00  0.00     0.118 C 
BRANCH  26  27
ATOM     27  N   UNL A   1      32.248  32.912  27.304  1.00  0.00    -0.352 N 
ATOM     28  C   UNL A   1      32.984  33.737  28.118  1.00  0.00     0.251 C 
ATOM     29  H   UNL A   1      31.492  33.351  26.851  1.00  0.00     0.163 HD
ATOM     30  O   UNL A   1      32.518  34.840  28.413  1.00  0.00    -0.269 OA
BRANCH  28  31
ATOM     31  C   UNL A   1      34.313  33.351  28.662  1.00  0.00     0.039 A 
ATOM     32  C   UNL A   1      35.452  33.583  27.875  1.00  0.00     0.014 A 
ATOM     33  C   UNL A   1      34.460  32.682  29.878  1.00  0.00     0.014 A 
ATOM     34  C   UNL A   1      36.726  33.202  28.323  1.00  0.00     0.010 A 
ATOM     35  C   UNL A   1      35.733  32.355  30.355  1.00  0.00     0.010 A 
ATOM     36  C   UNL A   1      36.878  32.595  29.574  1.00  0.00    -0.014 A 
BRANCH  36  37
ATOM     37  C   UNL A   1      38.189  32.075  30.043  1.00  0.00     0.031 A 
ATOM     38  C   UNL A   1      38.612  30.703  29.603  1.00  0.00     0.074 A 
ATOM     39  C   UNL A   1      38.972  32.768  30.894  1.00  0.00     0.049 A 
ATOM     40  N   UNL A   1      39.685  30.032  29.931  1.00  0.00    -0.248 NA
ATOM     41  C   UNL A   1      37.732  30.007  28.648  1.00  0.00     0.031 C 
ATOM     42  C   UNL A   1      38.755  34.142  31.322  1.00  0.00     0.029 A 
ATOM     43  N   UNL A   1      40.103  32.397  31.580  1.00  0.00    -0.354 N 
ATOM     44  C   UNL A   1      39.627  28.859  29.195  1.00  0.00     0.074 A 
ATOM     45  C   UNL A   1      38.382  28.868  28.462  1.00  0.00     0.031 C 
ATOM     46  C   UNL A   1      39.627  34.464  32.288  1.00  0.00     0.029 A 
ATOM     47  C   UNL A   1      40.536  33.343  32.480  1.00  0.00     0.049 A 
ATOM     48  H   UNL A   1      40.561  31.537  31.440  1.00  0.00     0.167 HD
ATOM     49  C   UNL A   1      40.557  27.882  29.103  1.00  0.00     0.031 A 
ATOM     50  C   UNL A   1      41.574  33.343  33.336  1.00  0.00     0.031 A 
ATOM     51  C   UNL A   1      41.792  27.872  29.832  1.00  0.00     0.049 A 
ATOM     52  C   UNL A   1      42.540  32.199  33.300  1.00  0.00     0.074 A 
ATOM     53  C   UNL A   1      42.811  26.938  29.776  1.00  0.00     0.029 A 
ATOM     54  N   UNL A   1      42.175  28.835  30.752  1.00  0.00    -0.354 N 
ATOM     55  N   UNL A   1      42.502  31.126  32.550  1.00  0.00    -0.248 NA
ATOM     56  C   UNL A   1      43.714  32.286  34.178  1.00  0.00     0.031 C 
ATOM     57  C   UNL A   1      43.788  27.309  30.702  1.00  0.00     0.029 A 
ATOM     58  C   UNL A   1      43.400  28.499  31.297  1.00  0.00     0.049 A 
ATOM     59  H   UNL A   1      41.652  29.637  30.983  1.00  0.00     0.167 HD
ATOM     60  C   UNL A   1      43.665  30.428  32.832  1.00  0.00     0.074 A 
ATOM     61  C   UNL A   1      44.385  31.194  33.830  1.00  0.00     0.031 C 
ATOM     62  C   UNL A   1      44.101  29.265  32.295  1.00  0.00     0.031 A 
BRANCH  49  63
ATOM     63  C   UNL A   1      40.282  26.754  28.158  1.00  0.00    -0.014 A 
ATOM     64  C   UNL A   1      40.799  26.774  26.852  1.00  0.00     0.009 A 
ATOM     65  C   UNL A   1      39.566  25.630  28.593  1.00  0.00     0.009 A 
ATOM     66  C   UNL A   1      40.596  25.691  25.997  1.00  0.00     0.001 A 
ATOM     67  C   UNL A   1      39.382  24.540  27.742  1.00  0.00     0.001 A 
ATOM     68  C   UNL A   1      39.894  24.572  26.445  1.00  0.00     0.000 A 
ENDBRANCH  49  63
BRANCH  50  69
ATOM     69  C   UNL A   1      41.795  34.518  34.216  1.00  0.00    -0.014 A 
ATOM     70  C   UNL A   1      42.495  35.638  33.743  1.00  0.00     0.009 A 
ATOM     71  C   UNL A   1      41.248  34.555  35.509  1.00  0.00     0.009 A 
ATOM     72  C   UNL A   1      42.650  36.768  34.549  1.00  0.00     0.001 A 
ATOM     73  C   UNL A   1      41.394  35.693  36.308  1.00  0.00     0.001 A 
ATOM     74  C   UNL A   1      42.096  36.797  35.828  1.00  0.00     0.000 A 
ENDBRANCH  50  69
BRANCH  62  75
ATOM     75  C   UNL A   1      45.419  28.727  32.761  1.00  0.00    -0.014 A 
ATOM     76  C   UNL A   1      46.609  29.097  32.120  1.00  0.00     0.009 A 
ATOM     77  C   UNL A   1      45.479  27.955  33.932  1.00  0.00     0.009 A 
ATOM     78  C   UNL A   1      47.840  28.704  32.646  1.00  0.00     0.001 A 
ATOM     79  C   UNL A   1      46.712  27.582  34.467  1.00  0.00     0.001 A 
ATOM     80  C   UNL A   1      47.890  27.958  33.824  1.00  0.00     0.000 A 
ENDBRANCH  62  75
ENDBRANCH  36  37
ENDBRANCH  28  31
ENDBRANCH  26  27
ENDBRANCH   1  26
TORSDOF 11
ENDMDL
