MODEL 1
REMARK VINA RESULT:     -11.0      0.000      0.000
REMARK SMILES COc1ccc(-n2c(=S)[nH]cc(CC(=O)NCCCNC(=O)c3ccc(-c4c5nc(c(-c6ccccc6)c6ccc([nH]6)c(-c6ccccc6)c6nc(c(-c7ccccc7)c7ccc4[nH]7)C=C6)C=C5)cc3)c2=O)cc1Cl
REMARK SMILES IDX 17 1 16 2 14 3 15 4 13 6 12 7 7 8 8 9 71 10 9 11 10 12 72 13
REMARK SMILES IDX 11 14 6 16 3 17 4 18 74 19 5 20 73 21 75 22 2 23 1 24 18 25
REMARK SMILES IDX 19 26 20 27 21 28 22 30 23 31 24 32 70 33 25 34 69 35 26 36
REMARK SMILES IDX 27 37 28 38 63 39 29 40 68 41 62 42 64 43 30 44 67 45 61 46
REMARK SMILES IDX 60 47 31 49 53 50 38 51 52 52 39 53 42 54 51 55 65 56 40 57
REMARK SMILES IDX 41 58 50 60 66 61 43 62 32 63 33 64 37 65 34 66 36 67 35 68
REMARK SMILES IDX 54 69 55 70 59 71 56 72 58 73 57 74 44 75 45 76 49 77 46 78
REMARK SMILES IDX 48 79 47 80
REMARK H PARENT 16 5 10 15 20 29 64 48 42 59
REMARK Flexibility Score: inf
ROOT
ATOM      1  C   UNL A   1      36.421  20.626  25.136  1.00  0.00     0.117 C 
ENDROOT
BRANCH   1   2
ATOM      2  N   UNL A   1      36.722  21.875  25.816  1.00  0.00    -0.356 N 
ATOM      3  C   UNL A   1      36.384  23.151  25.473  1.00  0.00     0.224 C 
ATOM      4  O   UNL A   1      36.853  24.081  26.133  1.00  0.00    -0.275 OA
ATOM      5  H   UNL A   1      37.245  21.787  26.645  1.00  0.00     0.163 HD
BRANCH   3   6
ATOM      6  C   UNL A   1      35.472  23.410  24.283  1.00  0.00     0.142 C 
BRANCH   6   7
ATOM      7  C   UNL A   1      34.059  23.663  24.728  1.00  0.00     0.043 A 
ATOM      8  N   UNL A   1      32.124  25.195  24.749  1.00  0.00    -0.253 N 
ATOM      9  C   UNL A   1      31.473  24.357  25.670  1.00  0.00     0.184 A 
ATOM     10  C   UNL A   1      33.374  24.877  24.197  1.00  0.00     0.262 A 
ATOM     11  S   UNL A   1      29.934  24.508  26.327  1.00  0.00    -0.040 S 
ATOM     12  N   UNL A   1      32.165  23.231  26.047  1.00  0.00    -0.338 N 
ATOM     13  O   UNL A   1      33.969  25.558  23.362  1.00  0.00    -0.269 OA
ATOM     14  C   UNL A   1      33.406  22.899  25.606  1.00  0.00     0.095 A 
ATOM     15  H   UNL A   1      31.730  22.620  26.684  1.00  0.00     0.168 HD
BRANCH   8  16
ATOM     16  C   UNL A   1      31.532  26.435  24.318  1.00  0.00     0.053 A 
ATOM     17  C   UNL A   1      30.411  28.858  23.434  1.00  0.00     0.137 A 
ATOM     18  C   UNL A   1      30.158  27.676  22.738  1.00  0.00     0.050 A 
ATOM     19  C   UNL A   1      31.210  28.834  24.580  1.00  0.00     0.085 A 
ATOM     20  C   UNL A   1      30.728  26.475  23.169  1.00  0.00     0.031 A 
ATOM     21  C   UNL A   1      31.778  27.630  25.012  1.00  0.00     0.051 A 
ATOM     22  Cl  UNL A   1      31.516  30.253  25.515  1.00  0.00    -0.080 Cl
BRANCH  17  23
ATOM     23  O   UNL A   1      29.780  29.989  22.987  1.00  0.00    -0.495 OA
ATOM     24  C   UNL A   1      28.555  29.672  22.325  1.00  0.00     0.278 C 
ENDBRANCH  17  23
ENDBRANCH   8  16
ENDBRANCH   6   7
ENDBRANCH   3   6
ENDBRANCH   1   2
BRANCH   1  25
ATOM     25  C   UNL A   1      37.668  19.764  24.946  1.00  0.00     0.042 C 
BRANCH  25  26
ATOM     26  C   UNL A   1      38.912  20.300  25.647  1.00  0.00     0.118 C 
BRANCH  26  27
ATOM     27  N   UNL A   1      39.997  19.332  25.705  1.00  0.00    -0.352 N 
ATOM     28  C   UNL A   1      41.316  19.495  26.055  1.00  0.00     0.251 C 
ATOM     29  H   UNL A   1      39.745  18.413  25.455  1.00  0.00     0.163 HD
ATOM     30  O   UNL A   1      42.105  18.566  25.893  1.00  0.00    -0.269 OA
BRANCH  28  31
ATOM     31  C   UNL A   1      41.803  20.785  26.592  1.00  0.00     0.039 A 
ATOM     32  C   UNL A   1      41.873  21.016  27.966  1.00  0.00     0.014 A 
ATOM     33  C   UNL A   1      42.216  21.781  25.700  1.00  0.00     0.014 A 
ATOM     34  C   UNL A   1      42.184  22.286  28.440  1.00  0.00     0.010 A 
ATOM     35  C   UNL A   1      42.618  23.032  26.182  1.00  0.00     0.010 A 
ATOM     36  C   UNL A   1      42.558  23.312  27.555  1.00  0.00    -0.014 A 
BRANCH  36  37
ATOM     37  C   UNL A   1      42.890  24.655  28.100  1.00  0.00     0.031 A 
ATOM     38  C   UNL A   1      44.320  25.085  28.291  1.00  0.00     0.074 A 
ATOM     39  C   UNL A   1      41.890  25.523  28.354  1.00  0.00     0.049 A 
ATOM     40  N   UNL A   1      44.781  26.255  28.658  1.00  0.00    -0.248 NA
ATOM     41  C   UNL A   1      45.366  24.082  28.041  1.00  0.00     0.031 C 
ATOM     42  C   UNL A   1      40.463  25.227  28.207  1.00  0.00     0.029 A 
ATOM     43  N   UNL A   1      41.917  26.838  28.747  1.00  0.00    -0.354 N 
ATOM     44  C   UNL A   1      46.164  26.125  28.690  1.00  0.00     0.074 A 
ATOM     45  C   UNL A   1      46.469  24.755  28.343  1.00  0.00     0.031 C 
ATOM     46  C   UNL A   1      39.758  26.345  28.431  1.00  0.00     0.029 A 
ATOM     47  C   UNL A   1      40.674  27.421  28.800  1.00  0.00     0.049 A 
ATOM     48  H   UNL A   1      42.748  27.318  28.968  1.00  0.00     0.167 HD
ATOM     49  C   UNL A   1      47.096  27.067  28.971  1.00  0.00     0.031 A 
ATOM     50  C   UNL A   1      40.302  28.678  29.107  1.00  0.00     0.031 A 
ATOM     51  C   UNL A   1      46.796  28.434  29.310  1.00  0.00     0.049 A 
ATOM     52  C   UNL A   1      41.354  29.691  29.452  1.00  0.00     0.074 A 
ATOM     53  C   UNL A   1      47.680  29.464  29.579  1.00  0.00     0.029 A 
ATOM     54  N   UNL A   1      45.520  28.961  29.428  1.00  0.00    -0.354 N 
ATOM     55  N   UNL A   1      42.658  29.557  29.450  1.00  0.00    -0.248 NA
ATOM     56  C   UNL A   1      40.886  31.028  29.844  1.00  0.00     0.031 C 
ATOM     57  C   UNL A   1      46.939  30.598  29.923  1.00  0.00     0.029 A 
ATOM     58  C   UNL A   1      45.593  30.293  29.799  1.00  0.00     0.049 A 
ATOM     59  H   UNL A   1      44.685  28.462  29.271  1.00  0.00     0.167 HD
ATOM     60  C   UNL A   1      43.166  30.790  29.834  1.00  0.00     0.074 A 
ATOM     61  C   UNL A   1      42.032  31.669  30.033  1.00  0.00     0.031 C 
ATOM     62  C   UNL A   1      44.459  31.155  30.013  1.00  0.00     0.031 A 
BRANCH  49  63
ATOM     63  C   UNL A   1      48.546  26.663  28.933  1.00  0.00    -0.014 A 
ATOM     64  C   UNL A   1      49.232  26.641  27.708  1.00  0.00     0.009 A 
ATOM     65  C   UNL A   1      49.206  26.214  30.088  1.00  0.00     0.009 A 
ATOM     66  C   UNL A   1      50.542  26.162  27.636  1.00  0.00     0.001 A 
ATOM     67  C   UNL A   1      50.526  25.763  30.018  1.00  0.00     0.001 A 
ATOM     68  C   UNL A   1      51.189  25.728  28.791  1.00  0.00     0.000 A 
ENDBRANCH  49  63
BRANCH  50  69
ATOM     69  C   UNL A   1      38.860  29.038  29.082  1.00  0.00    -0.014 A 
ATOM     70  C   UNL A   1      38.268  29.532  27.908  1.00  0.00     0.009 A 
ATOM     71  C   UNL A   1      38.082  28.945  30.245  1.00  0.00     0.009 A 
ATOM     72  C   UNL A   1      36.938  29.955  27.906  1.00  0.00     0.001 A 
ATOM     73  C   UNL A   1      36.742  29.340  30.232  1.00  0.00     0.001 A 
ATOM     74  C   UNL A   1      36.175  29.855  29.067  1.00  0.00     0.000 A 
ENDBRANCH  50  69
BRANCH  62  75
ATOM     75  C   UNL A   1      44.731  32.566  30.455  1.00  0.00    -0.014 A 
ATOM     76  C   UNL A   1      44.765  32.878  31.824  1.00  0.00     0.009 A 
ATOM     77  C   UNL A   1      44.863  33.603  29.519  1.00  0.00     0.009 A 
ATOM     78  C   UNL A   1      44.914  34.200  32.246  1.00  0.00     0.001 A 
ATOM     79  C   UNL A   1      45.042  34.921  29.944  1.00  0.00     0.001 A 
ATOM     80  C   UNL A   1      45.057  35.219  31.307  1.00  0.00     0.000 A 
ENDBRANCH  62  75
ENDBRANCH  36  37
ENDBRANCH  28  31
ENDBRANCH  26  27
ENDBRANCH  25  26
ENDBRANCH   1  25
TORSDOF 13
ENDMDL
MODEL 2
REMARK VINA RESULT:     -10.9      4.508      9.666
REMARK SMILES COc1ccc(-n2c(=S)[nH]cc(CC(=O)NCCCNC(=O)c3ccc(-c4c5nc(c(-c6ccccc6)c6ccc([nH]6)c(-c6ccccc6)c6nc(c(-c7ccccc7)c7ccc4[nH]7)C=C6)C=C5)cc3)c2=O)cc1Cl
REMARK SMILES IDX 17 1 16 2 14 3 15 4 13 6 12 7 7 8 8 9 71 10 9 11 10 12 72 13
REMARK SMILES IDX 11 14 6 16 3 17 4 18 74 19 5 20 73 21 75 22 2 23 1 24 18 25
REMARK SMILES IDX 19 26 20 27 21 28 22 30 23 31 24 32 70 33 25 34 69 35 26 36
REMARK SMILES IDX 27 37 28 38 63 39 29 40 68 41 62 42 64 43 30 44 67 45 61 46
REMARK SMILES IDX 60 47 31 49 53 50 38 51 52 52 39 53 42 54 51 55 65 56 40 57
REMARK SMILES IDX 41 58 50 60 66 61 43 62 32 63 33 64 37 65 34 66 36 67 35 68
REMARK SMILES IDX 54 69 55 70 59 71 56 72 58 73 57 74 44 75 45 76 49 77 46 78
REMARK SMILES IDX 48 79 47 80
REMARK H PARENT 16 5 10 15 20 29 64 48 42 59
REMARK Flexibility Score: inf
ROOT
ATOM      1  C   UNL A   1      31.679  30.539  25.827  1.00  0.00     0.117 C 
ENDROOT
BRANCH   1   2
ATOM      2  N   UNL A   1      32.981  30.034  26.232  1.00  0.00    -0.356 N 
ATOM      3  C   UNL A   1      33.329  28.791  26.673  1.00  0.00     0.224 C 
ATOM      4  O   UNL A   1      34.477  28.613  27.084  1.00  0.00    -0.275 OA
ATOM      5  H   UNL A   1      33.718  30.684  26.180  1.00  0.00     0.163 HD
BRANCH   3   6
ATOM      6  C   UNL A   1      32.306  27.665  26.679  1.00  0.00     0.142 C 
BRANCH   6   7
ATOM      7  C   UNL A   1      32.388  26.850  25.420  1.00  0.00     0.043 A 
ATOM      8  N   UNL A   1      32.758  24.639  24.388  1.00  0.00    -0.253 N 
ATOM      9  C   UNL A   1      32.770  25.236  23.116  1.00  0.00     0.184 A 
ATOM     10  C   UNL A   1      32.511  25.371  25.559  1.00  0.00     0.262 A 
ATOM     11  S   UNL A   1      32.915  24.505  21.610  1.00  0.00    -0.040 S 
ATOM     12  N   UNL A   1      32.584  26.598  23.093  1.00  0.00    -0.338 N 
ATOM     13  O   UNL A   1      32.455  24.890  26.692  1.00  0.00    -0.269 OA
ATOM     14  C   UNL A   1      32.410  27.376  24.193  1.00  0.00     0.095 A 
ATOM     15  H   UNL A   1      32.578  27.043  22.215  1.00  0.00     0.168 HD
BRANCH   8  16
ATOM     16  C   UNL A   1      33.000  23.229  24.555  1.00  0.00     0.053 A 
ATOM     17  C   UNL A   1      33.451  20.479  24.931  1.00  0.00     0.137 A 
ATOM     18  C   UNL A   1      32.150  20.961  24.787  1.00  0.00     0.050 A 
ATOM     19  C   UNL A   1      34.531  21.363  24.872  1.00  0.00     0.085 A 
ATOM     20  C   UNL A   1      31.925  22.328  24.616  1.00  0.00     0.031 A 
ATOM     21  C   UNL A   1      34.304  22.733  24.697  1.00  0.00     0.051 A 
ATOM     22  Cl  UNL A   1      36.167  20.822  24.989  1.00  0.00    -0.080 Cl
BRANCH  17  23
ATOM     23  O   UNL A   1      33.602  19.122  25.044  1.00  0.00    -0.495 OA
ATOM     24  C   UNL A   1      33.054  18.443  23.913  1.00  0.00     0.278 C 
ENDBRANCH  17  23
ENDBRANCH   8  16
ENDBRANCH   6   7
ENDBRANCH   3   6
ENDBRANCH   1   2
BRANCH   1  25
ATOM     25  C   UNL A   1      31.367  31.892  26.463  1.00  0.00     0.042 C 
BRANCH  25  26
ATOM     26  C   UNL A   1      32.526  32.495  27.251  1.00  0.00     0.118 C 
BRANCH  26  27
ATOM     27  N   UNL A   1      32.308  33.887  27.615  1.00  0.00    -0.352 N 
ATOM     28  C   UNL A   1      32.981  34.690  28.504  1.00  0.00     0.251 C 
ATOM     29  H   UNL A   1      31.558  34.323  27.149  1.00  0.00     0.163 HD
ATOM     30  O   UNL A   1      32.536  35.803  28.771  1.00  0.00    -0.269 OA
BRANCH  28  31
ATOM     31  C   UNL A   1      34.217  34.216  29.166  1.00  0.00     0.039 A 
ATOM     32  C   UNL A   1      35.477  34.568  28.682  1.00  0.00     0.014 A 
ATOM     33  C   UNL A   1      34.112  33.414  30.308  1.00  0.00     0.014 A 
ATOM     34  C   UNL A   1      36.616  33.984  29.227  1.00  0.00     0.010 A 
ATOM     35  C   UNL A   1      35.265  32.900  30.912  1.00  0.00     0.010 A 
ATOM     36  C   UNL A   1      36.526  33.140  30.347  1.00  0.00    -0.014 A 
BRANCH  36  37
ATOM     37  C   UNL A   1      37.766  32.539  30.905  1.00  0.00     0.031 A 
ATOM     38  C   UNL A   1      38.348  33.024  32.206  1.00  0.00     0.074 A 
ATOM     39  C   UNL A   1      38.331  31.493  30.268  1.00  0.00     0.049 A 
ATOM     40  N   UNL A   1      39.363  32.543  32.880  1.00  0.00    -0.248 NA
ATOM     41  C   UNL A   1      37.718  34.197  32.832  1.00  0.00     0.031 C 
ATOM     42  C   UNL A   1      37.860  30.929  29.001  1.00  0.00     0.029 A 
ATOM     43  N   UNL A   1      39.391  30.694  30.614  1.00  0.00    -0.354 N 
ATOM     44  C   UNL A   1      39.496  33.354  34.000  1.00  0.00     0.074 A 
ATOM     45  C   UNL A   1      38.485  34.383  33.899  1.00  0.00     0.031 C 
ATOM     46  C   UNL A   1      38.578  29.832  28.717  1.00  0.00     0.029 A 
ATOM     47  C   UNL A   1      39.600  29.652  29.743  1.00  0.00     0.049 A 
ATOM     48  H   UNL A   1      39.949  30.852  31.410  1.00  0.00     0.167 HD
ATOM     49  C   UNL A   1      40.374  33.244  35.026  1.00  0.00     0.031 A 
ATOM     50  C   UNL A   1      40.506  28.656  29.761  1.00  0.00     0.031 A 
ATOM     51  C   UNL A   1      41.377  32.216  35.131  1.00  0.00     0.049 A 
ATOM     52  C   UNL A   1      41.492  28.581  30.891  1.00  0.00     0.074 A 
ATOM     53  C   UNL A   1      42.288  32.010  36.153  1.00  0.00     0.029 A 
ATOM     54  N   UNL A   1      41.603  31.227  34.188  1.00  0.00    -0.354 N 
ATOM     55  N   UNL A   1      41.584  29.340  31.954  1.00  0.00    -0.248 NA
ATOM     56  C   UNL A   1      42.500  27.514  30.823  1.00  0.00     0.031 C 
ATOM     57  C   UNL A   1      43.108  30.936  35.797  1.00  0.00     0.029 A 
ATOM     58  C   UNL A   1      42.662  30.429  34.587  1.00  0.00     0.049 A 
ATOM     59  H   UNL A   1      41.087  31.110  33.357  1.00  0.00     0.167 HD
ATOM     60  C   UNL A   1      42.654  28.843  32.684  1.00  0.00     0.074 A 
ATOM     61  C   UNL A   1      43.162  27.697  31.958  1.00  0.00     0.031 C 
ATOM     62  C   UNL A   1      43.172  29.302  33.849  1.00  0.00     0.031 A 
BRANCH  49  63
ATOM     63  C   UNL A   1      40.305  34.264  36.130  1.00  0.00    -0.014 A 
ATOM     64  C   UNL A   1      39.440  34.057  37.217  1.00  0.00     0.009 A 
ATOM     65  C   UNL A   1      41.018  35.471  36.052  1.00  0.00     0.009 A 
ATOM     66  C   UNL A   1      39.278  35.042  38.194  1.00  0.00     0.001 A 
ATOM     67  C   UNL A   1      40.876  36.442  37.045  1.00  0.00     0.001 A 
ATOM     68  C   UNL A   1      39.999  36.231  38.109  1.00  0.00     0.000 A 
ENDBRANCH  49  63
BRANCH  50  69
ATOM     69  C   UNL A   1      40.500  27.646  28.671  1.00  0.00    -0.014 A 
ATOM     70  C   UNL A   1      41.245  27.858  27.499  1.00  0.00     0.009 A 
ATOM     71  C   UNL A   1      39.707  26.493  28.770  1.00  0.00     0.009 A 
ATOM     72  C   UNL A   1      41.171  26.955  26.437  1.00  0.00     0.001 A 
ATOM     73  C   UNL A   1      39.659  25.576  27.717  1.00  0.00     0.001 A 
ATOM     74  C   UNL A   1      40.382  25.813  26.548  1.00  0.00     0.000 A 
ENDBRANCH  50  69
BRANCH  62  75
ATOM     75  C   UNL A   1      44.359  28.576  34.420  1.00  0.00    -0.014 A 
ATOM     76  C   UNL A   1      45.659  28.957  34.049  1.00  0.00     0.009 A 
ATOM     77  C   UNL A   1      44.190  27.458  35.251  1.00  0.00     0.009 A 
ATOM     78  C   UNL A   1      46.764  28.227  34.489  1.00  0.00     0.001 A 
ATOM     79  C   UNL A   1      45.299  26.748  35.716  1.00  0.00     0.001 A 
ATOM     80  C   UNL A   1      46.584  27.127  35.326  1.00  0.00     0.000 A 
ENDBRANCH  62  75
ENDBRANCH  36  37
ENDBRANCH  28  31
ENDBRANCH  26  27
ENDBRANCH  25  26
ENDBRANCH   1  25
TORSDOF 13
ENDMDL
MODEL 3
REMARK VINA RESULT:     -10.8      0.781      5.964
REMARK SMILES COc1ccc(-n2c(=S)[nH]cc(CC(=O)NCCCNC(=O)c3ccc(-c4c5nc(c(-c6ccccc6)c6ccc([nH]6)c(-c6ccccc6)c6nc(c(-c7ccccc7)c7ccc4[nH]7)C=C6)C=C5)cc3)c2=O)cc1Cl
REMARK SMILES IDX 17 1 16 2 14 3 15 4 13 6 12 7 7 8 8 9 71 10 9 11 10 12 72 13
REMARK SMILES IDX 11 14 6 16 3 17 4 18 74 19 5 20 73 21 75 22 2 23 1 24 18 25
REMARK SMILES IDX 19 26 20 27 21 28 22 30 23 31 24 32 70 33 25 34 69 35 26 36
REMARK SMILES IDX 27 37 28 38 63 39 29 40 68 41 62 42 64 43 30 44 67 45 61 46
REMARK SMILES IDX 60 47 31 49 53 50 38 51 52 52 39 53 42 54 51 55 65 56 40 57
REMARK SMILES IDX 41 58 50 60 66 61 43 62 32 63 33 64 37 65 34 66 36 67 35 68
REMARK SMILES IDX 54 69 55 70 59 71 56 72 58 73 57 74 44 75 45 76 49 77 46 78
REMARK SMILES IDX 48 79 47 80
REMARK H PARENT 16 5 10 15 20 29 64 48 42 59
REMARK Flexibility Score: inf
ROOT
ATOM      1  C   UNL A   1      36.775  20.605  24.973  1.00  0.00     0.117 C 
ENDROOT
BRANCH   1   2
ATOM      2  N   UNL A   1      37.039  21.835  25.701  1.00  0.00    -0.356 N 
ATOM      3  C   UNL A   1      36.642  23.110  25.418  1.00  0.00     0.224 C 
ATOM      4  O   UNL A   1      37.085  24.030  26.108  1.00  0.00    -0.275 OA
ATOM      5  H   UNL A   1      37.582  21.735  26.514  1.00  0.00     0.163 HD
BRANCH   3   6
ATOM      6  C   UNL A   1      35.695  23.380  24.258  1.00  0.00     0.142 C 
BRANCH   6   7
ATOM      7  C   UNL A   1      34.283  23.557  24.740  1.00  0.00     0.043 A 
ATOM      8  N   UNL A   1      32.286  25.004  24.854  1.00  0.00    -0.253 N 
ATOM      9  C   UNL A   1      31.691  24.107  25.759  1.00  0.00     0.184 A 
ATOM     10  C   UNL A   1      33.536  24.758  24.267  1.00  0.00     0.262 A 
ATOM     11  S   UNL A   1      30.162  24.171  26.452  1.00  0.00    -0.040 S 
ATOM     12  N   UNL A   1      32.438  23.000  26.082  1.00  0.00    -0.338 N 
ATOM     13  O   UNL A   1      34.084  25.492  23.443  1.00  0.00    -0.269 OA
ATOM     14  C   UNL A   1      33.682  22.736  25.604  1.00  0.00     0.095 A 
ATOM     15  H   UNL A   1      32.043  22.349  26.705  1.00  0.00     0.168 HD
BRANCH   8  16
ATOM     16  C   UNL A   1      31.634  26.231  24.479  1.00  0.00     0.053 A 
ATOM     17  C   UNL A   1      30.390  28.631  23.701  1.00  0.00     0.137 A 
ATOM     18  C   UNL A   1      30.100  27.443  23.030  1.00  0.00     0.050 A 
ATOM     19  C   UNL A   1      31.288  28.624  24.772  1.00  0.00     0.085 A 
ATOM     20  C   UNL A   1      30.730  26.255  23.406  1.00  0.00     0.031 A 
ATOM     21  C   UNL A   1      31.916  27.431  25.150  1.00  0.00     0.051 A 
ATOM     22  Cl  UNL A   1      31.648  30.049  25.677  1.00  0.00    -0.080 Cl
BRANCH  17  23
ATOM     23  O   UNL A   1      29.699  29.749  23.314  1.00  0.00    -0.495 OA
ATOM     24  C   UNL A   1      29.845  29.990  21.914  1.00  0.00     0.278 C 
ENDBRANCH  17  23
ENDBRANCH   8  16
ENDBRANCH   6   7
ENDBRANCH   3   6
ENDBRANCH   1   2
BRANCH   1  25
ATOM     25  C   UNL A   1      37.986  19.674  24.967  1.00  0.00     0.042 C 
BRANCH  25  26
ATOM     26  C   UNL A   1      39.184  20.201  25.750  1.00  0.00     0.118 C 
BRANCH  26  27
ATOM     27  N   UNL A   1      40.254  19.224  25.884  1.00  0.00    -0.352 N 
ATOM     28  C   UNL A   1      41.593  19.401  26.137  1.00  0.00     0.251 C 
ATOM     29  H   UNL A   1      39.973  18.286  25.777  1.00  0.00     0.163 HD
ATOM     30  O   UNL A   1      42.356  18.440  26.063  1.00  0.00    -0.269 OA
BRANCH  28  31
ATOM     31  C   UNL A   1      42.132  20.740  26.463  1.00  0.00     0.039 A 
ATOM     32  C   UNL A   1      42.227  21.179  27.784  1.00  0.00     0.014 A 
ATOM     33  C   UNL A   1      42.568  21.570  25.424  1.00  0.00     0.014 A 
ATOM     34  C   UNL A   1      42.588  22.495  28.052  1.00  0.00     0.010 A 
ATOM     35  C   UNL A   1      43.018  22.865  25.703  1.00  0.00     0.010 A 
ATOM     36  C   UNL A   1      42.986  23.357  27.016  1.00  0.00    -0.014 A 
BRANCH  36  37
ATOM     37  C   UNL A   1      43.371  24.755  27.343  1.00  0.00     0.031 A 
ATOM     38  C   UNL A   1      42.335  25.776  27.735  1.00  0.00     0.074 A 
ATOM     39  C   UNL A   1      44.678  25.087  27.362  1.00  0.00     0.049 A 
ATOM     40  N   UNL A   1      42.512  27.007  28.148  1.00  0.00    -0.248 NA
ATOM     41  C   UNL A   1      40.923  25.371  27.652  1.00  0.00     0.031 C 
ATOM     42  C   UNL A   1      45.777  24.187  27.005  1.00  0.00     0.029 A 
ATOM     43  N   UNL A   1      45.306  26.250  27.732  1.00  0.00    -0.354 N 
ATOM     44  C   UNL A   1      41.240  27.522  28.365  1.00  0.00     0.074 A 
ATOM     45  C   UNL A   1      40.298  26.487  28.005  1.00  0.00     0.031 C 
ATOM     46  C   UNL A   1      46.943  24.805  27.246  1.00  0.00     0.029 A 
ATOM     47  C   UNL A   1      46.677  26.163  27.711  1.00  0.00     0.049 A 
ATOM     48  H   UNL A   1      44.821  27.068  27.988  1.00  0.00     0.167 HD
ATOM     49  C   UNL A   1      40.891  28.742  28.837  1.00  0.00     0.031 A 
ATOM     50  C   UNL A   1      47.623  27.066  28.031  1.00  0.00     0.031 A 
ATOM     51  C   UNL A   1      41.828  29.772  29.204  1.00  0.00     0.049 A 
ATOM     52  C   UNL A   1      47.207  28.425  28.514  1.00  0.00     0.074 A 
ATOM     53  C   UNL A   1      41.563  31.028  29.720  1.00  0.00     0.029 A 
ATOM     54  N   UNL A   1      43.206  29.668  29.093  1.00  0.00    -0.354 N 
ATOM     55  N   UNL A   1      46.000  28.884  28.740  1.00  0.00    -0.248 NA
ATOM     56  C   UNL A   1      48.280  29.392  28.784  1.00  0.00     0.031 C 
ATOM     57  C   UNL A   1      42.775  31.708  29.862  1.00  0.00     0.029 A 
ATOM     58  C   UNL A   1      43.801  30.850  29.500  1.00  0.00     0.049 A 
ATOM     59  H   UNL A   1      43.689  28.871  28.773  1.00  0.00     0.167 HD
ATOM     60  C   UNL A   1      46.167  30.189  29.183  1.00  0.00     0.074 A 
ATOM     61  C   UNL A   1      47.593  30.439  29.222  1.00  0.00     0.031 C 
ATOM     62  C   UNL A   1      45.220  31.098  29.519  1.00  0.00     0.031 A 
BRANCH  49  63
ATOM     63  C   UNL A   1      39.425  29.052  28.985  1.00  0.00    -0.014 A 
ATOM     64  C   UNL A   1      38.763  28.736  30.181  1.00  0.00     0.009 A 
ATOM     65  C   UNL A   1      38.679  29.566  27.912  1.00  0.00     0.009 A 
ATOM     66  C   UNL A   1      37.382  28.911  30.298  1.00  0.00     0.001 A 
ATOM     67  C   UNL A   1      37.303  29.768  28.041  1.00  0.00     0.001 A 
ATOM     68  C   UNL A   1      36.655  29.431  29.229  1.00  0.00     0.000 A 
ENDBRANCH  49  63
BRANCH  50  69
ATOM     69  C   UNL A   1      49.057  26.693  27.914  1.00  0.00    -0.014 A 
ATOM     70  C   UNL A   1      49.723  26.800  26.682  1.00  0.00     0.009 A 
ATOM     71  C   UNL A   1      49.752  26.174  29.016  1.00  0.00     0.009 A 
ATOM     72  C   UNL A   1      51.043  26.366  26.547  1.00  0.00     0.001 A 
ATOM     73  C   UNL A   1      51.083  25.769  28.885  1.00  0.00     0.001 A 
ATOM     74  C   UNL A   1      51.723  25.855  27.650  1.00  0.00     0.000 A 
ENDBRANCH  50  69
BRANCH  62  75
ATOM     75  C   UNL A   1      45.683  32.460  29.954  1.00  0.00    -0.014 A 
ATOM     76  C   UNL A   1      45.879  33.472  28.999  1.00  0.00     0.009 A 
ATOM     77  C   UNL A   1      46.013  32.717  31.293  1.00  0.00     0.009 A 
ATOM     78  C   UNL A   1      46.406  34.708  29.375  1.00  0.00     0.001 A 
ATOM     79  C   UNL A   1      46.513  33.966  31.671  1.00  0.00     0.001 A 
ATOM     80  C   UNL A   1      46.718  34.956  30.710  1.00  0.00     0.000 A 
ENDBRANCH  62  75
ENDBRANCH  36  37
ENDBRANCH  28  31
ENDBRANCH  26  27
ENDBRANCH  25  26
ENDBRANCH   1  25
TORSDOF 13
ENDMDL
