MODEL 1
REMARK VINA RESULT:     -11.4      0.000      0.000
REMARK SMILES CC(C)c1nc(N2C[C@H](C)OC(C)(C)C2)sc1C(=O)NCCCNC(=O)c1ccc(-c2c3nc(c(-c4ccccc4)c4ccc([nH]4)c(-c4ccccc4)c4nc(c(-c5ccccc5)c5ccc2[nH]5)C=C4)C=C3)cc1
REMARK SMILES IDX 22 1 21 2 20 3 18 4 19 5 17 7 4 8 5 9 6 10 16 11 2 12 1 13
REMARK SMILES IDX 3 14 7 15 8 16 15 17 9 18 12 19 11 20 10 21 13 22 14 23
REMARK SMILES IDX 23 24 24 25 25 26 26 28 27 29 28 30 74 31 29 32 73 33 30 34
REMARK SMILES IDX 31 35 32 36 67 37 33 38 72 39 66 40 68 41 34 42 71 43 65 44
REMARK SMILES IDX 64 45 35 47 57 48 42 49 56 50 43 51 46 52 55 53 69 54 44 55
REMARK SMILES IDX 45 56 54 58 70 59 47 60 36 61 37 62 41 63 38 64 40 65 39 66
REMARK SMILES IDX 58 67 59 68 63 69 60 70 62 71 61 72 48 73 49 74 53 75 50 76
REMARK SMILES IDX 52 77 51 78
REMARK H PARENT 20 6 24 27 68 46 46 57
REMARK Flexibility Score: inf
ROOT
ATOM      1  C   UNL A   1      32.275  29.119  26.565  1.00  0.00     0.042 C 
ENDROOT
BRANCH   1   2
ATOM      2  C   UNL A   1      32.144  27.777  27.263  1.00  0.00     0.118 C 
BRANCH   2   3
ATOM      3  N   UNL A   1      30.909  27.086  26.977  1.00  0.00    -0.351 N 
ATOM      4  C   UNL A   1      30.680  25.884  26.358  1.00  0.00     0.263 C 
ATOM      5  O   UNL A   1      29.489  25.578  26.249  1.00  0.00    -0.268 OA
ATOM      6  H   UNL A   1      30.096  27.554  27.276  1.00  0.00     0.163 HD
BRANCH   4   7
ATOM      7  C   UNL A   1      31.755  25.066  25.833  1.00  0.00     0.117 A 
ATOM      8  C   UNL A   1      32.611  25.139  24.740  1.00  0.00     0.069 A 
ATOM      9  N   UNL A   1      33.589  24.147  24.731  1.00  0.00    -0.224 NA
ATOM     10  C   UNL A   1      33.476  23.313  25.737  1.00  0.00     0.186 A 
ATOM     11  S   UNL A   1      32.172  23.689  26.785  1.00  0.00    -0.091 S 
BRANCH   8  12
ATOM     12  C   UNL A   1      32.652  26.122  23.591  1.00  0.00     0.034 C 
ATOM     13  C   UNL A   1      33.768  27.157  23.725  1.00  0.00     0.014 C 
ATOM     14  C   UNL A   1      32.742  25.446  22.215  1.00  0.00     0.014 C 
ENDBRANCH   8  12
BRANCH  10  15
ATOM     15  N   UNL A   1      34.329  22.280  25.940  1.00  0.00    -0.343 N 
ATOM     16  C   UNL A   1      33.954  20.874  25.836  1.00  0.00     0.150 C 
ATOM     17  C   UNL A   1      35.759  22.524  26.120  1.00  0.00     0.153 C 
ATOM     18  C   UNL A   1      34.778  20.224  24.706  1.00  0.00     0.135 C 
ATOM     19  C   UNL A   1      36.596  21.777  25.048  1.00  0.00     0.081 C 
ATOM     20  O   UNL A   1      36.191  20.393  24.924  1.00  0.00    -0.369 OA
ATOM     21  C   UNL A   1      34.505  18.727  24.626  1.00  0.00     0.040 C 
ATOM     22  C   UNL A   1      36.531  22.483  23.686  1.00  0.00     0.044 C 
ATOM     23  C   UNL A   1      38.061  21.736  25.507  1.00  0.00     0.044 C 
ENDBRANCH  10  15
ENDBRANCH   4   7
ENDBRANCH   2   3
ENDBRANCH   1   2
BRANCH   1  24
ATOM     24  C   UNL A   1      33.653  29.757  26.694  1.00  0.00     0.118 C 
BRANCH  24  25
ATOM     25  N   UNL A   1      33.728  30.818  27.692  1.00  0.00    -0.352 N 
ATOM     26  C   UNL A   1      34.686  31.151  28.622  1.00  0.00     0.251 C 
ATOM     27  H   UNL A   1      32.942  31.412  27.701  1.00  0.00     0.163 HD
ATOM     28  O   UNL A   1      34.449  32.050  29.428  1.00  0.00    -0.269 OA
BRANCH  26  29
ATOM     29  C   UNL A   1      35.968  30.417  28.711  1.00  0.00     0.039 A 
ATOM     30  C   UNL A   1      36.840  30.441  27.616  1.00  0.00     0.014 A 
ATOM     31  C   UNL A   1      36.327  29.701  29.849  1.00  0.00     0.014 A 
ATOM     32  C   UNL A   1      38.105  29.851  27.715  1.00  0.00     0.010 A 
ATOM     33  C   UNL A   1      37.628  29.236  29.997  1.00  0.00     0.010 A 
ATOM     34  C   UNL A   1      38.538  29.305  28.933  1.00  0.00    -0.014 A 
BRANCH  34  35
ATOM     35  C   UNL A   1      39.922  28.797  29.132  1.00  0.00     0.031 A 
ATOM     36  C   UNL A   1      40.994  29.712  29.669  1.00  0.00     0.074 A 
ATOM     37  C   UNL A   1      40.249  27.553  28.725  1.00  0.00     0.049 A 
ATOM     38  N   UNL A   1      42.288  29.520  29.741  1.00  0.00    -0.248 NA
ATOM     39  C   UNL A   1      40.559  31.038  30.139  1.00  0.00     0.031 C 
ATOM     40  C   UNL A   1      39.330  26.576  28.137  1.00  0.00     0.029 A 
ATOM     41  N   UNL A   1      41.459  26.902  28.736  1.00  0.00    -0.354 N 
ATOM     42  C   UNL A   1      42.820  30.716  30.208  1.00  0.00     0.074 A 
ATOM     43  C   UNL A   1      41.718  31.639  30.360  1.00  0.00     0.031 C 
ATOM     44  C   UNL A   1      39.997  25.440  27.882  1.00  0.00     0.029 A 
ATOM     45  C   UNL A   1      41.399  25.623  28.238  1.00  0.00     0.049 A 
ATOM     46  H   UNL A   1      42.289  27.313  29.069  1.00  0.00     0.167 HD
ATOM     47  C   UNL A   1      44.106  31.016  30.505  1.00  0.00     0.031 A 
ATOM     48  C   UNL A   1      42.366  24.699  28.077  1.00  0.00     0.031 A 
ATOM     49  C   UNL A   1      45.195  30.081  30.419  1.00  0.00     0.049 A 
ATOM     50  C   UNL A   1      43.777  25.036  28.468  1.00  0.00     0.074 A 
ATOM     51  C   UNL A   1      46.520  30.264  30.776  1.00  0.00     0.029 A 
ATOM     52  N   UNL A   1      45.078  28.779  29.960  1.00  0.00    -0.354 N 
ATOM     53  N   UNL A   1      44.255  26.158  28.947  1.00  0.00    -0.248 NA
ATOM     54  C   UNL A   1      44.779  23.973  28.302  1.00  0.00     0.031 C 
ATOM     55  C   UNL A   1      47.211  29.077  30.509  1.00  0.00     0.029 A 
ATOM     56  C   UNL A   1      46.307  28.147  30.022  1.00  0.00     0.049 A 
ATOM     57  H   UNL A   1      44.244  28.365  29.639  1.00  0.00     0.167 HD
ATOM     58  C   UNL A   1      45.607  25.930  29.163  1.00  0.00     0.074 A 
ATOM     59  C   UNL A   1      45.870  24.559  28.775  1.00  0.00     0.031 C 
ATOM     60  C   UNL A   1      46.548  26.781  29.641  1.00  0.00     0.031 A 
BRANCH  47  61
ATOM     61  C   UNL A   1      44.401  32.418  30.964  1.00  0.00    -0.014 A 
ATOM     62  C   UNL A   1      44.649  33.448  30.042  1.00  0.00     0.009 A 
ATOM     63  C   UNL A   1      44.414  32.715  32.335  1.00  0.00     0.009 A 
ATOM     64  C   UNL A   1      44.948  34.737  30.487  1.00  0.00     0.001 A 
ATOM     65  C   UNL A   1      44.685  34.012  32.776  1.00  0.00     0.001 A 
ATOM     66  C   UNL A   1      44.963  35.018  31.852  1.00  0.00     0.000 A 
ENDBRANCH  47  61
BRANCH  48  67
ATOM     67  C   UNL A   1      42.029  23.353  27.551  1.00  0.00    -0.014 A 
ATOM     68  C   UNL A   1      42.223  23.061  26.192  1.00  0.00     0.009 A 
ATOM     69  C   UNL A   1      41.516  22.356  28.393  1.00  0.00     0.009 A 
ATOM     70  C   UNL A   1      41.884  21.806  25.682  1.00  0.00     0.001 A 
ATOM     71  C   UNL A   1      41.202  21.093  27.885  1.00  0.00     0.001 A 
ATOM     72  C   UNL A   1      41.378  20.822  26.529  1.00  0.00     0.000 A 
ENDBRANCH  48  67
BRANCH  60  73
ATOM     73  C   UNL A   1      47.937  26.240  29.806  1.00  0.00    -0.014 A 
ATOM     74  C   UNL A   1      48.828  26.182  28.723  1.00  0.00     0.009 A 
ATOM     75  C   UNL A   1      48.373  25.826  31.074  1.00  0.00     0.009 A 
ATOM     76  C   UNL A   1      50.122  25.691  28.903  1.00  0.00     0.001 A 
ATOM     77  C   UNL A   1      49.675  25.358  31.255  1.00  0.00     0.001 A 
ATOM     78  C   UNL A   1      50.546  25.285  30.169  1.00  0.00     0.000 A 
ENDBRANCH  60  73
ENDBRANCH  34  35
ENDBRANCH  26  29
ENDBRANCH  24  25
ENDBRANCH   1  24
TORSDOF 12
ENDMDL
MODEL 2
REMARK VINA RESULT:     -11.3      1.598      7.726
REMARK SMILES CC(C)c1nc(N2C[C@H](C)OC(C)(C)C2)sc1C(=O)NCCCNC(=O)c1ccc(-c2c3nc(c(-c4ccccc4)c4ccc([nH]4)c(-c4ccccc4)c4nc(c(-c5ccccc5)c5ccc2[nH]5)C=C4)C=C3)cc1
REMARK SMILES IDX 22 1 21 2 20 3 18 4 19 5 17 7 4 8 5 9 6 10 16 11 2 12 1 13
REMARK SMILES IDX 3 14 7 15 8 16 15 17 9 18 12 19 11 20 10 21 13 22 14 23
REMARK SMILES IDX 23 24 24 25 25 26 26 28 27 29 28 30 74 31 29 32 73 33 30 34
REMARK SMILES IDX 31 35 32 36 67 37 33 38 72 39 66 40 68 41 34 42 71 43 65 44
REMARK SMILES IDX 64 45 35 47 57 48 42 49 56 50 43 51 46 52 55 53 69 54 44 55
REMARK SMILES IDX 45 56 54 58 70 59 47 60 36 61 37 62 41 63 38 64 40 65 39 66
REMARK SMILES IDX 58 67 59 68 63 69 60 70 62 71 61 72 48 73 49 74 53 75 50 76
REMARK SMILES IDX 52 77 51 78
REMARK H PARENT 20 6 24 27 68 46 46 57
REMARK Flexibility Score: inf
ROOT
ATOM      1  C   UNL A   1      37.576  19.901  24.968  1.00  0.00     0.042 C 
ENDROOT
BRANCH   1   2
ATOM      2  C   UNL A   1      36.423  20.887  24.902  1.00  0.00     0.118 C 
BRANCH   2   3
ATOM      3  N   UNL A   1      35.777  21.121  26.172  1.00  0.00    -0.351 N 
ATOM      4  C   UNL A   1      34.730  21.941  26.504  1.00  0.00     0.263 C 
ATOM      5  O   UNL A   1      34.424  21.929  27.701  1.00  0.00    -0.268 OA
ATOM      6  H   UNL A   1      36.150  20.607  26.924  1.00  0.00     0.163 HD
BRANCH   4   7
ATOM      7  C   UNL A   1      34.070  22.788  25.531  1.00  0.00     0.117 A 
ATOM      8  C   UNL A   1      33.292  22.576  24.399  1.00  0.00     0.069 A 
ATOM      9  N   UNL A   1      32.769  23.746  23.853  1.00  0.00    -0.224 NA
ATOM     10  C   UNL A   1      33.154  24.821  24.497  1.00  0.00     0.186 A 
ATOM     11  S   UNL A   1      34.176  24.484  25.832  1.00  0.00    -0.091 S 
BRANCH   8  12
ATOM     12  C   UNL A   1      32.921  21.290  23.691  1.00  0.00     0.034 C 
ATOM     13  C   UNL A   1      32.249  20.271  24.609  1.00  0.00     0.014 C 
ATOM     14  C   UNL A   1      32.053  21.511  22.445  1.00  0.00     0.014 C 
ENDBRANCH   8  12
BRANCH  10  15
ATOM     15  N   UNL A   1      32.754  26.070  24.155  1.00  0.00    -0.343 N 
ATOM     16  C   UNL A   1      31.585  26.361  23.332  1.00  0.00     0.150 C 
ATOM     17  C   UNL A   1      33.399  27.243  24.745  1.00  0.00     0.153 C 
ATOM     18  C   UNL A   1      30.585  27.187  24.167  1.00  0.00     0.135 C 
ATOM     19  C   UNL A   1      32.370  28.133  25.491  1.00  0.00     0.081 C 
ATOM     20  O   UNL A   1      31.196  28.384  24.683  1.00  0.00    -0.369 OA
ATOM     21  C   UNL A   1      29.391  27.612  23.321  1.00  0.00     0.040 C 
ATOM     22  C   UNL A   1      31.974  27.527  26.845  1.00  0.00     0.044 C 
ATOM     23  C   UNL A   1      33.000  29.511  25.739  1.00  0.00     0.044 C 
ENDBRANCH  10  15
ENDBRANCH   4   7
ENDBRANCH   2   3
ENDBRANCH   1   2
BRANCH   1  24
ATOM     24  C   UNL A   1      38.799  20.423  25.712  1.00  0.00     0.118 C 
BRANCH  24  25
ATOM     25  N   UNL A   1      39.917  19.487  25.755  1.00  0.00    -0.352 N 
ATOM     26  C   UNL A   1      41.238  19.635  26.109  1.00  0.00     0.251 C 
ATOM     27  H   UNL A   1      39.680  18.572  25.479  1.00  0.00     0.163 HD
ATOM     28  O   UNL A   1      42.008  18.689  25.953  1.00  0.00    -0.269 OA
BRANCH  26  29
ATOM     29  C   UNL A   1      41.765  20.922  26.618  1.00  0.00     0.039 A 
ATOM     30  C   UNL A   1      42.263  21.859  25.706  1.00  0.00     0.014 A 
ATOM     31  C   UNL A   1      41.783  21.221  27.977  1.00  0.00     0.014 A 
ATOM     32  C   UNL A   1      42.661  23.125  26.149  1.00  0.00     0.010 A 
ATOM     33  C   UNL A   1      42.047  22.518  28.400  1.00  0.00     0.010 A 
ATOM     34  C   UNL A   1      42.489  23.491  27.493  1.00  0.00    -0.014 A 
BRANCH  34  35
ATOM     35  C   UNL A   1      42.759  24.868  27.985  1.00  0.00     0.031 A 
ATOM     36  C   UNL A   1      44.152  25.260  28.412  1.00  0.00     0.074 A 
ATOM     37  C   UNL A   1      41.740  25.733  28.162  1.00  0.00     0.049 A 
ATOM     38  N   UNL A   1      44.555  26.339  29.036  1.00  0.00    -0.248 NA
ATOM     39  C   UNL A   1      45.225  24.287  28.147  1.00  0.00     0.031 C 
ATOM     40  C   UNL A   1      40.333  25.474  27.845  1.00  0.00     0.029 A 
ATOM     41  N   UNL A   1      41.733  27.011  28.666  1.00  0.00    -0.354 N 
ATOM     42  C   UNL A   1      45.908  26.145  29.287  1.00  0.00     0.074 A 
ATOM     43  C   UNL A   1      46.248  24.832  28.788  1.00  0.00     0.031 C 
ATOM     44  C   UNL A   1      39.609  26.569  28.123  1.00  0.00     0.029 A 
ATOM     45  C   UNL A   1      40.486  27.588  28.686  1.00  0.00     0.049 A 
ATOM     46  H   UNL A   1      42.544  27.470  28.983  1.00  0.00     0.167 HD
ATOM     47  C   UNL A   1      46.797  26.991  29.860  1.00  0.00     0.031 A 
ATOM     48  C   UNL A   1      40.089  28.801  29.115  1.00  0.00     0.031 A 
ATOM     49  C   UNL A   1      46.479  28.323  30.297  1.00  0.00     0.049 A 
ATOM     50  C   UNL A   1      41.103  29.745  29.695  1.00  0.00     0.074 A 
ATOM     51  C   UNL A   1      47.326  29.287  30.815  1.00  0.00     0.029 A 
ATOM     52  N   UNL A   1      45.213  28.885  30.248  1.00  0.00    -0.354 N 
ATOM     53  N   UNL A   1      42.387  29.561  29.886  1.00  0.00    -0.248 NA
ATOM     54  C   UNL A   1      40.613  31.066  30.113  1.00  0.00     0.031 C 
ATOM     55  C   UNL A   1      46.566  30.426  31.103  1.00  0.00     0.029 A 
ATOM     56  C   UNL A   1      45.255  30.182  30.728  1.00  0.00     0.049 A 
ATOM     57  H   UNL A   1      44.404  28.429  29.919  1.00  0.00     0.167 HD
ATOM     58  C   UNL A   1      42.862  30.750  30.421  1.00  0.00     0.074 A 
ATOM     59  C   UNL A   1      41.733  31.652  30.513  1.00  0.00     0.031 C 
ATOM     60  C   UNL A   1      44.124  31.067  30.804  1.00  0.00     0.031 A 
BRANCH  47  61
ATOM     61  C   UNL A   1      48.206  26.497  30.036  1.00  0.00    -0.014 A 
ATOM     62  C   UNL A   1      48.602  25.828  31.206  1.00  0.00     0.009 A 
ATOM     63  C   UNL A   1      49.146  26.689  29.012  1.00  0.00     0.009 A 
ATOM     64  C   UNL A   1      49.922  25.402  31.364  1.00  0.00     0.001 A 
ATOM     65  C   UNL A   1      50.458  26.235  29.161  1.00  0.00     0.001 A 
ATOM     66  C   UNL A   1      50.847  25.603  30.341  1.00  0.00     0.000 A 
ENDBRANCH  47  61
BRANCH  48  67
ATOM     67  C   UNL A   1      38.668  29.210  28.983  1.00  0.00    -0.014 A 
ATOM     68  C   UNL A   1      37.799  29.096  30.079  1.00  0.00     0.009 A 
ATOM     69  C   UNL A   1      38.170  29.711  27.771  1.00  0.00     0.009 A 
ATOM     70  C   UNL A   1      36.454  29.452  29.957  1.00  0.00     0.001 A 
ATOM     71  C   UNL A   1      36.831  30.090  27.659  1.00  0.00     0.001 A 
ATOM     72  C   UNL A   1      35.972  29.953  28.749  1.00  0.00     0.000 A 
ENDBRANCH  48  67
BRANCH  60  73
ATOM     73  C   UNL A   1      44.353  32.457  31.318  1.00  0.00    -0.014 A 
ATOM     74  C   UNL A   1      44.262  32.750  32.687  1.00  0.00     0.009 A 
ATOM     75  C   UNL A   1      44.710  33.477  30.422  1.00  0.00     0.009 A 
ATOM     76  C   UNL A   1      44.497  34.047  33.146  1.00  0.00     0.001 A 
ATOM     77  C   UNL A   1      44.966  34.767  30.886  1.00  0.00     0.001 A 
ATOM     78  C   UNL A   1      44.853  35.052  32.247  1.00  0.00     0.000 A 
ENDBRANCH  60  73
ENDBRANCH  34  35
ENDBRANCH  26  29
ENDBRANCH  24  25
ENDBRANCH   1  24
TORSDOF 12
ENDMDL
MODEL 3
REMARK VINA RESULT:     -11.1      1.835      7.703
REMARK SMILES CC(C)c1nc(N2C[C@H](C)OC(C)(C)C2)sc1C(=O)NCCCNC(=O)c1ccc(-c2c3nc(c(-c4ccccc4)c4ccc([nH]4)c(-c4ccccc4)c4nc(c(-c5ccccc5)c5ccc2[nH]5)C=C4)C=C3)cc1
REMARK SMILES IDX 22 1 21 2 20 3 18 4 19 5 17 7 4 8 5 9 6 10 16 11 2 12 1 13
REMARK SMILES IDX 3 14 7 15 8 16 15 17 9 18 12 19 11 20 10 21 13 22 14 23
REMARK SMILES IDX 23 24 24 25 25 26 26 28 27 29 28 30 74 31 29 32 73 33 30 34
REMARK SMILES IDX 31 35 32 36 67 37 33 38 72 39 66 40 68 41 34 42 71 43 65 44
REMARK SMILES IDX 64 45 35 47 57 48 42 49 56 50 43 51 46 52 55 53 69 54 44 55
REMARK SMILES IDX 45 56 54 58 70 59 47 60 36 61 37 62 41 63 38 64 40 65 39 66
REMARK SMILES IDX 58 67 59 68 63 69 60 70 62 71 61 72 48 73 49 74 53 75 50 76
REMARK SMILES IDX 52 77 51 78
REMARK H PARENT 20 6 24 27 68 46 46 57
REMARK Flexibility Score: inf
ROOT
ATOM      1  C   UNL A   1      37.659  20.217  24.994  1.00  0.00     0.042 C 
ENDROOT
BRANCH   1   2
ATOM      2  C   UNL A   1      36.575  21.280  25.016  1.00  0.00     0.118 C 
BRANCH   2   3
ATOM      3  N   UNL A   1      35.810  21.313  26.240  1.00  0.00    -0.351 N 
ATOM      4  C   UNL A   1      34.579  21.853  26.509  1.00  0.00     0.263 C 
ATOM      5  O   UNL A   1      34.207  21.729  27.681  1.00  0.00    -0.268 OA
ATOM      6  H   UNL A   1      36.244  20.877  27.008  1.00  0.00     0.163 HD
BRANCH   4   7
ATOM      7  C   UNL A   1      33.803  22.554  25.507  1.00  0.00     0.117 A 
ATOM      8  C   UNL A   1      33.082  22.186  24.376  1.00  0.00     0.069 A 
ATOM      9  N   UNL A   1      32.384  23.240  23.791  1.00  0.00    -0.224 NA
ATOM     10  C   UNL A   1      32.585  24.382  24.403  1.00  0.00     0.186 A 
ATOM     11  S   UNL A   1      33.633  24.253  25.755  1.00  0.00    -0.091 S 
BRANCH   8  12
ATOM     12  C   UNL A   1      32.929  20.837  23.707  1.00  0.00     0.034 C 
ATOM     13  C   UNL A   1      32.438  19.746  24.658  1.00  0.00     0.014 C 
ATOM     14  C   UNL A   1      32.033  20.874  22.461  1.00  0.00     0.014 C 
ENDBRANCH   8  12
BRANCH  10  15
ATOM     15  N   UNL A   1      31.995  25.539  24.019  1.00  0.00    -0.343 N 
ATOM     16  C   UNL A   1      30.646  25.631  23.472  1.00  0.00     0.150 C 
ATOM     17  C   UNL A   1      32.636  26.825  24.294  1.00  0.00     0.153 C 
ATOM     18  C   UNL A   1      29.784  26.494  24.416  1.00  0.00     0.135 C 
ATOM     19  C   UNL A   1      31.720  27.738  25.151  1.00  0.00     0.081 C 
ATOM     20  O   UNL A   1      30.374  27.791  24.623  1.00  0.00    -0.369 OA
ATOM     21  C   UNL A   1      28.393  26.712  23.835  1.00  0.00     0.040 C 
ATOM     22  C   UNL A   1      31.705  27.302  26.624  1.00  0.00     0.044 C 
ATOM     23  C   UNL A   1      32.248  29.177  25.074  1.00  0.00     0.044 C 
ENDBRANCH  10  15
ENDBRANCH   4   7
ENDBRANCH   2   3
ENDBRANCH   1   2
BRANCH   1  24
ATOM     24  C   UNL A   1      38.910  20.587  25.781  1.00  0.00     0.118 C 
BRANCH  24  25
ATOM     25  N   UNL A   1      39.948  19.563  25.769  1.00  0.00    -0.352 N 
ATOM     26  C   UNL A   1      41.290  19.598  26.070  1.00  0.00     0.251 C 
ATOM     27  H   UNL A   1      39.627  18.674  25.492  1.00  0.00     0.163 HD
ATOM     28  O   UNL A   1      41.973  18.595  25.873  1.00  0.00    -0.269 OA
BRANCH  26  29
ATOM     29  C   UNL A   1      41.939  20.830  26.572  1.00  0.00     0.039 A 
ATOM     30  C   UNL A   1      42.404  21.775  25.650  1.00  0.00     0.014 A 
ATOM     31  C   UNL A   1      42.105  21.071  27.933  1.00  0.00     0.014 A 
ATOM     32  C   UNL A   1      42.919  22.997  26.098  1.00  0.00     0.010 A 
ATOM     33  C   UNL A   1      42.486  22.332  28.375  1.00  0.00     0.010 A 
ATOM     34  C   UNL A   1      42.898  23.315  27.464  1.00  0.00    -0.014 A 
BRANCH  34  35
ATOM     35  C   UNL A   1      43.296  24.653  27.978  1.00  0.00     0.031 A 
ATOM     36  C   UNL A   1      42.245  25.688  28.291  1.00  0.00     0.074 A 
ATOM     37  C   UNL A   1      44.602  24.984  28.055  1.00  0.00     0.049 A 
ATOM     38  N   UNL A   1      42.391  26.960  28.569  1.00  0.00    -0.248 NA
ATOM     39  C   UNL A   1      40.842  25.246  28.233  1.00  0.00     0.031 C 
ATOM     40  C   UNL A   1      45.728  24.104  27.732  1.00  0.00     0.029 A 
ATOM     41  N   UNL A   1      45.202  26.165  28.421  1.00  0.00    -0.354 N 
ATOM     42  C   UNL A   1      41.103  27.475  28.660  1.00  0.00     0.074 A 
ATOM     43  C   UNL A   1      40.192  26.393  28.366  1.00  0.00     0.031 C 
ATOM     44  C   UNL A   1      46.878  24.760  27.953  1.00  0.00     0.029 A 
ATOM     45  C   UNL A   1      46.574  26.120  28.381  1.00  0.00     0.049 A 
ATOM     46  H   UNL A   1      44.696  26.966  28.687  1.00  0.00     0.167 HD
ATOM     47  C   UNL A   1      40.710  28.731  28.981  1.00  0.00     0.031 A 
ATOM     48  C   UNL A   1      47.490  27.070  28.652  1.00  0.00     0.031 A 
ATOM     49  C   UNL A   1      41.610  29.793  29.339  1.00  0.00     0.049 A 
ATOM     50  C   UNL A   1      47.030  28.439  29.062  1.00  0.00     0.074 A 
ATOM     51  C   UNL A   1      41.307  31.077  29.760  1.00  0.00     0.029 A 
ATOM     52  N   UNL A   1      42.992  29.686  29.338  1.00  0.00    -0.354 N 
ATOM     53  N   UNL A   1      45.808  28.897  29.184  1.00  0.00    -0.248 NA
ATOM     54  C   UNL A   1      48.077  29.421  29.378  1.00  0.00     0.031 C 
ATOM     55  C   UNL A   1      42.509  31.755  29.989  1.00  0.00     0.029 A 
ATOM     56  C   UNL A   1      43.557  30.881  29.747  1.00  0.00     0.049 A 
ATOM     57  H   UNL A   1      43.497  28.879  29.084  1.00  0.00     0.167 HD
ATOM     58  C   UNL A   1      45.939  30.210  29.615  1.00  0.00     0.074 A 
ATOM     59  C   UNL A   1      47.357  30.471  29.746  1.00  0.00     0.031 C 
ATOM     60  C   UNL A   1      44.969  31.119  29.879  1.00  0.00     0.031 A 
BRANCH  47  61
ATOM     61  C   UNL A   1      39.234  29.016  28.969  1.00  0.00    -0.014 A 
ATOM     62  C   UNL A   1      38.448  28.837  30.119  1.00  0.00     0.009 A 
ATOM     63  C   UNL A   1      38.624  29.487  27.796  1.00  0.00     0.009 A 
ATOM     64  C   UNL A   1      37.074  29.079  30.081  1.00  0.00     0.001 A 
ATOM     65  C   UNL A   1      37.254  29.757  27.770  1.00  0.00     0.001 A 
ATOM     66  C   UNL A   1      36.480  29.542  28.909  1.00  0.00     0.000 A 
ENDBRANCH  47  61
BRANCH  48  67
ATOM     67  C   UNL A   1      48.938  26.751  28.578  1.00  0.00    -0.014 A 
ATOM     68  C   UNL A   1      49.627  26.891  27.363  1.00  0.00     0.009 A 
ATOM     69  C   UNL A   1      49.639  26.307  29.708  1.00  0.00     0.009 A 
ATOM     70  C   UNL A   1      50.982  26.568  27.276  1.00  0.00     0.001 A 
ATOM     71  C   UNL A   1      51.001  26.009  29.624  1.00  0.00     0.001 A 
ATOM     72  C   UNL A   1      51.669  26.131  28.407  1.00  0.00     0.000 A 
ENDBRANCH  48  67
BRANCH  60  73
ATOM     73  C   UNL A   1      45.410  32.465  30.372  1.00  0.00    -0.014 A 
ATOM     74  C   UNL A   1      45.620  33.532  29.485  1.00  0.00     0.009 A 
ATOM     75  C   UNL A   1      45.573  32.679  31.750  1.00  0.00     0.009 A 
ATOM     76  C   UNL A   1      46.014  34.781  29.968  1.00  0.00     0.001 A 
ATOM     77  C   UNL A   1      45.945  33.935  32.231  1.00  0.00     0.001 A 
ATOM     78  C   UNL A   1      46.171  34.982  31.339  1.00  0.00     0.000 A 
ENDBRANCH  60  73
ENDBRANCH  34  35
ENDBRANCH  26  29
ENDBRANCH  24  25
ENDBRANCH   1  24
TORSDOF 12
ENDMDL
