MODEL 1
REMARK VINA RESULT:     -12.0      0.000      0.000
REMARK SMILES Cc1cccc(NC(=O)C[C@@H]2CCCCO2)c1C(=O)NCCCNC(=O)c1ccc(-c2c3nc(c(-c4ccccc4)c4ccc([nH]4)c(-c4ccccc4)c4nc(c(-c5ccccc5)c5ccc2[nH]5)C=C4)C=C3)cc1
REMARK SMILES IDX 21 1 20 2 18 3 19 4 17 6 1 7 2 8 3 9 4 10 6 11 5 12 7 13
REMARK SMILES IDX 8 14 9 16 10 17 11 18 12 19 16 20 13 21 15 22 14 23 22 24
REMARK SMILES IDX 23 25 24 26 25 27 26 29 27 30 28 31 74 32 29 33 73 34 30 35
REMARK SMILES IDX 31 36 32 37 67 38 33 39 72 40 66 41 68 42 34 43 71 44 65 45
REMARK SMILES IDX 64 46 35 48 57 49 42 50 56 51 43 52 46 53 55 54 69 55 44 56
REMARK SMILES IDX 45 57 54 59 70 60 47 61 36 62 37 63 41 64 38 65 40 66 39 67
REMARK SMILES IDX 58 68 59 69 63 70 60 71 62 72 61 73 48 74 49 75 53 76 50 77
REMARK SMILES IDX 52 78 51 79
REMARK H PARENT 20 5 7 15 24 28 68 47 46 58
REMARK Flexibility Score: inf
ROOT
ATOM      1  C   UNL A   1      37.881  23.473  25.798  1.00  0.00     0.118 C 
ENDROOT
BRANCH   1   2
ATOM      2  N   UNL A   1      37.533  23.386  24.386  1.00  0.00    -0.352 N 
ATOM      3  C   UNL A   1      36.407  22.944  23.727  1.00  0.00     0.253 C 
ATOM      4  O   UNL A   1      36.413  23.039  22.499  1.00  0.00    -0.269 OA
ATOM      5  H   UNL A   1      38.243  23.706  23.785  1.00  0.00     0.163 HD
BRANCH   3   6
ATOM      6  C   UNL A   1      35.161  22.498  24.433  1.00  0.00     0.066 A 
ATOM      7  C   UNL A   1      35.904  20.101  24.923  1.00  0.00     0.045 C 
ATOM      8  C   UNL A   1      35.054  21.310  25.182  1.00  0.00    -0.036 A 
ATOM      9  C   UNL A   1      33.957  21.120  26.042  1.00  0.00     0.004 A 
ATOM     10  C   UNL A   1      32.910  22.030  26.061  1.00  0.00     0.002 A 
ATOM     11  C   UNL A   1      33.964  23.229  24.237  1.00  0.00     0.054 A 
ATOM     12  C   UNL A   1      32.896  23.060  25.127  1.00  0.00     0.027 A 
BRANCH  11  13
ATOM     13  N   UNL A   1      33.798  23.997  23.058  1.00  0.00    -0.325 N 
ATOM     14  C   UNL A   1      33.811  25.364  22.890  1.00  0.00     0.227 C 
ATOM     15  H   UNL A   1      33.652  23.476  22.235  1.00  0.00     0.169 HD
ATOM     16  O   UNL A   1      33.593  25.826  21.766  1.00  0.00    -0.275 OA
BRANCH  14  17
ATOM     17  C   UNL A   1      34.044  26.313  24.056  1.00  0.00     0.132 C 
BRANCH  17  18
ATOM     18  C   UNL A   1      33.025  27.464  24.169  1.00  0.00     0.127 C 
ATOM     19  C   UNL A   1      33.513  28.548  25.147  1.00  0.00     0.033 C 
ATOM     20  O   UNL A   1      31.700  27.077  24.546  1.00  0.00    -0.378 OA
ATOM     21  C   UNL A   1      33.452  28.076  26.601  1.00  0.00     0.005 C 
ATOM     22  C   UNL A   1      31.554  26.595  25.873  1.00  0.00     0.160 C 
ATOM     23  C   UNL A   1      32.062  27.554  26.935  1.00  0.00     0.029 C 
ENDBRANCH  17  18
ENDBRANCH  14  17
ENDBRANCH  11  13
ENDBRANCH   3   6
ENDBRANCH   1   2
BRANCH   1  24
ATOM     24  C   UNL A   1      38.684  22.247  26.242  1.00  0.00     0.042 C 
BRANCH  24  25
ATOM     25  C   UNL A   1      40.186  22.453  26.316  1.00  0.00     0.118 C 
BRANCH  25  26
ATOM     26  N   UNL A   1      40.952  21.375  25.682  1.00  0.00    -0.352 N 
ATOM     27  C   UNL A   1      42.295  21.072  25.849  1.00  0.00     0.251 C 
ATOM     28  H   UNL A   1      40.452  20.797  25.062  1.00  0.00     0.163 HD
ATOM     29  O   UNL A   1      42.798  20.086  25.341  1.00  0.00    -0.269 OA
BRANCH  27  30
ATOM     30  C   UNL A   1      43.059  21.922  26.789  1.00  0.00     0.039 A 
ATOM     31  C   UNL A   1      42.780  21.751  28.145  1.00  0.00     0.014 A 
ATOM     32  C   UNL A   1      43.646  23.089  26.308  1.00  0.00     0.014 A 
ATOM     33  C   UNL A   1      42.805  22.866  28.972  1.00  0.00     0.010 A 
ATOM     34  C   UNL A   1      43.582  24.216  27.106  1.00  0.00     0.010 A 
ATOM     35  C   UNL A   1      43.078  24.115  28.408  1.00  0.00    -0.014 A 
BRANCH  35  36
ATOM     36  C   UNL A   1      42.789  25.356  29.112  1.00  0.00     0.031 A 
ATOM     37  C   UNL A   1      41.627  26.153  28.689  1.00  0.00     0.074 A 
ATOM     38  C   UNL A   1      43.607  25.857  30.065  1.00  0.00     0.049 A 
ATOM     39  N   UNL A   1      41.625  27.443  28.615  1.00  0.00    -0.248 NA
ATOM     40  C   UNL A   1      40.384  25.534  28.253  1.00  0.00     0.031 C 
ATOM     41  C   UNL A   1      43.374  27.052  30.874  1.00  0.00     0.029 A 
ATOM     42  N   UNL A   1      44.939  25.535  30.321  1.00  0.00    -0.354 N 
ATOM     43  C   UNL A   1      40.317  27.823  28.441  1.00  0.00     0.074 A 
ATOM     44  C   UNL A   1      39.607  26.608  28.108  1.00  0.00     0.031 C 
ATOM     45  C   UNL A   1      44.562  27.552  31.248  1.00  0.00     0.029 A 
ATOM     46  C   UNL A   1      45.593  26.744  30.622  1.00  0.00     0.049 A 
ATOM     47  H   UNL A   1      45.343  24.637  30.296  1.00  0.00     0.167 HD
ATOM     48  C   UNL A   1      39.927  29.089  28.759  1.00  0.00     0.031 A 
ATOM     49  C   UNL A   1      46.676  27.211  29.938  1.00  0.00     0.031 A 
ATOM     50  C   UNL A   1      41.037  29.915  29.238  1.00  0.00     0.049 A 
ATOM     51  C   UNL A   1      46.460  28.572  29.307  1.00  0.00     0.074 A 
ATOM     52  C   UNL A   1      41.433  30.340  30.496  1.00  0.00     0.029 A 
ATOM     53  N   UNL A   1      42.102  30.187  28.390  1.00  0.00    -0.354 N 
ATOM     54  N   UNL A   1      45.345  29.244  29.358  1.00  0.00    -0.248 NA
ATOM     55  C   UNL A   1      47.454  29.222  28.457  1.00  0.00     0.031 C 
ATOM     56  C   UNL A   1      42.745  30.879  30.395  1.00  0.00     0.029 A 
ATOM     57  C   UNL A   1      43.143  30.790  29.076  1.00  0.00     0.049 A 
ATOM     58  H   UNL A   1      42.115  29.979  27.428  1.00  0.00     0.167 HD
ATOM     59  C   UNL A   1      45.423  30.345  28.537  1.00  0.00     0.074 A 
ATOM     60  C   UNL A   1      46.769  30.283  27.997  1.00  0.00     0.031 C 
ATOM     61  C   UNL A   1      44.350  31.175  28.349  1.00  0.00     0.031 A 
BRANCH  48  62
ATOM     62  C   UNL A   1      38.471  29.455  28.928  1.00  0.00    -0.014 A 
ATOM     63  C   UNL A   1      37.705  29.820  27.808  1.00  0.00     0.009 A 
ATOM     64  C   UNL A   1      37.814  29.513  30.169  1.00  0.00     0.009 A 
ATOM     65  C   UNL A   1      36.408  30.334  27.932  1.00  0.00     0.001 A 
ATOM     66  C   UNL A   1      36.538  30.075  30.309  1.00  0.00     0.001 A 
ATOM     67  C   UNL A   1      35.839  30.500  29.188  1.00  0.00     0.000 A 
ENDBRANCH  48  62
BRANCH  49  68
ATOM     68  C   UNL A   1      47.518  26.131  29.358  1.00  0.00    -0.014 A 
ATOM     69  C   UNL A   1      47.168  25.643  28.082  1.00  0.00     0.009 A 
ATOM     70  C   UNL A   1      48.820  25.912  29.829  1.00  0.00     0.009 A 
ATOM     71  C   UNL A   1      48.137  25.089  27.242  1.00  0.00     0.001 A 
ATOM     72  C   UNL A   1      49.781  25.344  28.987  1.00  0.00     0.001 A 
ATOM     73  C   UNL A   1      49.453  24.979  27.681  1.00  0.00     0.000 A 
ENDBRANCH  49  68
BRANCH  61  74
ATOM     74  C   UNL A   1      44.278  32.411  27.465  1.00  0.00    -0.014 A 
ATOM     75  C   UNL A   1      44.456  32.433  26.077  1.00  0.00     0.009 A 
ATOM     76  C   UNL A   1      44.066  33.675  28.072  1.00  0.00     0.009 A 
ATOM     77  C   UNL A   1      44.345  33.621  25.335  1.00  0.00     0.001 A 
ATOM     78  C   UNL A   1      43.966  34.863  27.343  1.00  0.00     0.001 A 
ATOM     79  C   UNL A   1      44.091  34.834  25.965  1.00  0.00     0.000 A 
ENDBRANCH  61  74
ENDBRANCH  35  36
ENDBRANCH  27  30
ENDBRANCH  25  26
ENDBRANCH  24  25
ENDBRANCH   1  24
TORSDOF 13
ENDMDL
MODEL 2
REMARK VINA RESULT:     -11.8      3.735      8.998
REMARK SMILES Cc1cccc(NC(=O)C[C@@H]2CCCCO2)c1C(=O)NCCCNC(=O)c1ccc(-c2c3nc(c(-c4ccccc4)c4ccc([nH]4)c(-c4ccccc4)c4nc(c(-c5ccccc5)c5ccc2[nH]5)C=C4)C=C3)cc1
REMARK SMILES IDX 21 1 20 2 18 3 19 4 17 6 1 7 2 8 3 9 4 10 6 11 5 12 7 13
REMARK SMILES IDX 8 14 9 16 10 17 11 18 12 19 16 20 13 21 15 22 14 23 22 24
REMARK SMILES IDX 23 25 24 26 25 27 26 29 27 30 28 31 74 32 29 33 73 34 30 35
REMARK SMILES IDX 31 36 32 37 67 38 33 39 72 40 66 41 68 42 34 43 71 44 65 45
REMARK SMILES IDX 64 46 35 48 57 49 42 50 56 51 43 52 46 53 55 54 69 55 44 56
REMARK SMILES IDX 45 57 54 59 70 60 47 61 36 62 37 63 41 64 38 65 40 66 39 67
REMARK SMILES IDX 58 68 59 69 63 70 60 71 62 72 61 73 48 74 49 75 53 76 50 77
REMARK SMILES IDX 52 78 51 79
REMARK H PARENT 20 5 7 15 24 28 68 47 46 58
REMARK Flexibility Score: inf
ROOT
ATOM      1  C   UNL A   1      34.446  29.559  27.158  1.00  0.00     0.118 C 
ENDROOT
BRANCH   1   2
ATOM      2  N   UNL A   1      33.294  28.933  27.794  1.00  0.00    -0.352 N 
ATOM      3  C   UNL A   1      32.119  28.415  27.298  1.00  0.00     0.253 C 
ATOM      4  O   UNL A   1      31.347  27.910  28.115  1.00  0.00    -0.269 OA
ATOM      5  H   UNL A   1      33.372  28.867  28.773  1.00  0.00     0.163 HD
BRANCH   3   6
ATOM      6  C   UNL A   1      31.816  28.318  25.831  1.00  0.00     0.066 A 
ATOM      7  C   UNL A   1      31.046  30.733  25.498  1.00  0.00     0.045 C 
ATOM      8  C   UNL A   1      31.582  29.426  24.993  1.00  0.00    -0.036 A 
ATOM      9  C   UNL A   1      31.600  29.264  23.596  1.00  0.00     0.004 A 
ATOM     10  C   UNL A   1      31.711  28.001  23.034  1.00  0.00     0.002 A 
ATOM     11  C   UNL A   1      31.610  27.040  25.257  1.00  0.00     0.054 A 
ATOM     12  C   UNL A   1      31.673  26.887  23.867  1.00  0.00     0.027 A 
BRANCH  11  13
ATOM     13  N   UNL A   1      31.185  25.966  26.076  1.00  0.00    -0.325 N 
ATOM     14  C   UNL A   1      31.897  24.885  26.549  1.00  0.00     0.227 C 
ATOM     15  H   UNL A   1      30.239  25.995  26.349  1.00  0.00     0.169 HD
ATOM     16  O   UNL A   1      31.305  24.030  27.215  1.00  0.00    -0.275 OA
BRANCH  14  17
ATOM     17  C   UNL A   1      33.374  24.699  26.237  1.00  0.00     0.132 C 
BRANCH  17  18
ATOM     18  C   UNL A   1      33.770  23.274  25.800  1.00  0.00     0.127 C 
ATOM     19  C   UNL A   1      35.068  22.818  26.493  1.00  0.00     0.033 C 
ATOM     20  O   UNL A   1      33.917  23.082  24.390  1.00  0.00    -0.378 OA
ATOM     21  C   UNL A   1      36.295  23.549  25.945  1.00  0.00     0.005 C 
ATOM     22  C   UNL A   1      35.015  23.751  23.790  1.00  0.00     0.160 C 
ATOM     23  C   UNL A   1      36.355  23.431  24.430  1.00  0.00     0.029 C 
ENDBRANCH  17  18
ENDBRANCH  14  17
ENDBRANCH  11  13
ENDBRANCH   3   6
ENDBRANCH   1   2
BRANCH   1  24
ATOM     24  C   UNL A   1      34.429  31.076  27.366  1.00  0.00     0.042 C 
BRANCH  24  25
ATOM     25  C   UNL A   1      34.676  31.533  28.792  1.00  0.00     0.118 C 
BRANCH  25  26
ATOM     26  N   UNL A   1      33.795  32.628  29.211  1.00  0.00    -0.352 N 
ATOM     27  C   UNL A   1      34.138  33.780  29.904  1.00  0.00     0.251 C 
ATOM     28  H   UNL A   1      32.846  32.534  28.972  1.00  0.00     0.163 HD
ATOM     29  O   UNL A   1      33.331  34.668  30.110  1.00  0.00    -0.269 OA
BRANCH  27  30
ATOM     30  C   UNL A   1      35.565  33.946  30.259  1.00  0.00     0.039 A 
ATOM     31  C   UNL A   1      36.412  34.367  29.234  1.00  0.00     0.014 A 
ATOM     32  C   UNL A   1      36.055  33.287  31.383  1.00  0.00     0.014 A 
ATOM     33  C   UNL A   1      37.704  33.861  29.192  1.00  0.00     0.010 A 
ATOM     34  C   UNL A   1      37.306  32.708  31.294  1.00  0.00     0.010 A 
ATOM     35  C   UNL A   1      38.091  32.927  30.156  1.00  0.00    -0.014 A 
BRANCH  35  36
ATOM     36  C   UNL A   1      39.277  32.097  29.991  1.00  0.00     0.031 A 
ATOM     37  C   UNL A   1      39.107  30.699  29.567  1.00  0.00     0.074 A 
ATOM     38  C   UNL A   1      40.516  32.530  30.317  1.00  0.00     0.049 A 
ATOM     39  N   UNL A   1      39.789  29.712  30.043  1.00  0.00    -0.248 NA
ATOM     40  C   UNL A   1      38.091  30.305  28.601  1.00  0.00     0.031 C 
ATOM     41  C   UNL A   1      41.771  31.805  30.126  1.00  0.00     0.029 A 
ATOM     42  N   UNL A   1      40.873  33.610  31.123  1.00  0.00    -0.354 N 
ATOM     43  C   UNL A   1      39.535  28.632  29.234  1.00  0.00     0.074 A 
ATOM     44  C   UNL A   1      38.396  29.017  28.431  1.00  0.00     0.031 C 
ATOM     45  C   UNL A   1      42.655  32.236  31.039  1.00  0.00     0.029 A 
ATOM     46  C   UNL A   1      41.969  33.187  31.896  1.00  0.00     0.049 A 
ATOM     47  H   UNL A   1      40.442  34.495  31.147  1.00  0.00     0.167 HD
ATOM     48  C   UNL A   1      40.409  27.588  29.196  1.00  0.00     0.031 A 
ATOM     49  C   UNL A   1      41.986  33.198  33.260  1.00  0.00     0.031 A 
ATOM     50  C   UNL A   1      41.542  27.771  30.106  1.00  0.00     0.049 A 
ATOM     51  C   UNL A   1      42.223  31.834  33.879  1.00  0.00     0.074 A 
ATOM     52  C   UNL A   1      42.866  28.134  29.916  1.00  0.00     0.029 A 
ATOM     53  N   UNL A   1      41.314  27.857  31.472  1.00  0.00    -0.354 N 
ATOM     54  N   UNL A   1      42.360  30.728  33.205  1.00  0.00    -0.248 NA
ATOM     55  C   UNL A   1      42.191  31.599  35.320  1.00  0.00     0.031 C 
ATOM     56  C   UNL A   1      43.435  28.432  31.184  1.00  0.00     0.029 A 
ATOM     57  C   UNL A   1      42.461  28.241  32.145  1.00  0.00     0.049 A 
ATOM     58  H   UNL A   1      40.451  27.669  31.906  1.00  0.00     0.167 HD
ATOM     59  C   UNL A   1      42.376  29.654  34.064  1.00  0.00     0.074 A 
ATOM     60  C   UNL A   1      42.267  30.259  35.380  1.00  0.00     0.031 C 
ATOM     61  C   UNL A   1      42.429  28.367  33.600  1.00  0.00     0.031 A 
BRANCH  48  62
ATOM     62  C   UNL A   1      40.375  26.561  28.089  1.00  0.00    -0.014 A 
ATOM     63  C   UNL A   1      39.634  25.379  28.251  1.00  0.00     0.009 A 
ATOM     64  C   UNL A   1      41.098  26.676  26.888  1.00  0.00     0.009 A 
ATOM     65  C   UNL A   1      39.711  24.323  27.333  1.00  0.00     0.001 A 
ATOM     66  C   UNL A   1      41.223  25.606  25.991  1.00  0.00     0.001 A 
ATOM     67  C   UNL A   1      40.538  24.421  26.223  1.00  0.00     0.000 A 
ENDBRANCH  48  62
BRANCH  49  68
ATOM     68  C   UNL A   1      41.132  34.262  33.851  1.00  0.00    -0.014 A 
ATOM     69  C   UNL A   1      39.813  33.917  34.210  1.00  0.00     0.009 A 
ATOM     70  C   UNL A   1      41.711  35.402  34.425  1.00  0.00     0.009 A 
ATOM     71  C   UNL A   1      39.150  34.605  35.228  1.00  0.00     0.001 A 
ATOM     72  C   UNL A   1      41.035  36.094  35.436  1.00  0.00     0.001 A 
ATOM     73  C   UNL A   1      39.780  35.668  35.870  1.00  0.00     0.000 A 
ENDBRANCH  49  68
BRANCH  61  74
ATOM     74  C   UNL A   1      42.434  27.085  34.420  1.00  0.00    -0.014 A 
ATOM     75  C   UNL A   1      41.479  26.726  35.377  1.00  0.00     0.009 A 
ATOM     76  C   UNL A   1      43.513  26.178  34.265  1.00  0.00     0.009 A 
ATOM     77  C   UNL A   1      41.548  25.505  36.071  1.00  0.00     0.001 A 
ATOM     78  C   UNL A   1      43.596  24.968  34.959  1.00  0.00     0.001 A 
ATOM     79  C   UNL A   1      42.600  24.622  35.855  1.00  0.00     0.000 A 
ENDBRANCH  61  74
ENDBRANCH  35  36
ENDBRANCH  27  30
ENDBRANCH  25  26
ENDBRANCH  24  25
ENDBRANCH   1  24
TORSDOF 13
ENDMDL
MODEL 3
REMARK VINA RESULT:     -11.4      3.204      8.471
REMARK SMILES Cc1cccc(NC(=O)C[C@@H]2CCCCO2)c1C(=O)NCCCNC(=O)c1ccc(-c2c3nc(c(-c4ccccc4)c4ccc([nH]4)c(-c4ccccc4)c4nc(c(-c5ccccc5)c5ccc2[nH]5)C=C4)C=C3)cc1
REMARK SMILES IDX 21 1 20 2 18 3 19 4 17 6 1 7 2 8 3 9 4 10 6 11 5 12 7 13
REMARK SMILES IDX 8 14 9 16 10 17 11 18 12 19 16 20 13 21 15 22 14 23 22 24
REMARK SMILES IDX 23 25 24 26 25 27 26 29 27 30 28 31 74 32 29 33 73 34 30 35
REMARK SMILES IDX 31 36 32 37 67 38 33 39 72 40 66 41 68 42 34 43 71 44 65 45
REMARK SMILES IDX 64 46 35 48 57 49 42 50 56 51 43 52 46 53 55 54 69 55 44 56
REMARK SMILES IDX 45 57 54 59 70 60 47 61 36 62 37 63 41 64 38 65 40 66 39 67
REMARK SMILES IDX 58 68 59 69 63 70 60 71 62 72 61 73 48 74 49 75 53 76 50 77
REMARK SMILES IDX 52 78 51 79
REMARK H PARENT 20 5 7 15 24 28 68 47 46 58
REMARK Flexibility Score: inf
ROOT
ATOM      1  C   UNL A   1      32.263  28.606  27.414  1.00  0.00     0.118 C 
ENDROOT
BRANCH   1   2
ATOM      2  N   UNL A   1      32.952  27.933  26.321  1.00  0.00    -0.352 N 
ATOM      3  C   UNL A   1      32.507  27.323  25.169  1.00  0.00     0.253 C 
ATOM      4  O   UNL A   1      33.369  26.870  24.414  1.00  0.00    -0.269 OA
ATOM      5  H   UNL A   1      33.930  27.909  26.428  1.00  0.00     0.163 HD
BRANCH   3   6
ATOM      6  C   UNL A   1      31.068  27.316  24.744  1.00  0.00     0.066 A 
ATOM      7  C   UNL A   1      30.870  29.811  24.225  1.00  0.00     0.045 C 
ATOM      8  C   UNL A   1      30.429  28.384  24.085  1.00  0.00    -0.036 A 
ATOM      9  C   UNL A   1      29.181  28.181  23.468  1.00  0.00     0.004 A 
ATOM     10  C   UNL A   1      28.509  26.976  23.616  1.00  0.00     0.002 A 
ATOM     11  C   UNL A   1      30.243  26.235  25.140  1.00  0.00     0.054 A 
ATOM     12  C   UNL A   1      29.022  26.022  24.488  1.00  0.00     0.027 A 
BRANCH  11  13
ATOM     13  N   UNL A   1      30.579  25.485  26.293  1.00  0.00    -0.325 N 
ATOM     14  C   UNL A   1      31.001  24.178  26.398  1.00  0.00     0.227 C 
ATOM     15  H   UNL A   1      30.498  25.968  27.147  1.00  0.00     0.169 HD
ATOM     16  O   UNL A   1      31.192  23.704  27.522  1.00  0.00    -0.275 OA
BRANCH  14  17
ATOM     17  C   UNL A   1      31.196  23.296  25.173  1.00  0.00     0.132 C 
BRANCH  17  18
ATOM     18  C   UNL A   1      32.624  22.744  24.992  1.00  0.00     0.127 C 
ATOM     19  C   UNL A   1      33.005  22.658  23.503  1.00  0.00     0.033 C 
ATOM     20  O   UNL A   1      32.872  21.471  25.598  1.00  0.00    -0.378 OA
ATOM     21  C   UNL A   1      32.257  21.533  22.785  1.00  0.00     0.005 C 
ATOM     22  C   UNL A   1      32.193  20.370  25.015  1.00  0.00     0.160 C 
ATOM     23  C   UNL A   1      32.439  20.215  23.524  1.00  0.00     0.029 C 
ENDBRANCH  17  18
ENDBRANCH  14  17
ENDBRANCH  11  13
ENDBRANCH   3   6
ENDBRANCH   1   2
BRANCH   1  24
ATOM     24  C   UNL A   1      32.494  30.119  27.359  1.00  0.00     0.042 C 
BRANCH  24  25
ATOM     25  C   UNL A   1      33.947  30.544  27.251  1.00  0.00     0.118 C 
BRANCH  25  26
ATOM     26  N   UNL A   1      34.397  31.361  28.382  1.00  0.00    -0.352 N 
ATOM     27  C   UNL A   1      35.520  31.175  29.175  1.00  0.00     0.251 C 
ATOM     28  H   UNL A   1      33.833  32.135  28.607  1.00  0.00     0.163 HD
ATOM     29  O   UNL A   1      35.844  31.981  30.028  1.00  0.00    -0.269 OA
BRANCH  27  30
ATOM     30  C   UNL A   1      36.389  30.024  28.843  1.00  0.00     0.039 A 
ATOM     31  C   UNL A   1      36.764  29.204  29.907  1.00  0.00     0.014 A 
ATOM     32  C   UNL A   1      37.120  30.059  27.659  1.00  0.00     0.014 A 
ATOM     33  C   UNL A   1      38.037  28.651  29.901  1.00  0.00     0.010 A 
ATOM     34  C   UNL A   1      38.418  29.589  27.691  1.00  0.00     0.010 A 
ATOM     35  C   UNL A   1      38.900  28.964  28.847  1.00  0.00    -0.014 A 
BRANCH  35  36
ATOM     36  C   UNL A   1      40.334  28.722  28.930  1.00  0.00     0.031 A 
ATOM     37  C   UNL A   1      40.870  27.466  28.386  1.00  0.00     0.074 A 
ATOM     38  C   UNL A   1      41.174  29.558  29.583  1.00  0.00     0.049 A 
ATOM     39  N   UNL A   1      41.802  26.773  28.953  1.00  0.00    -0.248 NA
ATOM     40  C   UNL A   1      40.339  26.861  27.173  1.00  0.00     0.031 C 
ATOM     41  C   UNL A   1      42.628  29.442  29.665  1.00  0.00     0.029 A 
ATOM     42  N   UNL A   1      40.863  30.540  30.522  1.00  0.00    -0.354 N 
ATOM     43  C   UNL A   1      42.204  25.833  28.037  1.00  0.00     0.074 A 
ATOM     44  C   UNL A   1      41.195  25.852  27.001  1.00  0.00     0.031 C 
ATOM     45  C   UNL A   1      43.040  30.035  30.796  1.00  0.00     0.029 A 
ATOM     46  C   UNL A   1      41.856  30.473  31.515  1.00  0.00     0.049 A 
ATOM     47  H   UNL A   1      40.097  31.159  30.495  1.00  0.00     0.167 HD
ATOM     48  C   UNL A   1      43.431  25.251  28.151  1.00  0.00     0.031 A 
ATOM     49  C   UNL A   1      41.595  30.265  32.837  1.00  0.00     0.031 A 
ATOM     50  C   UNL A   1      44.168  25.721  29.324  1.00  0.00     0.049 A 
ATOM     51  C   UNL A   1      42.267  29.030  33.405  1.00  0.00     0.074 A 
ATOM     52  C   UNL A   1      45.215  26.613  29.497  1.00  0.00     0.029 A 
ATOM     53  N   UNL A   1      43.659  25.481  30.593  1.00  0.00    -0.354 N 
ATOM     54  N   UNL A   1      42.999  28.201  32.716  1.00  0.00    -0.248 NA
ATOM     55  C   UNL A   1      42.054  28.568  34.774  1.00  0.00     0.031 C 
ATOM     56  C   UNL A   1      45.335  26.901  30.883  1.00  0.00     0.029 A 
ATOM     57  C   UNL A   1      44.369  26.179  31.556  1.00  0.00     0.049 A 
ATOM     58  H   UNL A   1      42.894  24.893  30.784  1.00  0.00     0.167 HD
ATOM     59  C   UNL A   1      43.304  27.099  33.480  1.00  0.00     0.074 A 
ATOM     60  C   UNL A   1      42.686  27.382  34.763  1.00  0.00     0.031 C 
ATOM     61  C   UNL A   1      43.998  26.038  32.961  1.00  0.00     0.031 A 
BRANCH  48  62
ATOM     62  C   UNL A   1      44.063  24.496  27.005  1.00  0.00    -0.014 A 
ATOM     63  C   UNL A   1      44.760  25.195  26.005  1.00  0.00     0.009 A 
ATOM     64  C   UNL A   1      43.958  23.106  26.826  1.00  0.00     0.009 A 
ATOM     65  C   UNL A   1      45.210  24.566  24.837  1.00  0.00     0.001 A 
ATOM     66  C   UNL A   1      44.358  22.477  25.639  1.00  0.00     0.001 A 
ATOM     67  C   UNL A   1      44.973  23.213  24.636  1.00  0.00     0.000 A 
ENDBRANCH  48  62
BRANCH  49  68
ATOM     68  C   UNL A   1      40.267  30.781  33.265  1.00  0.00    -0.014 A 
ATOM     69  C   UNL A   1      40.068  32.176  33.236  1.00  0.00     0.009 A 
ATOM     70  C   UNL A   1      39.146  29.940  33.274  1.00  0.00     0.009 A 
ATOM     71  C   UNL A   1      38.788  32.708  33.066  1.00  0.00     0.001 A 
ATOM     72  C   UNL A   1      37.866  30.481  33.116  1.00  0.00     0.001 A 
ATOM     73  C   UNL A   1      37.692  31.857  32.964  1.00  0.00     0.000 A 
ENDBRANCH  49  68
BRANCH  61  74
ATOM     74  C   UNL A   1      44.391  24.751  33.670  1.00  0.00    -0.014 A 
ATOM     75  C   UNL A   1      43.510  23.869  34.307  1.00  0.00     0.009 A 
ATOM     76  C   UNL A   1      45.765  24.411  33.760  1.00  0.00     0.009 A 
ATOM     77  C   UNL A   1      43.960  22.685  34.916  1.00  0.00     0.001 A 
ATOM     78  C   UNL A   1      46.222  23.242  34.374  1.00  0.00     0.001 A 
ATOM     79  C   UNL A   1      45.313  22.366  34.942  1.00  0.00     0.000 A 
ENDBRANCH  61  74
ENDBRANCH  35  36
ENDBRANCH  27  30
ENDBRANCH  25  26
ENDBRANCH  24  25
ENDBRANCH   1  24
TORSDOF 13
ENDMDL
