MODEL 1
REMARK VINA RESULT:     -13.0      0.000      0.000
REMARK SMILES Cc1ccc(S(=O)(=O)n2cc(C(=O)C(=O)NCC(=O)N[C@@H](Cc3c[nH]c4ccccc34)C(=O)NCCCNC(=O)c3ccc(-c4c5nc(c(-c6ccccc6)c6ccc([nH]6)c(-c6ccccc6)c6nc(c(-c7ccccc7)c7ccc4[nH]7)C=C6)C=C5)cc3)c3ccccc32)cc1
REMARK SMILES IDX 32 1 33 2 34 3 21 5 20 6 18 7 19 8 17 10 16 11 14 12 15 13
REMARK SMILES IDX 12 15 13 16 11 17 9 18 10 19 94 20 89 21 93 22 90 23 92 24
REMARK SMILES IDX 91 25 6 26 7 27 8 28 5 29 1 30 2 31 3 32 96 33 4 34 95 35
REMARK SMILES IDX 22 36 23 37 24 38 31 39 25 40 26 41 30 42 27 44 29 45 28 46
REMARK SMILES IDX 35 47 36 48 37 49 38 50 39 51 40 53 41 54 42 55 88 56 43 57
REMARK SMILES IDX 87 58 44 59 45 60 46 61 81 62 47 63 86 64 80 65 82 66 48 67
REMARK SMILES IDX 85 68 79 69 78 70 49 72 71 73 56 74 70 75 57 76 60 77 69 78
REMARK SMILES IDX 83 79 58 80 59 81 68 83 84 84 61 85 50 86 51 87 55 88 52 89
REMARK SMILES IDX 54 90 53 91 72 92 73 93 77 94 74 95 76 96 75 97 62 98 63 99
REMARK SMILES IDX 67 100 64 101 66 102 65 103
REMARK H PARENT 34 4 20 9 16 14 25 43 38 52 82 71 60 82
REMARK Flexibility Score: inf
ROOT
ATOM      1  C   UNL A   1      31.140  24.982  26.265  1.00  0.00     0.242 C 
ATOM      2  O   UNL A   1      30.311  24.216  26.769  1.00  0.00    -0.273 OA
ATOM      3  N   UNL A   1      31.125  26.284  26.681  1.00  0.00    -0.354 N 
ATOM      4  H   UNL A   1      30.257  26.627  26.994  1.00  0.00     0.163 HD
ENDROOT
BRANCH   1   5
ATOM      5  C   UNL A   1      32.174  24.436  25.255  1.00  0.00     0.175 C 
BRANCH   5   6
ATOM      6  N   UNL A   1      32.740  23.151  25.686  1.00  0.00    -0.342 N 
ATOM      7  C   UNL A   1      34.008  22.931  26.160  1.00  0.00     0.240 C 
ATOM      8  O   UNL A   1      34.195  21.955  26.887  1.00  0.00    -0.273 OA
ATOM      9  H   UNL A   1      32.148  22.367  25.629  1.00  0.00     0.164 HD
BRANCH   7  10
ATOM     10  C   UNL A   1      35.130  23.940  25.845  1.00  0.00     0.216 C 
BRANCH  10  11
ATOM     11  N   UNL A   1      35.562  23.803  24.451  1.00  0.00    -0.340 N 
ATOM     12  C   UNL A   1      36.560  22.996  23.934  1.00  0.00     0.292 C 
ATOM     13  O   UNL A   1      36.906  23.093  22.762  1.00  0.00    -0.265 OA
ATOM     14  H   UNL A   1      35.078  24.356  23.796  1.00  0.00     0.164 HD
BRANCH  12  15
ATOM     15  C   UNL A   1      37.244  21.981  24.854  1.00  0.00     0.252 C 
ATOM     16  O   UNL A   1      36.730  20.863  24.903  1.00  0.00    -0.283 OA
BRANCH  15  17
ATOM     17  C   UNL A   1      38.338  22.377  25.752  1.00  0.00     0.054 A 
ATOM     18  N   UNL A   1      39.762  23.452  27.138  1.00  0.00    -0.240 N 
ATOM     19  C   UNL A   1      38.625  23.610  26.350  1.00  0.00     0.117 A 
ATOM     20  C   UNL A   1      40.058  22.082  27.193  1.00  0.00     0.065 A 
ATOM     21  C   UNL A   1      39.409  21.504  26.108  1.00  0.00     0.012 A 
ATOM     22  C   UNL A   1      41.036  21.381  27.927  1.00  0.00     0.028 A 
ATOM     23  C   UNL A   1      39.874  20.258  25.632  1.00  0.00     0.011 A 
ATOM     24  C   UNL A   1      41.520  20.186  27.401  1.00  0.00     0.002 A 
ATOM     25  C   UNL A   1      40.974  19.650  26.244  1.00  0.00     0.001 A 
BRANCH  18  26
ATOM     26  S   UNL A   1      41.209  24.418  27.065  1.00  0.00     0.268 S 
ATOM     27  O   UNL A   1      41.364  24.876  28.436  1.00  0.00    -0.201 OA
ATOM     28  O   UNL A   1      40.916  25.351  25.986  1.00  0.00    -0.201 OA
BRANCH  26  29
ATOM     29  C   UNL A   1      42.796  23.832  26.601  1.00  0.00     0.088 A 
ATOM     30  C   UNL A   1      46.199  22.127  24.562  1.00  0.00     0.044 C 
ATOM     31  C   UNL A   1      45.054  22.759  25.302  1.00  0.00    -0.051 A 
ATOM     32  C   UNL A   1      44.003  23.256  24.545  1.00  0.00     0.005 A 
ATOM     33  C   UNL A   1      44.973  22.821  26.711  1.00  0.00     0.005 A 
ATOM     34  C   UNL A   1      42.901  23.790  25.189  1.00  0.00     0.022 A 
ATOM     35  C   UNL A   1      43.840  23.355  27.376  1.00  0.00     0.022 A 
ENDBRANCH  26  29
ENDBRANCH  18  26
ENDBRANCH  15  17
ENDBRANCH  12  15
ENDBRANCH  10  11
ENDBRANCH   7  10
ENDBRANCH   5   6
BRANCH   5  36
ATOM     36  C   UNL A   1      31.780  24.505  23.766  1.00  0.00     0.072 C 
BRANCH  36  37
ATOM     37  C   UNL A   1      31.689  25.862  23.135  1.00  0.00    -0.020 A 
ATOM     38  C   UNL A   1      32.696  26.486  22.421  1.00  0.00     0.087 A 
ATOM     39  C   UNL A   1      30.568  26.759  23.126  1.00  0.00     0.003 A 
ATOM     40  N   UNL A   1      32.286  27.753  22.106  1.00  0.00    -0.361 N 
ATOM     41  C   UNL A   1      30.993  27.948  22.530  1.00  0.00     0.046 A 
ATOM     42  C   UNL A   1      29.237  26.685  23.588  1.00  0.00     0.010 A 
ATOM     43  H   UNL A   1      32.836  28.427  21.644  1.00  0.00     0.166 HD
ATOM     44  C   UNL A   1      30.178  29.080  22.420  1.00  0.00     0.026 A 
ATOM     45  C   UNL A   1      28.392  27.794  23.442  1.00  0.00     0.001 A 
ATOM     46  C   UNL A   1      28.863  28.978  22.880  1.00  0.00     0.002 A 
ENDBRANCH  36  37
ENDBRANCH   5  36
ENDBRANCH   1   5
BRANCH   3  47
ATOM     47  C   UNL A   1      32.230  27.222  26.717  1.00  0.00     0.117 C 
BRANCH  47  48
ATOM     48  C   UNL A   1      31.897  28.573  27.316  1.00  0.00     0.042 C 
BRANCH  48  49
ATOM     49  C   UNL A   1      33.031  29.563  27.112  1.00  0.00     0.118 C 
BRANCH  49  50
ATOM     50  N   UNL A   1      32.980  30.753  27.966  1.00  0.00    -0.352 N 
ATOM     51  C   UNL A   1      34.016  31.539  28.456  1.00  0.00     0.251 C 
ATOM     52  H   UNL A   1      32.075  31.037  28.234  1.00  0.00     0.163 HD
ATOM     53  O   UNL A   1      33.773  32.519  29.139  1.00  0.00    -0.269 OA
BRANCH  51  54
ATOM     54  C   UNL A   1      35.411  31.264  28.014  1.00  0.00     0.039 A 
ATOM     55  C   UNL A   1      35.839  29.933  27.961  1.00  0.00     0.014 A 
ATOM     56  C   UNL A   1      36.337  32.295  27.941  1.00  0.00     0.014 A 
ATOM     57  C   UNL A   1      37.190  29.649  28.148  1.00  0.00     0.010 A 
ATOM     58  C   UNL A   1      37.638  32.020  28.293  1.00  0.00     0.010 A 
ATOM     59  C   UNL A   1      38.054  30.697  28.458  1.00  0.00    -0.014 A 
BRANCH  59  60
ATOM     60  C   UNL A   1      39.355  30.512  29.087  1.00  0.00     0.031 A 
ATOM     61  C   UNL A   1      40.266  29.449  28.623  1.00  0.00     0.074 A 
ATOM     62  C   UNL A   1      39.776  31.390  30.025  1.00  0.00     0.049 A 
ATOM     63  N   UNL A   1      41.172  28.904  29.362  1.00  0.00    -0.248 NA
ATOM     64  C   UNL A   1      40.206  28.888  27.277  1.00  0.00     0.031 C 
ATOM     65  C   UNL A   1      41.130  31.549  30.549  1.00  0.00     0.029 A 
ATOM     66  N   UNL A   1      38.992  32.204  30.842  1.00  0.00    -0.354 N 
ATOM     67  C   UNL A   1      41.992  28.182  28.530  1.00  0.00     0.074 A 
ATOM     68  C   UNL A   1      41.308  28.135  27.259  1.00  0.00     0.031 C 
ATOM     69  C   UNL A   1      41.067  32.189  31.728  1.00  0.00     0.029 A 
ATOM     70  C   UNL A   1      39.663  32.336  32.072  1.00  0.00     0.049 A 
ATOM     71  H   UNL A   1      38.129  32.612  30.602  1.00  0.00     0.167 HD
ATOM     72  C   UNL A   1      43.241  27.829  28.943  1.00  0.00     0.031 A 
ATOM     73  C   UNL A   1      39.095  31.881  33.226  1.00  0.00     0.031 A 
ATOM     74  C   UNL A   1      43.511  28.268  30.309  1.00  0.00     0.049 A 
ATOM     75  C   UNL A   1      39.854  30.742  33.876  1.00  0.00     0.074 A 
ATOM     76  C   UNL A   1      44.226  29.333  30.833  1.00  0.00     0.029 A 
ATOM     77  N   UNL A   1      42.746  27.759  31.353  1.00  0.00    -0.354 N 
ATOM     78  N   UNL A   1      40.807  30.070  33.291  1.00  0.00    -0.248 NA
ATOM     79  C   UNL A   1      39.570  30.240  35.217  1.00  0.00     0.031 C 
ATOM     80  C   UNL A   1      43.840  29.499  32.189  1.00  0.00     0.029 A 
ATOM     81  C   UNL A   1      42.910  28.521  32.493  1.00  0.00     0.049 A 
ATOM     82  H   UNL A   1      42.167  26.966  31.286  1.00  0.00     0.167 HD
ATOM     83  C   UNL A   1      41.240  29.063  34.114  1.00  0.00     0.074 A 
ATOM     84  C   UNL A   1      40.450  29.227  35.320  1.00  0.00     0.031 C 
ATOM     85  C   UNL A   1      42.197  28.172  33.717  1.00  0.00     0.031 A 
BRANCH  72  86
ATOM     86  C   UNL A   1      44.299  27.373  27.971  1.00  0.00    -0.014 A 
ATOM     87  C   UNL A   1      44.060  27.452  26.588  1.00  0.00     0.009 A 
ATOM     88  C   UNL A   1      45.526  26.805  28.356  1.00  0.00     0.009 A 
ATOM     89  C   UNL A   1      44.938  26.891  25.651  1.00  0.00     0.001 A 
ATOM     90  C   UNL A   1      46.384  26.197  27.431  1.00  0.00     0.001 A 
ATOM     91  C   UNL A   1      46.083  26.229  26.077  1.00  0.00     0.000 A 
ENDBRANCH  72  86
BRANCH  73  92
ATOM     92  C   UNL A   1      37.617  32.059  33.261  1.00  0.00    -0.014 A 
ATOM     93  C   UNL A   1      37.110  33.304  33.689  1.00  0.00     0.009 A 
ATOM     94  C   UNL A   1      36.772  31.209  32.536  1.00  0.00     0.009 A 
ATOM     95  C   UNL A   1      35.839  33.734  33.297  1.00  0.00     0.001 A 
ATOM     96  C   UNL A   1      35.497  31.644  32.148  1.00  0.00     0.001 A 
ATOM     97  C   UNL A   1      35.046  32.917  32.497  1.00  0.00     0.000 A 
ENDBRANCH  73  92
BRANCH  85  98
ATOM     98  C   UNL A   1      42.615  26.910  34.439  1.00  0.00    -0.014 A 
ATOM     99  C   UNL A   1      43.927  26.430  34.517  1.00  0.00     0.009 A 
ATOM    100  C   UNL A   1      41.646  26.213  35.201  1.00  0.00     0.009 A 
ATOM    101  C   UNL A   1      44.248  25.297  35.282  1.00  0.00     0.001 A 
ATOM    102  C   UNL A   1      41.968  25.115  36.002  1.00  0.00     0.001 A 
ATOM    103  C   UNL A   1      43.272  24.649  36.033  1.00  0.00     0.000 A 
ENDBRANCH  85  98
ENDBRANCH  59  60
ENDBRANCH  51  54
ENDBRANCH  49  50
ENDBRANCH  48  49
ENDBRANCH  47  48
ENDBRANCH   3  47
TORSDOF 19
ENDMDL
MODEL 2
REMARK VINA RESULT:     -13.0      4.051      7.348
REMARK SMILES Cc1ccc(S(=O)(=O)n2cc(C(=O)C(=O)NCC(=O)N[C@@H](Cc3c[nH]c4ccccc34)C(=O)NCCCNC(=O)c3ccc(-c4c5nc(c(-c6ccccc6)c6ccc([nH]6)c(-c6ccccc6)c6nc(c(-c7ccccc7)c7ccc4[nH]7)C=C6)C=C5)cc3)c3ccccc32)cc1
REMARK SMILES IDX 32 1 33 2 34 3 21 5 20 6 18 7 19 8 17 10 16 11 14 12 15 13
REMARK SMILES IDX 12 15 13 16 11 17 9 18 10 19 94 20 89 21 93 22 90 23 92 24
REMARK SMILES IDX 91 25 6 26 7 27 8 28 5 29 1 30 2 31 3 32 96 33 4 34 95 35
REMARK SMILES IDX 22 36 23 37 24 38 31 39 25 40 26 41 30 42 27 44 29 45 28 46
REMARK SMILES IDX 35 47 36 48 37 49 38 50 39 51 40 53 41 54 42 55 88 56 43 57
REMARK SMILES IDX 87 58 44 59 45 60 46 61 81 62 47 63 86 64 80 65 82 66 48 67
REMARK SMILES IDX 85 68 79 69 78 70 49 72 71 73 56 74 70 75 57 76 60 77 69 78
REMARK SMILES IDX 83 79 58 80 59 81 68 83 84 84 61 85 50 86 51 87 55 88 52 89
REMARK SMILES IDX 54 90 53 91 72 92 73 93 77 94 74 95 76 96 75 97 62 98 63 99
REMARK SMILES IDX 67 100 64 101 66 102 65 103
REMARK H PARENT 34 4 20 9 16 14 25 43 38 52 82 71 60 82
REMARK Flexibility Score: inf
ROOT
ATOM      1  C   UNL A   1      32.282  27.310  26.517  1.00  0.00     0.242 C 
ATOM      2  O   UNL A   1      31.255  27.136  27.180  1.00  0.00    -0.273 OA
ATOM      3  N   UNL A   1      32.855  28.551  26.559  1.00  0.00    -0.354 N 
ATOM      4  H   UNL A   1      32.243  29.302  26.734  1.00  0.00     0.163 HD
ENDROOT
BRANCH   1   5
ATOM      5  C   UNL A   1      32.899  26.129  25.733  1.00  0.00     0.175 C 
BRANCH   5   6
ATOM      6  N   UNL A   1      32.342  24.837  26.156  1.00  0.00    -0.342 N 
ATOM      7  C   UNL A   1      33.040  23.767  26.654  1.00  0.00     0.240 C 
ATOM      8  O   UNL A   1      32.440  22.964  27.370  1.00  0.00    -0.273 OA
ATOM      9  H   UNL A   1      31.367  24.728  26.074  1.00  0.00     0.164 HD
BRANCH   7  10
ATOM     10  C   UNL A   1      34.552  23.643  26.380  1.00  0.00     0.216 C 
BRANCH  10  11
ATOM     11  N   UNL A   1      34.924  22.236  26.202  1.00  0.00    -0.340 N 
ATOM     12  C   UNL A   1      36.035  21.714  25.564  1.00  0.00     0.292 C 
ATOM     13  O   UNL A   1      36.140  20.509  25.368  1.00  0.00    -0.265 OA
ATOM     14  H   UNL A   1      34.303  21.578  26.587  1.00  0.00     0.164 HD
BRANCH  12  15
ATOM     15  C   UNL A   1      37.134  22.668  25.088  1.00  0.00     0.252 C 
ATOM     16  O   UNL A   1      37.058  23.039  23.917  1.00  0.00    -0.283 OA
BRANCH  15  17
ATOM     17  C   UNL A   1      38.298  22.976  25.931  1.00  0.00     0.054 A 
ATOM     18  N   UNL A   1      39.869  23.935  27.241  1.00  0.00    -0.240 N 
ATOM     19  C   UNL A   1      38.715  24.184  26.504  1.00  0.00     0.117 A 
ATOM     20  C   UNL A   1      40.051  22.545  27.297  1.00  0.00     0.065 A 
ATOM     21  C   UNL A   1      39.307  22.017  26.247  1.00  0.00     0.012 A 
ATOM     22  C   UNL A   1      40.999  21.769  27.992  1.00  0.00     0.028 A 
ATOM     23  C   UNL A   1      39.643  20.733  25.763  1.00  0.00     0.011 A 
ATOM     24  C   UNL A   1      41.356  20.533  27.457  1.00  0.00     0.002 A 
ATOM     25  C   UNL A   1      40.715  20.038  26.331  1.00  0.00     0.001 A 
BRANCH  18  26
ATOM     26  S   UNL A   1      41.388  24.774  27.093  1.00  0.00     0.268 S 
ATOM     27  O   UNL A   1      41.629  25.252  28.446  1.00  0.00    -0.201 OA
ATOM     28  O   UNL A   1      41.135  25.701  26.000  1.00  0.00    -0.201 OA
BRANCH  26  29
ATOM     29  C   UNL A   1      42.904  24.046  26.593  1.00  0.00     0.088 A 
ATOM     30  C   UNL A   1      46.000  21.684  24.728  1.00  0.00     0.044 C 
ATOM     31  C   UNL A   1      44.964  22.553  25.383  1.00  0.00    -0.051 A 
ATOM     32  C   UNL A   1      43.770  22.745  24.703  1.00  0.00     0.005 A 
ATOM     33  C   UNL A   1      45.124  23.130  26.664  1.00  0.00     0.005 A 
ATOM     34  C   UNL A   1      42.766  23.488  25.298  1.00  0.00     0.022 A 
ATOM     35  C   UNL A   1      44.092  23.879  27.284  1.00  0.00     0.022 A 
ENDBRANCH  26  29
ENDBRANCH  18  26
ENDBRANCH  15  17
ENDBRANCH  12  15
ENDBRANCH  10  11
ENDBRANCH   7  10
ENDBRANCH   5   6
BRANCH   5  36
ATOM     36  C   UNL A   1      33.029  26.312  24.208  1.00  0.00     0.072 C 
BRANCH  36  37
ATOM     37  C   UNL A   1      32.154  27.339  23.556  1.00  0.00    -0.020 A 
ATOM     38  C   UNL A   1      32.599  28.450  22.860  1.00  0.00     0.087 A 
ATOM     39  C   UNL A   1      30.719  27.374  23.502  1.00  0.00     0.003 A 
ATOM     40  N   UNL A   1      31.514  29.211  22.517  1.00  0.00    -0.361 N 
ATOM     41  C   UNL A   1      30.355  28.580  22.901  1.00  0.00     0.046 A 
ATOM     42  C   UNL A   1      29.692  26.506  23.929  1.00  0.00     0.010 A 
ATOM     43  H   UNL A   1      31.557  30.083  22.060  1.00  0.00     0.166 HD
ATOM     44  C   UNL A   1      29.024  28.987  22.753  1.00  0.00     0.026 A 
ATOM     45  C   UNL A   1      28.353  26.877  23.743  1.00  0.00     0.001 A 
ATOM     46  C   UNL A   1      28.027  28.107  23.177  1.00  0.00     0.002 A 
ENDBRANCH  36  37
ENDBRANCH   5  36
ENDBRANCH   1   5
BRANCH   3  47
ATOM     47  C   UNL A   1      34.251  28.896  26.378  1.00  0.00     0.117 C 
BRANCH  47  48
ATOM     48  C   UNL A   1      34.977  29.295  27.647  1.00  0.00     0.042 C 
BRANCH  48  49
ATOM     49  C   UNL A   1      35.456  30.735  27.582  1.00  0.00     0.118 C 
BRANCH  49  50
ATOM     50  N   UNL A   1      34.771  31.660  28.489  1.00  0.00    -0.352 N 
ATOM     51  C   UNL A   1      35.295  32.476  29.485  1.00  0.00     0.251 C 
ATOM     52  H   UNL A   1      33.794  31.710  28.378  1.00  0.00     0.163 HD
ATOM     53  O   UNL A   1      34.562  33.207  30.127  1.00  0.00    -0.269 OA
BRANCH  51  54
ATOM     54  C   UNL A   1      36.772  32.562  29.655  1.00  0.00     0.039 A 
ATOM     55  C   UNL A   1      37.425  31.516  30.316  1.00  0.00     0.014 A 
ATOM     56  C   UNL A   1      37.433  33.762  29.431  1.00  0.00     0.014 A 
ATOM     57  C   UNL A   1      38.602  31.784  31.010  1.00  0.00     0.010 A 
ATOM     58  C   UNL A   1      38.495  34.076  30.247  1.00  0.00     0.010 A 
ATOM     59  C   UNL A   1      39.045  33.103  31.084  1.00  0.00    -0.014 A 
BRANCH  59  60
ATOM     60  C   UNL A   1      39.976  33.587  32.096  1.00  0.00     0.031 A 
ATOM     61  C   UNL A   1      39.476  34.218  33.332  1.00  0.00     0.074 A 
ATOM     62  C   UNL A   1      41.300  33.356  31.953  1.00  0.00     0.049 A 
ATOM     63  N   UNL A   1      40.150  35.067  34.030  1.00  0.00    -0.248 NA
ATOM     64  C   UNL A   1      38.144  33.957  33.869  1.00  0.00     0.031 C 
ATOM     65  C   UNL A   1      42.341  33.494  32.968  1.00  0.00     0.029 A 
ATOM     66  N   UNL A   1      42.001  33.124  30.769  1.00  0.00    -0.354 N 
ATOM     67  C   UNL A   1      39.497  35.214  35.229  1.00  0.00     0.074 A 
ATOM     68  C   UNL A   1      38.217  34.569  35.053  1.00  0.00     0.031 C 
ATOM     69  C   UNL A   1      43.533  33.598  32.357  1.00  0.00     0.029 A 
ATOM     70  C   UNL A   1      43.286  33.676  30.927  1.00  0.00     0.049 A 
ATOM     71  H   UNL A   1      41.660  32.660  29.971  1.00  0.00     0.167 HD
ATOM     72  C   UNL A   1      40.158  35.721  36.306  1.00  0.00     0.031 A 
ATOM     73  C   UNL A   1      43.711  34.691  30.121  1.00  0.00     0.031 A 
ATOM     74  C   UNL A   1      41.532  36.094  35.982  1.00  0.00     0.049 A 
ATOM     75  C   UNL A   1      43.963  35.992  30.854  1.00  0.00     0.074 A 
ATOM     76  C   UNL A   1      42.753  35.478  36.204  1.00  0.00     0.029 A 
ATOM     77  N   UNL A   1      41.764  37.095  35.046  1.00  0.00    -0.354 N 
ATOM     78  N   UNL A   1      43.581  36.228  32.078  1.00  0.00    -0.248 NA
ATOM     79  C   UNL A   1      44.627  37.146  30.252  1.00  0.00     0.031 C 
ATOM     80  C   UNL A   1      43.713  36.079  35.349  1.00  0.00     0.029 A 
ATOM     81  C   UNL A   1      43.080  37.074  34.626  1.00  0.00     0.049 A 
ATOM     82  H   UNL A   1      41.084  37.731  34.726  1.00  0.00     0.167 HD
ATOM     83  C   UNL A   1      43.896  37.517  32.425  1.00  0.00     0.074 A 
ATOM     84  C   UNL A   1      44.573  38.043  31.253  1.00  0.00     0.031 C 
ATOM     85  C   UNL A   1      43.550  38.039  33.639  1.00  0.00     0.031 A 
BRANCH  72  86
ATOM     86  C   UNL A   1      39.628  35.565  37.709  1.00  0.00    -0.014 A 
ATOM     87  C   UNL A   1      39.607  36.671  38.577  1.00  0.00     0.009 A 
ATOM     88  C   UNL A   1      39.191  34.343  38.250  1.00  0.00     0.009 A 
ATOM     89  C   UNL A   1      39.283  36.541  39.934  1.00  0.00     0.001 A 
ATOM     90  C   UNL A   1      38.913  34.195  39.616  1.00  0.00     0.001 A 
ATOM     91  C   UNL A   1      38.972  35.294  40.461  1.00  0.00     0.000 A 
ENDBRANCH  72  86
BRANCH  73  92
ATOM     92  C   UNL A   1      43.213  34.574  28.722  1.00  0.00    -0.014 A 
ATOM     93  C   UNL A   1      42.231  35.490  28.290  1.00  0.00     0.009 A 
ATOM     94  C   UNL A   1      43.946  33.876  27.754  1.00  0.00     0.009 A 
ATOM     95  C   UNL A   1      42.075  35.787  26.932  1.00  0.00     0.001 A 
ATOM     96  C   UNL A   1      43.784  34.175  26.394  1.00  0.00     0.001 A 
ATOM     97  C   UNL A   1      42.876  35.154  25.987  1.00  0.00     0.000 A 
ENDBRANCH  73  92
BRANCH  85  98
ATOM     98  C   UNL A   1      43.657  39.487  34.066  1.00  0.00    -0.014 A 
ATOM     99  C   UNL A   1      44.346  39.939  35.197  1.00  0.00     0.009 A 
ATOM    100  C   UNL A   1      43.134  40.487  33.209  1.00  0.00     0.009 A 
ATOM    101  C   UNL A   1      44.473  41.309  35.477  1.00  0.00     0.001 A 
ATOM    102  C   UNL A   1      43.300  41.851  33.457  1.00  0.00     0.001 A 
ATOM    103  C   UNL A   1      43.962  42.263  34.602  1.00  0.00     0.000 A 
ENDBRANCH  85  98
ENDBRANCH  59  60
ENDBRANCH  51  54
ENDBRANCH  49  50
ENDBRANCH  48  49
ENDBRANCH  47  48
ENDBRANCH   3  47
TORSDOF 19
ENDMDL
MODEL 3
REMARK VINA RESULT:     -12.8      2.054      4.178
REMARK SMILES Cc1ccc(S(=O)(=O)n2cc(C(=O)C(=O)NCC(=O)N[C@@H](Cc3c[nH]c4ccccc34)C(=O)NCCCNC(=O)c3ccc(-c4c5nc(c(-c6ccccc6)c6ccc([nH]6)c(-c6ccccc6)c6nc(c(-c7ccccc7)c7ccc4[nH]7)C=C6)C=C5)cc3)c3ccccc32)cc1
REMARK SMILES IDX 32 1 33 2 34 3 21 5 20 6 18 7 19 8 17 10 16 11 14 12 15 13
REMARK SMILES IDX 12 15 13 16 11 17 9 18 10 19 94 20 89 21 93 22 90 23 92 24
REMARK SMILES IDX 91 25 6 26 7 27 8 28 5 29 1 30 2 31 3 32 96 33 4 34 95 35
REMARK SMILES IDX 22 36 23 37 24 38 31 39 25 40 26 41 30 42 27 44 29 45 28 46
REMARK SMILES IDX 35 47 36 48 37 49 38 50 39 51 40 53 41 54 42 55 88 56 43 57
REMARK SMILES IDX 87 58 44 59 45 60 46 61 81 62 47 63 86 64 80 65 82 66 48 67
REMARK SMILES IDX 85 68 79 69 78 70 49 72 71 73 56 74 70 75 57 76 60 77 69 78
REMARK SMILES IDX 83 79 58 80 59 81 68 83 84 84 61 85 50 86 51 87 55 88 52 89
REMARK SMILES IDX 54 90 53 91 72 92 73 93 77 94 74 95 76 96 75 97 62 98 63 99
REMARK SMILES IDX 67 100 64 101 66 102 65 103
REMARK H PARENT 34 4 20 9 16 14 25 43 38 52 82 71 60 82
REMARK Flexibility Score: inf
ROOT
ATOM      1  C   UNL A   1      31.582  24.205  26.354  1.00  0.00     0.242 C 
ATOM      2  O   UNL A   1      30.872  23.656  27.204  1.00  0.00    -0.273 OA
ATOM      3  N   UNL A   1      31.947  25.502  26.585  1.00  0.00    -0.354 N 
ATOM      4  H   UNL A   1      31.326  26.034  27.134  1.00  0.00     0.163 HD
ENDROOT
BRANCH   1   5
ATOM      5  C   UNL A   1      32.066  23.405  25.124  1.00  0.00     0.175 C 
BRANCH   5   6
ATOM      6  N   UNL A   1      32.412  22.019  25.470  1.00  0.00    -0.342 N 
ATOM      7  C   UNL A   1      33.546  21.592  26.112  1.00  0.00     0.240 C 
ATOM      8  O   UNL A   1      33.500  20.526  26.726  1.00  0.00    -0.273 OA
ATOM      9  H   UNL A   1      31.762  21.325  25.216  1.00  0.00     0.164 HD
BRANCH   7  10
ATOM     10  C   UNL A   1      34.804  22.483  26.119  1.00  0.00     0.216 C 
BRANCH  10  11
ATOM     11  N   UNL A   1      35.233  22.769  24.746  1.00  0.00    -0.340 N 
ATOM     12  C   UNL A   1      36.448  22.489  24.148  1.00  0.00     0.292 C 
ATOM     13  O   UNL A   1      36.715  22.918  23.032  1.00  0.00    -0.265 OA
ATOM     14  H   UNL A   1      34.569  23.218  24.176  1.00  0.00     0.164 HD
BRANCH  12  15
ATOM     15  C   UNL A   1      37.473  21.642  24.910  1.00  0.00     0.252 C 
ATOM     16  O   UNL A   1      37.313  20.423  24.857  1.00  0.00    -0.283 OA
BRANCH  15  17
ATOM     17  C   UNL A   1      38.474  22.262  25.790  1.00  0.00     0.054 A 
ATOM     18  N   UNL A   1      39.693  23.635  27.106  1.00  0.00    -0.240 N 
ATOM     19  C   UNL A   1      38.567  23.567  26.288  1.00  0.00     0.117 A 
ATOM     20  C   UNL A   1      40.177  22.331  27.280  1.00  0.00     0.065 A 
ATOM     21  C   UNL A   1      39.647  21.581  26.235  1.00  0.00     0.012 A 
ATOM     22  C   UNL A   1      41.222  21.837  28.086  1.00  0.00     0.028 A 
ATOM     23  C   UNL A   1      40.296  20.379  25.872  1.00  0.00     0.011 A 
ATOM     24  C   UNL A   1      41.884  20.684  27.669  1.00  0.00     0.002 A 
ATOM     25  C   UNL A   1      41.453  19.985  26.551  1.00  0.00     0.001 A 
BRANCH  18  26
ATOM     26  S   UNL A   1      40.991  24.788  26.977  1.00  0.00     0.268 S 
ATOM     27  O   UNL A   1      41.119  25.288  28.337  1.00  0.00    -0.201 OA
ATOM     28  O   UNL A   1      40.544  25.653  25.895  1.00  0.00    -0.201 OA
BRANCH  26  29
ATOM     29  C   UNL A   1      42.631  24.416  26.476  1.00  0.00     0.088 A 
ATOM     30  C   UNL A   1      46.180  22.748  24.671  1.00  0.00     0.044 C 
ATOM     31  C   UNL A   1      44.974  23.385  25.300  1.00  0.00    -0.051 A 
ATOM     32  C   UNL A   1      43.758  23.228  24.650  1.00  0.00     0.005 A 
ATOM     33  C   UNL A   1      45.009  24.077  26.532  1.00  0.00     0.005 A 
ATOM     34  C   UNL A   1      42.613  23.746  25.228  1.00  0.00     0.022 A 
ATOM     35  C   UNL A   1      43.835  24.596  27.135  1.00  0.00     0.022 A 
ENDBRANCH  26  29
ENDBRANCH  18  26
ENDBRANCH  15  17
ENDBRANCH  12  15
ENDBRANCH  10  11
ENDBRANCH   7  10
ENDBRANCH   5   6
BRANCH   5  36
ATOM     36  C   UNL A   1      31.240  23.565  23.833  1.00  0.00     0.072 C 
BRANCH  36  37
ATOM     37  C   UNL A   1      31.350  24.865  23.097  1.00  0.00    -0.020 A 
ATOM     38  C   UNL A   1      32.335  25.192  22.182  1.00  0.00     0.087 A 
ATOM     39  C   UNL A   1      30.472  26.000  23.171  1.00  0.00     0.003 A 
ATOM     40  N   UNL A   1      32.171  26.500  21.814  1.00  0.00    -0.361 N 
ATOM     41  C   UNL A   1      31.045  27.018  22.407  1.00  0.00     0.046 A 
ATOM     42  C   UNL A   1      29.256  26.268  23.833  1.00  0.00     0.010 A 
ATOM     43  H   UNL A   1      32.772  26.997  21.212  1.00  0.00     0.166 HD
ATOM     44  C   UNL A   1      30.496  28.302  22.313  1.00  0.00     0.026 A 
ATOM     45  C   UNL A   1      28.667  27.535  23.710  1.00  0.00     0.001 A 
ATOM     46  C   UNL A   1      29.289  28.540  22.973  1.00  0.00     0.002 A 
ENDBRANCH  36  37
ENDBRANCH   5  36
ENDBRANCH   1   5
BRANCH   3  47
ATOM     47  C   UNL A   1      33.136  26.191  26.122  1.00  0.00     0.117 C 
BRANCH  47  48
ATOM     48  C   UNL A   1      32.939  27.660  25.812  1.00  0.00     0.042 C 
BRANCH  48  49
ATOM     49  C   UNL A   1      34.191  28.463  26.119  1.00  0.00     0.118 C 
BRANCH  49  50
ATOM     50  N   UNL A   1      33.974  29.897  26.333  1.00  0.00    -0.352 N 
ATOM     51  C   UNL A   1      34.619  30.772  27.200  1.00  0.00     0.251 C 
ATOM     52  H   UNL A   1      33.265  30.300  25.781  1.00  0.00     0.163 HD
ATOM     53  O   UNL A   1      34.315  31.952  27.218  1.00  0.00    -0.269 OA
BRANCH  51  54
ATOM     54  C   UNL A   1      35.783  30.288  27.992  1.00  0.00     0.039 A 
ATOM     55  C   UNL A   1      35.533  29.535  29.145  1.00  0.00     0.014 A 
ATOM     56  C   UNL A   1      37.049  30.808  27.764  1.00  0.00     0.014 A 
ATOM     57  C   UNL A   1      36.451  29.573  30.191  1.00  0.00     0.010 A 
ATOM     58  C   UNL A   1      37.877  30.989  28.848  1.00  0.00     0.010 A 
ATOM     59  C   UNL A   1      37.550  30.422  30.081  1.00  0.00    -0.014 A 
BRANCH  59  60
ATOM     60  C   UNL A   1      38.330  30.885  31.221  1.00  0.00     0.031 A 
ATOM     61  C   UNL A   1      39.097  29.927  32.041  1.00  0.00     0.074 A 
ATOM     62  C   UNL A   1      38.444  32.211  31.462  1.00  0.00     0.049 A 
ATOM     63  N   UNL A   1      39.410  30.126  33.276  1.00  0.00    -0.248 NA
ATOM     64  C   UNL A   1      39.553  28.638  31.531  1.00  0.00     0.031 C 
ATOM     65  C   UNL A   1      39.393  32.874  32.351  1.00  0.00     0.029 A 
ATOM     66  N   UNL A   1      37.567  33.224  31.075  1.00  0.00    -0.354 N 
ATOM     67  C   UNL A   1      40.344  29.178  33.615  1.00  0.00     0.074 A 
ATOM     68  C   UNL A   1      40.341  28.229  32.527  1.00  0.00     0.031 C 
ATOM     69  C   UNL A   1      38.928  34.098  32.648  1.00  0.00     0.029 A 
ATOM     70  C   UNL A   1      37.596  34.210  32.079  1.00  0.00     0.049 A 
ATOM     71  H   UNL A   1      37.028  33.245  30.252  1.00  0.00     0.167 HD
ATOM     72  C   UNL A   1      41.145  29.368  34.700  1.00  0.00     0.031 A 
ATOM     73  C   UNL A   1      36.471  34.512  32.789  1.00  0.00     0.031 A 
ATOM     74  C   UNL A   1      40.833  30.611  35.401  1.00  0.00     0.049 A 
ATOM     75  C   UNL A   1      36.569  34.182  34.265  1.00  0.00     0.074 A 
ATOM     76  C   UNL A   1      41.432  31.860  35.416  1.00  0.00     0.029 A 
ATOM     77  N   UNL A   1      39.579  30.771  35.979  1.00  0.00    -0.354 N 
ATOM     78  N   UNL A   1      37.514  33.450  34.789  1.00  0.00    -0.248 NA
ATOM     79  C   UNL A   1      35.590  34.611  35.259  1.00  0.00     0.031 C 
ATOM     80  C   UNL A   1      40.503  32.788  35.956  1.00  0.00     0.029 A 
ATOM     81  C   UNL A   1      39.352  32.098  36.290  1.00  0.00     0.049 A 
ATOM     82  H   UNL A   1      38.941  30.040  36.144  1.00  0.00     0.167 HD
ATOM     83  C   UNL A   1      37.281  33.280  36.129  1.00  0.00     0.074 A 
ATOM     84  C   UNL A   1      36.076  34.048  36.380  1.00  0.00     0.031 C 
ATOM     85  C   UNL A   1      38.093  32.502  36.906  1.00  0.00     0.031 A 
BRANCH  72  86
ATOM     86  C   UNL A   1      42.407  28.570  34.905  1.00  0.00    -0.014 A 
ATOM     87  C   UNL A   1      43.382  28.530  33.893  1.00  0.00     0.009 A 
ATOM     88  C   UNL A   1      42.666  27.792  36.047  1.00  0.00     0.009 A 
ATOM     89  C   UNL A   1      44.489  27.673  33.965  1.00  0.00     0.001 A 
ATOM     90  C   UNL A   1      43.742  26.897  36.105  1.00  0.00     0.001 A 
ATOM     91  C   UNL A   1      44.648  26.829  35.056  1.00  0.00     0.000 A 
ENDBRANCH  72  86
BRANCH  73  92
ATOM     92  C   UNL A   1      35.226  34.440  31.974  1.00  0.00    -0.014 A 
ATOM     93  C   UNL A   1      34.338  35.534  32.023  1.00  0.00     0.009 A 
ATOM     94  C   UNL A   1      35.118  33.539  30.906  1.00  0.00     0.009 A 
ATOM     95  C   UNL A   1      33.451  35.786  30.972  1.00  0.00     0.001 A 
ATOM     96  C   UNL A   1      34.225  33.795  29.856  1.00  0.00     0.001 A 
ATOM     97  C   UNL A   1      33.420  34.935  29.872  1.00  0.00     0.000 A 
ENDBRANCH  73  92
BRANCH  85  98
ATOM     98  C   UNL A   1      37.839  32.072  38.335  1.00  0.00    -0.014 A 
ATOM     99  C   UNL A   1      38.323  32.736  39.468  1.00  0.00     0.009 A 
ATOM    100  C   UNL A   1      36.950  30.995  38.571  1.00  0.00     0.009 A 
ATOM    101  C   UNL A   1      37.971  32.325  40.763  1.00  0.00     0.001 A 
ATOM    102  C   UNL A   1      36.558  30.613  39.855  1.00  0.00     0.001 A 
ATOM    103  C   UNL A   1      37.080  31.273  40.955  1.00  0.00     0.000 A 
ENDBRANCH  85  98
ENDBRANCH  59  60
ENDBRANCH  51  54
ENDBRANCH  49  50
ENDBRANCH  48  49
ENDBRANCH  47  48
ENDBRANCH   3  47
TORSDOF 19
ENDMDL
