MODEL 1
REMARK VINA RESULT:     -11.0      0.000      0.000
REMARK SMILES Cc1ccc2c(c1C)O[C@@H](C(=O)NCCCNC(=O)c1ccc(-c3c4nc(c(-c5ccccc5)c5ccc([nH]5)c(-c5ccccc5)c5nc(c(-c6ccccc6)c6ccc3[nH]6)C=C5)C=C4)cc1)CC2=O
REMARK SMILES IDX 16 1 15 2 14 3 13 4 11 5 12 6 10 8 1 9 2 10 3 11 7 12 4 13
REMARK SMILES IDX 6 14 8 15 5 16 9 17 69 18 68 19 70 20 17 21 18 22 19 24
REMARK SMILES IDX 20 25 21 26 67 27 22 28 66 29 23 30 24 31 25 32 60 33 26 34
REMARK SMILES IDX 65 35 59 36 61 37 27 38 64 39 58 40 57 41 28 43 50 44 35 45
REMARK SMILES IDX 49 46 36 47 39 48 48 49 62 50 37 51 38 52 47 54 63 55 40 56
REMARK SMILES IDX 29 57 30 58 34 59 31 60 33 61 32 62 51 63 52 64 56 65 53 66
REMARK SMILES IDX 55 67 54 68 41 69 42 70 46 71 43 72 45 73 44 74
REMARK H PARENT 13 7 17 23 61 42 39 53
REMARK Flexibility Score: inf
ROOT
ATOM      1  C   UNL A   1      33.571  28.633  27.234  1.00  0.00     0.118 C 
ENDROOT
BRANCH   1   2
ATOM      2  C   UNL A   1      34.033  28.478  25.791  1.00  0.00     0.042 C 
BRANCH   2   3
ATOM      3  C   UNL A   1      32.919  27.984  24.874  1.00  0.00     0.118 C 
BRANCH   3   4
ATOM      4  N   UNL A   1      33.372  26.946  23.972  1.00  0.00    -0.353 N 
ATOM      5  C   UNL A   1      33.702  25.642  24.154  1.00  0.00     0.261 C 
ATOM      6  O   UNL A   1      34.000  25.019  23.126  1.00  0.00    -0.271 OA
ATOM      7  H   UNL A   1      33.456  27.246  23.038  1.00  0.00     0.163 HD
BRANCH   5   8
ATOM      8  C   UNL A   1      33.802  24.931  25.531  1.00  0.00     0.269 C 
ATOM      9  C   UNL A   1      37.852  20.466  24.799  1.00  0.00     0.045 C 
ATOM     10  C   UNL A   1      36.521  21.070  25.162  1.00  0.00    -0.044 A 
ATOM     11  C   UNL A   1      35.380  20.262  25.027  1.00  0.00     0.005 A 
ATOM     12  C   UNL A   1      36.380  22.399  25.616  1.00  0.00    -0.005 A 
ATOM     13  C   UNL A   1      34.107  20.778  25.259  1.00  0.00     0.016 A 
ATOM     14  C   UNL A   1      35.082  22.939  25.740  1.00  0.00     0.134 A 
ATOM     15  C   UNL A   1      37.570  23.294  25.854  1.00  0.00     0.049 C 
ATOM     16  C   UNL A   1      33.962  22.129  25.576  1.00  0.00     0.060 A 
ATOM     17  O   UNL A   1      35.007  24.292  25.910  1.00  0.00    -0.479 OA
ATOM     18  C   UNL A   1      32.619  22.725  25.631  1.00  0.00     0.170 C 
ATOM     19  C   UNL A   1      32.523  24.194  25.897  1.00  0.00     0.136 C 
ATOM     20  O   UNL A   1      31.619  22.029  25.481  1.00  0.00    -0.294 OA
ENDBRANCH   5   8
ENDBRANCH   3   4
ENDBRANCH   2   3
ENDBRANCH   1   2
BRANCH   1  21
ATOM     21  N   UNL A   1      33.585  30.031  27.659  1.00  0.00    -0.352 N 
ATOM     22  C   UNL A   1      34.555  30.742  28.321  1.00  0.00     0.251 C 
ATOM     23  H   UNL A   1      32.775  30.542  27.434  1.00  0.00     0.163 HD
ATOM     24  O   UNL A   1      34.293  31.847  28.788  1.00  0.00    -0.269 OA
BRANCH  22  25
ATOM     25  C   UNL A   1      35.909  30.174  28.489  1.00  0.00     0.039 A 
ATOM     26  C   UNL A   1      36.821  30.267  27.434  1.00  0.00     0.014 A 
ATOM     27  C   UNL A   1      36.271  29.535  29.678  1.00  0.00     0.014 A 
ATOM     28  C   UNL A   1      38.119  29.781  27.599  1.00  0.00     0.010 A 
ATOM     29  C   UNL A   1      37.585  29.123  29.869  1.00  0.00     0.010 A 
ATOM     30  C   UNL A   1      38.518  29.236  28.829  1.00  0.00    -0.014 A 
BRANCH  30  31
ATOM     31  C   UNL A   1      39.902  28.751  29.043  1.00  0.00     0.031 A 
ATOM     32  C   UNL A   1      40.919  29.653  29.680  1.00  0.00     0.074 A 
ATOM     33  C   UNL A   1      40.251  27.521  28.621  1.00  0.00     0.049 A 
ATOM     34  N   UNL A   1      42.187  29.427  29.912  1.00  0.00    -0.248 NA
ATOM     35  C   UNL A   1      40.462  30.992  30.092  1.00  0.00     0.031 C 
ATOM     36  C   UNL A   1      39.360  26.567  27.958  1.00  0.00     0.029 A 
ATOM     37  N   UNL A   1      41.453  26.861  28.691  1.00  0.00    -0.354 N 
ATOM     38  C   UNL A   1      42.676  30.593  30.485  1.00  0.00     0.074 A 
ATOM     39  C   UNL A   1      41.589  31.544  30.521  1.00  0.00     0.031 C 
ATOM     40  C   UNL A   1      40.035  25.432  27.717  1.00  0.00     0.029 A 
ATOM     41  C   UNL A   1      41.412  25.588  28.178  1.00  0.00     0.049 A 
ATOM     42  H   UNL A   1      42.266  27.263  29.072  1.00  0.00     0.167 HD
ATOM     43  C   UNL A   1      43.916  30.840  30.964  1.00  0.00     0.031 A 
ATOM     44  C   UNL A   1      42.373  24.648  28.093  1.00  0.00     0.031 A 
ATOM     45  C   UNL A   1      44.988  29.887  30.955  1.00  0.00     0.049 A 
ATOM     46  C   UNL A   1      43.746  24.949  28.624  1.00  0.00     0.074 A 
ATOM     47  C   UNL A   1      46.265  30.028  31.467  1.00  0.00     0.029 A 
ATOM     48  N   UNL A   1      44.904  28.613  30.417  1.00  0.00    -0.354 N 
ATOM     49  N   UNL A   1      44.180  26.043  29.199  1.00  0.00    -0.248 NA
ATOM     50  C   UNL A   1      44.758  23.889  28.499  1.00  0.00     0.031 C 
ATOM     51  C   UNL A   1      46.967  28.850  31.209  1.00  0.00     0.029 A 
ATOM     52  C   UNL A   1      46.114  27.962  30.573  1.00  0.00     0.049 A 
ATOM     53  H   UNL A   1      44.105  28.229  29.989  1.00  0.00     0.167 HD
ATOM     54  C   UNL A   1      45.507  25.798  29.524  1.00  0.00     0.074 A 
ATOM     55  C   UNL A   1      45.809  24.452  29.085  1.00  0.00     0.031 C 
ATOM     56  C   UNL A   1      46.393  26.619  30.137  1.00  0.00     0.031 A 
BRANCH  43  57
ATOM     57  C   UNL A   1      44.177  32.189  31.565  1.00  0.00    -0.014 A 
ATOM     58  C   UNL A   1      44.033  32.397  32.945  1.00  0.00     0.009 A 
ATOM     59  C   UNL A   1      44.649  33.238  30.761  1.00  0.00     0.009 A 
ATOM     60  C   UNL A   1      44.342  33.636  33.508  1.00  0.00     0.001 A 
ATOM     61  C   UNL A   1      44.977  34.469  31.330  1.00  0.00     0.001 A 
ATOM     62  C   UNL A   1      44.820  34.668  32.702  1.00  0.00     0.000 A 
ENDBRANCH  43  57
BRANCH  44  63
ATOM     63  C   UNL A   1      42.042  23.319  27.523  1.00  0.00    -0.014 A 
ATOM     64  C   UNL A   1      42.327  23.041  26.178  1.00  0.00     0.009 A 
ATOM     65  C   UNL A   1      41.500  22.305  28.328  1.00  0.00     0.009 A 
ATOM     66  C   UNL A   1      42.074  21.772  25.649  1.00  0.00     0.001 A 
ATOM     67  C   UNL A   1      41.265  21.034  27.802  1.00  0.00     0.001 A 
ATOM     68  C   UNL A   1      41.549  20.768  26.463  1.00  0.00     0.000 A 
ENDBRANCH  44  63
BRANCH  56  69
ATOM     69  C   UNL A   1      47.775  26.102  30.398  1.00  0.00    -0.014 A 
ATOM     70  C   UNL A   1      48.771  26.197  29.416  1.00  0.00     0.009 A 
ATOM     71  C   UNL A   1      48.119  25.664  31.687  1.00  0.00     0.009 A 
ATOM     72  C   UNL A   1      50.092  25.867  29.724  1.00  0.00     0.001 A 
ATOM     73  C   UNL A   1      49.443  25.353  31.995  1.00  0.00     0.001 A 
ATOM     74  C   UNL A   1      50.428  25.457  31.014  1.00  0.00     0.000 A 
ENDBRANCH  56  69
ENDBRANCH  30  31
ENDBRANCH  22  25
ENDBRANCH   1  21
TORSDOF 10
ENDMDL
MODEL 2
REMARK VINA RESULT:     -11.0      0.187      6.108
REMARK SMILES Cc1ccc2c(c1C)O[C@@H](C(=O)NCCCNC(=O)c1ccc(-c3c4nc(c(-c5ccccc5)c5ccc([nH]5)c(-c5ccccc5)c5nc(c(-c6ccccc6)c6ccc3[nH]6)C=C5)C=C4)cc1)CC2=O
REMARK SMILES IDX 16 1 15 2 14 3 13 4 11 5 12 6 10 8 1 9 2 10 3 11 7 12 4 13
REMARK SMILES IDX 6 14 8 15 5 16 9 17 69 18 68 19 70 20 17 21 18 22 19 24
REMARK SMILES IDX 20 25 21 26 67 27 22 28 66 29 23 30 24 31 25 32 60 33 26 34
REMARK SMILES IDX 65 35 59 36 61 37 27 38 64 39 58 40 57 41 28 43 50 44 35 45
REMARK SMILES IDX 49 46 36 47 39 48 48 49 62 50 37 51 38 52 47 54 63 55 40 56
REMARK SMILES IDX 29 57 30 58 34 59 31 60 33 61 32 62 51 63 52 64 56 65 53 66
REMARK SMILES IDX 55 67 54 68 41 69 42 70 46 71 43 72 45 73 44 74
REMARK H PARENT 13 7 17 23 61 42 39 53
REMARK Flexibility Score: inf
ROOT
ATOM      1  C   UNL A   1      33.657  28.624  27.255  1.00  0.00     0.118 C 
ENDROOT
BRANCH   1   2
ATOM      2  C   UNL A   1      34.122  28.464  25.813  1.00  0.00     0.042 C 
BRANCH   2   3
ATOM      3  C   UNL A   1      33.013  27.957  24.898  1.00  0.00     0.118 C 
BRANCH   3   4
ATOM      4  N   UNL A   1      33.476  26.923  23.995  1.00  0.00    -0.353 N 
ATOM      5  C   UNL A   1      33.821  25.623  24.179  1.00  0.00     0.261 C 
ATOM      6  O   UNL A   1      34.125  25.003  23.151  1.00  0.00    -0.271 OA
ATOM      7  H   UNL A   1      33.557  27.223  23.062  1.00  0.00     0.163 HD
BRANCH   5   8
ATOM      8  C   UNL A   1      33.929  24.914  25.556  1.00  0.00     0.269 C 
ATOM      9  C   UNL A   1      37.908  20.392  24.783  1.00  0.00     0.045 C 
ATOM     10  C   UNL A   1      36.591  21.015  25.161  1.00  0.00    -0.044 A 
ATOM     11  C   UNL A   1      35.437  20.223  25.044  1.00  0.00     0.005 A 
ATOM     12  C   UNL A   1      36.474  22.348  25.613  1.00  0.00    -0.005 A 
ATOM     13  C   UNL A   1      34.175  20.757  25.291  1.00  0.00     0.016 A 
ATOM     14  C   UNL A   1      35.185  22.906  25.754  1.00  0.00     0.134 A 
ATOM     15  C   UNL A   1      37.679  23.227  25.833  1.00  0.00     0.049 C 
ATOM     16  C   UNL A   1      34.052  22.110  25.607  1.00  0.00     0.060 A 
ATOM     17  O   UNL A   1      35.131  24.260  25.921  1.00  0.00    -0.479 OA
ATOM     18  C   UNL A   1      32.718  22.726  25.678  1.00  0.00     0.170 C 
ATOM     19  C   UNL A   1      32.646  24.195  25.941  1.00  0.00     0.136 C 
ATOM     20  O   UNL A   1      31.706  22.042  25.543  1.00  0.00    -0.294 OA
ENDBRANCH   5   8
ENDBRANCH   3   4
ENDBRANCH   2   3
ENDBRANCH   1   2
BRANCH   1  21
ATOM     21  N   UNL A   1      33.645  30.026  27.666  1.00  0.00    -0.352 N 
ATOM     22  C   UNL A   1      34.600  30.758  28.329  1.00  0.00     0.251 C 
ATOM     23  H   UNL A   1      32.829  30.522  27.432  1.00  0.00     0.163 HD
ATOM     24  O   UNL A   1      34.317  31.864  28.784  1.00  0.00    -0.269 OA
BRANCH  22  25
ATOM     25  C   UNL A   1      35.961  30.215  28.510  1.00  0.00     0.039 A 
ATOM     26  C   UNL A   1      36.872  30.293  27.453  1.00  0.00     0.014 A 
ATOM     27  C   UNL A   1      36.332  29.611  29.715  1.00  0.00     0.014 A 
ATOM     28  C   UNL A   1      38.177  29.830  27.630  1.00  0.00     0.010 A 
ATOM     29  C   UNL A   1      37.652  29.222  29.917  1.00  0.00     0.010 A 
ATOM     30  C   UNL A   1      38.583  29.322  28.874  1.00  0.00    -0.014 A 
BRANCH  30  31
ATOM     31  C   UNL A   1      39.974  28.862  29.099  1.00  0.00     0.031 A 
ATOM     32  C   UNL A   1      40.378  27.475  28.689  1.00  0.00     0.074 A 
ATOM     33  C   UNL A   1      40.855  29.674  29.713  1.00  0.00     0.049 A 
ATOM     34  N   UNL A   1      41.532  26.877  28.840  1.00  0.00    -0.248 NA
ATOM     35  C   UNL A   1      39.348  26.641  28.044  1.00  0.00     0.031 C 
ATOM     36  C   UNL A   1      40.570  31.029  30.188  1.00  0.00     0.029 A 
ATOM     37  N   UNL A   1      42.173  29.477  30.042  1.00  0.00    -0.354 N 
ATOM     38  C   UNL A   1      41.362  25.601  28.320  1.00  0.00     0.074 A 
ATOM     39  C   UNL A   1      39.986  25.488  27.896  1.00  0.00     0.031 C 
ATOM     40  C   UNL A   1      41.689  31.555  30.711  1.00  0.00     0.029 A 
ATOM     41  C   UNL A   1      42.760  30.565  30.639  1.00  0.00     0.049 A 
ATOM     42  H   UNL A   1      42.651  28.635  29.866  1.00  0.00     0.167 HD
ATOM     43  C   UNL A   1      42.281  24.619  28.184  1.00  0.00     0.031 A 
ATOM     44  C   UNL A   1      44.021  30.749  31.073  1.00  0.00     0.031 A 
ATOM     45  C   UNL A   1      43.656  24.739  28.579  1.00  0.00     0.049 A 
ATOM     46  C   UNL A   1      45.022  29.640  30.920  1.00  0.00     0.074 A 
ATOM     47  C   UNL A   1      44.674  23.816  28.431  1.00  0.00     0.029 A 
ATOM     48  N   UNL A   1      44.204  25.856  29.188  1.00  0.00    -0.354 N 
ATOM     49  N   UNL A   1      44.856  28.454  30.390  1.00  0.00    -0.248 NA
ATOM     50  C   UNL A   1      46.382  29.893  31.419  1.00  0.00     0.031 C 
ATOM     51  C   UNL A   1      45.835  24.361  28.983  1.00  0.00     0.029 A 
ATOM     52  C   UNL A   1      45.546  25.639  29.436  1.00  0.00     0.049 A 
ATOM     53  H   UNL A   1      43.712  26.680  29.411  1.00  0.00     0.167 HD
ATOM     54  C   UNL A   1      46.091  27.826  30.470  1.00  0.00     0.074 A 
ATOM     55  C   UNL A   1      47.000  28.762  31.098  1.00  0.00     0.031 C 
ATOM     56  C   UNL A   1      46.437  26.584  30.054  1.00  0.00     0.031 A 
BRANCH  43  57
ATOM     57  C   UNL A   1      41.839  23.330  27.557  1.00  0.00    -0.014 A 
ATOM     58  C   UNL A   1      42.057  23.087  26.193  1.00  0.00     0.009 A 
ATOM     59  C   UNL A   1      41.275  22.319  28.351  1.00  0.00     0.009 A 
ATOM     60  C   UNL A   1      41.703  21.860  25.630  1.00  0.00     0.001 A 
ATOM     61  C   UNL A   1      40.942  21.085  27.789  1.00  0.00     0.001 A 
ATOM     62  C   UNL A   1      41.154  20.859  26.429  1.00  0.00     0.000 A 
ENDBRANCH  43  57
BRANCH  44  63
ATOM     63  C   UNL A   1      44.408  32.061  31.650  1.00  0.00    -0.014 A 
ATOM     64  C   UNL A   1      44.869  33.088  30.814  1.00  0.00     0.009 A 
ATOM     65  C   UNL A   1      44.261  32.315  33.022  1.00  0.00     0.009 A 
ATOM     66  C   UNL A   1      45.178  34.345  31.340  1.00  0.00     0.001 A 
ATOM     67  C   UNL A   1      44.554  33.577  33.543  1.00  0.00     0.001 A 
ATOM     68  C   UNL A   1      45.014  34.590  32.703  1.00  0.00     0.000 A 
ENDBRANCH  44  63
BRANCH  56  69
ATOM     69  C   UNL A   1      47.859  26.147  30.237  1.00  0.00    -0.014 A 
ATOM     70  C   UNL A   1      48.807  26.353  29.225  1.00  0.00     0.009 A 
ATOM     71  C   UNL A   1      48.282  25.672  31.489  1.00  0.00     0.009 A 
ATOM     72  C   UNL A   1      50.157  26.096  29.467  1.00  0.00     0.001 A 
ATOM     73  C   UNL A   1      49.634  25.434  31.732  1.00  0.00     0.001 A 
ATOM     74  C   UNL A   1      50.570  25.648  30.721  1.00  0.00     0.000 A 
ENDBRANCH  56  69
ENDBRANCH  30  31
ENDBRANCH  22  25
ENDBRANCH   1  21
TORSDOF 10
ENDMDL
MODEL 3
REMARK VINA RESULT:     -10.9      2.146      7.403
REMARK SMILES Cc1ccc2c(c1C)O[C@@H](C(=O)NCCCNC(=O)c1ccc(-c3c4nc(c(-c5ccccc5)c5ccc([nH]5)c(-c5ccccc5)c5nc(c(-c6ccccc6)c6ccc3[nH]6)C=C5)C=C4)cc1)CC2=O
REMARK SMILES IDX 16 1 15 2 14 3 13 4 11 5 12 6 10 8 1 9 2 10 3 11 7 12 4 13
REMARK SMILES IDX 6 14 8 15 5 16 9 17 69 18 68 19 70 20 17 21 18 22 19 24
REMARK SMILES IDX 20 25 21 26 67 27 22 28 66 29 23 30 24 31 25 32 60 33 26 34
REMARK SMILES IDX 65 35 59 36 61 37 27 38 64 39 58 40 57 41 28 43 50 44 35 45
REMARK SMILES IDX 49 46 36 47 39 48 48 49 62 50 37 51 38 52 47 54 63 55 40 56
REMARK SMILES IDX 29 57 30 58 34 59 31 60 33 61 32 62 51 63 52 64 56 65 53 66
REMARK SMILES IDX 55 67 54 68 41 69 42 70 46 71 43 72 45 73 44 74
REMARK H PARENT 13 7 17 23 61 42 39 53
REMARK Flexibility Score: inf
ROOT
ATOM      1  C   UNL A   1      38.968  20.095  25.751  1.00  0.00     0.118 C 
ENDROOT
BRANCH   1   2
ATOM      2  C   UNL A   1      37.805  19.458  25.001  1.00  0.00     0.042 C 
BRANCH   2   3
ATOM      3  C   UNL A   1      36.561  20.341  25.001  1.00  0.00     0.118 C 
BRANCH   3   4
ATOM      4  N   UNL A   1      36.877  21.733  25.242  1.00  0.00    -0.353 N 
ATOM      5  C   UNL A   1      36.161  22.768  25.751  1.00  0.00     0.261 C 
ATOM      6  O   UNL A   1      36.778  23.835  25.869  1.00  0.00    -0.271 OA
ATOM      7  H   UNL A   1      37.794  21.979  24.986  1.00  0.00     0.163 HD
BRANCH   5   8
ATOM      8  C   UNL A   1      34.650  22.719  26.108  1.00  0.00     0.269 C 
ATOM      9  C   UNL A   1      32.240  18.452  22.521  1.00  0.00     0.045 C 
ATOM     10  C   UNL A   1      32.379  19.825  23.123  1.00  0.00    -0.044 A 
ATOM     11  C   UNL A   1      31.977  20.922  22.344  1.00  0.00     0.005 A 
ATOM     12  C   UNL A   1      32.899  20.047  24.416  1.00  0.00    -0.005 A 
ATOM     13  C   UNL A   1      32.157  22.226  22.798  1.00  0.00     0.016 A 
ATOM     14  C   UNL A   1      33.177  21.372  24.818  1.00  0.00     0.134 A 
ATOM     15  C   UNL A   1      33.278  18.911  25.333  1.00  0.00     0.049 C 
ATOM     16  C   UNL A   1      32.795  22.446  24.019  1.00  0.00     0.060 A 
ATOM     17  O   UNL A   1      33.927  21.512  25.951  1.00  0.00    -0.479 OA
ATOM     18  C   UNL A   1      33.163  23.813  24.415  1.00  0.00     0.170 C 
ATOM     19  C   UNL A   1      33.915  23.984  25.696  1.00  0.00     0.136 C 
ATOM     20  O   UNL A   1      32.842  24.773  23.720  1.00  0.00    -0.294 OA
ENDBRANCH   5   8
ENDBRANCH   3   4
ENDBRANCH   2   3
ENDBRANCH   1   2
BRANCH   1  21
ATOM     21  N   UNL A   1      40.122  19.202  25.816  1.00  0.00    -0.352 N 
ATOM     22  C   UNL A   1      41.447  19.488  26.040  1.00  0.00     0.251 C 
ATOM     23  H   UNL A   1      39.920  18.249  25.680  1.00  0.00     0.163 HD
ATOM     24  O   UNL A   1      42.302  18.630  25.837  1.00  0.00    -0.269 OA
BRANCH  22  25
ATOM     25  C   UNL A   1      41.849  20.830  26.510  1.00  0.00     0.039 A 
ATOM     26  C   UNL A   1      42.248  21.787  25.574  1.00  0.00     0.014 A 
ATOM     27  C   UNL A   1      41.852  21.136  27.874  1.00  0.00     0.014 A 
ATOM     28  C   UNL A   1      42.580  23.074  26.000  1.00  0.00     0.010 A 
ATOM     29  C   UNL A   1      42.106  22.438  28.290  1.00  0.00     0.010 A 
ATOM     30  C   UNL A   1      42.480  23.415  27.358  1.00  0.00    -0.014 A 
BRANCH  30  31
ATOM     31  C   UNL A   1      42.787  24.786  27.831  1.00  0.00     0.031 A 
ATOM     32  C   UNL A   1      44.215  25.197  28.053  1.00  0.00     0.074 A 
ATOM     33  C   UNL A   1      41.783  25.640  28.105  1.00  0.00     0.049 A 
ATOM     34  N   UNL A   1      44.682  26.334  28.502  1.00  0.00    -0.248 NA
ATOM     35  C   UNL A   1      45.254  24.197  27.752  1.00  0.00     0.031 C 
ATOM     36  C   UNL A   1      40.356  25.343  27.961  1.00  0.00     0.029 A 
ATOM     37  N   UNL A   1      41.810  26.935  28.559  1.00  0.00    -0.354 N 
ATOM     38  C   UNL A   1      46.061  26.179  28.546  1.00  0.00     0.074 A 
ATOM     39  C   UNL A   1      46.357  24.829  28.128  1.00  0.00     0.031 C 
ATOM     40  C   UNL A   1      39.647  26.437  28.283  1.00  0.00     0.029 A 
ATOM     41  C   UNL A   1      40.564  27.499  28.686  1.00  0.00     0.049 A 
ATOM     42  H   UNL A   1      42.643  27.413  28.773  1.00  0.00     0.167 HD
ATOM     43  C   UNL A   1      47.000  27.094  28.879  1.00  0.00     0.031 A 
ATOM     44  C   UNL A   1      40.201  28.736  29.077  1.00  0.00     0.031 A 
ATOM     45  C   UNL A   1      46.709  28.445  29.265  1.00  0.00     0.049 A 
ATOM     46  C   UNL A   1      41.262  29.731  29.451  1.00  0.00     0.074 A 
ATOM     47  C   UNL A   1      47.598  29.460  29.569  1.00  0.00     0.029 A 
ATOM     48  N   UNL A   1      45.433  28.970  29.389  1.00  0.00    -0.354 N 
ATOM     49  N   UNL A   1      42.563  29.582  29.448  1.00  0.00    -0.248 NA
ATOM     50  C   UNL A   1      40.808  31.064  29.876  1.00  0.00     0.031 C 
ATOM     51  C   UNL A   1      46.859  30.593  29.911  1.00  0.00     0.029 A 
ATOM     52  C   UNL A   1      45.511  30.294  29.780  1.00  0.00     0.049 A 
ATOM     53  H   UNL A   1      44.597  28.476  29.225  1.00  0.00     0.167 HD
ATOM     54  C   UNL A   1      43.086  30.803  29.849  1.00  0.00     0.074 A 
ATOM     55  C   UNL A   1      41.962  31.686  30.086  1.00  0.00     0.031 C 
ATOM     56  C   UNL A   1      44.383  31.159  30.003  1.00  0.00     0.031 A 
BRANCH  43  57
ATOM     57  C   UNL A   1      48.438  26.674  28.814  1.00  0.00    -0.014 A 
ATOM     58  C   UNL A   1      49.049  26.043  29.909  1.00  0.00     0.009 A 
ATOM     59  C   UNL A   1      49.165  26.834  27.625  1.00  0.00     0.009 A 
ATOM     60  C   UNL A   1      50.367  25.596  29.820  1.00  0.00     0.001 A 
ATOM     61  C   UNL A   1      50.476  26.366  27.531  1.00  0.00     0.001 A 
ATOM     62  C   UNL A   1      51.077  25.750  28.630  1.00  0.00     0.000 A 
ENDBRANCH  43  57
BRANCH  44  63
ATOM     63  C   UNL A   1      38.764  29.104  29.082  1.00  0.00    -0.014 A 
ATOM     64  C   UNL A   1      38.000  28.937  30.246  1.00  0.00     0.009 A 
ATOM     65  C   UNL A   1      38.163  29.677  27.951  1.00  0.00     0.009 A 
ATOM     66  C   UNL A   1      36.661  29.337  30.278  1.00  0.00     0.001 A 
ATOM     67  C   UNL A   1      36.831  30.092  27.990  1.00  0.00     0.001 A 
ATOM     68  C   UNL A   1      36.080  29.920  29.152  1.00  0.00     0.000 A 
ENDBRANCH  44  63
BRANCH  56  69
ATOM     69  C   UNL A   1      44.688  32.563  30.429  1.00  0.00    -0.014 A 
ATOM     70  C   UNL A   1      44.915  32.867  31.779  1.00  0.00     0.009 A 
ATOM     71  C   UNL A   1      44.903  33.551  29.455  1.00  0.00     0.009 A 
ATOM     72  C   UNL A   1      45.360  34.138  32.145  1.00  0.00     0.001 A 
ATOM     73  C   UNL A   1      45.365  34.814  29.824  1.00  0.00     0.001 A 
ATOM     74  C   UNL A   1      45.595  35.106  31.168  1.00  0.00     0.000 A 
ENDBRANCH  56  69
ENDBRANCH  30  31
ENDBRANCH  22  25
ENDBRANCH   1  21
TORSDOF 10
ENDMDL
