MODEL 1
REMARK VINA RESULT:     -10.4      0.000      0.000
REMARK SMILES CC[C@H](C)[C@@H](C)NC(=O)c1ccncc1/C=C/C(=O)NCCCNC(=O)c1ccc(-c2c3nc(c(-c4ccccc4)c4ccc([nH]4)c(-c4ccccc4)c4nc(c(-c5ccccc5)c5ccc2[nH]5)C=C4)C=C3)cc1
REMARK SMILES IDX 18 1 19 2 20 3 17 5 16 6 15 7 10 8 11 9 12 10 14 11 13 12
REMARK SMILES IDX 8 13 7 14 9 16 5 17 6 18 3 19 4 20 2 21 1 22 21 23 22 24
REMARK SMILES IDX 23 25 24 26 25 27 26 29 27 30 28 31 74 32 29 33 73 34 30 35
REMARK SMILES IDX 31 36 32 37 67 38 33 39 72 40 66 41 68 42 34 43 71 44 65 45
REMARK SMILES IDX 64 46 35 48 57 49 42 50 56 51 43 52 46 53 55 54 69 55 44 56
REMARK SMILES IDX 45 57 54 59 70 60 47 61 36 62 37 63 41 64 38 65 40 66 39 67
REMARK SMILES IDX 58 68 59 69 63 70 60 71 62 72 61 73 48 74 49 75 53 76 50 77
REMARK SMILES IDX 52 78 51 79
REMARK H PARENT 20 4 7 15 24 28 68 47 46 58
REMARK Flexibility Score: inf
ROOT
ATOM      1  C   UNL A   1      37.212  23.116  25.721  1.00  0.00     0.244 C 
ATOM      2  O   UNL A   1      37.874  24.061  26.142  1.00  0.00    -0.270 OA
ATOM      3  N   UNL A   1      37.820  22.120  25.025  1.00  0.00    -0.352 N 
ATOM      4  H   UNL A   1      38.774  22.271  24.832  1.00  0.00     0.163 HD
ENDROOT
BRANCH   1   5
ATOM      5  C   UNL A   1      35.775  23.031  26.062  1.00  0.00     0.072 C 
ATOM      6  C   UNL A   1      34.786  23.579  25.340  1.00  0.00     0.016 C 
BRANCH   6   7
ATOM      7  C   UNL A   1      33.366  23.453  25.710  1.00  0.00     0.006 A 
ATOM      8  C   UNL A   1      32.311  23.622  24.799  1.00  0.00     0.050 A 
ATOM      9  C   UNL A   1      30.986  23.425  25.204  1.00  0.00     0.034 A 
ATOM     10  C   UNL A   1      30.744  23.150  26.535  1.00  0.00     0.112 A 
ATOM     11  C   UNL A   1      32.994  23.189  27.026  1.00  0.00     0.119 A 
ATOM     12  N   UNL A   1      31.718  23.044  27.458  1.00  0.00    -0.264 NA
BRANCH   8  13
ATOM     13  C   UNL A   1      32.566  23.930  23.375  1.00  0.00     0.252 C 
ATOM     14  N   UNL A   1      32.527  25.227  22.930  1.00  0.00    -0.349 N 
ATOM     15  H   UNL A   1      32.674  25.333  21.961  1.00  0.00     0.164 HD
ATOM     16  O   UNL A   1      32.828  23.025  22.587  1.00  0.00    -0.269 OA
BRANCH  14  17
ATOM     17  C   UNL A   1      32.303  26.483  23.657  1.00  0.00     0.082 C 
ATOM     18  C   UNL A   1      31.582  27.438  22.698  1.00  0.00     0.031 C 
BRANCH  17  19
ATOM     19  C   UNL A   1      33.650  27.060  24.177  1.00  0.00     0.008 C 
ATOM     20  C   UNL A   1      33.991  28.402  23.515  1.00  0.00     0.010 C 
BRANCH  19  21
ATOM     21  C   UNL A   1      33.694  27.146  25.726  1.00  0.00     0.002 C 
ATOM     22  C   UNL A   1      32.367  26.954  26.449  1.00  0.00     0.004 C 
ENDBRANCH  19  21
ENDBRANCH  17  19
ENDBRANCH  14  17
ENDBRANCH   8  13
ENDBRANCH   6   7
ENDBRANCH   1   5
BRANCH   3  23
ATOM     23  C   UNL A   1      37.284  20.866  24.524  1.00  0.00     0.118 C 
BRANCH  23  24
ATOM     24  C   UNL A   1      38.227  19.702  24.823  1.00  0.00     0.042 C 
BRANCH  24  25
ATOM     25  C   UNL A   1      39.180  19.980  25.984  1.00  0.00     0.118 C 
BRANCH  25  26
ATOM     26  N   UNL A   1      40.418  19.220  25.873  1.00  0.00    -0.352 N 
ATOM     27  C   UNL A   1      41.721  19.626  26.010  1.00  0.00     0.251 C 
ATOM     28  H   UNL A   1      40.302  18.265  25.668  1.00  0.00     0.163 HD
ATOM     29  O   UNL A   1      42.631  18.873  25.673  1.00  0.00    -0.269 OA
BRANCH  27  30
ATOM     30  C   UNL A   1      42.045  20.965  26.549  1.00  0.00     0.039 A 
ATOM     31  C   UNL A   1      42.385  21.983  25.654  1.00  0.00     0.014 A 
ATOM     32  C   UNL A   1      42.068  21.208  27.926  1.00  0.00     0.014 A 
ATOM     33  C   UNL A   1      42.700  23.256  26.135  1.00  0.00     0.010 A 
ATOM     34  C   UNL A   1      42.314  22.493  28.401  1.00  0.00     0.010 A 
ATOM     35  C   UNL A   1      42.639  23.528  27.511  1.00  0.00    -0.014 A 
BRANCH  35  36
ATOM     36  C   UNL A   1      42.917  24.889  28.036  1.00  0.00     0.031 A 
ATOM     37  C   UNL A   1      44.316  25.279  28.431  1.00  0.00     0.074 A 
ATOM     38  C   UNL A   1      41.901  25.756  28.209  1.00  0.00     0.049 A 
ATOM     39  N   UNL A   1      44.743  26.398  28.962  1.00  0.00    -0.248 NA
ATOM     40  C   UNL A   1      45.369  24.273  28.224  1.00  0.00     0.031 C 
ATOM     41  C   UNL A   1      40.496  25.489  27.895  1.00  0.00     0.029 A 
ATOM     42  N   UNL A   1      41.894  27.038  28.699  1.00  0.00    -0.354 N 
ATOM     43  C   UNL A   1      46.106  26.223  29.166  1.00  0.00     0.074 A 
ATOM     44  C   UNL A   1      46.426  24.876  28.747  1.00  0.00     0.031 C 
ATOM     45  C   UNL A   1      39.768  26.581  28.178  1.00  0.00     0.029 A 
ATOM     46  C   UNL A   1      40.645  27.608  28.729  1.00  0.00     0.049 A 
ATOM     47  H   UNL A   1      42.707  27.505  29.000  1.00  0.00     0.167 HD
ATOM     48  C   UNL A   1      47.014  27.109  29.641  1.00  0.00     0.031 A 
ATOM     49  C   UNL A   1      40.248  28.820  29.161  1.00  0.00     0.031 A 
ATOM     50  C   UNL A   1      46.696  28.450  30.052  1.00  0.00     0.049 A 
ATOM     51  C   UNL A   1      41.272  29.779  29.701  1.00  0.00     0.074 A 
ATOM     52  C   UNL A   1      47.552  29.439  30.505  1.00  0.00     0.029 A 
ATOM     53  N   UNL A   1      45.420  28.990  30.062  1.00  0.00    -0.354 N 
ATOM     54  N   UNL A   1      42.566  29.618  29.831  1.00  0.00    -0.248 NA
ATOM     55  C   UNL A   1      40.779  31.090  30.144  1.00  0.00     0.031 C 
ATOM     56  C   UNL A   1      46.787  30.563  30.834  1.00  0.00     0.029 A 
ATOM     57  C   UNL A   1      45.462  30.292  30.533  1.00  0.00     0.049 A 
ATOM     58  H   UNL A   1      44.605  28.519  29.777  1.00  0.00     0.167 HD
ATOM     59  C   UNL A   1      43.046  30.817  30.344  1.00  0.00     0.074 A 
ATOM     60  C   UNL A   1      41.906  31.699  30.485  1.00  0.00     0.031 C 
ATOM     61  C   UNL A   1      44.317  31.157  30.668  1.00  0.00     0.031 A 
BRANCH  48  62
ATOM     62  C   UNL A   1      48.441  26.647  29.745  1.00  0.00    -0.014 A 
ATOM     63  C   UNL A   1      49.359  26.879  28.708  1.00  0.00     0.009 A 
ATOM     64  C   UNL A   1      48.885  26.000  30.909  1.00  0.00     0.009 A 
ATOM     65  C   UNL A   1      50.679  26.438  28.817  1.00  0.00     0.001 A 
ATOM     66  C   UNL A   1      50.213  25.587  31.029  1.00  0.00     0.001 A 
ATOM     67  C   UNL A   1      51.107  25.797  29.979  1.00  0.00     0.000 A 
ENDBRANCH  48  62
BRANCH  49  68
ATOM     68  C   UNL A   1      38.814  29.203  29.089  1.00  0.00    -0.014 A 
ATOM     69  C   UNL A   1      37.971  29.019  30.196  1.00  0.00     0.009 A 
ATOM     70  C   UNL A   1      38.277  29.746  27.911  1.00  0.00     0.009 A 
ATOM     71  C   UNL A   1      36.615  29.343  30.116  1.00  0.00     0.001 A 
ATOM     72  C   UNL A   1      36.927  30.097  27.844  1.00  0.00     0.001 A 
ATOM     73  C   UNL A   1      36.096  29.886  28.941  1.00  0.00     0.000 A 
ENDBRANCH  49  68
BRANCH  61  74
ATOM     74  C   UNL A   1      44.546  32.553  31.172  1.00  0.00    -0.014 A 
ATOM     75  C   UNL A   1      44.829  33.610  30.293  1.00  0.00     0.009 A 
ATOM     76  C   UNL A   1      44.441  32.820  32.547  1.00  0.00     0.009 A 
ATOM     77  C   UNL A   1      45.037  34.900  30.786  1.00  0.00     0.001 A 
ATOM     78  C   UNL A   1      44.620  34.116  33.033  1.00  0.00     0.001 A 
ATOM     79  C   UNL A   1      44.928  35.152  32.152  1.00  0.00     0.000 A 
ENDBRANCH  61  74
ENDBRANCH  35  36
ENDBRANCH  27  30
ENDBRANCH  25  26
ENDBRANCH  24  25
ENDBRANCH  23  24
ENDBRANCH   3  23
TORSDOF 15
ENDMDL
MODEL 2
REMARK VINA RESULT:     -10.4      0.289      5.948
REMARK SMILES CC[C@H](C)[C@@H](C)NC(=O)c1ccncc1/C=C/C(=O)NCCCNC(=O)c1ccc(-c2c3nc(c(-c4ccccc4)c4ccc([nH]4)c(-c4ccccc4)c4nc(c(-c5ccccc5)c5ccc2[nH]5)C=C4)C=C3)cc1
REMARK SMILES IDX 18 1 19 2 20 3 17 5 16 6 15 7 10 8 11 9 12 10 14 11 13 12
REMARK SMILES IDX 8 13 7 14 9 16 5 17 6 18 3 19 4 20 2 21 1 22 21 23 22 24
REMARK SMILES IDX 23 25 24 26 25 27 26 29 27 30 28 31 74 32 29 33 73 34 30 35
REMARK SMILES IDX 31 36 32 37 67 38 33 39 72 40 66 41 68 42 34 43 71 44 65 45
REMARK SMILES IDX 64 46 35 48 57 49 42 50 56 51 43 52 46 53 55 54 69 55 44 56
REMARK SMILES IDX 45 57 54 59 70 60 47 61 36 62 37 63 41 64 38 65 40 66 39 67
REMARK SMILES IDX 58 68 59 69 63 70 60 71 62 72 61 73 48 74 49 75 53 76 50 77
REMARK SMILES IDX 52 78 51 79
REMARK H PARENT 20 4 7 15 24 28 68 47 46 58
REMARK Flexibility Score: inf
ROOT
ATOM      1  C   UNL A   1      37.095  23.180  25.724  1.00  0.00     0.244 C 
ATOM      2  O   UNL A   1      37.757  24.119  26.158  1.00  0.00    -0.270 OA
ATOM      3  N   UNL A   1      37.707  22.182  25.034  1.00  0.00    -0.352 N 
ATOM      4  H   UNL A   1      38.665  22.328  24.855  1.00  0.00     0.163 HD
ENDROOT
BRANCH   1   5
ATOM      5  C   UNL A   1      35.653  23.102  26.044  1.00  0.00     0.072 C 
ATOM      6  C   UNL A   1      34.701  23.847  25.460  1.00  0.00     0.016 C 
BRANCH   6   7
ATOM      7  C   UNL A   1      33.273  23.723  25.799  1.00  0.00     0.006 A 
ATOM      8  C   UNL A   1      32.239  23.886  24.863  1.00  0.00     0.050 A 
ATOM      9  C   UNL A   1      30.905  23.692  25.239  1.00  0.00     0.034 A 
ATOM     10  C   UNL A   1      30.634  23.425  26.566  1.00  0.00     0.112 A 
ATOM     11  C   UNL A   1      32.872  23.468  27.108  1.00  0.00     0.119 A 
ATOM     12  N   UNL A   1      31.587  23.326  27.511  1.00  0.00    -0.264 NA
BRANCH   8  13
ATOM     13  C   UNL A   1      32.527  24.185  23.443  1.00  0.00     0.252 C 
ATOM     14  N   UNL A   1      32.519  25.480  22.993  1.00  0.00    -0.349 N 
ATOM     15  H   UNL A   1      32.686  25.581  22.027  1.00  0.00     0.164 HD
ATOM     16  O   UNL A   1      32.787  23.273  22.662  1.00  0.00    -0.269 OA
BRANCH  14  17
ATOM     17  C   UNL A   1      32.304  26.743  23.712  1.00  0.00     0.082 C 
ATOM     18  C   UNL A   1      31.572  27.690  22.754  1.00  0.00     0.031 C 
BRANCH  17  19
ATOM     19  C   UNL A   1      33.657  27.324  24.212  1.00  0.00     0.008 C 
ATOM     20  C   UNL A   1      34.086  28.553  23.399  1.00  0.00     0.010 C 
BRANCH  19  21
ATOM     21  C   UNL A   1      33.649  27.607  25.737  1.00  0.00     0.002 C 
ATOM     22  C   UNL A   1      32.388  27.201  26.490  1.00  0.00     0.004 C 
ENDBRANCH  19  21
ENDBRANCH  17  19
ENDBRANCH  14  17
ENDBRANCH   8  13
ENDBRANCH   6   7
ENDBRANCH   1   5
BRANCH   3  23
ATOM     23  C   UNL A   1      37.171  20.933  24.520  1.00  0.00     0.118 C 
BRANCH  23  24
ATOM     24  C   UNL A   1      38.119  19.768  24.798  1.00  0.00     0.042 C 
BRANCH  24  25
ATOM     25  C   UNL A   1      39.049  20.016  25.983  1.00  0.00     0.118 C 
BRANCH  25  26
ATOM     26  N   UNL A   1      40.290  19.260  25.876  1.00  0.00    -0.352 N 
ATOM     27  C   UNL A   1      41.592  19.672  26.008  1.00  0.00     0.251 C 
ATOM     28  H   UNL A   1      40.177  18.303  25.676  1.00  0.00     0.163 HD
ATOM     29  O   UNL A   1      42.504  18.920  25.675  1.00  0.00    -0.269 OA
BRANCH  27  30
ATOM     30  C   UNL A   1      41.911  21.015  26.539  1.00  0.00     0.039 A 
ATOM     31  C   UNL A   1      41.885  21.211  27.923  1.00  0.00     0.014 A 
ATOM     32  C   UNL A   1      42.182  22.089  25.686  1.00  0.00     0.014 A 
ATOM     33  C   UNL A   1      42.177  22.470  28.453  1.00  0.00     0.010 A 
ATOM     34  C   UNL A   1      42.541  23.325  26.217  1.00  0.00     0.010 A 
ATOM     35  C   UNL A   1      42.536  23.530  27.605  1.00  0.00    -0.014 A 
BRANCH  35  36
ATOM     36  C   UNL A   1      42.903  24.860  28.154  1.00  0.00     0.031 A 
ATOM     37  C   UNL A   1      41.848  25.910  28.369  1.00  0.00     0.074 A 
ATOM     38  C   UNL A   1      44.196  25.141  28.407  1.00  0.00     0.049 A 
ATOM     39  N   UNL A   1      41.984  27.145  28.783  1.00  0.00    -0.248 NA
ATOM     40  C   UNL A   1      40.460  25.531  28.058  1.00  0.00     0.031 C 
ATOM     41  C   UNL A   1      45.318  24.220  28.211  1.00  0.00     0.029 A 
ATOM     42  N   UNL A   1      44.785  26.287  28.880  1.00  0.00    -0.354 N 
ATOM     43  C   UNL A   1      40.707  27.692  28.766  1.00  0.00     0.074 A 
ATOM     44  C   UNL A   1      39.817  26.671  28.255  1.00  0.00     0.031 C 
ATOM     45  C   UNL A   1      46.456  24.830  28.582  1.00  0.00     0.029 A 
ATOM     46  C   UNL A   1      46.150  26.193  29.003  1.00  0.00     0.049 A 
ATOM     47  H   UNL A   1      44.278  27.099  29.108  1.00  0.00     0.167 HD
ATOM     48  C   UNL A   1      40.306  28.926  29.156  1.00  0.00     0.031 A 
ATOM     49  C   UNL A   1      47.056  27.105  29.401  1.00  0.00     0.031 A 
ATOM     50  C   UNL A   1      41.190  29.938  29.668  1.00  0.00     0.049 A 
ATOM     51  C   UNL A   1      46.588  28.473  29.812  1.00  0.00     0.074 A 
ATOM     52  C   UNL A   1      40.874  31.204  30.133  1.00  0.00     0.029 A 
ATOM     53  N   UNL A   1      42.564  29.802  29.782  1.00  0.00    -0.354 N 
ATOM     54  N   UNL A   1      45.369  28.954  29.845  1.00  0.00    -0.248 NA
ATOM     55  C   UNL A   1      47.623  29.421  30.250  1.00  0.00     0.031 C 
ATOM     56  C   UNL A   1      42.065  31.850  30.483  1.00  0.00     0.029 A 
ATOM     57  C   UNL A   1      43.114  30.967  30.290  1.00  0.00     0.049 A 
ATOM     58  H   UNL A   1      43.074  28.996  29.538  1.00  0.00     0.167 HD
ATOM     59  C   UNL A   1      45.487  30.249  30.334  1.00  0.00     0.074 A 
ATOM     60  C   UNL A   1      46.894  30.471  30.598  1.00  0.00     0.031 C 
ATOM     61  C   UNL A   1      44.517  31.171  30.546  1.00  0.00     0.031 A 
BRANCH  48  62
ATOM     62  C   UNL A   1      38.842  29.248  29.036  1.00  0.00    -0.014 A 
ATOM     63  C   UNL A   1      38.291  29.688  27.822  1.00  0.00     0.009 A 
ATOM     64  C   UNL A   1      37.995  29.079  30.142  1.00  0.00     0.009 A 
ATOM     65  C   UNL A   1      36.931  29.990  27.729  1.00  0.00     0.001 A 
ATOM     66  C   UNL A   1      36.630  29.353  30.039  1.00  0.00     0.001 A 
ATOM     67  C   UNL A   1      36.100  29.818  28.836  1.00  0.00     0.000 A 
ENDBRANCH  48  62
BRANCH  49  68
ATOM     68  C   UNL A   1      48.499  26.752  29.444  1.00  0.00    -0.014 A 
ATOM     69  C   UNL A   1      49.058  26.177  30.596  1.00  0.00     0.009 A 
ATOM     70  C   UNL A   1      49.328  26.997  28.338  1.00  0.00     0.009 A 
ATOM     71  C   UNL A   1      50.421  25.881  30.651  1.00  0.00     0.001 A 
ATOM     72  C   UNL A   1      50.685  26.672  28.385  1.00  0.00     0.001 A 
ATOM     73  C   UNL A   1      51.232  26.124  29.543  1.00  0.00     0.000 A 
ENDBRANCH  49  68
BRANCH  61  74
ATOM     74  C   UNL A   1      44.941  32.492  31.125  1.00  0.00    -0.014 A 
ATOM     75  C   UNL A   1      45.285  33.574  30.301  1.00  0.00     0.009 A 
ATOM     76  C   UNL A   1      44.962  32.662  32.519  1.00  0.00     0.009 A 
ATOM     77  C   UNL A   1      45.674  34.791  30.863  1.00  0.00     0.001 A 
ATOM     78  C   UNL A   1      45.323  33.890  33.077  1.00  0.00     0.001 A 
ATOM     79  C   UNL A   1      45.689  34.949  32.248  1.00  0.00     0.000 A 
ENDBRANCH  61  74
ENDBRANCH  35  36
ENDBRANCH  27  30
ENDBRANCH  25  26
ENDBRANCH  24  25
ENDBRANCH  23  24
ENDBRANCH   3  23
TORSDOF 15
ENDMDL
MODEL 3
REMARK VINA RESULT:     -10.2      3.756      8.799
REMARK SMILES CC[C@H](C)[C@@H](C)NC(=O)c1ccncc1/C=C/C(=O)NCCCNC(=O)c1ccc(-c2c3nc(c(-c4ccccc4)c4ccc([nH]4)c(-c4ccccc4)c4nc(c(-c5ccccc5)c5ccc2[nH]5)C=C4)C=C3)cc1
REMARK SMILES IDX 18 1 19 2 20 3 17 5 16 6 15 7 10 8 11 9 12 10 14 11 13 12
REMARK SMILES IDX 8 13 7 14 9 16 5 17 6 18 3 19 4 20 2 21 1 22 21 23 22 24
REMARK SMILES IDX 23 25 24 26 25 27 26 29 27 30 28 31 74 32 29 33 73 34 30 35
REMARK SMILES IDX 31 36 32 37 67 38 33 39 72 40 66 41 68 42 34 43 71 44 65 45
REMARK SMILES IDX 64 46 35 48 57 49 42 50 56 51 43 52 46 53 55 54 69 55 44 56
REMARK SMILES IDX 45 57 54 59 70 60 47 61 36 62 37 63 41 64 38 65 40 66 39 67
REMARK SMILES IDX 58 68 59 69 63 70 60 71 62 72 61 73 48 74 49 75 53 76 50 77
REMARK SMILES IDX 52 78 51 79
REMARK H PARENT 20 4 7 15 24 28 68 47 46 58
REMARK Flexibility Score: inf
ROOT
ATOM      1  C   UNL A   1      33.857  29.113  26.901  1.00  0.00     0.244 C 
ATOM      2  O   UNL A   1      34.905  28.975  27.526  1.00  0.00    -0.270 OA
ATOM      3  N   UNL A   1      32.964  30.065  27.278  1.00  0.00    -0.352 N 
ATOM      4  H   UNL A   1      33.194  30.545  28.107  1.00  0.00     0.163 HD
ENDROOT
BRANCH   1   5
ATOM      5  C   UNL A   1      33.626  28.300  25.686  1.00  0.00     0.072 C 
ATOM      6  C   UNL A   1      33.142  27.049  25.686  1.00  0.00     0.016 C 
BRANCH   6   7
ATOM      7  C   UNL A   1      32.912  26.284  24.449  1.00  0.00     0.006 A 
ATOM      8  C   UNL A   1      31.634  25.995  23.944  1.00  0.00     0.050 A 
ATOM      9  C   UNL A   1      31.488  25.316  22.729  1.00  0.00     0.034 A 
ATOM     10  C   UNL A   1      32.628  24.866  22.092  1.00  0.00     0.112 A 
ATOM     11  C   UNL A   1      33.983  25.766  23.724  1.00  0.00     0.119 A 
ATOM     12  N   UNL A   1      33.870  25.062  22.572  1.00  0.00    -0.264 NA
BRANCH   8  13
ATOM     13  C   UNL A   1      30.411  26.463  24.631  1.00  0.00     0.252 C 
ATOM     14  N   UNL A   1      29.713  27.540  24.146  1.00  0.00    -0.349 N 
ATOM     15  H   UNL A   1      28.933  27.802  24.688  1.00  0.00     0.164 HD
ATOM     16  O   UNL A   1      30.006  25.881  25.634  1.00  0.00    -0.269 OA
BRANCH  14  17
ATOM     17  C   UNL A   1      29.936  28.367  22.952  1.00  0.00     0.082 C 
ATOM     18  C   UNL A   1      31.219  29.172  23.192  1.00  0.00     0.031 C 
BRANCH  17  19
ATOM     19  C   UNL A   1      28.702  29.273  22.678  1.00  0.00     0.008 C 
ATOM     20  C   UNL A   1      27.393  28.601  23.113  1.00  0.00     0.010 C 
BRANCH  19  21
ATOM     21  C   UNL A   1      28.863  30.689  23.291  1.00  0.00     0.002 C 
ATOM     22  C   UNL A   1      27.579  31.483  23.497  1.00  0.00     0.004 C 
ENDBRANCH  19  21
ENDBRANCH  17  19
ENDBRANCH  14  17
ENDBRANCH   8  13
ENDBRANCH   6   7
ENDBRANCH   1   5
BRANCH   3  23
ATOM     23  C   UNL A   1      31.724  30.488  26.649  1.00  0.00     0.118 C 
BRANCH  23  24
ATOM     24  C   UNL A   1      31.442  31.965  26.919  1.00  0.00     0.042 C 
BRANCH  24  25
ATOM     25  C   UNL A   1      32.704  32.823  26.959  1.00  0.00     0.118 C 
BRANCH  25  26
ATOM     26  N   UNL A   1      32.505  34.061  27.701  1.00  0.00    -0.352 N 
ATOM     27  C   UNL A   1      33.183  34.563  28.782  1.00  0.00     0.251 C 
ATOM     28  H   UNL A   1      31.768  34.625  27.376  1.00  0.00     0.163 HD
ATOM     29  O   UNL A   1      32.726  35.527  29.391  1.00  0.00    -0.269 OA
BRANCH  27  30
ATOM     30  C   UNL A   1      34.453  33.954  29.230  1.00  0.00     0.039 A 
ATOM     31  C   UNL A   1      34.434  33.104  30.341  1.00  0.00     0.014 A 
ATOM     32  C   UNL A   1      35.666  34.253  28.602  1.00  0.00     0.014 A 
ATOM     33  C   UNL A   1      35.619  32.518  30.790  1.00  0.00     0.010 A 
ATOM     34  C   UNL A   1      36.835  33.614  29.006  1.00  0.00     0.010 A 
ATOM     35  C   UNL A   1      36.825  32.746  30.108  1.00  0.00    -0.014 A 
BRANCH  35  36
ATOM     36  C   UNL A   1      38.085  32.088  30.537  1.00  0.00     0.031 A 
ATOM     37  C   UNL A   1      38.962  32.733  31.576  1.00  0.00     0.074 A 
ATOM     38  C   UNL A   1      38.467  30.937  29.953  1.00  0.00     0.049 A 
ATOM     39  N   UNL A   1      40.124  32.340  32.035  1.00  0.00    -0.248 NA
ATOM     40  C   UNL A   1      38.482  33.996  32.159  1.00  0.00     0.031 C 
ATOM     41  C   UNL A   1      37.721  30.227  28.910  1.00  0.00     0.029 A 
ATOM     42  N   UNL A   1      39.584  30.163  30.148  1.00  0.00    -0.354 N 
ATOM     43  C   UNL A   1      40.519  33.312  32.945  1.00  0.00     0.074 A 
ATOM     44  C   UNL A   1      39.497  34.337  32.938  1.00  0.00     0.031 C 
ATOM     45  C   UNL A   1      38.390  29.111  28.576  1.00  0.00     0.029 A 
ATOM     46  C   UNL A   1      39.626  29.047  29.348  1.00  0.00     0.049 A 
ATOM     47  H   UNL A   1      40.287  30.386  30.799  1.00  0.00     0.167 HD
ATOM     48  C   UNL A   1      41.622  33.343  33.730  1.00  0.00     0.031 A 
ATOM     49  C   UNL A   1      40.561  28.085  29.240  1.00  0.00     0.031 A 
ATOM     50  C   UNL A   1      42.635  32.321  33.741  1.00  0.00     0.049 A 
ATOM     51  C   UNL A   1      41.786  28.151  30.109  1.00  0.00     0.074 A 
ATOM     52  C   UNL A   1      43.768  32.238  34.532  1.00  0.00     0.029 A 
ATOM     53  N   UNL A   1      42.639  31.206  32.919  1.00  0.00    -0.354 N 
ATOM     54  N   UNL A   1      42.114  29.047  31.006  1.00  0.00    -0.248 NA
ATOM     55  C   UNL A   1      42.763  27.063  29.955  1.00  0.00     0.031 C 
ATOM     56  C   UNL A   1      44.481  31.095  34.155  1.00  0.00     0.029 A 
ATOM     57  C   UNL A   1      43.764  30.438  33.169  1.00  0.00     0.049 A 
ATOM     58  H   UNL A   1      41.944  30.990  32.256  1.00  0.00     0.167 HD
ATOM     59  C   UNL A   1      43.321  28.618  31.545  1.00  0.00     0.074 A 
ATOM     60  C   UNL A   1      43.657  27.374  30.884  1.00  0.00     0.031 C 
ATOM     61  C   UNL A   1      44.083  29.202  32.501  1.00  0.00     0.031 A 
BRANCH  48  62
ATOM     62  C   UNL A   1      41.791  34.528  34.640  1.00  0.00    -0.014 A 
ATOM     63  C   UNL A   1      42.462  35.685  34.212  1.00  0.00     0.009 A 
ATOM     64  C   UNL A   1      41.246  34.502  35.933  1.00  0.00     0.009 A 
ATOM     65  C   UNL A   1      42.618  36.773  35.072  1.00  0.00     0.001 A 
ATOM     66  C   UNL A   1      41.376  35.603  36.781  1.00  0.00     0.001 A 
ATOM     67  C   UNL A   1      42.071  36.734  36.354  1.00  0.00     0.000 A 
ENDBRANCH  48  62
BRANCH  49  68
ATOM     68  C   UNL A   1      40.371  26.966  28.280  1.00  0.00    -0.014 A 
ATOM     69  C   UNL A   1      39.664  25.814  28.659  1.00  0.00     0.009 A 
ATOM     70  C   UNL A   1      40.903  27.039  26.983  1.00  0.00     0.009 A 
ATOM     71  C   UNL A   1      39.519  24.748  27.770  1.00  0.00     0.001 A 
ATOM     72  C   UNL A   1      40.730  25.983  26.086  1.00  0.00     0.001 A 
ATOM     73  C   UNL A   1      40.048  24.835  26.483  1.00  0.00     0.000 A 
ENDBRANCH  49  68
BRANCH  61  74
ATOM     74  C   UNL A   1      45.335  28.482  32.915  1.00  0.00    -0.014 A 
ATOM     75  C   UNL A   1      46.564  28.732  32.286  1.00  0.00     0.009 A 
ATOM     76  C   UNL A   1      45.287  27.563  33.976  1.00  0.00     0.009 A 
ATOM     77  C   UNL A   1      47.714  28.051  32.689  1.00  0.00     0.001 A 
ATOM     78  C   UNL A   1      46.445  26.906  34.397  1.00  0.00     0.001 A 
ATOM     79  C   UNL A   1      47.654  27.143  33.746  1.00  0.00     0.000 A 
ENDBRANCH  61  74
ENDBRANCH  35  36
ENDBRANCH  27  30
ENDBRANCH  25  26
ENDBRANCH  24  25
ENDBRANCH  23  24
ENDBRANCH   3  23
TORSDOF 15
ENDMDL
