MODEL 1
REMARK VINA RESULT:     -11.3      0.000      0.000
REMARK SMILES CC[C@@](O)(C(=O)NCCCNC(=O)c1ccc(-c2c3nc(c(-c4ccccc4)c4ccc([nH]4)c(-c4ccccc4)c4nc(c(-c5ccccc5)c5ccc2[nH]5)C=C4)C=C3)cc1)[C@H]1CCc2ccc(OC)cc21
REMARK SMILES IDX 9 1 8 2 7 3 5 4 6 5 3 7 2 8 1 9 4 10 62 12 63 13 72 14 64 15
REMARK SMILES IDX 65 16 71 17 66 18 68 19 67 20 69 21 70 22 10 23 11 24 12 25
REMARK SMILES IDX 13 27 14 28 15 29 61 30 16 31 60 32 17 33 18 34 19 35 54 36
REMARK SMILES IDX 20 37 59 38 53 39 55 40 21 41 58 42 52 43 51 44 22 46 44 47
REMARK SMILES IDX 29 48 43 49 30 50 33 51 42 52 56 53 31 54 32 55 41 57 57 58
REMARK SMILES IDX 34 59 23 60 24 61 28 62 25 63 27 64 26 65 45 66 46 67 50 68
REMARK SMILES IDX 47 69 49 70 48 71 35 72 36 73 40 74 37 75 39 76 38 77
REMARK H PARENT 7 6 4 11 11 26 55 45 33 56
REMARK Flexibility Score: inf
ROOT
ATOM      1  C   UNL A   1      37.728  19.733  24.750  1.00  0.00     0.042 C 
ENDROOT
BRANCH   1   2
ATOM      2  C   UNL A   1      36.374  20.399  24.986  1.00  0.00     0.117 C 
BRANCH   2   3
ATOM      3  N   UNL A   1      36.382  21.733  24.425  1.00  0.00    -0.354 N 
ATOM      4  C   UNL A   1      35.266  22.437  24.073  1.00  0.00     0.252 C 
ATOM      5  O   UNL A   1      35.262  22.967  22.961  1.00  0.00    -0.272 OA
ATOM      6  H   UNL A   1      37.256  22.165  24.288  1.00  0.00     0.163 HD
BRANCH   4   7
ATOM      7  C   UNL A   1      34.102  22.582  25.101  1.00  0.00     0.149 C 
BRANCH   7   8
ATOM      8  C   UNL A   1      34.642  22.075  26.455  1.00  0.00     0.043 C 
ATOM      9  C   UNL A   1      33.667  22.162  27.621  1.00  0.00     0.007 C 
ENDBRANCH   7   8
BRANCH   7  10
ATOM     10  O   UNL A   1      33.729  23.964  25.281  1.00  0.00    -0.379 OA
ATOM     11  H   UNL A   1      34.526  24.517  25.283  1.00  0.00     0.212 HD
ENDBRANCH   7  10
BRANCH   7  12
ATOM     12  C   UNL A   1      32.834  21.870  24.512  1.00  0.00     0.061 C 
ATOM     13  C   UNL A   1      32.562  22.346  23.043  1.00  0.00     0.017 C 
ATOM     14  C   UNL A   1      32.808  20.372  24.353  1.00  0.00    -0.035 A 
ATOM     15  C   UNL A   1      31.935  21.183  22.275  1.00  0.00     0.036 C 
ATOM     16  C   UNL A   1      32.393  20.005  23.068  1.00  0.00    -0.044 A 
ATOM     17  C   UNL A   1      33.053  19.391  25.305  1.00  0.00     0.050 A 
ATOM     18  C   UNL A   1      32.354  18.676  22.676  1.00  0.00     0.008 A 
ATOM     19  C   UNL A   1      33.000  18.044  24.936  1.00  0.00     0.119 A 
ATOM     20  C   UNL A   1      32.689  17.697  23.613  1.00  0.00     0.047 A 
BRANCH  19  21
ATOM     21  O   UNL A   1      33.233  16.983  25.769  1.00  0.00    -0.497 OA
ATOM     22  C   UNL A   1      32.896  15.696  25.265  1.00  0.00     0.278 C 
ENDBRANCH  19  21
ENDBRANCH   7  12
ENDBRANCH   4   7
ENDBRANCH   2   3
ENDBRANCH   1   2
BRANCH   1  23
ATOM     23  C   UNL A   1      38.815  20.206  25.710  1.00  0.00     0.118 C 
BRANCH  23  24
ATOM     24  N   UNL A   1      39.941  19.285  25.760  1.00  0.00    -0.352 N 
ATOM     25  C   UNL A   1      41.256  19.542  26.049  1.00  0.00     0.251 C 
ATOM     26  H   UNL A   1      39.729  18.345  25.558  1.00  0.00     0.163 HD
ATOM     27  O   UNL A   1      42.115  18.698  25.822  1.00  0.00    -0.269 OA
BRANCH  25  28
ATOM     28  C   UNL A   1      41.632  20.849  26.620  1.00  0.00     0.039 A 
ATOM     29  C   UNL A   1      42.105  21.843  25.763  1.00  0.00     0.014 A 
ATOM     30  C   UNL A   1      41.527  21.087  27.994  1.00  0.00     0.014 A 
ATOM     31  C   UNL A   1      42.436  23.093  26.282  1.00  0.00     0.010 A 
ATOM     32  C   UNL A   1      41.779  22.359  28.497  1.00  0.00     0.010 A 
ATOM     33  C   UNL A   1      42.251  23.369  27.648  1.00  0.00    -0.014 A 
BRANCH  33  34
ATOM     34  C   UNL A   1      42.560  24.713  28.191  1.00  0.00     0.031 A 
ATOM     35  C   UNL A   1      43.968  25.073  28.577  1.00  0.00     0.074 A 
ATOM     36  C   UNL A   1      41.563  25.603  28.355  1.00  0.00     0.049 A 
ATOM     37  N   UNL A   1      44.433  26.212  29.026  1.00  0.00    -0.248 NA
ATOM     38  C   UNL A   1      44.983  24.012  28.466  1.00  0.00     0.031 C 
ATOM     39  C   UNL A   1      40.148  25.352  28.070  1.00  0.00     0.029 A 
ATOM     40  N   UNL A   1      41.589  26.902  28.791  1.00  0.00    -0.354 N 
ATOM     41  C   UNL A   1      45.786  26.002  29.254  1.00  0.00     0.074 A 
ATOM     42  C   UNL A   1      46.058  24.614  28.954  1.00  0.00     0.031 C 
ATOM     43  C   UNL A   1      39.450  26.476  28.296  1.00  0.00     0.029 A 
ATOM     44  C   UNL A   1      40.359  27.512  28.773  1.00  0.00     0.049 A 
ATOM     45  H   UNL A   1      42.411  27.355  29.090  1.00  0.00     0.167 HD
ATOM     46  C   UNL A   1      46.727  26.891  29.653  1.00  0.00     0.031 A 
ATOM     47  C   UNL A   1      40.004  28.770  29.095  1.00  0.00     0.031 A 
ATOM     48  C   UNL A   1      46.455  28.272  29.953  1.00  0.00     0.049 A 
ATOM     49  C   UNL A   1      41.065  29.737  29.535  1.00  0.00     0.074 A 
ATOM     50  C   UNL A   1      47.346  29.267  30.319  1.00  0.00     0.029 A 
ATOM     51  N   UNL A   1      45.196  28.852  29.923  1.00  0.00    -0.354 N 
ATOM     52  N   UNL A   1      42.356  29.546  29.669  1.00  0.00    -0.248 NA
ATOM     53  C   UNL A   1      40.622  31.102  29.851  1.00  0.00     0.031 C 
ATOM     54  C   UNL A   1      46.615  30.437  30.561  1.00  0.00     0.029 A 
ATOM     55  C   UNL A   1      45.281  30.185  30.287  1.00  0.00     0.049 A 
ATOM     56  H   UNL A   1      44.364  28.383  29.681  1.00  0.00     0.167 HD
ATOM     57  C   UNL A   1      42.881  30.769  30.062  1.00  0.00     0.074 A 
ATOM     58  C   UNL A   1      41.773  31.700  30.120  1.00  0.00     0.031 C 
ATOM     59  C   UNL A   1      44.166  31.093  30.351  1.00  0.00     0.031 A 
BRANCH  46  60
ATOM     60  C   UNL A   1      48.138  26.389  29.791  1.00  0.00    -0.014 A 
ATOM     61  C   UNL A   1      49.042  26.460  28.717  1.00  0.00     0.009 A 
ATOM     62  C   UNL A   1      48.580  25.865  31.015  1.00  0.00     0.009 A 
ATOM     63  C   UNL A   1      50.347  25.980  28.856  1.00  0.00     0.001 A 
ATOM     64  C   UNL A   1      49.894  25.414  31.159  1.00  0.00     0.001 A 
ATOM     65  C   UNL A   1      50.772  25.463  30.079  1.00  0.00     0.000 A 
ENDBRANCH  46  60
BRANCH  47  66
ATOM     66  C   UNL A   1      38.583  29.193  28.986  1.00  0.00    -0.014 A 
ATOM     67  C   UNL A   1      37.724  29.099  30.091  1.00  0.00     0.009 A 
ATOM     68  C   UNL A   1      38.080  29.690  27.774  1.00  0.00     0.009 A 
ATOM     69  C   UNL A   1      36.381  29.467  29.976  1.00  0.00     0.001 A 
ATOM     70  C   UNL A   1      36.744  30.087  27.671  1.00  0.00     0.001 A 
ATOM     71  C   UNL A   1      35.894  29.964  28.769  1.00  0.00     0.000 A 
ENDBRANCH  47  66
BRANCH  59  72
ATOM     72  C   UNL A   1      44.437  32.522  30.732  1.00  0.00    -0.014 A 
ATOM     73  C   UNL A   1      44.725  33.494  29.761  1.00  0.00     0.009 A 
ATOM     74  C   UNL A   1      44.387  32.902  32.082  1.00  0.00     0.009 A 
ATOM     75  C   UNL A   1      45.000  34.809  30.140  1.00  0.00     0.001 A 
ATOM     76  C   UNL A   1      44.630  34.225  32.454  1.00  0.00     0.001 A 
ATOM     77  C   UNL A   1      44.949  35.173  31.486  1.00  0.00     0.000 A 
ENDBRANCH  59  72
ENDBRANCH  33  34
ENDBRANCH  25  28
ENDBRANCH  23  24
ENDBRANCH   1  23
TORSDOF 14
ENDMDL
MODEL 2
REMARK VINA RESULT:     -11.2      5.414     10.164
REMARK SMILES CC[C@@](O)(C(=O)NCCCNC(=O)c1ccc(-c2c3nc(c(-c4ccccc4)c4ccc([nH]4)c(-c4ccccc4)c4nc(c(-c5ccccc5)c5ccc2[nH]5)C=C4)C=C3)cc1)[C@H]1CCc2ccc(OC)cc21
REMARK SMILES IDX 9 1 8 2 7 3 5 4 6 5 3 7 2 8 1 9 4 10 62 12 63 13 72 14 64 15
REMARK SMILES IDX 65 16 71 17 66 18 68 19 67 20 69 21 70 22 10 23 11 24 12 25
REMARK SMILES IDX 13 27 14 28 15 29 61 30 16 31 60 32 17 33 18 34 19 35 54 36
REMARK SMILES IDX 20 37 59 38 53 39 55 40 21 41 58 42 52 43 51 44 22 46 44 47
REMARK SMILES IDX 29 48 43 49 30 50 33 51 42 52 56 53 31 54 32 55 41 57 57 58
REMARK SMILES IDX 34 59 23 60 24 61 28 62 25 63 27 64 26 65 45 66 46 67 50 68
REMARK SMILES IDX 47 69 49 70 48 71 35 72 36 73 40 74 37 75 39 76 38 77
REMARK H PARENT 7 6 4 11 11 26 55 45 33 56
REMARK Flexibility Score: inf
ROOT
ATOM      1  C   UNL A   1      31.156  31.859  26.480  1.00  0.00     0.042 C 
ENDROOT
BRANCH   1   2
ATOM      2  C   UNL A   1      31.419  30.664  25.566  1.00  0.00     0.117 C 
BRANCH   2   3
ATOM      3  N   UNL A   1      31.747  29.503  26.364  1.00  0.00    -0.354 N 
ATOM      4  C   UNL A   1      31.592  28.208  25.958  1.00  0.00     0.252 C 
ATOM      5  O   UNL A   1      31.027  27.437  26.734  1.00  0.00    -0.272 OA
ATOM      6  H   UNL A   1      32.110  29.657  27.266  1.00  0.00     0.163 HD
BRANCH   4   7
ATOM      7  C   UNL A   1      32.180  27.767  24.582  1.00  0.00     0.149 C 
BRANCH   7   8
ATOM      8  C   UNL A   1      33.083  28.920  24.096  1.00  0.00     0.043 C 
ATOM      9  C   UNL A   1      33.765  28.695  22.754  1.00  0.00     0.007 C 
ENDBRANCH   7   8
BRANCH   7  10
ATOM     10  O   UNL A   1      33.015  26.599  24.717  1.00  0.00    -0.379 OA
ATOM     11  H   UNL A   1      32.919  26.039  23.931  1.00  0.00     0.212 HD
ENDBRANCH   7  10
BRANCH   7  12
ATOM     12  C   UNL A   1      30.990  27.336  23.653  1.00  0.00     0.061 C 
ATOM     13  C   UNL A   1      30.132  26.215  24.333  1.00  0.00     0.017 C 
ATOM     14  C   UNL A   1      29.929  28.334  23.265  1.00  0.00    -0.035 A 
ATOM     15  C   UNL A   1      28.683  26.381  23.877  1.00  0.00     0.036 C 
ATOM     16  C   UNL A   1      28.645  27.820  23.484  1.00  0.00    -0.044 A 
ATOM     17  C   UNL A   1      30.082  29.583  22.677  1.00  0.00     0.050 A 
ATOM     18  C   UNL A   1      27.515  28.588  23.256  1.00  0.00     0.008 A 
ATOM     19  C   UNL A   1      28.952  30.366  22.421  1.00  0.00     0.119 A 
ATOM     20  C   UNL A   1      27.678  29.878  22.748  1.00  0.00     0.047 A 
BRANCH  19  21
ATOM     21  O   UNL A   1      28.963  31.615  21.862  1.00  0.00    -0.497 OA
ATOM     22  C   UNL A   1      28.776  32.709  22.751  1.00  0.00     0.278 C 
ENDBRANCH  19  21
ENDBRANCH   7  12
ENDBRANCH   4   7
ENDBRANCH   2   3
ENDBRANCH   1   2
BRANCH   1  23
ATOM     23  C   UNL A   1      32.423  32.446  27.094  1.00  0.00     0.118 C 
BRANCH  23  24
ATOM     24  N   UNL A   1      32.259  33.844  27.461  1.00  0.00    -0.352 N 
ATOM     25  C   UNL A   1      32.934  34.577  28.403  1.00  0.00     0.251 C 
ATOM     26  H   UNL A   1      31.564  34.333  26.964  1.00  0.00     0.163 HD
ATOM     27  O   UNL A   1      32.516  35.676  28.747  1.00  0.00    -0.269 OA
BRANCH  25  28
ATOM     28  C   UNL A   1      34.159  34.024  29.011  1.00  0.00     0.039 A 
ATOM     29  C   UNL A   1      34.034  33.100  30.049  1.00  0.00     0.014 A 
ATOM     30  C   UNL A   1      35.423  34.424  28.565  1.00  0.00     0.014 A 
ATOM     31  C   UNL A   1      35.181  32.546  30.613  1.00  0.00     0.010 A 
ATOM     32  C   UNL A   1      36.562  33.809  29.073  1.00  0.00     0.010 A 
ATOM     33  C   UNL A   1      36.452  32.876  30.113  1.00  0.00    -0.014 A 
BRANCH  33  34
ATOM     34  C   UNL A   1      37.669  32.252  30.684  1.00  0.00     0.031 A 
ATOM     35  C   UNL A   1      38.256  32.764  31.970  1.00  0.00     0.074 A 
ATOM     36  C   UNL A   1      38.257  31.233  30.028  1.00  0.00     0.049 A 
ATOM     37  N   UNL A   1      39.287  32.315  32.640  1.00  0.00    -0.248 NA
ATOM     38  C   UNL A   1      37.617  33.945  32.572  1.00  0.00     0.031 C 
ATOM     39  C   UNL A   1      37.815  30.686  28.743  1.00  0.00     0.029 A 
ATOM     40  N   UNL A   1      39.347  30.470  30.357  1.00  0.00    -0.354 N 
ATOM     41  C   UNL A   1      39.421  33.160  33.735  1.00  0.00     0.074 A 
ATOM     42  C   UNL A   1      38.407  34.183  33.608  1.00  0.00     0.031 C 
ATOM     43  C   UNL A   1      38.599  29.646  28.417  1.00  0.00     0.029 A 
ATOM     44  C   UNL A   1      39.617  29.477  29.449  1.00  0.00     0.049 A 
ATOM     45  H   UNL A   1      39.887  30.621  31.167  1.00  0.00     0.167 HD
ATOM     46  C   UNL A   1      40.293  33.077  34.768  1.00  0.00     0.031 A 
ATOM     47  C   UNL A   1      40.572  28.529  29.451  1.00  0.00     0.031 A 
ATOM     48  C   UNL A   1      41.302  32.059  34.891  1.00  0.00     0.049 A 
ATOM     49  C   UNL A   1      41.528  28.458  30.607  1.00  0.00     0.074 A 
ATOM     50  C   UNL A   1      42.204  31.859  35.922  1.00  0.00     0.029 A 
ATOM     51  N   UNL A   1      41.544  31.071  33.950  1.00  0.00    -0.354 N 
ATOM     52  N   UNL A   1      41.591  29.216  31.676  1.00  0.00    -0.248 NA
ATOM     53  C   UNL A   1      42.533  27.388  30.566  1.00  0.00     0.031 C 
ATOM     54  C   UNL A   1      43.026  30.779  35.578  1.00  0.00     0.029 A 
ATOM     55  C   UNL A   1      42.596  30.272  34.363  1.00  0.00     0.049 A 
ATOM     56  H   UNL A   1      41.042  30.956  33.110  1.00  0.00     0.167 HD
ATOM     57  C   UNL A   1      42.626  28.701  32.443  1.00  0.00     0.074 A 
ATOM     58  C   UNL A   1      43.144  27.552  31.730  1.00  0.00     0.031 C 
ATOM     59  C   UNL A   1      43.106  29.140  33.634  1.00  0.00     0.031 A 
BRANCH  46  60
ATOM     60  C   UNL A   1      40.192  34.124  35.843  1.00  0.00    -0.014 A 
ATOM     61  C   UNL A   1      39.373  33.931  36.969  1.00  0.00     0.009 A 
ATOM     62  C   UNL A   1      40.942  35.305  35.746  1.00  0.00     0.009 A 
ATOM     63  C   UNL A   1      39.280  34.916  37.955  1.00  0.00     0.001 A 
ATOM     64  C   UNL A   1      40.870  36.275  36.748  1.00  0.00     0.001 A 
ATOM     65  C   UNL A   1      40.033  36.085  37.845  1.00  0.00     0.000 A 
ENDBRANCH  46  60
BRANCH  47  66
ATOM     66  C   UNL A   1      40.652  27.552  28.333  1.00  0.00    -0.014 A 
ATOM     67  C   UNL A   1      41.411  27.839  27.188  1.00  0.00     0.009 A 
ATOM     68  C   UNL A   1      39.968  26.329  28.405  1.00  0.00     0.009 A 
ATOM     69  C   UNL A   1      41.459  26.932  26.126  1.00  0.00     0.001 A 
ATOM     70  C   UNL A   1      40.043  25.412  27.355  1.00  0.00     0.001 A 
ATOM     71  C   UNL A   1      40.779  25.719  26.212  1.00  0.00     0.000 A 
ENDBRANCH  47  66
BRANCH  59  72
ATOM     72  C   UNL A   1      44.236  28.355  34.242  1.00  0.00    -0.014 A 
ATOM     73  C   UNL A   1      45.575  28.697  34.001  1.00  0.00     0.009 A 
ATOM     74  C   UNL A   1      43.951  27.269  35.083  1.00  0.00     0.009 A 
ATOM     75  C   UNL A   1      46.608  27.939  34.554  1.00  0.00     0.001 A 
ATOM     76  C   UNL A   1      44.986  26.532  35.661  1.00  0.00     0.001 A 
ATOM     77  C   UNL A   1      46.311  26.858  35.386  1.00  0.00     0.000 A 
ENDBRANCH  59  72
ENDBRANCH  33  34
ENDBRANCH  25  28
ENDBRANCH  23  24
ENDBRANCH   1  23
TORSDOF 14
ENDMDL
MODEL 3
REMARK VINA RESULT:     -11.2      0.501      6.016
REMARK SMILES CC[C@@](O)(C(=O)NCCCNC(=O)c1ccc(-c2c3nc(c(-c4ccccc4)c4ccc([nH]4)c(-c4ccccc4)c4nc(c(-c5ccccc5)c5ccc2[nH]5)C=C4)C=C3)cc1)[C@H]1CCc2ccc(OC)cc21
REMARK SMILES IDX 9 1 8 2 7 3 5 4 6 5 3 7 2 8 1 9 4 10 62 12 63 13 72 14 64 15
REMARK SMILES IDX 65 16 71 17 66 18 68 19 67 20 69 21 70 22 10 23 11 24 12 25
REMARK SMILES IDX 13 27 14 28 15 29 61 30 16 31 60 32 17 33 18 34 19 35 54 36
REMARK SMILES IDX 20 37 59 38 53 39 55 40 21 41 58 42 52 43 51 44 22 46 44 47
REMARK SMILES IDX 29 48 43 49 30 50 33 51 42 52 56 53 31 54 32 55 41 57 57 58
REMARK SMILES IDX 34 59 23 60 24 61 28 62 25 63 27 64 26 65 45 66 46 67 50 68
REMARK SMILES IDX 47 69 49 70 48 71 35 72 36 73 40 74 37 75 39 76 38 77
REMARK H PARENT 7 6 4 11 11 26 55 45 33 56
REMARK Flexibility Score: inf
ROOT
ATOM      1  C   UNL A   1      37.679  19.958  24.661  1.00  0.00     0.042 C 
ENDROOT
BRANCH   1   2
ATOM      2  C   UNL A   1      36.277  20.454  25.008  1.00  0.00     0.117 C 
BRANCH   2   3
ATOM      3  N   UNL A   1      36.112  21.814  24.544  1.00  0.00    -0.354 N 
ATOM      4  C   UNL A   1      34.917  22.384  24.208  1.00  0.00     0.252 C 
ATOM      5  O   UNL A   1      34.862  22.989  23.137  1.00  0.00    -0.272 OA
ATOM      6  H   UNL A   1      36.920  22.370  24.464  1.00  0.00     0.163 HD
BRANCH   4   7
ATOM      7  C   UNL A   1      33.723  22.293  25.207  1.00  0.00     0.149 C 
BRANCH   7   8
ATOM      8  C   UNL A   1      34.298  21.754  26.535  1.00  0.00     0.043 C 
ATOM      9  C   UNL A   1      33.577  22.216  27.794  1.00  0.00     0.007 C 
ENDBRANCH   7   8
BRANCH   7  10
ATOM     10  O   UNL A   1      33.165  23.594  25.481  1.00  0.00    -0.379 OA
ATOM     11  H   UNL A   1      33.539  24.242  24.864  1.00  0.00     0.212 HD
ENDBRANCH   7  10
BRANCH   7  12
ATOM     12  C   UNL A   1      32.574  21.469  24.527  1.00  0.00     0.061 C 
ATOM     13  C   UNL A   1      32.350  21.943  23.050  1.00  0.00     0.017 C 
ATOM     14  C   UNL A   1      32.710  19.979  24.347  1.00  0.00    -0.035 A 
ATOM     15  C   UNL A   1      31.894  20.739  22.227  1.00  0.00     0.036 C 
ATOM     16  C   UNL A   1      32.417  19.597  23.033  1.00  0.00    -0.044 A 
ATOM     17  C   UNL A   1      32.992  19.009  25.301  1.00  0.00     0.050 A 
ATOM     18  C   UNL A   1      32.538  18.279  22.622  1.00  0.00     0.008 A 
ATOM     19  C   UNL A   1      33.098  17.671  24.911  1.00  0.00     0.119 A 
ATOM     20  C   UNL A   1      32.910  17.320  23.566  1.00  0.00     0.047 A 
BRANCH  19  21
ATOM     21  O   UNL A   1      33.384  16.622  25.744  1.00  0.00    -0.497 OA
ATOM     22  C   UNL A   1      32.643  15.426  25.533  1.00  0.00     0.278 C 
ENDBRANCH  19  21
ENDBRANCH   7  12
ENDBRANCH   4   7
ENDBRANCH   2   3
ENDBRANCH   1   2
BRANCH   1  23
ATOM     23  C   UNL A   1      38.743  20.388  25.666  1.00  0.00     0.118 C 
BRANCH  23  24
ATOM     24  N   UNL A   1      39.787  19.385  25.823  1.00  0.00    -0.352 N 
ATOM     25  C   UNL A   1      41.109  19.556  26.139  1.00  0.00     0.251 C 
ATOM     26  H   UNL A   1      39.503  18.453  25.681  1.00  0.00     0.163 HD
ATOM     27  O   UNL A   1      41.901  18.630  26.005  1.00  0.00    -0.269 OA
BRANCH  25  28
ATOM     28  C   UNL A   1      41.575  20.867  26.628  1.00  0.00     0.039 A 
ATOM     29  C   UNL A   1      42.071  21.789  25.706  1.00  0.00     0.014 A 
ATOM     30  C   UNL A   1      41.532  21.180  27.990  1.00  0.00     0.014 A 
ATOM     31  C   UNL A   1      42.487  23.043  26.147  1.00  0.00     0.010 A 
ATOM     32  C   UNL A   1      41.870  22.460  28.417  1.00  0.00     0.010 A 
ATOM     33  C   UNL A   1      42.366  23.398  27.502  1.00  0.00    -0.014 A 
BRANCH  33  34
ATOM     34  C   UNL A   1      42.767  24.748  27.963  1.00  0.00     0.031 A 
ATOM     35  C   UNL A   1      41.730  25.813  28.193  1.00  0.00     0.074 A 
ATOM     36  C   UNL A   1      44.072  25.019  28.154  1.00  0.00     0.049 A 
ATOM     37  N   UNL A   1      41.890  27.034  28.637  1.00  0.00    -0.248 NA
ATOM     38  C   UNL A   1      40.337  25.472  27.862  1.00  0.00     0.031 C 
ATOM     39  C   UNL A   1      45.175  24.086  27.910  1.00  0.00     0.029 A 
ATOM     40  N   UNL A   1      44.691  26.154  28.607  1.00  0.00    -0.354 N 
ATOM     41  C   UNL A   1      40.624  27.604  28.633  1.00  0.00     0.074 A 
ATOM     42  C   UNL A   1      39.716  26.620  28.087  1.00  0.00     0.031 C 
ATOM     43  C   UNL A   1      46.330  24.673  28.260  1.00  0.00     0.029 A 
ATOM     44  C   UNL A   1      46.054  26.030  28.718  1.00  0.00     0.049 A 
ATOM     45  H   UNL A   1      44.205  26.982  28.831  1.00  0.00     0.167 HD
ATOM     46  C   UNL A   1      40.244  28.829  29.069  1.00  0.00     0.031 A 
ATOM     47  C   UNL A   1      46.977  26.909  29.150  1.00  0.00     0.031 A 
ATOM     48  C   UNL A   1      41.148  29.808  29.611  1.00  0.00     0.049 A 
ATOM     49  C   UNL A   1      46.531  28.261  29.628  1.00  0.00     0.074 A 
ATOM     50  C   UNL A   1      40.857  31.060  30.125  1.00  0.00     0.029 A 
ATOM     51  N   UNL A   1      42.522  29.645  29.706  1.00  0.00    -0.354 N 
ATOM     52  N   UNL A   1      45.319  28.756  29.694  1.00  0.00    -0.248 NA
ATOM     53  C   UNL A   1      47.581  29.168  30.110  1.00  0.00     0.031 C 
ATOM     54  C   UNL A   1      42.064  31.674  30.483  1.00  0.00     0.029 A 
ATOM     55  C   UNL A   1      43.097  30.781  30.248  1.00  0.00     0.049 A 
ATOM     56  H   UNL A   1      43.015  28.839  29.427  1.00  0.00     0.167 HD
ATOM     57  C   UNL A   1      45.458  30.023  30.245  1.00  0.00     0.074 A 
ATOM     58  C   UNL A   1      46.868  30.207  30.518  1.00  0.00     0.031 C 
ATOM     59  C   UNL A   1      44.503  30.952  30.501  1.00  0.00     0.031 A 
BRANCH  46  60
ATOM     60  C   UNL A   1      38.783  29.175  28.971  1.00  0.00    -0.014 A 
ATOM     61  C   UNL A   1      38.233  29.670  27.776  1.00  0.00     0.009 A 
ATOM     62  C   UNL A   1      37.941  28.981  30.076  1.00  0.00     0.009 A 
ATOM     63  C   UNL A   1      36.876  29.997  27.703  1.00  0.00     0.001 A 
ATOM     64  C   UNL A   1      36.580  29.281  29.990  1.00  0.00     0.001 A 
ATOM     65  C   UNL A   1      36.051  29.797  28.809  1.00  0.00     0.000 A 
ENDBRANCH  46  60
BRANCH  47  66
ATOM     66  C   UNL A   1      48.413  26.525  29.176  1.00  0.00    -0.014 A 
ATOM     67  C   UNL A   1      48.956  25.870  30.292  1.00  0.00     0.009 A 
ATOM     68  C   UNL A   1      49.248  26.813  28.085  1.00  0.00     0.009 A 
ATOM     69  C   UNL A   1      50.313  25.540  30.327  1.00  0.00     0.001 A 
ATOM     70  C   UNL A   1      50.597  26.453  28.111  1.00  0.00     0.001 A 
ATOM     71  C   UNL A   1      51.130  25.827  29.236  1.00  0.00     0.000 A 
ENDBRANCH  47  66
BRANCH  59  72
ATOM     72  C   UNL A   1      44.959  32.240  31.129  1.00  0.00    -0.014 A 
ATOM     73  C   UNL A   1      45.353  33.335  30.344  1.00  0.00     0.009 A 
ATOM     74  C   UNL A   1      44.978  32.362  32.527  1.00  0.00     0.009 A 
ATOM     75  C   UNL A   1      45.798  34.512  30.948  1.00  0.00     0.001 A 
ATOM     76  C   UNL A   1      45.394  33.551  33.127  1.00  0.00     0.001 A 
ATOM     77  C   UNL A   1      45.815  34.619  32.339  1.00  0.00     0.000 A 
ENDBRANCH  59  72
ENDBRANCH  33  34
ENDBRANCH  25  28
ENDBRANCH  23  24
ENDBRANCH   1  23
TORSDOF 14
ENDMDL
