MODEL 1
REMARK VINA RESULT:     -10.8      0.000      0.000
REMARK SMILES CCc1nc(COC)cc(N2CCCC[C@H]2C(=O)NCCCNC(=O)c2ccc(-c3c4nc(c(-c5ccccc5)c5ccc([nH]5)c(-c5ccccc5)c5nc(c(-c6ccccc6)c6ccc3[nH]6)C=C5)C=C4)cc2)n1
REMARK SMILES IDX 20 1 19 2 17 3 18 4 16 6 11 7 12 8 13 9 15 10 14 11 10 12
REMARK SMILES IDX 3 13 4 14 74 15 5 16 9 17 2 18 1 19 6 20 7 21 8 22 21 23
REMARK SMILES IDX 22 24 23 25 24 26 25 28 26 29 27 30 73 31 28 32 72 33 29 34
REMARK SMILES IDX 30 35 31 36 66 37 32 38 71 39 65 40 67 41 33 42 70 43 64 44
REMARK SMILES IDX 63 45 34 47 56 48 41 49 55 50 42 51 45 52 54 53 68 54 43 55
REMARK SMILES IDX 44 56 53 58 69 59 46 60 35 61 36 62 40 63 37 64 39 65 38 66
REMARK SMILES IDX 57 67 58 68 62 69 59 70 61 71 60 72 47 73 48 74 52 75 49 76
REMARK SMILES IDX 51 77 50 78
REMARK H PARENT 19 5 23 27 67 46 45 57
REMARK Flexibility Score: inf
ROOT
ATOM      1  C   UNL A   1      33.623  27.184  25.320  1.00  0.00     0.117 C 
ENDROOT
BRANCH   1   2
ATOM      2  N   UNL A   1      33.902  27.048  23.903  1.00  0.00    -0.354 N 
ATOM      3  C   UNL A   1      33.460  26.189  22.954  1.00  0.00     0.242 C 
ATOM      4  O   UNL A   1      33.800  26.489  21.799  1.00  0.00    -0.273 OA
ATOM      5  H   UNL A   1      34.542  27.715  23.563  1.00  0.00     0.163 HD
BRANCH   3   6
ATOM      6  C   UNL A   1      32.664  24.888  23.195  1.00  0.00     0.173 C 
ATOM      7  N   UNL A   1      32.797  24.228  24.502  1.00  0.00    -0.344 N 
ATOM      8  C   UNL A   1      31.966  24.652  25.634  1.00  0.00     0.119 C 
ATOM      9  C   UNL A   1      30.517  24.881  25.237  1.00  0.00     0.022 C 
ATOM     10  C   UNL A   1      31.179  25.107  22.854  1.00  0.00     0.035 C 
ATOM     11  C   UNL A   1      30.421  25.763  24.000  1.00  0.00     0.004 C 
BRANCH   7  12
ATOM     12  C   UNL A   1      33.642  23.138  24.663  1.00  0.00     0.133 A 
ATOM     13  C   UNL A   1      35.776  22.322  25.012  1.00  0.00     0.130 A 
ATOM     14  N   UNL A   1      35.394  21.039  24.948  1.00  0.00    -0.235 NA
ATOM     15  N   UNL A   1      34.948  23.371  24.859  1.00  0.00    -0.216 NA
ATOM     16  C   UNL A   1      34.093  20.803  24.699  1.00  0.00     0.072 A 
ATOM     17  C   UNL A   1      33.176  21.835  24.585  1.00  0.00     0.073 A 
BRANCH  13  18
ATOM     18  C   UNL A   1      37.209  22.638  25.350  1.00  0.00     0.074 C 
ATOM     19  C   UNL A   1      38.120  21.421  25.412  1.00  0.00     0.012 C 
ENDBRANCH  13  18
BRANCH  16  20
ATOM     20  C   UNL A   1      33.655  19.364  24.531  1.00  0.00     0.216 C 
BRANCH  20  21
ATOM     21  O   UNL A   1      32.591  18.979  25.410  1.00  0.00    -0.378 OA
ATOM     22  C   UNL A   1      32.628  17.606  25.773  1.00  0.00     0.195 C 
ENDBRANCH  20  21
ENDBRANCH  16  20
ENDBRANCH   7  12
ENDBRANCH   3   6
ENDBRANCH   1   2
BRANCH   1  23
ATOM     23  C   UNL A   1      33.910  28.582  25.839  1.00  0.00     0.042 C 
BRANCH  23  24
ATOM     24  C   UNL A   1      33.405  28.816  27.253  1.00  0.00     0.118 C 
BRANCH  24  25
ATOM     25  N   UNL A   1      33.541  30.201  27.687  1.00  0.00    -0.352 N 
ATOM     26  C   UNL A   1      34.585  30.864  28.292  1.00  0.00     0.251 C 
ATOM     27  H   UNL A   1      32.749  30.760  27.517  1.00  0.00     0.163 HD
ATOM     28  O   UNL A   1      34.414  31.995  28.730  1.00  0.00    -0.269 OA
BRANCH  26  29
ATOM     29  C   UNL A   1      35.901  30.204  28.452  1.00  0.00     0.039 A 
ATOM     30  C   UNL A   1      36.825  30.255  27.405  1.00  0.00     0.014 A 
ATOM     31  C   UNL A   1      36.229  29.538  29.629  1.00  0.00     0.014 A 
ATOM     32  C   UNL A   1      38.106  29.725  27.585  1.00  0.00     0.010 A 
ATOM     33  C   UNL A   1      37.540  29.146  29.860  1.00  0.00     0.010 A 
ATOM     34  C   UNL A   1      38.492  29.217  28.835  1.00  0.00    -0.014 A 
BRANCH  34  35
ATOM     35  C   UNL A   1      39.869  28.727  29.101  1.00  0.00     0.031 A 
ATOM     36  C   UNL A   1      40.872  29.630  29.772  1.00  0.00     0.074 A 
ATOM     37  C   UNL A   1      40.249  27.512  28.659  1.00  0.00     0.049 A 
ATOM     38  N   UNL A   1      42.149  29.437  29.983  1.00  0.00    -0.248 NA
ATOM     39  C   UNL A   1      40.383  30.944  30.222  1.00  0.00     0.031 C 
ATOM     40  C   UNL A   1      39.395  26.555  27.952  1.00  0.00     0.029 A 
ATOM     41  N   UNL A   1      41.463  26.876  28.739  1.00  0.00    -0.354 N 
ATOM     42  C   UNL A   1      42.618  30.618  30.547  1.00  0.00     0.074 A 
ATOM     43  C   UNL A   1      41.507  31.542  30.581  1.00  0.00     0.031 C 
ATOM     44  C   UNL A   1      40.094  25.433  27.715  1.00  0.00     0.029 A 
ATOM     45  C   UNL A   1      41.456  25.611  28.204  1.00  0.00     0.049 A 
ATOM     46  H   UNL A   1      42.261  27.287  29.142  1.00  0.00     0.167 HD
ATOM     47  C   UNL A   1      43.854  30.904  31.025  1.00  0.00     0.031 A 
ATOM     48  C   UNL A   1      42.438  24.695  28.120  1.00  0.00     0.031 A 
ATOM     49  C   UNL A   1      44.948  29.973  31.028  1.00  0.00     0.049 A 
ATOM     50  C   UNL A   1      43.800  25.027  28.659  1.00  0.00     0.074 A 
ATOM     51  C   UNL A   1      46.217  30.133  31.554  1.00  0.00     0.029 A 
ATOM     52  N   UNL A   1      44.896  28.699  30.483  1.00  0.00    -0.354 N 
ATOM     53  N   UNL A   1      44.213  26.127  29.243  1.00  0.00    -0.248 NA
ATOM     54  C   UNL A   1      44.831  23.987  28.532  1.00  0.00     0.031 C 
ATOM     55  C   UNL A   1      46.948  28.970  31.287  1.00  0.00     0.029 A 
ATOM     56  C   UNL A   1      46.118  28.069  30.640  1.00  0.00     0.049 A 
ATOM     57  H   UNL A   1      44.108  28.303  30.046  1.00  0.00     0.167 HD
ATOM     58  C   UNL A   1      45.541  25.902  29.578  1.00  0.00     0.074 A 
ATOM     59  C   UNL A   1      45.861  24.557  29.143  1.00  0.00     0.031 C 
ATOM     60  C   UNL A   1      46.417  26.731  30.196  1.00  0.00     0.031 A 
BRANCH  47  61
ATOM     61  C   UNL A   1      44.068  32.286  31.578  1.00  0.00    -0.014 A 
ATOM     62  C   UNL A   1      44.529  33.336  30.765  1.00  0.00     0.009 A 
ATOM     63  C   UNL A   1      43.820  32.542  32.936  1.00  0.00     0.009 A 
ATOM     64  C   UNL A   1      44.800  34.591  31.313  1.00  0.00     0.001 A 
ATOM     65  C   UNL A   1      44.058  33.809  33.472  1.00  0.00     0.001 A 
ATOM     66  C   UNL A   1      44.563  34.827  32.665  1.00  0.00     0.000 A 
ENDBRANCH  47  61
BRANCH  48  67
ATOM     67  C   UNL A   1      42.153  23.353  27.550  1.00  0.00    -0.014 A 
ATOM     68  C   UNL A   1      42.525  23.060  26.229  1.00  0.00     0.009 A 
ATOM     69  C   UNL A   1      41.529  22.357  28.316  1.00  0.00     0.009 A 
ATOM     70  C   UNL A   1      42.265  21.804  25.680  1.00  0.00     0.001 A 
ATOM     71  C   UNL A   1      41.292  21.092  27.773  1.00  0.00     0.001 A 
ATOM     72  C   UNL A   1      41.654  20.818  26.454  1.00  0.00     0.000 A 
ENDBRANCH  48  67
BRANCH  60  73
ATOM     73  C   UNL A   1      47.793  26.194  30.468  1.00  0.00    -0.014 A 
ATOM     74  C   UNL A   1      48.785  26.197  29.476  1.00  0.00     0.009 A 
ATOM     75  C   UNL A   1      48.110  25.716  31.748  1.00  0.00     0.009 A 
ATOM     76  C   UNL A   1      50.060  25.702  29.754  1.00  0.00     0.001 A 
ATOM     77  C   UNL A   1      49.393  25.248  32.032  1.00  0.00     0.001 A 
ATOM     78  C   UNL A   1      50.364  25.233  31.032  1.00  0.00     0.000 A 
ENDBRANCH  60  73
ENDBRANCH  34  35
ENDBRANCH  26  29
ENDBRANCH  24  25
ENDBRANCH  23  24
ENDBRANCH   1  23
TORSDOF 14
ENDMDL
MODEL 2
REMARK VINA RESULT:     -10.7      1.141      1.960
REMARK SMILES CCc1nc(COC)cc(N2CCCC[C@H]2C(=O)NCCCNC(=O)c2ccc(-c3c4nc(c(-c5ccccc5)c5ccc([nH]5)c(-c5ccccc5)c5nc(c(-c6ccccc6)c6ccc3[nH]6)C=C5)C=C4)cc2)n1
REMARK SMILES IDX 20 1 19 2 17 3 18 4 16 6 11 7 12 8 13 9 15 10 14 11 10 12
REMARK SMILES IDX 3 13 4 14 74 15 5 16 9 17 2 18 1 19 6 20 7 21 8 22 21 23
REMARK SMILES IDX 22 24 23 25 24 26 25 28 26 29 27 30 73 31 28 32 72 33 29 34
REMARK SMILES IDX 30 35 31 36 66 37 32 38 71 39 65 40 67 41 33 42 70 43 64 44
REMARK SMILES IDX 63 45 34 47 56 48 41 49 55 50 42 51 45 52 54 53 68 54 43 55
REMARK SMILES IDX 44 56 53 58 69 59 46 60 35 61 36 62 40 63 37 64 39 65 38 66
REMARK SMILES IDX 57 67 58 68 62 69 59 70 61 71 60 72 47 73 48 74 52 75 49 76
REMARK SMILES IDX 51 77 50 78
REMARK H PARENT 19 5 23 27 67 46 45 57
REMARK Flexibility Score: inf
ROOT
ATOM      1  C   UNL A   1      33.132  28.996  25.001  1.00  0.00     0.117 C 
ENDROOT
BRANCH   1   2
ATOM      2  N   UNL A   1      33.743  28.829  23.696  1.00  0.00    -0.354 N 
ATOM      3  C   UNL A   1      33.496  27.989  22.662  1.00  0.00     0.242 C 
ATOM      4  O   UNL A   1      34.130  28.256  21.629  1.00  0.00    -0.273 OA
ATOM      5  H   UNL A   1      34.487  29.451  23.529  1.00  0.00     0.163 HD
BRANCH   3   6
ATOM      6  C   UNL A   1      32.586  26.743  22.692  1.00  0.00     0.173 C 
ATOM      7  N   UNL A   1      32.508  25.972  23.941  1.00  0.00    -0.344 N 
ATOM      8  C   UNL A   1      31.576  26.372  25.001  1.00  0.00     0.119 C 
ATOM      9  C   UNL A   1      30.206  26.750  24.458  1.00  0.00     0.022 C 
ATOM     10  C   UNL A   1      31.174  27.110  22.199  1.00  0.00     0.035 C 
ATOM     11  C   UNL A   1      30.328  27.731  23.302  1.00  0.00     0.004 C 
BRANCH   7  12
ATOM     12  C   UNL A   1      33.246  24.808  24.103  1.00  0.00     0.133 A 
ATOM     13  C   UNL A   1      33.335  22.498  24.059  1.00  0.00     0.130 A 
ATOM     14  N   UNL A   1      34.618  22.450  24.444  1.00  0.00    -0.235 NA
ATOM     15  N   UNL A   1      32.630  23.634  23.902  1.00  0.00    -0.216 NA
ATOM     16  C   UNL A   1      35.222  23.625  24.697  1.00  0.00     0.072 A 
ATOM     17  C   UNL A   1      34.573  24.833  24.503  1.00  0.00     0.073 A 
BRANCH  13  18
ATOM     18  C   UNL A   1      32.633  21.215  23.705  1.00  0.00     0.074 C 
ATOM     19  C   UNL A   1      32.016  21.201  22.314  1.00  0.00     0.012 C 
ENDBRANCH  13  18
BRANCH  16  20
ATOM     20  C   UNL A   1      36.642  23.591  25.220  1.00  0.00     0.216 C 
BRANCH  20  21
ATOM     21  O   UNL A   1      36.967  22.388  25.929  1.00  0.00    -0.378 OA
ATOM     22  C   UNL A   1      38.161  21.770  25.472  1.00  0.00     0.195 C 
ENDBRANCH  20  21
ENDBRANCH  16  20
ENDBRANCH   7  12
ENDBRANCH   3   6
ENDBRANCH   1   2
BRANCH   1  23
ATOM     23  C   UNL A   1      34.066  28.619  26.136  1.00  0.00     0.042 C 
BRANCH  23  24
ATOM     24  C   UNL A   1      33.469  28.856  27.513  1.00  0.00     0.118 C 
BRANCH  24  25
ATOM     25  N   UNL A   1      33.610  30.234  27.968  1.00  0.00    -0.352 N 
ATOM     26  C   UNL A   1      34.671  30.895  28.545  1.00  0.00     0.251 C 
ATOM     27  H   UNL A   1      32.807  30.788  27.840  1.00  0.00     0.163 HD
ATOM     28  O   UNL A   1      34.507  32.015  29.012  1.00  0.00    -0.269 OA
BRANCH  26  29
ATOM     29  C   UNL A   1      35.997  30.244  28.642  1.00  0.00     0.039 A 
ATOM     30  C   UNL A   1      36.875  30.313  27.556  1.00  0.00     0.014 A 
ATOM     31  C   UNL A   1      36.382  29.570  29.797  1.00  0.00     0.014 A 
ATOM     32  C   UNL A   1      38.166  29.791  27.674  1.00  0.00     0.010 A 
ATOM     33  C   UNL A   1      37.704  29.186  29.966  1.00  0.00     0.010 A 
ATOM     34  C   UNL A   1      38.610  29.275  28.901  1.00  0.00    -0.014 A 
BRANCH  34  35
ATOM     35  C   UNL A   1      40.001  28.793  29.103  1.00  0.00     0.031 A 
ATOM     36  C   UNL A   1      41.035  29.711  29.703  1.00  0.00     0.074 A 
ATOM     37  C   UNL A   1      40.362  27.572  28.663  1.00  0.00     0.049 A 
ATOM     38  N   UNL A   1      42.322  29.526  29.849  1.00  0.00    -0.248 NA
ATOM     39  C   UNL A   1      40.566  31.031  30.155  1.00  0.00     0.031 C 
ATOM     40  C   UNL A   1      39.475  26.599  28.020  1.00  0.00     0.029 A 
ATOM     41  N   UNL A   1      41.580  26.941  28.689  1.00  0.00    -0.354 N 
ATOM     42  C   UNL A   1      42.816  30.717  30.367  1.00  0.00     0.074 A 
ATOM     43  C   UNL A   1      41.705  31.639  30.443  1.00  0.00     0.031 C 
ATOM     44  C   UNL A   1      40.165  25.476  27.765  1.00  0.00     0.029 A 
ATOM     45  C   UNL A   1      41.550  25.666  28.178  1.00  0.00     0.049 A 
ATOM     46  H   UNL A   1      42.398  27.361  29.042  1.00  0.00     0.167 HD
ATOM     47  C   UNL A   1      44.074  31.015  30.773  1.00  0.00     0.031 A 
ATOM     48  C   UNL A   1      42.530  24.751  28.058  1.00  0.00     0.031 A 
ATOM     49  C   UNL A   1      45.171  30.088  30.734  1.00  0.00     0.049 A 
ATOM     50  C   UNL A   1      43.917  25.097  28.518  1.00  0.00     0.074 A 
ATOM     51  C   UNL A   1      46.465  30.261  31.189  1.00  0.00     0.029 A 
ATOM     52  N   UNL A   1      45.095  28.804  30.215  1.00  0.00    -0.354 N 
ATOM     53  N   UNL A   1      44.356  26.208  29.059  1.00  0.00    -0.248 NA
ATOM     54  C   UNL A   1      44.943  24.058  28.355  1.00  0.00     0.031 C 
ATOM     55  C   UNL A   1      47.186  29.095  30.904  1.00  0.00     0.029 A 
ATOM     56  C   UNL A   1      46.326  28.180  30.319  1.00  0.00     0.049 A 
ATOM     57  H   UNL A   1      44.286  28.398  29.828  1.00  0.00     0.167 HD
ATOM     58  C   UNL A   1      45.701  25.993  29.328  1.00  0.00     0.074 A 
ATOM     59  C   UNL A   1      46.002  24.641  28.900  1.00  0.00     0.031 C 
ATOM     60  C   UNL A   1      46.606  26.836  29.883  1.00  0.00     0.031 A 
BRANCH  47  61
ATOM     61  C   UNL A   1      44.312  32.408  31.289  1.00  0.00    -0.014 A 
ATOM     62  C   UNL A   1      44.563  33.480  30.414  1.00  0.00     0.009 A 
ATOM     63  C   UNL A   1      44.303  32.653  32.671  1.00  0.00     0.009 A 
ATOM     64  C   UNL A   1      44.861  34.749  30.914  1.00  0.00     0.001 A 
ATOM     65  C   UNL A   1      44.567  33.931  33.166  1.00  0.00     0.001 A 
ATOM     66  C   UNL A   1      44.863  34.974  32.289  1.00  0.00     0.000 A 
ENDBRANCH  47  61
BRANCH  48  67
ATOM     67  C   UNL A   1      42.219  23.398  27.528  1.00  0.00    -0.014 A 
ATOM     68  C   UNL A   1      41.663  22.426  28.375  1.00  0.00     0.009 A 
ATOM     69  C   UNL A   1      42.456  23.073  26.185  1.00  0.00     0.009 A 
ATOM     70  C   UNL A   1      41.365  21.152  27.891  1.00  0.00     0.001 A 
ATOM     71  C   UNL A   1      42.134  21.805  25.697  1.00  0.00     0.001 A 
ATOM     72  C   UNL A   1      41.595  20.843  26.552  1.00  0.00     0.000 A 
ENDBRANCH  48  67
BRANCH  60  73
ATOM     73  C   UNL A   1      47.996  26.308  30.091  1.00  0.00    -0.014 A 
ATOM     74  C   UNL A   1      48.963  26.384  29.077  1.00  0.00     0.009 A 
ATOM     75  C   UNL A   1      48.352  25.764  31.334  1.00  0.00     0.009 A 
ATOM     76  C   UNL A   1      50.252  25.895  29.295  1.00  0.00     0.001 A 
ATOM     77  C   UNL A   1      49.649  25.302  31.559  1.00  0.00     0.001 A 
ATOM     78  C   UNL A   1      50.595  25.359  30.537  1.00  0.00     0.000 A 
ENDBRANCH  60  73
ENDBRANCH  34  35
ENDBRANCH  26  29
ENDBRANCH  24  25
ENDBRANCH  23  24
ENDBRANCH   1  23
TORSDOF 14
ENDMDL
MODEL 3
REMARK VINA RESULT:     -10.6      1.714      7.651
REMARK SMILES CCc1nc(COC)cc(N2CCCC[C@H]2C(=O)NCCCNC(=O)c2ccc(-c3c4nc(c(-c5ccccc5)c5ccc([nH]5)c(-c5ccccc5)c5nc(c(-c6ccccc6)c6ccc3[nH]6)C=C5)C=C4)cc2)n1
REMARK SMILES IDX 20 1 19 2 17 3 18 4 16 6 11 7 12 8 13 9 15 10 14 11 10 12
REMARK SMILES IDX 3 13 4 14 74 15 5 16 9 17 2 18 1 19 6 20 7 21 8 22 21 23
REMARK SMILES IDX 22 24 23 25 24 26 25 28 26 29 27 30 73 31 28 32 72 33 29 34
REMARK SMILES IDX 30 35 31 36 66 37 32 38 71 39 65 40 67 41 33 42 70 43 64 44
REMARK SMILES IDX 63 45 34 47 56 48 41 49 55 50 42 51 45 52 54 53 68 54 43 55
REMARK SMILES IDX 44 56 53 58 69 59 46 60 35 61 36 62 40 63 37 64 39 65 38 66
REMARK SMILES IDX 57 67 58 68 62 69 59 70 61 71 60 72 47 73 48 74 52 75 49 76
REMARK SMILES IDX 51 77 50 78
REMARK H PARENT 19 5 23 27 67 46 45 57
REMARK Flexibility Score: inf
ROOT
ATOM      1  C   UNL A   1      37.356  21.664  24.782  1.00  0.00     0.117 C 
ENDROOT
BRANCH   1   2
ATOM      2  N   UNL A   1      35.981  21.434  24.383  1.00  0.00    -0.354 N 
ATOM      3  C   UNL A   1      34.820  22.074  24.661  1.00  0.00     0.242 C 
ATOM      4  O   UNL A   1      33.850  21.679  23.995  1.00  0.00    -0.273 OA
ATOM      5  H   UNL A   1      35.869  20.656  23.790  1.00  0.00     0.163 HD
BRANCH   3   6
ATOM      6  C   UNL A   1      34.607  23.155  25.743  1.00  0.00     0.173 C 
ATOM      7  N   UNL A   1      33.405  23.997  25.652  1.00  0.00    -0.344 N 
ATOM      8  C   UNL A   1      32.132  23.535  26.216  1.00  0.00     0.119 C 
ATOM      9  C   UNL A   1      32.301  22.899  27.587  1.00  0.00     0.022 C 
ATOM     10  C   UNL A   1      34.716  22.527  27.144  1.00  0.00     0.035 C 
ATOM     11  C   UNL A   1      33.415  21.863  27.576  1.00  0.00     0.004 C 
BRANCH   7  12
ATOM     12  C   UNL A   1      33.474  25.275  25.115  1.00  0.00     0.133 A 
ATOM     13  C   UNL A   1      33.550  26.636  23.248  1.00  0.00     0.130 A 
ATOM     14  N   UNL A   1      33.653  27.765  23.964  1.00  0.00    -0.235 NA
ATOM     15  N   UNL A   1      33.480  25.402  23.780  1.00  0.00    -0.216 NA
ATOM     16  C   UNL A   1      33.701  27.635  25.301  1.00  0.00     0.072 A 
ATOM     17  C   UNL A   1      33.578  26.401  25.917  1.00  0.00     0.073 A 
BRANCH  13  18
ATOM     18  C   UNL A   1      33.431  26.733  21.751  1.00  0.00     0.074 C 
ATOM     19  C   UNL A   1      32.530  25.680  21.124  1.00  0.00     0.012 C 
ENDBRANCH  13  18
BRANCH  16  20
ATOM     20  C   UNL A   1      33.909  28.888  26.126  1.00  0.00     0.216 C 
BRANCH  20  21
ATOM     21  O   UNL A   1      33.144  28.913  27.339  1.00  0.00    -0.378 OA
ATOM     22  C   UNL A   1      31.820  29.393  27.159  1.00  0.00     0.195 C 
ENDBRANCH  20  21
ENDBRANCH  16  20
ENDBRANCH   7  12
ENDBRANCH   3   6
ENDBRANCH   1   2
BRANCH   1  23
ATOM     23  C   UNL A   1      38.173  20.385  24.821  1.00  0.00     0.042 C 
BRANCH  23  24
ATOM     24  C   UNL A   1      39.003  20.237  26.086  1.00  0.00     0.118 C 
BRANCH  24  25
ATOM     25  N   UNL A   1      40.167  19.377  25.909  1.00  0.00    -0.352 N 
ATOM     26  C   UNL A   1      41.515  19.642  26.011  1.00  0.00     0.251 C 
ATOM     27  H   UNL A   1      39.953  18.446  25.677  1.00  0.00     0.163 HD
ATOM     28  O   UNL A   1      42.328  18.802  25.646  1.00  0.00    -0.269 OA
BRANCH  26  29
ATOM     29  C   UNL A   1      41.986  20.949  26.522  1.00  0.00     0.039 A 
ATOM     30  C   UNL A   1      42.344  21.951  25.614  1.00  0.00     0.014 A 
ATOM     31  C   UNL A   1      42.073  21.194  27.889  1.00  0.00     0.014 A 
ATOM     32  C   UNL A   1      42.692  23.220  26.085  1.00  0.00     0.010 A 
ATOM     33  C   UNL A   1      42.273  22.489  28.348  1.00  0.00     0.010 A 
ATOM     34  C   UNL A   1      42.602  23.516  27.454  1.00  0.00    -0.014 A 
BRANCH  34  35
ATOM     35  C   UNL A   1      42.872  24.874  27.993  1.00  0.00     0.031 A 
ATOM     36  C   UNL A   1      44.277  25.266  28.374  1.00  0.00     0.074 A 
ATOM     37  C   UNL A   1      41.851  25.720  28.230  1.00  0.00     0.049 A 
ATOM     38  N   UNL A   1      44.701  26.351  28.970  1.00  0.00    -0.248 NA
ATOM     39  C   UNL A   1      45.338  24.286  28.089  1.00  0.00     0.031 C 
ATOM     40  C   UNL A   1      40.438  25.452  27.954  1.00  0.00     0.029 A 
ATOM     41  N   UNL A   1      41.849  26.984  28.763  1.00  0.00    -0.354 N 
ATOM     42  C   UNL A   1      46.064  26.161  29.168  1.00  0.00     0.074 A 
ATOM     43  C   UNL A   1      46.381  24.833  28.693  1.00  0.00     0.031 C 
ATOM     44  C   UNL A   1      39.714  26.539  28.267  1.00  0.00     0.029 A 
ATOM     45  C   UNL A   1      40.602  27.559  28.812  1.00  0.00     0.049 A 
ATOM     46  H   UNL A   1      42.664  27.437  29.080  1.00  0.00     0.167 HD
ATOM     47  C   UNL A   1      46.981  27.022  29.671  1.00  0.00     0.031 A 
ATOM     48  C   UNL A   1      40.218  28.773  29.245  1.00  0.00     0.031 A 
ATOM     49  C   UNL A   1      46.675  28.357  30.107  1.00  0.00     0.049 A 
ATOM     50  C   UNL A   1      41.249  29.717  29.795  1.00  0.00     0.074 A 
ATOM     51  C   UNL A   1      47.538  29.337  30.561  1.00  0.00     0.029 A 
ATOM     52  N   UNL A   1      45.400  28.900  30.132  1.00  0.00    -0.354 N 
ATOM     53  N   UNL A   1      42.543  29.545  29.922  1.00  0.00    -0.248 NA
ATOM     54  C   UNL A   1      40.765  31.025  30.257  1.00  0.00     0.031 C 
ATOM     55  C   UNL A   1      46.778  30.461  30.905  1.00  0.00     0.029 A 
ATOM     56  C   UNL A   1      45.450  30.196  30.615  1.00  0.00     0.049 A 
ATOM     57  H   UNL A   1      44.580  28.434  29.851  1.00  0.00     0.167 HD
ATOM     58  C   UNL A   1      43.032  30.732  30.450  1.00  0.00     0.074 A 
ATOM     59  C   UNL A   1      41.897  31.619  30.609  1.00  0.00     0.031 C 
ATOM     60  C   UNL A   1      44.308  31.061  30.770  1.00  0.00     0.031 A 
BRANCH  47  61
ATOM     61  C   UNL A   1      48.398  26.527  29.771  1.00  0.00    -0.014 A 
ATOM     62  C   UNL A   1      48.853  25.837  30.907  1.00  0.00     0.009 A 
ATOM     63  C   UNL A   1      49.299  26.768  28.721  1.00  0.00     0.009 A 
ATOM     64  C   UNL A   1      50.192  25.456  31.018  1.00  0.00     0.001 A 
ATOM     65  C   UNL A   1      50.628  26.354  28.820  1.00  0.00     0.001 A 
ATOM     66  C   UNL A   1      51.078  25.715  29.974  1.00  0.00     0.000 A 
ENDBRANCH  47  61
BRANCH  48  67
ATOM     67  C   UNL A   1      38.796  29.187  29.123  1.00  0.00    -0.014 A 
ATOM     68  C   UNL A   1      37.930  29.045  30.219  1.00  0.00     0.009 A 
ATOM     69  C   UNL A   1      38.300  29.739  27.933  1.00  0.00     0.009 A 
ATOM     70  C   UNL A   1      36.592  29.430  30.120  1.00  0.00     0.001 A 
ATOM     71  C   UNL A   1      36.968  30.148  27.844  1.00  0.00     0.001 A 
ATOM     72  C   UNL A   1      36.113  29.987  28.935  1.00  0.00     0.000 A 
ENDBRANCH  48  67
BRANCH  60  73
ATOM     73  C   UNL A   1      44.546  32.449  31.292  1.00  0.00    -0.014 A 
ATOM     74  C   UNL A   1      44.873  33.505  30.428  1.00  0.00     0.009 A 
ATOM     75  C   UNL A   1      44.402  32.708  32.663  1.00  0.00     0.009 A 
ATOM     76  C   UNL A   1      45.081  34.790  30.934  1.00  0.00     0.001 A 
ATOM     77  C   UNL A   1      44.582  33.998  33.163  1.00  0.00     0.001 A 
ATOM     78  C   UNL A   1      44.931  35.036  32.299  1.00  0.00     0.000 A 
ENDBRANCH  60  73
ENDBRANCH  34  35
ENDBRANCH  26  29
ENDBRANCH  24  25
ENDBRANCH  23  24
ENDBRANCH   1  23
TORSDOF 14
ENDMDL
