MODEL 1
REMARK VINA RESULT:     -12.5      0.000      0.000
REMARK SMILES Cc1nc2nc(CNC(=O)OC(C)(C)C)nn2c(C)c1CCC(=O)NCCCNC(=O)c1ccc(-c2c3nc(c(-c4ccccc4)c4ccc([nH]4)c(-c4ccccc4)c4nc(c(-c5ccccc5)c5ccc2[nH]5)C=C4)C=C3)cc1
REMARK SMILES IDX 23 1 24 2 25 3 22 5 21 6 20 7 1 8 2 9 3 10 4 11 18 12 5 13
REMARK SMILES IDX 17 14 19 15 6 16 16 17 7 18 8 19 9 20 10 22 11 23 12 24
REMARK SMILES IDX 13 25 14 26 15 27 26 28 27 29 28 30 29 31 30 32 31 34 32 35
REMARK SMILES IDX 33 36 79 37 34 38 78 39 35 40 36 41 37 42 72 43 38 44 77 45
REMARK SMILES IDX 71 46 73 47 39 48 76 49 70 50 69 51 40 53 62 54 47 55 61 56
REMARK SMILES IDX 48 57 51 58 60 59 74 60 49 61 50 62 59 64 75 65 52 66 41 67
REMARK SMILES IDX 42 68 46 69 43 70 45 71 44 72 63 73 64 74 68 75 65 76 67 77
REMARK SMILES IDX 66 78 53 79 54 80 58 81 55 82 57 83 56 84
REMARK H PARENT 25 4 8 21 29 33 73 52 51 63
REMARK Flexibility Score: inf
ROOT
ATOM      1  C   UNL A   1      32.828  25.234  21.408  1.00  0.00     0.220 C 
ATOM      2  O   UNL A   1      33.156  25.857  20.392  1.00  0.00    -0.275 OA
ATOM      3  N   UNL A   1      32.998  23.872  21.408  1.00  0.00    -0.356 N 
ATOM      4  H   UNL A   1      33.244  23.528  20.519  1.00  0.00     0.163 HD
ENDROOT
BRANCH   1   5
ATOM      5  C   UNL A   1      32.197  25.997  22.565  1.00  0.00     0.105 C 
BRANCH   5   6
ATOM      6  C   UNL A   1      32.956  27.320  22.872  1.00  0.00     0.049 C 
BRANCH   6   7
ATOM      7  C   UNL A   1      32.368  27.949  24.106  1.00  0.00    -0.005 A 
ATOM      8  C   UNL A   1      30.504  29.109  22.641  1.00  0.00     0.067 C 
ATOM      9  C   UNL A   1      31.313  29.024  23.934  1.00  0.00     0.046 A 
ATOM     10  N   UNL A   1      31.031  29.876  24.874  1.00  0.00    -0.216 NA
ATOM     11  C   UNL A   1      31.944  29.942  25.893  1.00  0.00     0.252 A 
ATOM     12  C   UNL A   1      32.925  27.837  25.348  1.00  0.00     0.048 A 
ATOM     13  N   UNL A   1      32.367  31.025  26.481  1.00  0.00    -0.192 NA
ATOM     14  N   UNL A   1      32.874  28.968  26.187  1.00  0.00    -0.201 N 
ATOM     15  C   UNL A   1      33.761  26.702  25.828  1.00  0.00     0.067 C 
ATOM     16  C   UNL A   1      33.506  30.804  27.192  1.00  0.00     0.172 A 
ATOM     17  N   UNL A   1      33.821  29.481  27.116  1.00  0.00    -0.148 NA
BRANCH  16  18
ATOM     18  C   UNL A   1      34.228  31.986  28.088  1.00  0.00     0.199 C 
BRANCH  18  19
ATOM     19  N   UNL A   1      33.560  33.352  28.650  1.00  0.00    -0.314 N 
ATOM     20  C   UNL A   1      33.598  34.517  29.462  1.00  0.00     0.408 C 
ATOM     21  H   UNL A   1      32.685  33.398  28.201  1.00  0.00     0.167 HD
ATOM     22  O   UNL A   1      32.720  35.344  29.269  1.00  0.00    -0.225 OA
BRANCH  20  23
ATOM     23  O   UNL A   1      34.554  34.726  30.420  1.00  0.00    -0.444 OA
BRANCH  23  24
ATOM     24  C   UNL A   1      34.884  33.956  31.685  1.00  0.00     0.106 C 
ATOM     25  C   UNL A   1      34.012  34.387  32.868  1.00  0.00     0.056 C 
ATOM     26  C   UNL A   1      34.833  32.435  31.496  1.00  0.00     0.056 C 
ATOM     27  C   UNL A   1      36.358  34.263  32.124  1.00  0.00     0.056 C 
ENDBRANCH  23  24
ENDBRANCH  20  23
ENDBRANCH  18  19
ENDBRANCH  16  18
ENDBRANCH   6   7
ENDBRANCH   5   6
ENDBRANCH   1   5
BRANCH   3  28
ATOM     28  C   UNL A   1      32.899  22.777  22.435  1.00  0.00     0.117 C 
BRANCH  28  29
ATOM     29  C   UNL A   1      33.930  22.856  23.614  1.00  0.00     0.042 C 
BRANCH  29  30
ATOM     30  C   UNL A   1      34.055  21.779  24.801  1.00  0.00     0.118 C 
BRANCH  30  31
ATOM     31  N   UNL A   1      35.366  20.753  24.929  1.00  0.00    -0.352 N 
ATOM     32  C   UNL A   1      36.835  20.593  25.170  1.00  0.00     0.251 C 
ATOM     33  H   UNL A   1      35.015  19.845  24.778  1.00  0.00     0.163 HD
ATOM     34  O   UNL A   1      37.211  19.409  25.139  1.00  0.00    -0.269 OA
BRANCH  32  35
ATOM     35  C   UNL A   1      38.041  21.638  25.492  1.00  0.00     0.039 A 
ATOM     36  C   UNL A   1      39.366  21.302  25.779  1.00  0.00     0.014 A 
ATOM     37  C   UNL A   1      37.941  23.027  25.437  1.00  0.00     0.014 A 
ATOM     38  C   UNL A   1      40.225  22.071  26.584  1.00  0.00     0.010 A 
ATOM     39  C   UNL A   1      38.749  23.847  26.288  1.00  0.00     0.010 A 
ATOM     40  C   UNL A   1      39.817  23.318  27.017  1.00  0.00    -0.014 A 
BRANCH  40  41
ATOM     41  C   UNL A   1      40.776  24.089  27.839  1.00  0.00     0.031 A 
ATOM     42  C   UNL A   1      40.254  25.459  27.998  1.00  0.00     0.074 A 
ATOM     43  C   UNL A   1      41.951  23.829  28.463  1.00  0.00     0.049 A 
ATOM     44  N   UNL A   1      40.619  26.516  27.353  1.00  0.00    -0.248 NA
ATOM     45  C   UNL A   1      39.039  25.592  28.808  1.00  0.00     0.031 C 
ATOM     46  C   UNL A   1      42.632  22.564  28.735  1.00  0.00     0.029 A 
ATOM     47  N   UNL A   1      42.780  24.745  29.086  1.00  0.00    -0.354 N 
ATOM     48  C   UNL A   1      39.731  27.491  27.767  1.00  0.00     0.074 A 
ATOM     49  C   UNL A   1      38.660  26.814  28.456  1.00  0.00     0.031 C 
ATOM     50  C   UNL A   1      43.622  22.768  29.647  1.00  0.00     0.029 A 
ATOM     51  C   UNL A   1      43.739  24.194  29.929  1.00  0.00     0.049 A 
ATOM     52  H   UNL A   1      42.697  25.715  28.942  1.00  0.00     0.167 HD
ATOM     53  C   UNL A   1      40.037  28.812  27.761  1.00  0.00     0.031 A 
ATOM     54  C   UNL A   1      44.517  24.864  30.822  1.00  0.00     0.031 A 
ATOM     55  C   UNL A   1      41.192  29.121  26.964  1.00  0.00     0.049 A 
ATOM     56  C   UNL A   1      44.562  26.288  30.425  1.00  0.00     0.074 A 
ATOM     57  C   UNL A   1      41.548  28.944  25.641  1.00  0.00     0.029 A 
ATOM     58  N   UNL A   1      42.358  29.413  27.629  1.00  0.00    -0.354 N 
ATOM     59  N   UNL A   1      45.246  26.748  29.421  1.00  0.00    -0.248 NA
ATOM     60  C   UNL A   1      43.601  27.214  31.003  1.00  0.00     0.031 C 
ATOM     61  C   UNL A   1      42.954  28.711  25.651  1.00  0.00     0.029 A 
ATOM     62  C   UNL A   1      43.381  28.772  26.978  1.00  0.00     0.049 A 
ATOM     63  H   UNL A   1      42.444  29.980  28.430  1.00  0.00     0.167 HD
ATOM     64  C   UNL A   1      44.510  27.828  28.965  1.00  0.00     0.074 A 
ATOM     65  C   UNL A   1      43.598  28.152  30.054  1.00  0.00     0.031 C 
ATOM     66  C   UNL A   1      44.513  28.165  27.642  1.00  0.00     0.031 A 
BRANCH  53  67
ATOM     67  C   UNL A   1      39.483  29.732  28.811  1.00  0.00    -0.014 A 
ATOM     68  C   UNL A   1      38.306  30.441  28.553  1.00  0.00     0.009 A 
ATOM     69  C   UNL A   1      40.204  30.090  29.971  1.00  0.00     0.009 A 
ATOM     70  C   UNL A   1      37.881  31.461  29.414  1.00  0.00     0.001 A 
ATOM     71  C   UNL A   1      39.755  31.061  30.862  1.00  0.00     0.001 A 
ATOM     72  C   UNL A   1      38.600  31.763  30.570  1.00  0.00     0.000 A 
ENDBRANCH  53  67
BRANCH  54  73
ATOM     73  C   UNL A   1      45.101  24.466  32.131  1.00  0.00    -0.014 A 
ATOM     74  C   UNL A   1      46.143  25.222  32.708  1.00  0.00     0.009 A 
ATOM     75  C   UNL A   1      44.426  23.559  32.961  1.00  0.00     0.009 A 
ATOM     76  C   UNL A   1      46.446  25.127  34.074  1.00  0.00     0.001 A 
ATOM     77  C   UNL A   1      44.735  23.457  34.326  1.00  0.00     0.001 A 
ATOM     78  C   UNL A   1      45.727  24.257  34.887  1.00  0.00     0.000 A 
ENDBRANCH  54  73
BRANCH  66  79
ATOM     79  C   UNL A   1      45.603  27.597  26.767  1.00  0.00    -0.014 A 
ATOM     80  C   UNL A   1      45.508  26.348  26.126  1.00  0.00     0.009 A 
ATOM     81  C   UNL A   1      46.718  28.400  26.485  1.00  0.00     0.009 A 
ATOM     82  C   UNL A   1      46.515  25.903  25.264  1.00  0.00     0.001 A 
ATOM     83  C   UNL A   1      47.712  27.969  25.602  1.00  0.00     0.001 A 
ATOM     84  C   UNL A   1      47.613  26.717  24.997  1.00  0.00     0.000 A 
ENDBRANCH  66  79
ENDBRANCH  40  41
ENDBRANCH  32  35
ENDBRANCH  30  31
ENDBRANCH  29  30
ENDBRANCH  28  29
ENDBRANCH   3  28
TORSDOF 16
ENDMDL
MODEL 2
REMARK VINA RESULT:     -12.3      3.470     10.331
REMARK SMILES Cc1nc2nc(CNC(=O)OC(C)(C)C)nn2c(C)c1CCC(=O)NCCCNC(=O)c1ccc(-c2c3nc(c(-c4ccccc4)c4ccc([nH]4)c(-c4ccccc4)c4nc(c(-c5ccccc5)c5ccc2[nH]5)C=C4)C=C3)cc1
REMARK SMILES IDX 23 1 24 2 25 3 22 5 21 6 20 7 1 8 2 9 3 10 4 11 18 12 5 13
REMARK SMILES IDX 17 14 19 15 6 16 16 17 7 18 8 19 9 20 10 22 11 23 12 24
REMARK SMILES IDX 13 25 14 26 15 27 26 28 27 29 28 30 29 31 30 32 31 34 32 35
REMARK SMILES IDX 33 36 79 37 34 38 78 39 35 40 36 41 37 42 72 43 38 44 77 45
REMARK SMILES IDX 71 46 73 47 39 48 76 49 70 50 69 51 40 53 62 54 47 55 61 56
REMARK SMILES IDX 48 57 51 58 60 59 74 60 49 61 50 62 59 64 75 65 52 66 41 67
REMARK SMILES IDX 42 68 46 69 43 70 45 71 44 72 63 73 64 74 68 75 65 76 67 77
REMARK SMILES IDX 66 78 53 79 54 80 58 81 55 82 57 83 56 84
REMARK H PARENT 25 4 8 21 29 33 73 52 51 63
REMARK Flexibility Score: inf
ROOT
ATOM      1  C   UNL A   1      32.406  23.925  26.747  1.00  0.00     0.220 C 
ATOM      2  O   UNL A   1      31.829  22.922  27.181  1.00  0.00    -0.275 OA
ATOM      3  N   UNL A   1      31.731  25.120  26.783  1.00  0.00    -0.356 N 
ATOM      4  H   UNL A   1      30.787  25.006  27.036  1.00  0.00     0.163 HD
ENDROOT
BRANCH   1   5
ATOM      5  C   UNL A   1      33.794  23.767  26.139  1.00  0.00     0.105 C 
BRANCH   5   6
ATOM      6  C   UNL A   1      34.595  22.614  26.809  1.00  0.00     0.049 C 
BRANCH   6   7
ATOM      7  C   UNL A   1      35.661  22.139  25.860  1.00  0.00    -0.005 A 
ATOM      8  C   UNL A   1      34.098  20.167  25.067  1.00  0.00     0.067 C 
ATOM      9  C   UNL A   1      35.487  20.788  25.196  1.00  0.00     0.046 A 
ATOM     10  N   UNL A   1      36.486  20.132  24.685  1.00  0.00    -0.216 NA
ATOM     11  C   UNL A   1      37.727  20.582  25.053  1.00  0.00     0.252 A 
ATOM     12  C   UNL A   1      36.906  22.698  25.784  1.00  0.00     0.048 A 
ATOM     13  N   UNL A   1      38.756  19.843  25.358  1.00  0.00    -0.192 NA
ATOM     14  N   UNL A   1      37.995  21.831  25.570  1.00  0.00    -0.201 N 
ATOM     15  C   UNL A   1      37.247  24.111  26.110  1.00  0.00     0.067 C 
ATOM     16  C   UNL A   1      39.716  20.554  26.009  1.00  0.00     0.172 A 
ATOM     17  N   UNL A   1      39.321  21.855  26.087  1.00  0.00    -0.148 NA
BRANCH  16  18
ATOM     18  C   UNL A   1      41.154  19.885  26.460  1.00  0.00     0.199 C 
BRANCH  18  19
ATOM     19  N   UNL A   1      42.450  19.600  25.529  1.00  0.00    -0.314 N 
ATOM     20  C   UNL A   1      43.793  19.858  25.148  1.00  0.00     0.408 C 
ATOM     21  H   UNL A   1      42.158  18.886  24.917  1.00  0.00     0.167 HD
ATOM     22  O   UNL A   1      44.304  19.062  24.375  1.00  0.00    -0.225 OA
BRANCH  20  23
ATOM     23  O   UNL A   1      44.503  20.937  25.606  1.00  0.00    -0.444 OA
BRANCH  23  24
ATOM     24  C   UNL A   1      44.445  22.404  25.224  1.00  0.00     0.106 C 
ATOM     25  C   UNL A   1      43.005  22.916  25.122  1.00  0.00     0.056 C 
ATOM     26  C   UNL A   1      45.278  23.301  26.147  1.00  0.00     0.056 C 
ATOM     27  C   UNL A   1      45.058  22.605  23.795  1.00  0.00     0.056 C 
ENDBRANCH  23  24
ENDBRANCH  20  23
ENDBRANCH  18  19
ENDBRANCH  16  18
ENDBRANCH   6   7
ENDBRANCH   5   6
ENDBRANCH   1   5
BRANCH   3  28
ATOM     28  C   UNL A   1      32.083  26.560  26.530  1.00  0.00     0.117 C 
BRANCH  28  29
ATOM     29  C   UNL A   1      32.341  26.944  25.031  1.00  0.00     0.042 C 
BRANCH  29  30
ATOM     30  C   UNL A   1      31.566  28.102  24.231  1.00  0.00     0.118 C 
BRANCH  30  31
ATOM     31  N   UNL A   1      31.324  29.619  24.885  1.00  0.00    -0.352 N 
ATOM     32  C   UNL A   1      31.749  30.658  25.876  1.00  0.00     0.251 C 
ATOM     33  H   UNL A   1      30.557  30.004  24.401  1.00  0.00     0.163 HD
ATOM     34  O   UNL A   1      31.069  31.696  25.821  1.00  0.00    -0.269 OA
BRANCH  32  35
ATOM     35  C   UNL A   1      32.931  30.727  26.994  1.00  0.00     0.039 A 
ATOM     36  C   UNL A   1      33.338  31.866  27.692  1.00  0.00     0.014 A 
ATOM     37  C   UNL A   1      33.646  29.634  27.480  1.00  0.00     0.014 A 
ATOM     38  C   UNL A   1      34.639  32.077  28.180  1.00  0.00     0.010 A 
ATOM     39  C   UNL A   1      34.999  29.791  27.925  1.00  0.00     0.010 A 
ATOM     40  C   UNL A   1      35.565  31.054  28.115  1.00  0.00    -0.014 A 
BRANCH  40  41
ATOM     41  C   UNL A   1      36.909  31.329  28.669  1.00  0.00     0.031 A 
ATOM     42  C   UNL A   1      37.684  30.074  28.652  1.00  0.00     0.074 A 
ATOM     43  C   UNL A   1      37.562  32.419  29.143  1.00  0.00     0.049 A 
ATOM     44  N   UNL A   1      37.910  29.280  29.645  1.00  0.00    -0.248 NA
ATOM     45  C   UNL A   1      38.041  29.559  27.327  1.00  0.00     0.031 C 
ATOM     46  C   UNL A   1      37.221  33.840  29.083  1.00  0.00     0.029 A 
ATOM     47  N   UNL A   1      38.802  32.443  29.755  1.00  0.00    -0.354 N 
ATOM     48  C   UNL A   1      38.547  28.194  29.074  1.00  0.00     0.074 A 
ATOM     49  C   UNL A   1      38.380  28.316  27.646  1.00  0.00     0.031 C 
ATOM     50  C   UNL A   1      38.312  34.583  29.418  1.00  0.00     0.029 A 
ATOM     51  C   UNL A   1      39.391  33.699  29.844  1.00  0.00     0.049 A 
ATOM     52  H   UNL A   1      39.235  31.630  30.102  1.00  0.00     0.167 HD
ATOM     53  C   UNL A   1      39.397  27.397  29.765  1.00  0.00     0.031 A 
ATOM     54  C   UNL A   1      40.680  33.969  30.187  1.00  0.00     0.031 A 
ATOM     55  C   UNL A   1      39.292  27.557  31.190  1.00  0.00     0.049 A 
ATOM     56  C   UNL A   1      41.220  32.808  30.925  1.00  0.00     0.074 A 
ATOM     57  C   UNL A   1      38.278  27.428  32.119  1.00  0.00     0.029 A 
ATOM     58  N   UNL A   1      40.295  28.249  31.823  1.00  0.00    -0.354 N 
ATOM     59  N   UNL A   1      40.913  32.511  32.152  1.00  0.00    -0.248 NA
ATOM     60  C   UNL A   1      41.933  31.773  30.192  1.00  0.00     0.031 C 
ATOM     61  C   UNL A   1      38.542  28.416  33.112  1.00  0.00     0.029 A 
ATOM     62  C   UNL A   1      39.709  29.083  32.741  1.00  0.00     0.049 A 
ATOM     63  H   UNL A   1      41.261  28.163  31.649  1.00  0.00     0.167 HD
ATOM     64  C   UNL A   1      40.989  31.130  32.205  1.00  0.00     0.074 A 
ATOM     65  C   UNL A   1      41.755  30.747  31.026  1.00  0.00     0.031 C 
ATOM     66  C   UNL A   1      40.177  30.419  33.040  1.00  0.00     0.031 A 
BRANCH  53  67
ATOM     67  C   UNL A   1      40.581  26.767  29.087  1.00  0.00    -0.014 A 
ATOM     68  C   UNL A   1      40.444  25.512  28.487  1.00  0.00     0.009 A 
ATOM     69  C   UNL A   1      41.892  27.279  29.207  1.00  0.00     0.009 A 
ATOM     70  C   UNL A   1      41.568  24.807  28.039  1.00  0.00     0.001 A 
ATOM     71  C   UNL A   1      43.006  26.610  28.708  1.00  0.00     0.001 A 
ATOM     72  C   UNL A   1      42.843  25.359  28.141  1.00  0.00     0.000 A 
ENDBRANCH  53  67
BRANCH  54  73
ATOM     73  C   UNL A   1      41.609  35.060  29.788  1.00  0.00    -0.014 A 
ATOM     74  C   UNL A   1      42.759  35.337  30.558  1.00  0.00     0.009 A 
ATOM     75  C   UNL A   1      41.554  35.600  28.494  1.00  0.00     0.009 A 
ATOM     76  C   UNL A   1      43.837  36.061  30.028  1.00  0.00     0.001 A 
ATOM     77  C   UNL A   1      42.629  36.332  27.968  1.00  0.00     0.001 A 
ATOM     78  C   UNL A   1      43.779  36.542  28.725  1.00  0.00     0.000 A 
ENDBRANCH  54  73
BRANCH  66  79
ATOM     79  C   UNL A   1      39.482  31.160  34.156  1.00  0.00    -0.014 A 
ATOM     80  C   UNL A   1      39.953  31.181  35.481  1.00  0.00     0.009 A 
ATOM     81  C   UNL A   1      38.374  31.959  33.837  1.00  0.00     0.009 A 
ATOM     82  C   UNL A   1      39.314  31.946  36.460  1.00  0.00     0.001 A 
ATOM     83  C   UNL A   1      37.750  32.746  34.809  1.00  0.00     0.001 A 
ATOM     84  C   UNL A   1      38.216  32.734  36.122  1.00  0.00     0.000 A 
ENDBRANCH  66  79
ENDBRANCH  40  41
ENDBRANCH  32  35
ENDBRANCH  30  31
ENDBRANCH  29  30
ENDBRANCH  28  29
ENDBRANCH   3  28
TORSDOF 16
ENDMDL
MODEL 3
REMARK VINA RESULT:     -11.8      3.742      8.812
REMARK SMILES Cc1nc2nc(CNC(=O)OC(C)(C)C)nn2c(C)c1CCC(=O)NCCCNC(=O)c1ccc(-c2c3nc(c(-c4ccccc4)c4ccc([nH]4)c(-c4ccccc4)c4nc(c(-c5ccccc5)c5ccc2[nH]5)C=C4)C=C3)cc1
REMARK SMILES IDX 23 1 24 2 25 3 22 5 21 6 20 7 1 8 2 9 3 10 4 11 18 12 5 13
REMARK SMILES IDX 17 14 19 15 6 16 16 17 7 18 8 19 9 20 10 22 11 23 12 24
REMARK SMILES IDX 13 25 14 26 15 27 26 28 27 29 28 30 29 31 30 32 31 34 32 35
REMARK SMILES IDX 33 36 79 37 34 38 78 39 35 40 36 41 37 42 72 43 38 44 77 45
REMARK SMILES IDX 71 46 73 47 39 48 76 49 70 50 69 51 40 53 62 54 47 55 61 56
REMARK SMILES IDX 48 57 51 58 60 59 74 60 49 61 50 62 59 64 75 65 52 66 41 67
REMARK SMILES IDX 42 68 46 69 43 70 45 71 44 72 63 73 64 74 68 75 65 76 67 77
REMARK SMILES IDX 66 78 53 79 54 80 58 81 55 82 57 83 56 84
REMARK H PARENT 25 4 8 21 29 33 73 52 51 63
REMARK Flexibility Score: inf
ROOT
ATOM      1  C   UNL A   1      42.135  21.060  26.837  1.00  0.00     0.220 C 
ATOM      2  O   UNL A   1      42.169  21.466  28.004  1.00  0.00    -0.275 OA
ATOM      3  N   UNL A   1      43.180  20.286  26.397  1.00  0.00    -0.356 N 
ATOM      4  H   UNL A   1      43.920  20.257  27.044  1.00  0.00     0.163 HD
ENDROOT
BRANCH   1   5
ATOM      5  C   UNL A   1      40.982  21.494  25.942  1.00  0.00     0.105 C 
BRANCH   5   6
ATOM      6  C   UNL A   1      39.626  21.505  26.705  1.00  0.00     0.049 C 
BRANCH   6   7
ATOM      7  C   UNL A   1      38.527  21.886  25.750  1.00  0.00    -0.005 A 
ATOM      8  C   UNL A   1      38.958  24.441  26.253  1.00  0.00     0.067 C 
ATOM      9  C   UNL A   1      38.052  23.324  25.734  1.00  0.00     0.046 A 
ATOM     10  N   UNL A   1      36.895  23.668  25.253  1.00  0.00    -0.216 NA
ATOM     11  C   UNL A   1      36.018  22.634  25.052  1.00  0.00     0.252 A 
ATOM     12  C   UNL A   1      37.730  20.976  25.116  1.00  0.00     0.048 A 
ATOM     13  N   UNL A   1      34.741  22.644  25.311  1.00  0.00    -0.192 NA
ATOM     14  N   UNL A   1      36.371  21.306  24.951  1.00  0.00    -0.201 N 
ATOM     15  C   UNL A   1      38.112  19.580  24.763  1.00  0.00     0.067 C 
ATOM     16  C   UNL A   1      34.220  21.388  25.339  1.00  0.00     0.172 A 
ATOM     17  N   UNL A   1      35.201  20.499  25.020  1.00  0.00    -0.148 NA
BRANCH  16  18
ATOM     18  C   UNL A   1      32.613  21.107  25.583  1.00  0.00     0.199 C 
BRANCH  18  19
ATOM     19  N   UNL A   1      31.543  22.059  26.343  1.00  0.00    -0.314 N 
ATOM     20  C   UNL A   1      30.928  23.321  26.555  1.00  0.00     0.408 C 
ATOM     21  H   UNL A   1      31.092  21.459  26.979  1.00  0.00     0.167 HD
ATOM     22  O   UNL A   1      29.924  23.328  27.251  1.00  0.00    -0.225 OA
BRANCH  20  23
ATOM     23  O   UNL A   1      31.414  24.486  26.023  1.00  0.00    -0.444 OA
BRANCH  23  24
ATOM     24  C   UNL A   1      31.200  25.128  24.665  1.00  0.00     0.106 C 
ATOM     25  C   UNL A   1      30.135  26.228  24.708  1.00  0.00     0.056 C 
ATOM     26  C   UNL A   1      32.496  25.649  24.033  1.00  0.00     0.056 C 
ATOM     27  C   UNL A   1      30.653  24.062  23.654  1.00  0.00     0.056 C 
ENDBRANCH  23  24
ENDBRANCH  20  23
ENDBRANCH  18  19
ENDBRANCH  16  18
ENDBRANCH   6   7
ENDBRANCH   5   6
ENDBRANCH   1   5
BRANCH   3  28
ATOM     28  C   UNL A   1      43.469  19.471  25.166  1.00  0.00     0.117 C 
BRANCH  28  29
ATOM     29  C   UNL A   1      44.898  18.828  25.096  1.00  0.00     0.042 C 
BRANCH  29  30
ATOM     30  C   UNL A   1      46.277  19.651  25.046  1.00  0.00     0.118 C 
BRANCH  30  31
ATOM     31  N   UNL A   1      46.342  21.235  24.523  1.00  0.00    -0.352 N 
ATOM     32  C   UNL A   1      45.869  22.647  24.682  1.00  0.00     0.251 C 
ATOM     33  H   UNL A   1      46.978  21.246  23.770  1.00  0.00     0.163 HD
ATOM     34  O   UNL A   1      46.391  23.434  23.876  1.00  0.00    -0.269 OA
BRANCH  32  35
ATOM     35  C   UNL A   1      44.834  23.375  25.707  1.00  0.00     0.039 A 
ATOM     36  C   UNL A   1      43.605  23.945  25.368  1.00  0.00     0.014 A 
ATOM     37  C   UNL A   1      44.988  23.453  27.090  1.00  0.00     0.014 A 
ATOM     38  C   UNL A   1      43.011  25.020  26.052  1.00  0.00     0.010 A 
ATOM     39  C   UNL A   1      44.458  24.566  27.818  1.00  0.00     0.010 A 
ATOM     40  C   UNL A   1      43.576  25.475  27.227  1.00  0.00    -0.014 A 
BRANCH  40  41
ATOM     41  C   UNL A   1      42.889  26.591  27.914  1.00  0.00     0.031 A 
ATOM     42  C   UNL A   1      43.747  27.788  27.825  1.00  0.00     0.074 A 
ATOM     43  C   UNL A   1      41.705  26.760  28.552  1.00  0.00     0.049 A 
ATOM     44  N   UNL A   1      44.518  28.268  28.741  1.00  0.00    -0.248 NA
ATOM     45  C   UNL A   1      43.913  28.359  26.485  1.00  0.00     0.031 C 
ATOM     46  C   UNL A   1      40.522  25.902  28.619  1.00  0.00     0.029 A 
ATOM     47  N   UNL A   1      41.296  27.874  29.261  1.00  0.00    -0.354 N 
ATOM     48  C   UNL A   1      45.201  29.291  28.110  1.00  0.00     0.074 A 
ATOM     49  C   UNL A   1      44.967  29.138  26.695  1.00  0.00     0.031 C 
ATOM     50  C   UNL A   1      39.474  26.613  29.117  1.00  0.00     0.029 A 
ATOM     51  C   UNL A   1      39.933  27.933  29.531  1.00  0.00     0.049 A 
ATOM     52  H   UNL A   1      41.924  28.574  29.552  1.00  0.00     0.167 HD
ATOM     53  C   UNL A   1      45.702  30.359  28.778  1.00  0.00     0.031 A 
ATOM     54  C   UNL A   1      39.244  29.008  30.003  1.00  0.00     0.031 A 
ATOM     55  C   UNL A   1      45.780  30.154  30.198  1.00  0.00     0.049 A 
ATOM     56  C   UNL A   1      40.202  29.928  30.653  1.00  0.00     0.074 A 
ATOM     57  C   UNL A   1      46.400  29.237  31.024  1.00  0.00     0.029 A 
ATOM     58  N   UNL A   1      44.849  30.793  30.980  1.00  0.00    -0.354 N 
ATOM     59  N   UNL A   1      40.749  29.718  31.813  1.00  0.00    -0.248 NA
ATOM     60  C   UNL A   1      40.788  31.007  29.874  1.00  0.00     0.031 C 
ATOM     61  C   UNL A   1      45.523  29.069  32.135  1.00  0.00     0.029 A 
ATOM     62  C   UNL A   1      44.423  29.902  31.932  1.00  0.00     0.049 A 
ATOM     63  H   UNL A   1      44.541  31.723  30.876  1.00  0.00     0.167 HD
ATOM     64  C   UNL A   1      41.994  30.316  31.723  1.00  0.00     0.074 A 
ATOM     65  C   UNL A   1      41.904  31.209  30.576  1.00  0.00     0.031 C 
ATOM     66  C   UNL A   1      43.061  29.812  32.410  1.00  0.00     0.031 A 
BRANCH  53  67
ATOM     67  C   UNL A   1      45.745  31.716  28.132  1.00  0.00    -0.014 A 
ATOM     68  C   UNL A   1      44.553  32.415  27.919  1.00  0.00     0.009 A 
ATOM     69  C   UNL A   1      46.910  32.238  27.528  1.00  0.00     0.009 A 
ATOM     70  C   UNL A   1      44.535  33.575  27.134  1.00  0.00     0.001 A 
ATOM     71  C   UNL A   1      46.908  33.423  26.798  1.00  0.00     0.001 A 
ATOM     72  C   UNL A   1      45.711  34.081  26.583  1.00  0.00     0.000 A 
ENDBRANCH  53  67
BRANCH  54  73
ATOM     73  C   UNL A   1      37.842  29.461  29.799  1.00  0.00    -0.014 A 
ATOM     74  C   UNL A   1      37.203  30.264  30.767  1.00  0.00     0.009 A 
ATOM     75  C   UNL A   1      37.252  29.390  28.528  1.00  0.00     0.009 A 
ATOM     76  C   UNL A   1      36.064  31.020  30.453  1.00  0.00     0.001 A 
ATOM     77  C   UNL A   1      36.108  30.139  28.218  1.00  0.00     0.001 A 
ATOM     78  C   UNL A   1      35.528  30.972  29.171  1.00  0.00     0.000 A 
ENDBRANCH  54  73
BRANCH  66  79
ATOM     79  C   UNL A   1      42.788  28.849  33.540  1.00  0.00    -0.014 A 
ATOM     80  C   UNL A   1      42.759  27.452  33.375  1.00  0.00     0.009 A 
ATOM     81  C   UNL A   1      42.670  29.363  34.840  1.00  0.00     0.009 A 
ATOM     82  C   UNL A   1      42.578  26.602  34.470  1.00  0.00     0.001 A 
ATOM     83  C   UNL A   1      42.516  28.513  35.938  1.00  0.00     0.001 A 
ATOM     84  C   UNL A   1      42.463  27.133  35.752  1.00  0.00     0.000 A 
ENDBRANCH  66  79
ENDBRANCH  40  41
ENDBRANCH  32  35
ENDBRANCH  30  31
ENDBRANCH  29  30
ENDBRANCH  28  29
ENDBRANCH   3  28
TORSDOF 16
ENDMDL
