MODEL 1
REMARK VINA RESULT:     -12.1      0.000      0.000
REMARK SMILES O=C(NCCCNC(=O)[C@@H]1CN(c2ncccn2)CCN1C(=O)C1CCOCC1)c1ccc(-c2c3nc(c(-c4ccccc4)c4ccc([nH]4)c(-c4ccccc4)c4nc(c(-c5ccccc5)c5ccc2[nH]5)C=C4)C=C3)cc1
REMARK SMILES IDX 5 1 4 2 3 3 1 4 2 5 30 7 31 8 77 9 32 10 76 11 33 12 34 13
REMARK SMILES IDX 35 14 70 15 36 16 75 17 69 18 71 19 37 20 74 21 68 22 67 23
REMARK SMILES IDX 38 25 60 26 45 27 59 28 46 29 49 30 58 31 72 32 47 33 48 34
REMARK SMILES IDX 57 36 73 37 50 38 39 39 40 40 44 41 41 42 43 43 42 44 61 45
REMARK SMILES IDX 62 46 66 47 63 48 65 49 64 50 51 51 52 52 56 53 53 54 55 55
REMARK SMILES IDX 54 56 6 57 7 58 8 59 9 61 10 62 11 63 21 64 12 65 20 66
REMARK SMILES IDX 19 67 22 68 23 69 24 70 25 71 29 72 26 73 28 74 27 75 13 76
REMARK SMILES IDX 14 77 18 78 15 79 17 80 16 81
REMARK H PARENT 3 6 71 24 49 35 7 60
REMARK Flexibility Score: inf
ROOT
ATOM      1  C   UNL A   1      31.549  31.819  26.522  1.00  0.00     0.042 C 
ENDROOT
BRANCH   1   2
ATOM      2  C   UNL A   1      32.695  32.519  27.245  1.00  0.00     0.118 C 
BRANCH   2   3
ATOM      3  N   UNL A   1      32.394  33.907  27.575  1.00  0.00    -0.352 N 
ATOM      4  O   UNL A   1      32.566  35.826  28.755  1.00  0.00    -0.269 OA
ATOM      5  C   UNL A   1      33.024  34.729  28.481  1.00  0.00     0.251 C 
ATOM      6  H   UNL A   1      31.642  34.308  27.084  1.00  0.00     0.163 HD
BRANCH   5   7
ATOM      7  C   UNL A   1      34.252  34.244  29.146  1.00  0.00     0.039 A 
ATOM      8  C   UNL A   1      35.505  34.521  28.597  1.00  0.00     0.014 A 
ATOM      9  C   UNL A   1      34.139  33.467  30.301  1.00  0.00     0.014 A 
ATOM     10  C   UNL A   1      36.632  33.897  29.115  1.00  0.00     0.010 A 
ATOM     11  C   UNL A   1      35.284  32.906  30.869  1.00  0.00     0.010 A 
ATOM     12  C   UNL A   1      36.535  33.083  30.255  1.00  0.00    -0.014 A 
BRANCH  12  13
ATOM     13  C   UNL A   1      37.760  32.451  30.802  1.00  0.00     0.031 A 
ATOM     14  C   UNL A   1      38.377  32.931  32.086  1.00  0.00     0.074 A 
ATOM     15  C   UNL A   1      38.294  31.402  30.147  1.00  0.00     0.049 A 
ATOM     16  N   UNL A   1      39.424  32.463  32.721  1.00  0.00    -0.248 NA
ATOM     17  C   UNL A   1      37.749  34.090  32.739  1.00  0.00     0.031 C 
ATOM     18  C   UNL A   1      37.783  30.842  28.893  1.00  0.00     0.029 A 
ATOM     19  N   UNL A   1      39.363  30.603  30.458  1.00  0.00    -0.354 N 
ATOM     20  C   UNL A   1      39.596  33.286  33.828  1.00  0.00     0.074 A 
ATOM     21  C   UNL A   1      38.558  34.292  33.770  1.00  0.00     0.031 C 
ATOM     22  C   UNL A   1      38.499  29.754  28.576  1.00  0.00     0.029 A 
ATOM     23  C   UNL A   1      39.554  29.576  29.567  1.00  0.00     0.049 A 
ATOM     24  H   UNL A   1      39.939  30.752  31.242  1.00  0.00     0.167 HD
ATOM     25  C   UNL A   1      40.535  33.209  34.801  1.00  0.00     0.031 A 
ATOM     26  C   UNL A   1      40.477  28.599  29.545  1.00  0.00     0.031 A 
ATOM     27  C   UNL A   1      41.559  32.199  34.866  1.00  0.00     0.049 A 
ATOM     28  C   UNL A   1      41.510  28.544  30.630  1.00  0.00     0.074 A 
ATOM     29  C   UNL A   1      42.533  32.017  35.834  1.00  0.00     0.029 A 
ATOM     30  N   UNL A   1      41.743  31.200  33.922  1.00  0.00    -0.354 N 
ATOM     31  N   UNL A   1      41.644  29.315  31.680  1.00  0.00    -0.248 NA
ATOM     32  C   UNL A   1      42.518  27.481  30.524  1.00  0.00     0.031 C 
ATOM     33  C   UNL A   1      43.332  30.933  35.453  1.00  0.00     0.029 A 
ATOM     34  C   UNL A   1      42.825  30.411  34.273  1.00  0.00     0.049 A 
ATOM     35  H   UNL A   1      41.186  31.071  33.121  1.00  0.00     0.167 HD
ATOM     36  C   UNL A   1      42.740  28.822  32.372  1.00  0.00     0.074 A 
ATOM     37  C   UNL A   1      43.224  27.674  31.629  1.00  0.00     0.031 C 
ATOM     38  C   UNL A   1      43.297  29.278  33.521  1.00  0.00     0.031 A 
BRANCH  25  39
ATOM     39  C   UNL A   1      40.518  34.274  35.863  1.00  0.00    -0.014 A 
ATOM     40  C   UNL A   1      41.222  35.478  35.705  1.00  0.00     0.009 A 
ATOM     41  C   UNL A   1      39.756  34.079  37.027  1.00  0.00     0.009 A 
ATOM     42  C   UNL A   1      41.191  36.450  36.709  1.00  0.00     0.001 A 
ATOM     43  C   UNL A   1      39.709  35.062  38.016  1.00  0.00     0.001 A 
ATOM     44  C   UNL A   1      40.433  36.243  37.860  1.00  0.00     0.000 A 
ENDBRANCH  25  39
BRANCH  26  45
ATOM     45  C   UNL A   1      40.451  27.589  28.458  1.00  0.00    -0.014 A 
ATOM     46  C   UNL A   1      39.717  26.403  28.609  1.00  0.00     0.009 A 
ATOM     47  C   UNL A   1      41.132  27.821  27.253  1.00  0.00     0.009 A 
ATOM     48  C   UNL A   1      39.678  25.463  27.578  1.00  0.00     0.001 A 
ATOM     49  C   UNL A   1      41.070  26.891  26.215  1.00  0.00     0.001 A 
ATOM     50  C   UNL A   1      40.348  25.710  26.380  1.00  0.00     0.000 A 
ENDBRANCH  26  45
BRANCH  38  51
ATOM     51  C   UNL A   1      44.471  28.510  34.055  1.00  0.00    -0.014 A 
ATOM     52  C   UNL A   1      45.785  28.857  33.707  1.00  0.00     0.009 A 
ATOM     53  C   UNL A   1      44.256  27.436  34.932  1.00  0.00     0.009 A 
ATOM     54  C   UNL A   1      46.861  28.117  34.201  1.00  0.00     0.001 A 
ATOM     55  C   UNL A   1      45.335  26.714  35.442  1.00  0.00     0.001 A 
ATOM     56  C   UNL A   1      46.636  27.050  35.069  1.00  0.00     0.000 A 
ENDBRANCH  38  51
ENDBRANCH  12  13
ENDBRANCH   5   7
ENDBRANCH   2   3
ENDBRANCH   1   2
BRANCH   1  57
ATOM     57  C   UNL A   1      31.777  30.324  26.343  1.00  0.00     0.117 C 
BRANCH  57  58
ATOM     58  N   UNL A   1      32.625  30.083  25.191  1.00  0.00    -0.354 N 
ATOM     59  C   UNL A   1      32.786  28.958  24.449  1.00  0.00     0.244 C 
ATOM     60  H   UNL A   1      33.166  30.853  24.904  1.00  0.00     0.163 HD
ATOM     61  O   UNL A   1      33.812  28.874  23.770  1.00  0.00    -0.273 OA
BRANCH  59  62
ATOM     62  C   UNL A   1      31.736  27.845  24.471  1.00  0.00     0.193 C 
ATOM     63  C   UNL A   1      32.396  26.550  23.938  1.00  0.00     0.155 C 
ATOM     64  N   UNL A   1      30.352  27.996  23.888  1.00  0.00    -0.327 N 
ATOM     65  N   UNL A   1      31.537  25.389  24.189  1.00  0.00    -0.336 N 
ATOM     66  C   UNL A   1      29.520  26.820  24.259  1.00  0.00     0.142 C 
ATOM     67  C   UNL A   1      30.145  25.494  23.743  1.00  0.00     0.141 C 
BRANCH  64  68
ATOM     68  C   UNL A   1      29.927  28.666  22.743  1.00  0.00     0.226 C 
ATOM     69  O   UNL A   1      30.305  28.279  21.626  1.00  0.00    -0.275 OA
BRANCH  68  70
ATOM     70  C   UNL A   1      28.913  29.820  22.736  1.00  0.00     0.083 C 
ATOM     71  C   UNL A   1      28.492  30.250  21.334  1.00  0.00     0.042 C 
ATOM     72  C   UNL A   1      29.249  30.911  23.752  1.00  0.00     0.042 C 
ATOM     73  C   UNL A   1      28.034  31.698  21.227  1.00  0.00     0.161 C 
ATOM     74  C   UNL A   1      28.635  32.261  23.427  1.00  0.00     0.161 C 
ATOM     75  O   UNL A   1      28.802  32.572  22.052  1.00  0.00    -0.381 OA
ENDBRANCH  68  70
ENDBRANCH  64  68
BRANCH  65  76
ATOM     76  C   UNL A   1      31.800  24.591  25.277  1.00  0.00     0.225 A 
ATOM     77  N   UNL A   1      30.757  24.008  25.889  1.00  0.00    -0.221 NA
ATOM     78  N   UNL A   1      33.077  24.378  25.644  1.00  0.00    -0.221 NA
ATOM     79  C   UNL A   1      31.025  23.114  26.860  1.00  0.00     0.117 A 
ATOM     80  C   UNL A   1      33.292  23.513  26.658  1.00  0.00     0.117 A 
ATOM     81  C   UNL A   1      32.292  22.826  27.296  1.00  0.00     0.040 A 
ENDBRANCH  65  76
ENDBRANCH  59  62
ENDBRANCH  57  58
ENDBRANCH   1  57
TORSDOF 13
ENDMDL
MODEL 2
REMARK VINA RESULT:     -12.0      0.674      5.836
REMARK SMILES O=C(NCCCNC(=O)[C@@H]1CN(c2ncccn2)CCN1C(=O)C1CCOCC1)c1ccc(-c2c3nc(c(-c4ccccc4)c4ccc([nH]4)c(-c4ccccc4)c4nc(c(-c5ccccc5)c5ccc2[nH]5)C=C4)C=C3)cc1
REMARK SMILES IDX 5 1 4 2 3 3 1 4 2 5 30 7 31 8 77 9 32 10 76 11 33 12 34 13
REMARK SMILES IDX 35 14 70 15 36 16 75 17 69 18 71 19 37 20 74 21 68 22 67 23
REMARK SMILES IDX 38 25 60 26 45 27 59 28 46 29 49 30 58 31 72 32 47 33 48 34
REMARK SMILES IDX 57 36 73 37 50 38 39 39 40 40 44 41 41 42 43 43 42 44 61 45
REMARK SMILES IDX 62 46 66 47 63 48 65 49 64 50 51 51 52 52 56 53 53 54 55 55
REMARK SMILES IDX 54 56 6 57 7 58 8 59 9 61 10 62 11 63 21 64 12 65 20 66
REMARK SMILES IDX 19 67 22 68 23 69 24 70 25 71 29 72 26 73 28 74 27 75 13 76
REMARK SMILES IDX 14 77 18 78 15 79 17 80 16 81
REMARK H PARENT 3 6 71 24 49 35 7 60
REMARK Flexibility Score: inf
ROOT
ATOM      1  C   UNL A   1      31.658  31.675  26.690  1.00  0.00     0.042 C 
ENDROOT
BRANCH   1   2
ATOM      2  C   UNL A   1      32.861  32.405  27.278  1.00  0.00     0.118 C 
BRANCH   2   3
ATOM      3  N   UNL A   1      32.564  33.782  27.652  1.00  0.00    -0.352 N 
ATOM      4  O   UNL A   1      32.755  35.669  28.880  1.00  0.00    -0.269 OA
ATOM      5  C   UNL A   1      33.211  34.582  28.566  1.00  0.00     0.251 C 
ATOM      6  H   UNL A   1      31.798  34.193  27.190  1.00  0.00     0.163 HD
BRANCH   5   7
ATOM      7  C   UNL A   1      34.456  34.085  29.188  1.00  0.00     0.039 A 
ATOM      8  C   UNL A   1      35.695  34.379  28.616  1.00  0.00     0.014 A 
ATOM      9  C   UNL A   1      34.373  33.279  30.327  1.00  0.00     0.014 A 
ATOM     10  C   UNL A   1      36.836  33.746  29.091  1.00  0.00     0.010 A 
ATOM     11  C   UNL A   1      35.533  32.708  30.852  1.00  0.00     0.010 A 
ATOM     12  C   UNL A   1      36.768  32.904  30.213  1.00  0.00    -0.014 A 
BRANCH  12  13
ATOM     13  C   UNL A   1      38.007  32.262  30.715  1.00  0.00     0.031 A 
ATOM     14  C   UNL A   1      38.545  31.008  30.083  1.00  0.00     0.074 A 
ATOM     15  C   UNL A   1      38.675  32.846  31.729  1.00  0.00     0.049 A 
ATOM     16  N   UNL A   1      39.635  30.342  30.374  1.00  0.00    -0.248 NA
ATOM     17  C   UNL A   1      37.756  30.418  28.990  1.00  0.00     0.031 C 
ATOM     18  C   UNL A   1      38.255  34.067  32.421  1.00  0.00     0.029 A 
ATOM     19  N   UNL A   1      39.858  32.510  32.332  1.00  0.00    -0.354 N 
ATOM     20  C   UNL A   1      39.647  29.242  29.525  1.00  0.00     0.074 A 
ATOM     21  C   UNL A   1      38.448  29.320  28.717  1.00  0.00     0.031 C 
ATOM     22  C   UNL A   1      39.197  34.412  33.310  1.00  0.00     0.029 A 
ATOM     23  C   UNL A   1      40.254  33.407  33.294  1.00  0.00     0.049 A 
ATOM     24  H   UNL A   1      40.374  31.704  32.100  1.00  0.00     0.167 HD
ATOM     25  C   UNL A   1      40.572  28.258  29.428  1.00  0.00     0.031 A 
ATOM     26  C   UNL A   1      41.344  33.420  34.079  1.00  0.00     0.031 A 
ATOM     27  C   UNL A   1      41.772  28.189  30.221  1.00  0.00     0.049 A 
ATOM     28  C   UNL A   1      42.348  32.313  33.957  1.00  0.00     0.074 A 
ATOM     29  C   UNL A   1      42.789  27.249  30.169  1.00  0.00     0.029 A 
ATOM     30  N   UNL A   1      42.116  29.094  31.212  1.00  0.00    -0.354 N 
ATOM     31  N   UNL A   1      42.355  31.294  33.133  1.00  0.00    -0.248 NA
ATOM     32  C   UNL A   1      43.493  32.360  34.875  1.00  0.00     0.031 C 
ATOM     33  C   UNL A   1      43.727  27.564  31.158  1.00  0.00     0.029 A 
ATOM     34  C   UNL A   1      43.318  28.727  31.792  1.00  0.00     0.049 A 
ATOM     35  H   UNL A   1      41.585  29.883  31.464  1.00  0.00     0.167 HD
ATOM     36  C   UNL A   1      43.513  30.587  33.419  1.00  0.00     0.074 A 
ATOM     37  C   UNL A   1      44.191  31.303  34.482  1.00  0.00     0.031 C 
ATOM     38  C   UNL A   1      43.976  29.446  32.852  1.00  0.00     0.031 A 
BRANCH  25  39
ATOM     39  C   UNL A   1      40.303  27.151  28.446  1.00  0.00    -0.014 A 
ATOM     40  C   UNL A   1      39.510  26.044  28.788  1.00  0.00     0.009 A 
ATOM     41  C   UNL A   1      40.827  27.235  27.146  1.00  0.00     0.009 A 
ATOM     42  C   UNL A   1      39.277  25.028  27.857  1.00  0.00     0.001 A 
ATOM     43  C   UNL A   1      40.573  26.230  26.212  1.00  0.00     0.001 A 
ATOM     44  C   UNL A   1      39.806  25.123  26.571  1.00  0.00     0.000 A 
ENDBRANCH  25  39
BRANCH  26  45
ATOM     45  C   UNL A   1      41.542  34.532  35.042  1.00  0.00    -0.014 A 
ATOM     46  C   UNL A   1      41.004  34.456  36.335  1.00  0.00     0.009 A 
ATOM     47  C   UNL A   1      42.298  35.659  34.683  1.00  0.00     0.009 A 
ATOM     48  C   UNL A   1      41.207  35.494  37.245  1.00  0.00     0.001 A 
ATOM     49  C   UNL A   1      42.522  36.683  35.604  1.00  0.00     0.001 A 
ATOM     50  C   UNL A   1      41.971  36.603  36.882  1.00  0.00     0.000 A 
ENDBRANCH  26  45
BRANCH  38  51
ATOM     51  C   UNL A   1      45.291  28.926  33.353  1.00  0.00    -0.014 A 
ATOM     52  C   UNL A   1      46.503  29.342  32.781  1.00  0.00     0.009 A 
ATOM     53  C   UNL A   1      45.316  28.019  34.423  1.00  0.00     0.009 A 
ATOM     54  C   UNL A   1      47.714  28.831  33.250  1.00  0.00     0.001 A 
ATOM     55  C   UNL A   1      46.530  27.529  34.906  1.00  0.00     0.001 A 
ATOM     56  C   UNL A   1      47.727  27.928  34.313  1.00  0.00     0.000 A 
ENDBRANCH  38  51
ENDBRANCH  12  13
ENDBRANCH   5   7
ENDBRANCH   2   3
ENDBRANCH   1   2
BRANCH   1  57
ATOM     57  C   UNL A   1      31.913  30.193  26.452  1.00  0.00     0.117 C 
BRANCH  57  58
ATOM     58  N   UNL A   1      32.699  30.009  25.248  1.00  0.00    -0.354 N 
ATOM     59  C   UNL A   1      32.837  28.914  24.457  1.00  0.00     0.244 C 
ATOM     60  H   UNL A   1      33.211  30.799  24.960  1.00  0.00     0.163 HD
ATOM     61  O   UNL A   1      33.825  28.873  23.720  1.00  0.00    -0.273 OA
BRANCH  59  62
ATOM     62  C   UNL A   1      31.807  27.783  24.494  1.00  0.00     0.193 C 
ATOM     63  C   UNL A   1      32.481  26.501  23.947  1.00  0.00     0.155 C 
ATOM     64  N   UNL A   1      30.411  27.910  23.937  1.00  0.00    -0.327 N 
ATOM     65  N   UNL A   1      31.647  25.324  24.210  1.00  0.00    -0.336 N 
ATOM     66  C   UNL A   1      29.607  26.719  24.320  1.00  0.00     0.142 C 
ATOM     67  C   UNL A   1      30.246  25.405  23.789  1.00  0.00     0.141 C 
BRANCH  64  68
ATOM     68  C   UNL A   1      29.953  28.575  22.801  1.00  0.00     0.226 C 
ATOM     69  O   UNL A   1      30.273  28.164  21.675  1.00  0.00    -0.275 OA
BRANCH  68  70
ATOM     70  C   UNL A   1      28.967  29.754  22.820  1.00  0.00     0.083 C 
ATOM     71  C   UNL A   1      28.496  30.173  21.432  1.00  0.00     0.042 C 
ATOM     72  C   UNL A   1      29.374  30.850  23.805  1.00  0.00     0.042 C 
ATOM     73  C   UNL A   1      28.068  31.631  21.323  1.00  0.00     0.161 C 
ATOM     74  C   UNL A   1      28.778  32.210  23.486  1.00  0.00     0.161 C 
ATOM     75  O   UNL A   1      28.892  32.497  22.100  1.00  0.00    -0.381 OA
ENDBRANCH  68  70
ENDBRANCH  64  68
BRANCH  65  76
ATOM     76  C   UNL A   1      31.944  24.529  25.292  1.00  0.00     0.225 A 
ATOM     77  N   UNL A   1      30.939  23.837  25.851  1.00  0.00    -0.221 NA
ATOM     78  N   UNL A   1      33.221  24.426  25.703  1.00  0.00    -0.221 NA
ATOM     79  C   UNL A   1      31.253  22.949  26.813  1.00  0.00     0.117 A 
ATOM     80  C   UNL A   1      33.479  23.562  26.706  1.00  0.00     0.117 A 
ATOM     81  C   UNL A   1      32.526  22.770  27.292  1.00  0.00     0.040 A 
ENDBRANCH  65  76
ENDBRANCH  59  62
ENDBRANCH  57  58
ENDBRANCH   1  57
TORSDOF 13
ENDMDL
MODEL 3
REMARK VINA RESULT:     -12.0      5.429     10.621
REMARK SMILES O=C(NCCCNC(=O)[C@@H]1CN(c2ncccn2)CCN1C(=O)C1CCOCC1)c1ccc(-c2c3nc(c(-c4ccccc4)c4ccc([nH]4)c(-c4ccccc4)c4nc(c(-c5ccccc5)c5ccc2[nH]5)C=C4)C=C3)cc1
REMARK SMILES IDX 5 1 4 2 3 3 1 4 2 5 30 7 31 8 77 9 32 10 76 11 33 12 34 13
REMARK SMILES IDX 35 14 70 15 36 16 75 17 69 18 71 19 37 20 74 21 68 22 67 23
REMARK SMILES IDX 38 25 60 26 45 27 59 28 46 29 49 30 58 31 72 32 47 33 48 34
REMARK SMILES IDX 57 36 73 37 50 38 39 39 40 40 44 41 41 42 43 43 42 44 61 45
REMARK SMILES IDX 62 46 66 47 63 48 65 49 64 50 51 51 52 52 56 53 53 54 55 55
REMARK SMILES IDX 54 56 6 57 7 58 8 59 9 61 10 62 11 63 21 64 12 65 20 66
REMARK SMILES IDX 19 67 22 68 23 69 24 70 25 71 29 72 26 73 28 74 27 75 13 76
REMARK SMILES IDX 14 77 18 78 15 79 17 80 16 81
REMARK H PARENT 3 6 71 24 49 35 7 60
REMARK Flexibility Score: inf
ROOT
ATOM      1  C   UNL A   1      37.871  19.916  24.968  1.00  0.00     0.042 C 
ENDROOT
BRANCH   1   2
ATOM      2  C   UNL A   1      39.113  20.249  25.788  1.00  0.00     0.118 C 
BRANCH   2   3
ATOM      3  N   UNL A   1      40.088  19.166  25.807  1.00  0.00    -0.352 N 
ATOM      4  O   UNL A   1      42.158  18.260  25.848  1.00  0.00    -0.269 OA
ATOM      5  C   UNL A   1      41.448  19.240  26.006  1.00  0.00     0.251 C 
ATOM      6  H   UNL A   1      39.726  18.264  25.658  1.00  0.00     0.163 HD
BRANCH   5   7
ATOM      7  C   UNL A   1      42.041  20.541  26.383  1.00  0.00     0.039 A 
ATOM      8  C   UNL A   1      42.197  20.879  27.728  1.00  0.00     0.014 A 
ATOM      9  C   UNL A   1      42.398  21.442  25.377  1.00  0.00     0.014 A 
ATOM     10  C   UNL A   1      42.567  22.173  28.070  1.00  0.00     0.010 A 
ATOM     11  C   UNL A   1      42.848  22.717  25.724  1.00  0.00     0.010 A 
ATOM     12  C   UNL A   1      42.896  23.106  27.073  1.00  0.00    -0.014 A 
BRANCH  12  13
ATOM     13  C   UNL A   1      43.313  24.474  27.468  1.00  0.00     0.031 A 
ATOM     14  C   UNL A   1      44.748  24.909  27.368  1.00  0.00     0.074 A 
ATOM     15  C   UNL A   1      42.372  25.343  27.884  1.00  0.00     0.049 A 
ATOM     16  N   UNL A   1      45.274  26.080  27.634  1.00  0.00    -0.248 NA
ATOM     17  C   UNL A   1      45.724  23.903  26.920  1.00  0.00     0.031 C 
ATOM     18  C   UNL A   1      40.945  25.038  28.020  1.00  0.00     0.029 A 
ATOM     19  N   UNL A   1      42.466  26.662  28.239  1.00  0.00    -0.354 N 
ATOM     20  C   UNL A   1      46.639  25.943  27.417  1.00  0.00     0.074 A 
ATOM     21  C   UNL A   1      46.865  24.571  27.012  1.00  0.00     0.031 C 
ATOM     22  C   UNL A   1      40.290  26.155  28.368  1.00  0.00     0.029 A 
ATOM     23  C   UNL A   1      41.255  27.235  28.539  1.00  0.00     0.049 A 
ATOM     24  H   UNL A   1      43.320  27.152  28.278  1.00  0.00     0.167 HD
ATOM     25  C   UNL A   1      47.614  26.874  27.544  1.00  0.00     0.031 A 
ATOM     26  C   UNL A   1      40.951  28.490  28.912  1.00  0.00     0.031 A 
ATOM     27  C   UNL A   1      47.387  28.242  27.934  1.00  0.00     0.049 A 
ATOM     28  C   UNL A   1      42.051  29.498  29.054  1.00  0.00     0.074 A 
ATOM     29  C   UNL A   1      48.307  29.270  28.055  1.00  0.00     0.029 A 
ATOM     30  N   UNL A   1      46.150  28.772  28.267  1.00  0.00    -0.354 N 
ATOM     31  N   UNL A   1      43.333  29.358  28.822  1.00  0.00    -0.248 NA
ATOM     32  C   UNL A   1      41.660  30.838  29.510  1.00  0.00     0.031 C 
ATOM     33  C   UNL A   1      47.632  30.411  28.502  1.00  0.00     0.029 A 
ATOM     34  C   UNL A   1      46.285  30.106  28.613  1.00  0.00     0.049 A 
ATOM     35  H   UNL A   1      45.302  28.273  28.258  1.00  0.00     0.167 HD
ATOM     36  C   UNL A   1      43.901  30.595  29.086  1.00  0.00     0.074 A 
ATOM     37  C   UNL A   1      42.821  31.478  29.480  1.00  0.00     0.031 C 
ATOM     38  C   UNL A   1      45.202  30.968  29.008  1.00  0.00     0.031 A 
BRANCH  25  39
ATOM     39  C   UNL A   1      49.030  26.432  27.292  1.00  0.00    -0.014 A 
ATOM     40  C   UNL A   1      49.857  25.990  28.336  1.00  0.00     0.009 A 
ATOM     41  C   UNL A   1      49.530  26.429  25.980  1.00  0.00     0.009 A 
ATOM     42  C   UNL A   1      51.169  25.586  28.074  1.00  0.00     0.001 A 
ATOM     43  C   UNL A   1      50.833  26.003  25.719  1.00  0.00     0.001 A 
ATOM     44  C   UNL A   1      51.655  25.591  26.767  1.00  0.00     0.000 A 
ENDBRANCH  25  39
BRANCH  26  45
ATOM     45  C   UNL A   1      39.536  28.858  29.165  1.00  0.00    -0.014 A 
ATOM     46  C   UNL A   1      38.739  29.367  28.129  1.00  0.00     0.009 A 
ATOM     47  C   UNL A   1      38.967  28.671  30.434  1.00  0.00     0.009 A 
ATOM     48  C   UNL A   1      37.403  29.694  28.364  1.00  0.00     0.001 A 
ATOM     49  C   UNL A   1      37.624  28.976  30.660  1.00  0.00     0.001 A 
ATOM     50  C   UNL A   1      36.845  29.492  29.626  1.00  0.00     0.000 A 
ENDBRANCH  26  45
BRANCH  38  51
ATOM     51  C   UNL A   1      45.516  32.401  29.326  1.00  0.00    -0.014 A 
ATOM     52  C   UNL A   1      45.861  32.798  30.627  1.00  0.00     0.009 A 
ATOM     53  C   UNL A   1      45.480  33.362  28.304  1.00  0.00     0.009 A 
ATOM     54  C   UNL A   1      46.130  34.139  30.904  1.00  0.00     0.001 A 
ATOM     55  C   UNL A   1      45.773  34.698  28.581  1.00  0.00     0.001 A 
ATOM     56  C   UNL A   1      46.089  35.086  29.881  1.00  0.00     0.000 A 
ENDBRANCH  38  51
ENDBRANCH  12  13
ENDBRANCH   5   7
ENDBRANCH   2   3
ENDBRANCH   1   2
BRANCH   1  57
ATOM     57  C   UNL A   1      36.946  21.109  24.768  1.00  0.00     0.117 C 
BRANCH  57  58
ATOM     58  N   UNL A   1      36.167  21.342  25.969  1.00  0.00    -0.354 N 
ATOM     59  C   UNL A   1      34.982  21.985  26.126  1.00  0.00     0.244 C 
ATOM     60  H   UNL A   1      36.556  20.977  26.796  1.00  0.00     0.163 HD
ATOM     61  O   UNL A   1      34.701  22.379  27.261  1.00  0.00    -0.273 OA
BRANCH  59  62
ATOM     62  C   UNL A   1      34.047  22.213  24.936  1.00  0.00     0.193 C 
ATOM     63  C   UNL A   1      33.040  23.325  25.321  1.00  0.00     0.155 C 
ATOM     64  N   UNL A   1      33.333  21.098  24.213  1.00  0.00    -0.327 N 
ATOM     65  N   UNL A   1      32.299  23.785  24.143  1.00  0.00    -0.336 N 
ATOM     66  C   UNL A   1      32.680  21.631  22.987  1.00  0.00     0.142 C 
ATOM     67  C   UNL A   1      31.658  22.751  23.327  1.00  0.00     0.141 C 
BRANCH  64  68
ATOM     68  C   UNL A   1      32.764  19.926  24.708  1.00  0.00     0.226 C 
ATOM     69  O   UNL A   1      31.777  19.988  25.458  1.00  0.00    -0.275 OA
BRANCH  68  70
ATOM     70  C   UNL A   1      33.203  18.509  24.308  1.00  0.00     0.083 C 
ATOM     71  C   UNL A   1      32.253  17.419  24.794  1.00  0.00     0.042 C 
ATOM     72  C   UNL A   1      34.705  18.284  24.481  1.00  0.00     0.042 C 
ATOM     73  C   UNL A   1      32.903  16.056  24.993  1.00  0.00     0.161 C 
ATOM     74  C   UNL A   1      35.093  16.823  24.624  1.00  0.00     0.161 C 
ATOM     75  O   UNL A   1      34.221  16.157  25.526  1.00  0.00    -0.381 OA
ENDBRANCH  68  70
ENDBRANCH  64  68
BRANCH  65  76
ATOM     76  C   UNL A   1      32.705  24.936  23.511  1.00  0.00     0.225 A 
ATOM     77  N   UNL A   1      32.292  25.134  22.249  1.00  0.00    -0.221 NA
ATOM     78  N   UNL A   1      33.438  25.837  24.191  1.00  0.00    -0.221 NA
ATOM     79  C   UNL A   1      32.566  26.324  21.683  1.00  0.00     0.117 A 
ATOM     80  C   UNL A   1      33.733  26.994  23.563  1.00  0.00     0.117 A 
ATOM     81  C   UNL A   1      33.299  27.306  22.301  1.00  0.00     0.040 A 
ENDBRANCH  65  76
ENDBRANCH  59  62
ENDBRANCH  57  58
ENDBRANCH   1  57
TORSDOF 13
ENDMDL
