MODEL 1
REMARK VINA RESULT:     -11.4      0.000      0.000
REMARK SMILES CO[C@@H]1C[C@H](C(=O)NCCCNC(=O)c2ccc(-c3c4nc(c(-c5ccccc5)c5ccc([nH]5)c(-c5ccccc5)c5nc(c(-c6ccccc6)c6ccc3[nH]6)C=C5)C=C4)cc2)N(C(=O)c2ccn(C)c(=O)c2)C1
REMARK SMILES IDX 10 1 9 2 8 3 6 4 7 5 5 7 3 8 4 9 74 10 63 11 2 12 1 13 64 14
REMARK SMILES IDX 65 15 66 16 67 17 73 18 68 19 71 20 69 21 72 22 70 23 11 24
REMARK SMILES IDX 12 25 13 26 14 28 15 29 16 30 62 31 17 32 61 33 18 34 19 35
REMARK SMILES IDX 20 36 55 37 21 38 60 39 54 40 56 41 22 42 59 43 53 44 52 45
REMARK SMILES IDX 23 47 45 48 30 49 44 50 31 51 34 52 43 53 57 54 32 55 33 56
REMARK SMILES IDX 42 58 58 59 35 60 24 61 25 62 29 63 26 64 28 65 27 66 46 67
REMARK SMILES IDX 47 68 51 69 48 70 50 71 49 72 36 73 37 74 41 75 38 76 40 77
REMARK SMILES IDX 39 78
REMARK H PARENT 8 6 12 27 56 46 34 57
REMARK Flexibility Score: inf
ROOT
ATOM      1  C   UNL A   1      31.977  27.899  27.381  1.00  0.00     0.042 C 
ENDROOT
BRANCH   1   2
ATOM      2  C   UNL A   1      31.619  26.852  26.328  1.00  0.00     0.117 C 
BRANCH   2   3
ATOM      3  N   UNL A   1      31.766  25.504  26.836  1.00  0.00    -0.354 N 
ATOM      4  C   UNL A   1      32.381  24.407  26.323  1.00  0.00     0.242 C 
ATOM      5  O   UNL A   1      32.253  23.362  26.974  1.00  0.00    -0.273 OA
ATOM      6  H   UNL A   1      31.344  25.355  27.714  1.00  0.00     0.163 HD
BRANCH   4   7
ATOM      7  C   UNL A   1      33.154  24.370  24.980  1.00  0.00     0.177 C 
ATOM      8  C   UNL A   1      35.549  23.856  24.729  1.00  0.00     0.139 C 
ATOM      9  C   UNL A   1      34.553  24.983  25.024  1.00  0.00     0.069 C 
ATOM     10  C   UNL A   1      34.707  22.669  24.252  1.00  0.00     0.152 C 
ATOM     11  N   UNL A   1      33.313  23.055  24.370  1.00  0.00    -0.324 N 
BRANCH   8  12
ATOM     12  O   UNL A   1      36.282  23.595  25.922  1.00  0.00    -0.380 OA
ATOM     13  C   UNL A   1      37.530  22.949  25.707  1.00  0.00     0.195 C 
ENDBRANCH   8  12
BRANCH  11  14
ATOM     14  C   UNL A   1      32.352  22.268  23.772  1.00  0.00     0.254 C 
ATOM     15  O   UNL A   1      31.453  22.749  23.082  1.00  0.00    -0.269 OA
BRANCH  14  16
ATOM     16  C   UNL A   1      32.369  20.797  24.013  1.00  0.00     0.046 A 
ATOM     17  C   UNL A   1      32.639  20.267  25.329  1.00  0.00     0.032 A 
ATOM     18  C   UNL A   1      32.341  19.981  22.950  1.00  0.00     0.085 A 
ATOM     19  C   UNL A   1      32.812  18.949  25.495  1.00  0.00     0.089 A 
ATOM     20  C   UNL A   1      32.472  18.514  23.127  1.00  0.00     0.251 A 
ATOM     21  N   UNL A   1      32.721  18.074  24.424  1.00  0.00    -0.319 N 
ATOM     22  O   UNL A   1      32.376  17.791  22.139  1.00  0.00    -0.269 OA
ATOM     23  C   UNL A   1      32.919  16.654  24.663  1.00  0.00     0.153 C 
ENDBRANCH  14  16
ENDBRANCH  11  14
ENDBRANCH   4   7
ENDBRANCH   2   3
ENDBRANCH   1   2
BRANCH   1  24
ATOM     24  C   UNL A   1      33.396  28.434  27.250  1.00  0.00     0.118 C 
BRANCH  24  25
ATOM     25  N   UNL A   1      33.457  29.871  27.501  1.00  0.00    -0.352 N 
ATOM     26  C   UNL A   1      34.400  30.660  28.115  1.00  0.00     0.251 C 
ATOM     27  H   UNL A   1      32.676  30.368  27.169  1.00  0.00     0.163 HD
ATOM     28  O   UNL A   1      34.084  31.804  28.439  1.00  0.00    -0.269 OA
BRANCH  26  29
ATOM     29  C   UNL A   1      35.774  30.182  28.400  1.00  0.00     0.039 A 
ATOM     30  C   UNL A   1      36.729  30.226  27.374  1.00  0.00     0.014 A 
ATOM     31  C   UNL A   1      36.123  29.611  29.623  1.00  0.00     0.014 A 
ATOM     32  C   UNL A   1      38.026  29.748  27.592  1.00  0.00     0.010 A 
ATOM     33  C   UNL A   1      37.441  29.240  29.877  1.00  0.00     0.010 A 
ATOM     34  C   UNL A   1      38.404  29.280  28.859  1.00  0.00    -0.014 A 
BRANCH  34  35
ATOM     35  C   UNL A   1      39.779  28.788  29.141  1.00  0.00     0.031 A 
ATOM     36  C   UNL A   1      40.791  29.704  29.783  1.00  0.00     0.074 A 
ATOM     37  C   UNL A   1      40.147  27.553  28.750  1.00  0.00     0.049 A 
ATOM     38  N   UNL A   1      42.069  29.511  29.992  1.00  0.00    -0.248 NA
ATOM     39  C   UNL A   1      40.309  31.029  30.213  1.00  0.00     0.031 C 
ATOM     40  C   UNL A   1      39.281  26.577  28.086  1.00  0.00     0.029 A 
ATOM     41  N   UNL A   1      41.357  26.909  28.847  1.00  0.00    -0.354 N 
ATOM     42  C   UNL A   1      42.546  30.698  30.537  1.00  0.00     0.074 A 
ATOM     43  C   UNL A   1      41.436  31.622  30.580  1.00  0.00     0.031 C 
ATOM     44  C   UNL A   1      39.977  25.451  27.861  1.00  0.00     0.029 A 
ATOM     45  C   UNL A   1      41.349  25.640  28.319  1.00  0.00     0.049 A 
ATOM     46  H   UNL A   1      42.154  27.319  29.254  1.00  0.00     0.167 HD
ATOM     47  C   UNL A   1      43.792  30.989  30.984  1.00  0.00     0.031 A 
ATOM     48  C   UNL A   1      42.338  24.734  28.206  1.00  0.00     0.031 A 
ATOM     49  C   UNL A   1      44.890  30.060  30.976  1.00  0.00     0.049 A 
ATOM     50  C   UNL A   1      43.710  25.077  28.718  1.00  0.00     0.074 A 
ATOM     51  C   UNL A   1      46.172  30.235  31.465  1.00  0.00     0.029 A 
ATOM     52  N   UNL A   1      44.829  28.776  30.458  1.00  0.00    -0.354 N 
ATOM     53  N   UNL A   1      44.130  26.185  29.279  1.00  0.00    -0.248 NA
ATOM     54  C   UNL A   1      44.741  24.036  28.589  1.00  0.00     0.031 C 
ATOM     55  C   UNL A   1      46.901  29.071  31.204  1.00  0.00     0.029 A 
ATOM     56  C   UNL A   1      46.056  28.152  30.601  1.00  0.00     0.049 A 
ATOM     57  H   UNL A   1      44.031  28.368  30.049  1.00  0.00     0.167 HD
ATOM     58  C   UNL A   1      45.463  25.964  29.598  1.00  0.00     0.074 A 
ATOM     59  C   UNL A   1      45.778  24.613  29.180  1.00  0.00     0.031 C 
ATOM     60  C   UNL A   1      46.349  26.805  30.185  1.00  0.00     0.031 A 
BRANCH  47  61
ATOM     61  C   UNL A   1      44.032  32.375  31.518  1.00  0.00    -0.014 A 
ATOM     62  C   UNL A   1      43.885  32.667  32.884  1.00  0.00     0.009 A 
ATOM     63  C   UNL A   1      44.437  33.400  30.648  1.00  0.00     0.009 A 
ATOM     64  C   UNL A   1      44.096  33.964  33.358  1.00  0.00     0.001 A 
ATOM     65  C   UNL A   1      44.679  34.688  31.130  1.00  0.00     0.001 A 
ATOM     66  C   UNL A   1      44.497  34.972  32.482  1.00  0.00     0.000 A 
ENDBRANCH  47  61
BRANCH  48  67
ATOM     67  C   UNL A   1      42.065  23.405  27.601  1.00  0.00    -0.014 A 
ATOM     68  C   UNL A   1      42.394  23.155  26.260  1.00  0.00     0.009 A 
ATOM     69  C   UNL A   1      41.472  22.380  28.355  1.00  0.00     0.009 A 
ATOM     70  C   UNL A   1      42.109  21.917  25.678  1.00  0.00     0.001 A 
ATOM     71  C   UNL A   1      41.216  21.133  27.779  1.00  0.00     0.001 A 
ATOM     72  C   UNL A   1      41.525  20.906  26.440  1.00  0.00     0.000 A 
ENDBRANCH  48  67
BRANCH  60  73
ATOM     73  C   UNL A   1      47.729  26.274  30.452  1.00  0.00    -0.014 A 
ATOM     74  C   UNL A   1      48.089  25.775  31.712  1.00  0.00     0.009 A 
ATOM     75  C   UNL A   1      48.669  26.237  29.409  1.00  0.00     0.009 A 
ATOM     76  C   UNL A   1      49.375  25.279  31.932  1.00  0.00     0.001 A 
ATOM     77  C   UNL A   1      49.943  25.714  29.625  1.00  0.00     0.001 A 
ATOM     78  C   UNL A   1      50.299  25.243  30.887  1.00  0.00     0.000 A 
ENDBRANCH  60  73
ENDBRANCH  34  35
ENDBRANCH  26  29
ENDBRANCH  24  25
ENDBRANCH   1  24
TORSDOF 13
ENDMDL
MODEL 2
REMARK VINA RESULT:     -11.3      1.860      7.148
REMARK SMILES CO[C@@H]1C[C@H](C(=O)NCCCNC(=O)c2ccc(-c3c4nc(c(-c5ccccc5)c5ccc([nH]5)c(-c5ccccc5)c5nc(c(-c6ccccc6)c6ccc3[nH]6)C=C5)C=C4)cc2)N(C(=O)c2ccn(C)c(=O)c2)C1
REMARK SMILES IDX 10 1 9 2 8 3 6 4 7 5 5 7 3 8 4 9 74 10 63 11 2 12 1 13 64 14
REMARK SMILES IDX 65 15 66 16 67 17 73 18 68 19 71 20 69 21 72 22 70 23 11 24
REMARK SMILES IDX 12 25 13 26 14 28 15 29 16 30 62 31 17 32 61 33 18 34 19 35
REMARK SMILES IDX 20 36 55 37 21 38 60 39 54 40 56 41 22 42 59 43 53 44 52 45
REMARK SMILES IDX 23 47 45 48 30 49 44 50 31 51 34 52 43 53 57 54 32 55 33 56
REMARK SMILES IDX 42 58 58 59 35 60 24 61 25 62 29 63 26 64 28 65 27 66 46 67
REMARK SMILES IDX 47 68 51 69 48 70 50 71 49 72 36 73 37 74 41 75 38 76 40 77
REMARK SMILES IDX 39 78
REMARK H PARENT 8 6 12 27 56 46 34 57
REMARK Flexibility Score: inf
ROOT
ATOM      1  C   UNL A   1      37.767  19.271  24.774  1.00  0.00     0.042 C 
ENDROOT
BRANCH   1   2
ATOM      2  C   UNL A   1      36.325  19.743  24.950  1.00  0.00     0.117 C 
BRANCH   2   3
ATOM      3  N   UNL A   1      36.251  21.166  25.208  1.00  0.00    -0.354 N 
ATOM      4  C   UNL A   1      35.263  21.941  25.725  1.00  0.00     0.242 C 
ATOM      5  O   UNL A   1      35.482  23.159  25.737  1.00  0.00    -0.273 OA
ATOM      6  H   UNL A   1      37.067  21.663  24.965  1.00  0.00     0.163 HD
BRANCH   4   7
ATOM      7  C   UNL A   1      33.893  21.415  26.224  1.00  0.00     0.177 C 
ATOM      8  C   UNL A   1      32.015  22.819  26.973  1.00  0.00     0.139 C 
ATOM      9  C   UNL A   1      33.319  22.156  27.431  1.00  0.00     0.069 C 
ATOM     10  C   UNL A   1      31.711  22.235  25.591  1.00  0.00     0.152 C 
ATOM     11  N   UNL A   1      32.823  21.374  25.233  1.00  0.00    -0.324 N 
BRANCH   8  12
ATOM     12  O   UNL A   1      32.220  24.229  26.966  1.00  0.00    -0.380 OA
ATOM     13  C   UNL A   1      31.981  24.844  25.707  1.00  0.00     0.195 C 
ENDBRANCH   8  12
BRANCH  11  14
ATOM     14  C   UNL A   1      32.690  20.529  24.153  1.00  0.00     0.254 C 
ATOM     15  O   UNL A   1      32.465  20.951  23.019  1.00  0.00    -0.269 OA
BRANCH  14  16
ATOM     16  C   UNL A   1      32.766  19.057  24.374  1.00  0.00     0.046 A 
ATOM     17  C   UNL A   1      32.411  18.481  25.651  1.00  0.00     0.032 A 
ATOM     18  C   UNL A   1      33.370  18.307  23.441  1.00  0.00     0.085 A 
ATOM     19  C   UNL A   1      32.639  17.182  25.883  1.00  0.00     0.089 A 
ATOM     20  C   UNL A   1      33.575  16.854  23.663  1.00  0.00     0.251 A 
ATOM     21  N   UNL A   1      33.200  16.368  24.912  1.00  0.00    -0.319 N 
ATOM     22  O   UNL A   1      34.071  16.185  22.760  1.00  0.00    -0.269 OA
ATOM     23  C   UNL A   1      33.426  14.966  25.222  1.00  0.00     0.153 C 
ENDBRANCH  14  16
ENDBRANCH  11  14
ENDBRANCH   4   7
ENDBRANCH   2   3
ENDBRANCH   1   2
BRANCH   1  24
ATOM     24  C   UNL A   1      38.756  19.980  25.688  1.00  0.00     0.118 C 
BRANCH  24  25
ATOM     25  N   UNL A   1      40.004  19.233  25.817  1.00  0.00    -0.352 N 
ATOM     26  C   UNL A   1      41.296  19.631  26.060  1.00  0.00     0.251 C 
ATOM     27  H   UNL A   1      39.901  18.260  25.708  1.00  0.00     0.163 HD
ATOM     28  O   UNL A   1      42.205  18.830  25.849  1.00  0.00    -0.269 OA
BRANCH  26  29
ATOM     29  C   UNL A   1      41.629  20.986  26.565  1.00  0.00     0.039 A 
ATOM     30  C   UNL A   1      41.528  21.236  27.940  1.00  0.00     0.014 A 
ATOM     31  C   UNL A   1      41.953  22.037  25.709  1.00  0.00     0.014 A 
ATOM     32  C   UNL A   1      41.795  22.511  28.450  1.00  0.00     0.010 A 
ATOM     33  C   UNL A   1      42.330  23.275  26.225  1.00  0.00     0.010 A 
ATOM     34  C   UNL A   1      42.233  23.537  27.598  1.00  0.00    -0.014 A 
BRANCH  34  35
ATOM     35  C   UNL A   1      42.553  24.899  28.102  1.00  0.00     0.031 A 
ATOM     36  C   UNL A   1      43.966  25.241  28.503  1.00  0.00     0.074 A 
ATOM     37  C   UNL A   1      41.570  25.802  28.279  1.00  0.00     0.049 A 
ATOM     38  N   UNL A   1      44.425  26.322  29.083  1.00  0.00    -0.248 NA
ATOM     39  C   UNL A   1      44.995  24.216  28.252  1.00  0.00     0.031 C 
ATOM     40  C   UNL A   1      40.154  25.591  27.968  1.00  0.00     0.029 A 
ATOM     41  N   UNL A   1      41.612  27.082  28.776  1.00  0.00    -0.354 N 
ATOM     42  C   UNL A   1      45.779  26.088  29.300  1.00  0.00     0.074 A 
ATOM     43  C   UNL A   1      46.057  24.747  28.838  1.00  0.00     0.031 C 
ATOM     44  C   UNL A   1      39.469  26.710  28.254  1.00  0.00     0.029 A 
ATOM     45  C   UNL A   1      40.384  27.699  28.813  1.00  0.00     0.049 A 
ATOM     46  H   UNL A   1      42.442  27.515  29.079  1.00  0.00     0.167 HD
ATOM     47  C   UNL A   1      46.714  26.921  29.818  1.00  0.00     0.031 A 
ATOM     48  C   UNL A   1      40.033  28.920  29.257  1.00  0.00     0.031 A 
ATOM     49  C   UNL A   1      46.447  28.268  30.245  1.00  0.00     0.049 A 
ATOM     50  C   UNL A   1      41.089  29.830  29.818  1.00  0.00     0.074 A 
ATOM     51  C   UNL A   1      47.336  29.214  30.721  1.00  0.00     0.029 A 
ATOM     52  N   UNL A   1      45.194  28.861  30.237  1.00  0.00    -0.354 N 
ATOM     53  N   UNL A   1      42.374  29.613  29.966  1.00  0.00    -0.248 NA
ATOM     54  C   UNL A   1      40.647  31.160  30.263  1.00  0.00     0.031 C 
ATOM     55  C   UNL A   1      46.614  30.367  31.044  1.00  0.00     0.029 A 
ATOM     56  C   UNL A   1      45.284  30.157  30.717  1.00  0.00     0.049 A 
ATOM     57  H   UNL A   1      44.364  28.426  29.936  1.00  0.00     0.167 HD
ATOM     58  C   UNL A   1      42.897  30.786  30.492  1.00  0.00     0.074 A 
ATOM     59  C   UNL A   1      41.795  31.717  30.623  1.00  0.00     0.031 C 
ATOM     60  C   UNL A   1      44.177  31.070  30.835  1.00  0.00     0.031 A 
BRANCH  47  61
ATOM     61  C   UNL A   1      48.117  26.393  29.952  1.00  0.00    -0.014 A 
ATOM     62  C   UNL A   1      49.044  26.509  28.903  1.00  0.00     0.009 A 
ATOM     63  C   UNL A   1      48.527  25.794  31.153  1.00  0.00     0.009 A 
ATOM     64  C   UNL A   1      50.337  25.998  29.040  1.00  0.00     0.001 A 
ATOM     65  C   UNL A   1      49.830  25.313  31.298  1.00  0.00     0.001 A 
ATOM     66  C   UNL A   1      50.730  25.405  30.239  1.00  0.00     0.000 A 
ENDBRANCH  47  61
BRANCH  48  67
ATOM     67  C   UNL A   1      38.617  29.365  29.171  1.00  0.00    -0.014 A 
ATOM     68  C   UNL A   1      38.123  29.934  27.987  1.00  0.00     0.009 A 
ATOM     69  C   UNL A   1      37.753  29.227  30.268  1.00  0.00     0.009 A 
ATOM     70  C   UNL A   1      36.802  30.382  27.913  1.00  0.00     0.001 A 
ATOM     71  C   UNL A   1      36.424  29.649  30.181  1.00  0.00     0.001 A 
ATOM     72  C   UNL A   1      35.953  30.235  29.008  1.00  0.00     0.000 A 
ENDBRANCH  48  67
BRANCH  60  73
ATOM     73  C   UNL A   1      44.463  32.454  31.342  1.00  0.00    -0.014 A 
ATOM     74  C   UNL A   1      44.434  32.751  32.713  1.00  0.00     0.009 A 
ATOM     75  C   UNL A   1      44.807  33.468  30.433  1.00  0.00     0.009 A 
ATOM     76  C   UNL A   1      44.713  34.044  33.160  1.00  0.00     0.001 A 
ATOM     77  C   UNL A   1      45.113  34.751  30.886  1.00  0.00     0.001 A 
ATOM     78  C   UNL A   1      45.057  35.041  32.248  1.00  0.00     0.000 A 
ENDBRANCH  60  73
ENDBRANCH  34  35
ENDBRANCH  26  29
ENDBRANCH  24  25
ENDBRANCH   1  24
TORSDOF 13
ENDMDL
MODEL 3
REMARK VINA RESULT:     -11.3      2.514      6.943
REMARK SMILES CO[C@@H]1C[C@H](C(=O)NCCCNC(=O)c2ccc(-c3c4nc(c(-c5ccccc5)c5ccc([nH]5)c(-c5ccccc5)c5nc(c(-c6ccccc6)c6ccc3[nH]6)C=C5)C=C4)cc2)N(C(=O)c2ccn(C)c(=O)c2)C1
REMARK SMILES IDX 10 1 9 2 8 3 6 4 7 5 5 7 3 8 4 9 74 10 63 11 2 12 1 13 64 14
REMARK SMILES IDX 65 15 66 16 67 17 73 18 68 19 71 20 69 21 72 22 70 23 11 24
REMARK SMILES IDX 12 25 13 26 14 28 15 29 16 30 62 31 17 32 61 33 18 34 19 35
REMARK SMILES IDX 20 36 55 37 21 38 60 39 54 40 56 41 22 42 59 43 53 44 52 45
REMARK SMILES IDX 23 47 45 48 30 49 44 50 31 51 34 52 43 53 57 54 32 55 33 56
REMARK SMILES IDX 42 58 58 59 35 60 24 61 25 62 29 63 26 64 28 65 27 66 46 67
REMARK SMILES IDX 47 68 51 69 48 70 50 71 49 72 36 73 37 74 41 75 38 76 40 77
REMARK SMILES IDX 39 78
REMARK H PARENT 8 6 12 27 56 46 34 57
REMARK Flexibility Score: inf
ROOT
ATOM      1  C   UNL A   1      37.749  19.513  24.680  1.00  0.00     0.042 C 
ENDROOT
BRANCH   1   2
ATOM      2  C   UNL A   1      36.309  19.908  25.001  1.00  0.00     0.117 C 
BRANCH   2   3
ATOM      3  N   UNL A   1      36.186  21.325  25.273  1.00  0.00    -0.354 N 
ATOM      4  C   UNL A   1      35.171  22.060  25.796  1.00  0.00     0.242 C 
ATOM      5  O   UNL A   1      35.348  23.285  25.819  1.00  0.00    -0.273 OA
ATOM      6  H   UNL A   1      36.984  21.852  25.035  1.00  0.00     0.163 HD
BRANCH   4   7
ATOM      7  C   UNL A   1      33.820  21.483  26.288  1.00  0.00     0.177 C 
ATOM      8  C   UNL A   1      31.885  22.816  27.026  1.00  0.00     0.139 C 
ATOM      9  C   UNL A   1      33.211  22.203  27.491  1.00  0.00     0.069 C 
ATOM     10  C   UNL A   1      31.611  22.218  25.643  1.00  0.00     0.152 C 
ATOM     11  N   UNL A   1      32.757  21.401  25.292  1.00  0.00    -0.324 N 
BRANCH   8  12
ATOM     12  O   UNL A   1      32.036  24.232  27.019  1.00  0.00    -0.380 OA
ATOM     13  C   UNL A   1      31.395  24.879  25.927  1.00  0.00     0.195 C 
ENDBRANCH   8  12
BRANCH  11  14
ATOM     14  C   UNL A   1      32.662  20.550  24.212  1.00  0.00     0.254 C 
ATOM     15  O   UNL A   1      32.436  20.964  23.075  1.00  0.00    -0.269 OA
BRANCH  14  16
ATOM     16  C   UNL A   1      32.782  19.081  24.437  1.00  0.00     0.046 A 
ATOM     17  C   UNL A   1      32.528  18.509  25.738  1.00  0.00     0.032 A 
ATOM     18  C   UNL A   1      33.334  18.336  23.468  1.00  0.00     0.085 A 
ATOM     19  C   UNL A   1      32.797  17.216  25.962  1.00  0.00     0.089 A 
ATOM     20  C   UNL A   1      33.583  16.889  23.685  1.00  0.00     0.251 A 
ATOM     21  N   UNL A   1      33.305  16.405  24.961  1.00  0.00    -0.319 N 
ATOM     22  O   UNL A   1      34.028  16.223  22.755  1.00  0.00    -0.269 OA
ATOM     23  C   UNL A   1      33.580  15.010  25.262  1.00  0.00     0.153 C 
ENDBRANCH  14  16
ENDBRANCH  11  14
ENDBRANCH   4   7
ENDBRANCH   2   3
ENDBRANCH   1   2
BRANCH   1  24
ATOM     24  C   UNL A   1      38.772  20.102  25.642  1.00  0.00     0.118 C 
BRANCH  24  25
ATOM     25  N   UNL A   1      39.897  19.197  25.855  1.00  0.00    -0.352 N 
ATOM     26  C   UNL A   1      41.233  19.424  26.082  1.00  0.00     0.251 C 
ATOM     27  H   UNL A   1      39.652  18.243  25.832  1.00  0.00     0.163 HD
ATOM     28  O   UNL A   1      42.015  18.483  25.957  1.00  0.00    -0.269 OA
BRANCH  26  29
ATOM     29  C   UNL A   1      41.759  20.755  26.467  1.00  0.00     0.039 A 
ATOM     30  C   UNL A   1      42.007  21.699  25.461  1.00  0.00     0.014 A 
ATOM     31  C   UNL A   1      42.096  21.068  27.783  1.00  0.00     0.014 A 
ATOM     32  C   UNL A   1      42.540  22.953  25.780  1.00  0.00     0.010 A 
ATOM     33  C   UNL A   1      42.519  22.352  28.117  1.00  0.00     0.010 A 
ATOM     34  C   UNL A   1      42.770  23.304  27.119  1.00  0.00    -0.014 A 
BRANCH  34  35
ATOM     35  C   UNL A   1      43.311  24.635  27.504  1.00  0.00     0.031 A 
ATOM     36  C   UNL A   1      42.375  25.723  27.967  1.00  0.00     0.074 A 
ATOM     37  C   UNL A   1      44.624  24.897  27.363  1.00  0.00     0.049 A 
ATOM     38  N   UNL A   1      42.629  26.982  28.222  1.00  0.00    -0.248 NA
ATOM     39  C   UNL A   1      40.957  25.356  28.128  1.00  0.00     0.031 C 
ATOM     40  C   UNL A   1      45.636  23.948  26.892  1.00  0.00     0.029 A 
ATOM     41  N   UNL A   1      45.335  26.049  27.595  1.00  0.00    -0.354 N 
ATOM     42  C   UNL A   1      41.403  27.560  28.533  1.00  0.00     0.074 A 
ATOM     43  C   UNL A   1      40.399  26.530  28.384  1.00  0.00     0.031 C 
ATOM     44  C   UNL A   1      46.838  24.546  26.897  1.00  0.00     0.029 A 
ATOM     45  C   UNL A   1      46.677  25.932  27.323  1.00  0.00     0.049 A 
ATOM     46  H   UNL A   1      44.922  26.880  27.924  1.00  0.00     0.167 HD
ATOM     47  C   UNL A   1      41.134  28.828  28.927  1.00  0.00     0.031 A 
ATOM     48  C   UNL A   1      47.667  26.842  27.398  1.00  0.00     0.031 A 
ATOM     49  C   UNL A   1      42.135  29.845  29.110  1.00  0.00     0.049 A 
ATOM     50  C   UNL A   1      47.347  28.240  27.847  1.00  0.00     0.074 A 
ATOM     51  C   UNL A   1      41.975  31.140  29.569  1.00  0.00     0.029 A 
ATOM     52  N   UNL A   1      43.486  29.674  28.850  1.00  0.00    -0.354 N 
ATOM     53  N   UNL A   1      46.190  28.754  28.188  1.00  0.00    -0.248 NA
ATOM     54  C   UNL A   1      48.474  29.180  27.933  1.00  0.00     0.031 C 
ATOM     55  C   UNL A   1      43.224  31.768  29.545  1.00  0.00     0.029 A 
ATOM     56  C   UNL A   1      44.170  30.846  29.123  1.00  0.00     0.049 A 
ATOM     57  H   UNL A   1      43.898  28.842  28.520  1.00  0.00     0.167 HD
ATOM     58  C   UNL A   1      46.454  30.067  28.556  1.00  0.00     0.074 A 
ATOM     59  C   UNL A   1      47.881  30.265  28.411  1.00  0.00     0.031 C 
ATOM     60  C   UNL A   1      45.591  31.023  28.979  1.00  0.00     0.031 A 
BRANCH  47  61
ATOM     61  C   UNL A   1      39.696  29.186  29.184  1.00  0.00    -0.014 A 
ATOM     62  C   UNL A   1      39.126  29.046  30.461  1.00  0.00     0.009 A 
ATOM     63  C   UNL A   1      38.905  29.696  28.144  1.00  0.00     0.009 A 
ATOM     64  C   UNL A   1      37.784  29.367  30.677  1.00  0.00     0.001 A 
ATOM     65  C   UNL A   1      37.572  30.047  28.370  1.00  0.00     0.001 A 
ATOM     66  C   UNL A   1      37.010  29.873  29.633  1.00  0.00     0.000 A 
ENDBRANCH  47  61
BRANCH  48  67
ATOM     67  C   UNL A   1      49.061  26.455  27.059  1.00  0.00    -0.014 A 
ATOM     68  C   UNL A   1      49.516  26.533  25.733  1.00  0.00     0.009 A 
ATOM     69  C   UNL A   1      49.944  26.004  28.052  1.00  0.00     0.009 A 
ATOM     70  C   UNL A   1      50.816  26.139  25.405  1.00  0.00     0.001 A 
ATOM     71  C   UNL A   1      51.253  25.640  27.726  1.00  0.00     0.001 A 
ATOM     72  C   UNL A   1      51.684  25.698  26.403  1.00  0.00     0.000 A 
ENDBRANCH  48  67
BRANCH  60  73
ATOM     73  C   UNL A   1      46.173  32.355  29.357  1.00  0.00    -0.014 A 
ATOM     74  C   UNL A   1      46.635  32.609  30.657  1.00  0.00     0.009 A 
ATOM     75  C   UNL A   1      46.296  33.358  28.382  1.00  0.00     0.009 A 
ATOM     76  C   UNL A   1      47.180  33.853  30.981  1.00  0.00     0.001 A 
ATOM     77  C   UNL A   1      46.868  34.589  28.702  1.00  0.00     0.001 A 
ATOM     78  C   UNL A   1      47.301  34.840  30.002  1.00  0.00     0.000 A 
ENDBRANCH  60  73
ENDBRANCH  34  35
ENDBRANCH  26  29
ENDBRANCH  24  25
ENDBRANCH   1  24
TORSDOF 13
ENDMDL
