MODEL 1
REMARK VINA RESULT:      -9.3      0.000      0.000
REMARK SMILES [NH3+]C[C@@H]([NH3+])c1ccccc1OCC(=O)NCCCNC(=O)c1ccc(-c2c3nc(c(-c4ccccc4)c4ccc([nH]4)c(-c4ccccc4)c4nc(c(-c5ccccc5)c5ccc2[nH]5)C=C4)C=C3)cc1
REMARK SMILES IDX 13 1 14 2 15 3 12 5 11 6 10 7 5 8 6 9 7 10 9 11 8 12 3 13
REMARK SMILES IDX 2 14 1 15 4 19 16 23 17 24 18 25 19 26 20 27 21 29 22 30
REMARK SMILES IDX 23 31 69 32 24 33 68 34 25 35 26 36 27 37 62 38 28 39 67 40
REMARK SMILES IDX 61 41 63 42 29 43 66 44 60 45 59 46 30 48 52 49 37 50 51 51
REMARK SMILES IDX 38 52 41 53 50 54 64 55 39 56 40 57 49 59 65 60 42 61 31 62
REMARK SMILES IDX 32 63 36 64 33 65 35 66 34 67 53 68 54 69 58 70 55 71 57 72
REMARK SMILES IDX 56 73 43 74 44 75 48 76 45 77 47 78 46 79
REMARK H PARENT 15 4 1 16 1 17 1 18 4 20 4 21 4 22 19 28 63 47 41 58
REMARK Flexibility Score: inf
ROOT
ATOM      1  C   UNL A   1      33.709  25.294  24.075  1.00  0.00     0.257 C 
ATOM      2  O   UNL A   1      33.764  24.667  23.013  1.00  0.00    -0.271 OA
ATOM      3  N   UNL A   1      33.557  26.645  23.997  1.00  0.00    -0.353 N 
ATOM      4  H   UNL A   1      33.902  27.075  23.181  1.00  0.00     0.163 HD
ENDROOT
BRANCH   1   5
ATOM      5  C   UNL A   1      33.748  24.584  25.437  1.00  0.00     0.329 C 
BRANCH   5   6
ATOM      6  O   UNL A   1      34.966  24.150  25.970  1.00  0.00    -0.483 OA
BRANCH   6   7
ATOM      7  C   UNL A   1      35.786  23.110  25.680  1.00  0.00     0.129 A 
ATOM      8  C   UNL A   1      35.637  21.793  25.194  1.00  0.00     0.057 A 
ATOM      9  C   UNL A   1      36.856  21.044  25.058  1.00  0.00     0.014 A 
ATOM     10  C   UNL A   1      38.124  21.524  25.389  1.00  0.00     0.001 A 
ATOM     11  C   UNL A   1      37.092  23.561  26.031  1.00  0.00     0.047 A 
ATOM     12  C   UNL A   1      38.243  22.793  25.897  1.00  0.00     0.004 A 
BRANCH   8  13
ATOM     13  C   UNL A   1      34.362  20.966  24.940  1.00  0.00     0.271 C 
BRANCH  13  14
ATOM     14  C   UNL A   1      33.404  20.680  26.112  1.00  0.00     0.329 C 
BRANCH  14  15
ATOM     15  N   UNL A   1      33.036  19.250  26.278  1.00  0.00    -0.352 N 
ATOM     16  H   UNL A   1      32.150  19.183  26.779  1.00  0.00     0.344 HD
ATOM     17  H   UNL A   1      33.763  18.770  26.810  1.00  0.00     0.344 HD
ATOM     18  H   UNL A   1      32.942  18.814  25.361  1.00  0.00     0.344 HD
ENDBRANCH  14  15
ENDBRANCH  13  14
BRANCH  13  19
ATOM     19  N   UNL A   1      33.484  21.553  23.883  1.00  0.00    -0.347 N 
ATOM     20  H   UNL A   1      33.141  20.810  23.274  1.00  0.00     0.345 HD
ATOM     21  H   UNL A   1      34.018  22.225  23.332  1.00  0.00     0.345 HD
ATOM     22  H   UNL A   1      32.693  22.025  24.321  1.00  0.00     0.345 HD
ENDBRANCH  13  19
ENDBRANCH   8  13
ENDBRANCH   6   7
ENDBRANCH   5   6
ENDBRANCH   1   5
BRANCH   3  23
ATOM     23  C   UNL A   1      32.950  27.520  24.975  1.00  0.00     0.117 C 
BRANCH  23  24
ATOM     24  C   UNL A   1      33.949  28.320  25.796  1.00  0.00     0.042 C 
BRANCH  24  25
ATOM     25  C   UNL A   1      33.550  28.557  27.249  1.00  0.00     0.118 C 
BRANCH  25  26
ATOM     26  N   UNL A   1      33.591  29.961  27.640  1.00  0.00    -0.352 N 
ATOM     27  C   UNL A   1      34.574  30.707  28.242  1.00  0.00     0.251 C 
ATOM     28  H   UNL A   1      32.769  30.463  27.436  1.00  0.00     0.163 HD
ATOM     29  O   UNL A   1      34.315  31.837  28.642  1.00  0.00    -0.269 OA
BRANCH  27  30
ATOM     30  C   UNL A   1      35.929  30.153  28.440  1.00  0.00     0.039 A 
ATOM     31  C   UNL A   1      36.840  30.206  27.380  1.00  0.00     0.014 A 
ATOM     32  C   UNL A   1      36.300  29.560  29.647  1.00  0.00     0.014 A 
ATOM     33  C   UNL A   1      38.144  29.738  27.562  1.00  0.00     0.010 A 
ATOM     34  C   UNL A   1      37.624  29.183  29.857  1.00  0.00     0.010 A 
ATOM     35  C   UNL A   1      38.560  29.265  28.816  1.00  0.00    -0.014 A 
BRANCH  35  36
ATOM     36  C   UNL A   1      39.964  28.849  29.059  1.00  0.00     0.031 A 
ATOM     37  C   UNL A   1      40.425  27.470  28.673  1.00  0.00     0.074 A 
ATOM     38  C   UNL A   1      40.813  29.696  29.675  1.00  0.00     0.049 A 
ATOM     39  N   UNL A   1      41.594  26.908  28.855  1.00  0.00    -0.248 NA
ATOM     40  C   UNL A   1      39.437  26.596  28.016  1.00  0.00     0.031 C 
ATOM     41  C   UNL A   1      40.483  31.049  30.131  1.00  0.00     0.029 A 
ATOM     42  N   UNL A   1      42.131  29.542  30.029  1.00  0.00    -0.354 N 
ATOM     43  C   UNL A   1      41.477  25.621  28.345  1.00  0.00     0.074 A 
ATOM     44  C   UNL A   1      40.109  25.461  27.905  1.00  0.00     0.031 C 
ATOM     45  C   UNL A   1      41.578  31.613  30.665  1.00  0.00     0.029 A 
ATOM     46  C   UNL A   1      42.671  30.649  30.637  1.00  0.00     0.049 A 
ATOM     47  H   UNL A   1      42.640  28.716  29.861  1.00  0.00     0.167 HD
ATOM     48  C   UNL A   1      42.430  24.665  28.227  1.00  0.00     0.031 A 
ATOM     49  C   UNL A   1      43.909  30.862  31.123  1.00  0.00     0.031 A 
ATOM     50  C   UNL A   1      43.791  24.821  28.662  1.00  0.00     0.049 A 
ATOM     51  C   UNL A   1      44.934  29.764  31.020  1.00  0.00     0.074 A 
ATOM     52  C   UNL A   1      44.838  23.922  28.560  1.00  0.00     0.029 A 
ATOM     53  N   UNL A   1      44.294  25.954  29.284  1.00  0.00    -0.354 N 
ATOM     54  N   UNL A   1      44.821  28.574  30.482  1.00  0.00    -0.248 NA
ATOM     55  C   UNL A   1      46.261  30.047  31.584  1.00  0.00     0.031 C 
ATOM     56  C   UNL A   1      45.963  24.491  29.164  1.00  0.00     0.029 A 
ATOM     57  C   UNL A   1      45.633  25.769  29.587  1.00  0.00     0.049 A 
ATOM     58  H   UNL A   1      43.777  26.768  29.480  1.00  0.00     0.167 HD
ATOM     59  C   UNL A   1      46.071  27.982  30.609  1.00  0.00     0.074 A 
ATOM     60  C   UNL A   1      46.931  28.952  31.257  1.00  0.00     0.031 C 
ATOM     61  C   UNL A   1      46.475  26.747  30.223  1.00  0.00     0.031 A 
BRANCH  48  62
ATOM     62  C   UNL A   1      42.026  23.360  27.594  1.00  0.00    -0.014 A 
ATOM     63  C   UNL A   1      42.267  23.113  26.232  1.00  0.00     0.009 A 
ATOM     64  C   UNL A   1      41.441  22.350  28.372  1.00  0.00     0.009 A 
ATOM     65  C   UNL A   1      41.898  21.895  25.657  1.00  0.00     0.001 A 
ATOM     66  C   UNL A   1      41.101  21.123  27.801  1.00  0.00     0.001 A 
ATOM     67  C   UNL A   1      41.322  20.899  26.443  1.00  0.00     0.000 A 
ENDBRANCH  48  62
BRANCH  49  68
ATOM     68  C   UNL A   1      44.265  32.166  31.742  1.00  0.00    -0.014 A 
ATOM     69  C   UNL A   1      44.815  33.198  30.964  1.00  0.00     0.009 A 
ATOM     70  C   UNL A   1      44.098  32.376  33.120  1.00  0.00     0.009 A 
ATOM     71  C   UNL A   1      45.226  34.393  31.557  1.00  0.00     0.001 A 
ATOM     72  C   UNL A   1      44.477  33.586  33.706  1.00  0.00     0.001 A 
ATOM     73  C   UNL A   1      45.055  34.588  32.927  1.00  0.00     0.000 A 
ENDBRANCH  49  68
BRANCH  61  74
ATOM     74  C   UNL A   1      47.919  26.396  30.445  1.00  0.00    -0.014 A 
ATOM     75  C   UNL A   1      48.894  26.647  29.469  1.00  0.00     0.009 A 
ATOM     76  C   UNL A   1      48.313  25.834  31.670  1.00  0.00     0.009 A 
ATOM     77  C   UNL A   1      50.228  26.304  29.698  1.00  0.00     0.001 A 
ATOM     78  C   UNL A   1      49.652  25.524  31.910  1.00  0.00     0.001 A 
ATOM     79  C   UNL A   1      50.606  25.749  30.920  1.00  0.00     0.000 A 
ENDBRANCH  61  74
ENDBRANCH  35  36
ENDBRANCH  27  30
ENDBRANCH  25  26
ENDBRANCH  24  25
ENDBRANCH  23  24
ENDBRANCH   3  23
TORSDOF 16
ENDMDL
MODEL 2
REMARK VINA RESULT:      -9.3      3.188      5.297
REMARK SMILES [NH3+]C[C@@H]([NH3+])c1ccccc1OCC(=O)NCCCNC(=O)c1ccc(-c2c3nc(c(-c4ccccc4)c4ccc([nH]4)c(-c4ccccc4)c4nc(c(-c5ccccc5)c5ccc2[nH]5)C=C4)C=C3)cc1
REMARK SMILES IDX 13 1 14 2 15 3 12 5 11 6 10 7 5 8 6 9 7 10 9 11 8 12 3 13
REMARK SMILES IDX 2 14 1 15 4 19 16 23 17 24 18 25 19 26 20 27 21 29 22 30
REMARK SMILES IDX 23 31 69 32 24 33 68 34 25 35 26 36 27 37 62 38 28 39 67 40
REMARK SMILES IDX 61 41 63 42 29 43 66 44 60 45 59 46 30 48 52 49 37 50 51 51
REMARK SMILES IDX 38 52 41 53 50 54 64 55 39 56 40 57 49 59 65 60 42 61 31 62
REMARK SMILES IDX 32 63 36 64 33 65 35 66 34 67 53 68 54 69 58 70 55 71 57 72
REMARK SMILES IDX 56 73 43 74 44 75 48 76 45 77 47 78 46 79
REMARK H PARENT 15 4 1 16 1 17 1 18 4 20 4 21 4 22 19 28 63 47 41 58
REMARK Flexibility Score: inf
ROOT
ATOM      1  C   UNL A   1      33.329  28.948  23.754  1.00  0.00     0.257 C 
ATOM      2  O   UNL A   1      34.299  29.345  23.103  1.00  0.00    -0.271 OA
ATOM      3  N   UNL A   1      33.030  29.615  24.902  1.00  0.00    -0.353 N 
ATOM      4  H   UNL A   1      33.781  30.066  25.351  1.00  0.00     0.163 HD
ENDROOT
BRANCH   1   5
ATOM      5  C   UNL A   1      32.449  27.785  23.268  1.00  0.00     0.329 C 
BRANCH   5   6
ATOM      6  O   UNL A   1      31.388  28.026  22.388  1.00  0.00    -0.483 OA
BRANCH   6   7
ATOM      7  C   UNL A   1      30.110  28.442  22.571  1.00  0.00     0.129 A 
ATOM      8  C   UNL A   1      28.938  27.923  23.161  1.00  0.00     0.057 A 
ATOM      9  C   UNL A   1      27.783  28.774  23.093  1.00  0.00     0.014 A 
ATOM     10  C   UNL A   1      27.755  30.027  22.477  1.00  0.00     0.001 A 
ATOM     11  C   UNL A   1      30.042  29.714  21.930  1.00  0.00     0.047 A 
ATOM     12  C   UNL A   1      28.895  30.497  21.874  1.00  0.00     0.004 A 
BRANCH   8  13
ATOM     13  C   UNL A   1      28.648  26.518  23.725  1.00  0.00     0.271 C 
BRANCH  13  14
ATOM     14  C   UNL A   1      29.501  25.985  24.893  1.00  0.00     0.329 C 
BRANCH  14  15
ATOM     15  N   UNL A   1      30.323  24.792  24.566  1.00  0.00    -0.352 N 
ATOM     16  H   UNL A   1      31.149  24.774  25.164  1.00  0.00     0.344 HD
ATOM     17  H   UNL A   1      30.613  24.835  23.588  1.00  0.00     0.344 HD
ATOM     18  H   UNL A   1      29.773  23.947  24.720  1.00  0.00     0.344 HD
ENDBRANCH  14  15
ENDBRANCH  13  14
BRANCH  13  19
ATOM     19  N   UNL A   1      27.239  26.356  24.195  1.00  0.00    -0.347 N 
ATOM     20  H   UNL A   1      27.080  26.952  25.008  1.00  0.00     0.345 HD
ATOM     21  H   UNL A   1      27.077  25.382  24.453  1.00  0.00     0.345 HD
ATOM     22  H   UNL A   1      26.597  26.621  23.449  1.00  0.00     0.345 HD
ENDBRANCH  13  19
ENDBRANCH   8  13
ENDBRANCH   6   7
ENDBRANCH   5   6
ENDBRANCH   1   5
BRANCH   3  23
ATOM     23  C   UNL A   1      31.736  29.737  25.538  1.00  0.00     0.117 C 
BRANCH  23  24
ATOM     24  C   UNL A   1      31.449  31.122  26.096  1.00  0.00     0.042 C 
BRANCH  24  25
ATOM     25  C   UNL A   1      32.509  31.668  27.048  1.00  0.00     0.118 C 
BRANCH  25  26
ATOM     26  N   UNL A   1      32.306  33.068  27.399  1.00  0.00    -0.352 N 
ATOM     27  C   UNL A   1      33.037  33.921  28.189  1.00  0.00     0.251 C 
ATOM     28  H   UNL A   1      31.503  33.474  27.000  1.00  0.00     0.163 HD
ATOM     29  O   UNL A   1      32.573  35.016  28.487  1.00  0.00    -0.269 OA
BRANCH  27  30
ATOM     30  C   UNL A   1      34.363  33.524  28.705  1.00  0.00     0.039 A 
ATOM     31  C   UNL A   1      34.435  32.849  29.929  1.00  0.00     0.014 A 
ATOM     32  C   UNL A   1      35.533  33.834  28.013  1.00  0.00     0.014 A 
ATOM     33  C   UNL A   1      35.673  32.416  30.410  1.00  0.00     0.010 A 
ATOM     34  C   UNL A   1      36.752  33.319  28.444  1.00  0.00     0.010 A 
ATOM     35  C   UNL A   1      36.837  32.607  29.649  1.00  0.00    -0.014 A 
BRANCH  35  36
ATOM     36  C   UNL A   1      38.149  32.075  30.096  1.00  0.00     0.031 A 
ATOM     37  C   UNL A   1      38.640  30.746  29.590  1.00  0.00     0.074 A 
ATOM     38  C   UNL A   1      38.875  32.764  30.999  1.00  0.00     0.049 A 
ATOM     39  N   UNL A   1      39.730  30.093  29.908  1.00  0.00    -0.248 NA
ATOM     40  C   UNL A   1      37.785  30.045  28.616  1.00  0.00     0.031 C 
ATOM     41  C   UNL A   1      38.496  34.049  31.594  1.00  0.00     0.029 A 
ATOM     42  N   UNL A   1      40.087  32.478  31.579  1.00  0.00    -0.354 N 
ATOM     43  C   UNL A   1      39.686  28.909  29.182  1.00  0.00     0.074 A 
ATOM     44  C   UNL A   1      38.434  28.902  28.458  1.00  0.00     0.031 C 
ATOM     45  C   UNL A   1      39.472  34.456  32.421  1.00  0.00     0.029 A 
ATOM     46  C   UNL A   1      40.520  33.443  32.455  1.00  0.00     0.049 A 
ATOM     47  H   UNL A   1      40.596  31.658  31.384  1.00  0.00     0.167 HD
ATOM     48  C   UNL A   1      40.615  27.926  29.103  1.00  0.00     0.031 A 
ATOM     49  C   UNL A   1      41.637  33.503  33.206  1.00  0.00     0.031 A 
ATOM     50  C   UNL A   1      41.861  27.931  29.820  1.00  0.00     0.049 A 
ATOM     51  C   UNL A   1      42.629  32.374  33.132  1.00  0.00     0.074 A 
ATOM     52  C   UNL A   1      42.881  26.996  29.784  1.00  0.00     0.029 A 
ATOM     53  N   UNL A   1      42.255  28.922  30.705  1.00  0.00    -0.354 N 
ATOM     54  N   UNL A   1      42.597  31.290  32.395  1.00  0.00    -0.248 NA
ATOM     55  C   UNL A   1      43.819  32.486  33.987  1.00  0.00     0.031 C 
ATOM     56  C   UNL A   1      43.871  27.397  30.685  1.00  0.00     0.029 A 
ATOM     57  C   UNL A   1      43.497  28.612  31.235  1.00  0.00     0.049 A 
ATOM     58  H   UNL A   1      41.732  29.726  30.924  1.00  0.00     0.167 HD
ATOM     59  C   UNL A   1      43.777  30.611  32.671  1.00  0.00     0.074 A 
ATOM     60  C   UNL A   1      44.511  31.415  33.627  1.00  0.00     0.031 C 
ATOM     61  C   UNL A   1      44.217  29.427  32.178  1.00  0.00     0.031 A 
BRANCH  48  62
ATOM     62  C   UNL A   1      40.315  26.762  28.197  1.00  0.00    -0.014 A 
ATOM     63  C   UNL A   1      40.807  26.722  26.883  1.00  0.00     0.009 A 
ATOM     64  C   UNL A   1      39.570  25.672  28.675  1.00  0.00     0.009 A 
ATOM     65  C   UNL A   1      40.531  25.632  26.054  1.00  0.00     0.001 A 
ATOM     66  C   UNL A   1      39.322  24.570  27.855  1.00  0.00     0.001 A 
ATOM     67  C   UNL A   1      39.795  24.554  26.543  1.00  0.00     0.000 A 
ENDBRANCH  48  62
BRANCH  49  68
ATOM     68  C   UNL A   1      41.894  34.673  34.088  1.00  0.00    -0.014 A 
ATOM     69  C   UNL A   1      42.612  35.780  33.610  1.00  0.00     0.009 A 
ATOM     70  C   UNL A   1      41.460  34.674  35.423  1.00  0.00     0.009 A 
ATOM     71  C   UNL A   1      42.925  36.843  34.460  1.00  0.00     0.001 A 
ATOM     72  C   UNL A   1      41.744  35.754  36.261  1.00  0.00     0.001 A 
ATOM     73  C   UNL A   1      42.489  36.831  35.784  1.00  0.00     0.000 A 
ENDBRANCH  49  68
BRANCH  61  74
ATOM     74  C   UNL A   1      45.573  28.959  32.623  1.00  0.00    -0.014 A 
ATOM     75  C   UNL A   1      46.740  29.329  31.937  1.00  0.00     0.009 A 
ATOM     76  C   UNL A   1      45.686  28.159  33.772  1.00  0.00     0.009 A 
ATOM     77  C   UNL A   1      47.987  28.874  32.369  1.00  0.00     0.001 A 
ATOM     78  C   UNL A   1      46.936  27.734  34.221  1.00  0.00     0.001 A 
ATOM     79  C   UNL A   1      48.084  28.082  33.513  1.00  0.00     0.000 A 
ENDBRANCH  61  74
ENDBRANCH  35  36
ENDBRANCH  27  30
ENDBRANCH  25  26
ENDBRANCH  24  25
ENDBRANCH  23  24
ENDBRANCH   3  23
TORSDOF 16
ENDMDL
MODEL 3
REMARK VINA RESULT:      -9.1      1.175      6.497
REMARK SMILES [NH3+]C[C@@H]([NH3+])c1ccccc1OCC(=O)NCCCNC(=O)c1ccc(-c2c3nc(c(-c4ccccc4)c4ccc([nH]4)c(-c4ccccc4)c4nc(c(-c5ccccc5)c5ccc2[nH]5)C=C4)C=C3)cc1
REMARK SMILES IDX 13 1 14 2 15 3 12 5 11 6 10 7 5 8 6 9 7 10 9 11 8 12 3 13
REMARK SMILES IDX 2 14 1 15 4 19 16 23 17 24 18 25 19 26 20 27 21 29 22 30
REMARK SMILES IDX 23 31 69 32 24 33 68 34 25 35 26 36 27 37 62 38 28 39 67 40
REMARK SMILES IDX 61 41 63 42 29 43 66 44 60 45 59 46 30 48 52 49 37 50 51 51
REMARK SMILES IDX 38 52 41 53 50 54 64 55 39 56 40 57 49 59 65 60 42 61 31 62
REMARK SMILES IDX 32 63 36 64 33 65 35 66 34 67 53 68 54 69 58 70 55 71 57 72
REMARK SMILES IDX 56 73 43 74 44 75 48 76 45 77 47 78 46 79
REMARK H PARENT 15 4 1 16 1 17 1 18 4 20 4 21 4 22 19 28 63 47 41 58
REMARK Flexibility Score: inf
ROOT
ATOM      1  C   UNL A   1      33.903  27.877  22.755  1.00  0.00     0.257 C 
ATOM      2  O   UNL A   1      34.181  28.180  21.591  1.00  0.00    -0.271 OA
ATOM      3  N   UNL A   1      34.031  28.846  23.702  1.00  0.00    -0.353 N 
ATOM      4  H   UNL A   1      34.691  29.553  23.515  1.00  0.00     0.163 HD
ENDROOT
BRANCH   1   5
ATOM      5  C   UNL A   1      33.374  26.482  23.123  1.00  0.00     0.329 C 
BRANCH   5   6
ATOM      6  O   UNL A   1      34.080  25.677  24.024  1.00  0.00    -0.483 OA
BRANCH   6   7
ATOM      7  C   UNL A   1      33.692  24.842  25.019  1.00  0.00     0.129 A 
ATOM      8  C   UNL A   1      34.242  23.734  25.699  1.00  0.00     0.057 A 
ATOM      9  C   UNL A   1      33.406  23.157  26.716  1.00  0.00     0.014 A 
ATOM     10  C   UNL A   1      32.122  23.602  27.036  1.00  0.00     0.001 A 
ATOM     11  C   UNL A   1      32.370  25.257  25.355  1.00  0.00     0.047 A 
ATOM     12  C   UNL A   1      31.590  24.656  26.336  1.00  0.00     0.004 A 
BRANCH   8  13
ATOM     13  C   UNL A   1      35.529  22.935  25.419  1.00  0.00     0.271 C 
BRANCH  13  14
ATOM     14  C   UNL A   1      36.880  23.675  25.371  1.00  0.00     0.329 C 
BRANCH  14  15
ATOM     15  N   UNL A   1      37.914  23.140  26.294  1.00  0.00    -0.352 N 
ATOM     16  H   UNL A   1      37.831  22.125  26.345  1.00  0.00     0.344 HD
ATOM     17  H   UNL A   1      37.780  23.539  27.223  1.00  0.00     0.344 HD
ATOM     18  H   UNL A   1      38.840  23.389  25.948  1.00  0.00     0.344 HD
ENDBRANCH  14  15
ENDBRANCH  13  14
BRANCH  13  19
ATOM     19  N   UNL A   1      35.754  21.825  26.394  1.00  0.00    -0.347 N 
ATOM     20  H   UNL A   1      35.745  22.199  27.343  1.00  0.00     0.345 HD
ATOM     21  H   UNL A   1      36.657  21.388  26.210  1.00  0.00     0.345 HD
ATOM     22  H   UNL A   1      35.014  21.130  26.296  1.00  0.00     0.345 HD
ENDBRANCH  13  19
ENDBRANCH   8  13
ENDBRANCH   6   7
ENDBRANCH   5   6
ENDBRANCH   1   5
BRANCH   3  23
ATOM     23  C   UNL A   1      33.312  28.956  24.952  1.00  0.00     0.117 C 
BRANCH  23  24
ATOM     24  C   UNL A   1      34.077  28.428  26.155  1.00  0.00     0.042 C 
BRANCH  24  25
ATOM     25  C   UNL A   1      33.468  28.774  27.511  1.00  0.00     0.118 C 
BRANCH  25  26
ATOM     26  N   UNL A   1      33.580  30.186  27.854  1.00  0.00    -0.352 N 
ATOM     27  C   UNL A   1      34.612  30.908  28.399  1.00  0.00     0.251 C 
ATOM     28  H   UNL A   1      32.772  30.715  27.660  1.00  0.00     0.163 HD
ATOM     29  O   UNL A   1      34.413  32.061  28.769  1.00  0.00    -0.269 OA
BRANCH  27  30
ATOM     30  C   UNL A   1      35.949  30.306  28.572  1.00  0.00     0.039 A 
ATOM     31  C   UNL A   1      36.859  30.369  27.511  1.00  0.00     0.014 A 
ATOM     32  C   UNL A   1      36.303  29.656  29.753  1.00  0.00     0.014 A 
ATOM     33  C   UNL A   1      38.147  29.854  27.671  1.00  0.00     0.010 A 
ATOM     34  C   UNL A   1      37.615  29.229  29.945  1.00  0.00     0.010 A 
ATOM     35  C   UNL A   1      38.551  29.320  28.905  1.00  0.00    -0.014 A 
BRANCH  35  36
ATOM     36  C   UNL A   1      39.942  28.852  29.127  1.00  0.00     0.031 A 
ATOM     37  C   UNL A   1      40.957  29.763  29.763  1.00  0.00     0.074 A 
ATOM     38  C   UNL A   1      40.306  27.623  28.708  1.00  0.00     0.049 A 
ATOM     39  N   UNL A   1      42.230  29.551  29.987  1.00  0.00    -0.248 NA
ATOM     40  C   UNL A   1      40.488  31.095  30.181  1.00  0.00     0.031 C 
ATOM     41  C   UNL A   1      39.427  26.654  28.048  1.00  0.00     0.029 A 
ATOM     42  N   UNL A   1      41.516  26.978  28.774  1.00  0.00    -0.354 N 
ATOM     43  C   UNL A   1      42.711  30.722  30.562  1.00  0.00     0.074 A 
ATOM     44  C   UNL A   1      41.612  31.661  30.594  1.00  0.00     0.031 C 
ATOM     45  C   UNL A   1      40.116  25.528  27.807  1.00  0.00     0.029 A 
ATOM     46  C   UNL A   1      41.494  25.709  28.247  1.00  0.00     0.049 A 
ATOM     47  H   UNL A   1      42.323  27.386  29.163  1.00  0.00     0.167 HD
ATOM     48  C   UNL A   1      43.948  30.984  31.046  1.00  0.00     0.031 A 
ATOM     49  C   UNL A   1      42.476  24.795  28.129  1.00  0.00     0.031 A 
ATOM     50  C   UNL A   1      45.042  30.052  31.017  1.00  0.00     0.049 A 
ATOM     51  C   UNL A   1      43.853  25.132  28.634  1.00  0.00     0.074 A 
ATOM     52  C   UNL A   1      46.326  30.213  31.509  1.00  0.00     0.029 A 
ATOM     53  N   UNL A   1      44.980  28.782  30.465  1.00  0.00    -0.354 N 
ATOM     54  N   UNL A   1      44.274  26.222  29.227  1.00  0.00    -0.248 NA
ATOM     55  C   UNL A   1      44.888  24.103  28.460  1.00  0.00     0.031 C 
ATOM     56  C   UNL A   1      47.055  29.058  31.210  1.00  0.00     0.029 A 
ATOM     57  C   UNL A   1      46.209  28.155  30.588  1.00  0.00     0.049 A 
ATOM     58  H   UNL A   1      44.182  28.385  30.048  1.00  0.00     0.167 HD
ATOM     59  C   UNL A   1      45.610  25.996  29.531  1.00  0.00     0.074 A 
ATOM     60  C   UNL A   1      45.923  24.657  29.073  1.00  0.00     0.031 C 
ATOM     61  C   UNL A   1      46.500  26.820  30.135  1.00  0.00     0.031 A 
BRANCH  48  62
ATOM     62  C   UNL A   1      44.180  32.341  31.656  1.00  0.00    -0.014 A 
ATOM     63  C   UNL A   1      44.646  33.413  30.878  1.00  0.00     0.009 A 
ATOM     64  C   UNL A   1      43.888  32.563  33.010  1.00  0.00     0.009 A 
ATOM     65  C   UNL A   1      44.848  34.670  31.452  1.00  0.00     0.001 A 
ATOM     66  C   UNL A   1      44.061  33.828  33.574  1.00  0.00     0.001 A 
ATOM     67  C   UNL A   1      44.549  34.878  32.798  1.00  0.00     0.000 A 
ENDBRANCH  48  62
BRANCH  49  68
ATOM     68  C   UNL A   1      42.204  23.466  27.519  1.00  0.00    -0.014 A 
ATOM     69  C   UNL A   1      41.677  22.421  28.294  1.00  0.00     0.009 A 
ATOM     70  C   UNL A   1      42.506  23.220  26.170  1.00  0.00     0.009 A 
ATOM     71  C   UNL A   1      41.497  21.151  27.745  1.00  0.00     0.001 A 
ATOM     72  C   UNL A   1      42.293  21.958  25.613  1.00  0.00     0.001 A 
ATOM     73  C   UNL A   1      41.802  20.920  26.404  1.00  0.00     0.000 A 
ENDBRANCH  49  68
BRANCH  61  74
ATOM     74  C   UNL A   1      47.880  26.278  30.382  1.00  0.00    -0.014 A 
ATOM     75  C   UNL A   1      48.252  25.756  31.631  1.00  0.00     0.009 A 
ATOM     76  C   UNL A   1      48.814  26.260  29.334  1.00  0.00     0.009 A 
ATOM     77  C   UNL A   1      49.542  25.265  31.836  1.00  0.00     0.001 A 
ATOM     78  C   UNL A   1      50.092  25.737  29.531  1.00  0.00     0.001 A 
ATOM     79  C   UNL A   1      50.459  25.251  30.784  1.00  0.00     0.000 A 
ENDBRANCH  61  74
ENDBRANCH  35  36
ENDBRANCH  27  30
ENDBRANCH  25  26
ENDBRANCH  24  25
ENDBRANCH  23  24
ENDBRANCH   3  23
TORSDOF 16
ENDMDL
