MODEL 1
REMARK VINA RESULT:     -12.2      0.000      0.000
REMARK SMILES O=C(C[C@@H](C(=O)OCCOC(=O)c1ccc(-c2c3nc(c(-c4ccccc4)c4ccc([nH]4)c(-c4ccccc4)c4nc(c(-c5ccccc5)c5ccc2[nH]5)C=C4)C=C3)cc1)c1ccccc1)Nc1cc(C(F)(F)F)ccc1-n1cncn1
REMARK SMILES IDX 8 1 7 2 5 3 6 4 4 5 3 6 2 7 1 8 67 9 68 11 69 12 77 13 70 14
REMARK SMILES IDX 76 15 75 16 78 17 79 18 82 19 80 20 81 21 71 22 72 23 73 24
REMARK SMILES IDX 74 25 61 26 62 27 66 28 63 29 65 30 64 31 9 32 10 33 11 34
REMARK SMILES IDX 12 35 13 36 14 37 60 38 15 39 59 40 16 41 17 42 18 43 53 44
REMARK SMILES IDX 19 45 58 46 52 47 54 48 20 49 57 50 51 51 50 52 21 54 43 55
REMARK SMILES IDX 28 56 42 57 29 58 32 59 41 60 55 61 30 62 31 63 40 65 56 66
REMARK SMILES IDX 33 67 22 68 23 69 27 70 24 71 26 72 25 73 44 74 45 75 49 76
REMARK SMILES IDX 46 77 48 78 47 79 34 80 35 81 39 82 36 83 38 84 37 85
REMARK H PARENT 67 10 54 53 32 64
REMARK Flexibility Score: inf
ROOT
ATOM      1  C   UNL A   1      33.433  29.351  24.442  1.00  0.00     0.274 C 
ENDROOT
BRANCH   1   2
ATOM      2  O   UNL A   1      33.696  27.939  24.260  1.00  0.00    -0.462 OA
BRANCH   2   3
ATOM      3  C   UNL A   1      33.485  27.410  23.022  1.00  0.00     0.314 C 
ATOM      4  O   UNL A   1      34.014  27.847  22.006  1.00  0.00    -0.252 OA
BRANCH   3   5
ATOM      5  C   UNL A   1      32.506  26.223  23.029  1.00  0.00     0.138 C 
BRANCH   5   6
ATOM      6  C   UNL A   1      32.666  25.260  21.848  1.00  0.00     0.120 C 
BRANCH   6   7
ATOM      7  C   UNL A   1      33.040  23.863  22.275  1.00  0.00     0.225 C 
ATOM      8  O   UNL A   1      34.205  23.485  22.320  1.00  0.00    -0.275 OA
ATOM      9  N   UNL A   1      31.941  23.092  22.618  1.00  0.00    -0.324 N 
ATOM     10  H   UNL A   1      31.045  23.430  22.387  1.00  0.00     0.170 HD
BRANCH   9  11
ATOM     11  C   UNL A   1      32.035  21.853  23.278  1.00  0.00     0.067 A 
ATOM     12  C   UNL A   1      32.066  20.721  22.452  1.00  0.00     0.041 A 
ATOM     13  C   UNL A   1      32.172  21.700  24.669  1.00  0.00     0.090 A 
ATOM     14  C   UNL A   1      32.329  19.446  22.980  1.00  0.00     0.058 A 
ATOM     15  C   UNL A   1      32.464  20.432  25.197  1.00  0.00     0.031 A 
ATOM     16  C   UNL A   1      32.543  19.316  24.358  1.00  0.00     0.015 A 
BRANCH  13  17
ATOM     17  N   UNL A   1      31.913  22.756  25.583  1.00  0.00    -0.219 N 
ATOM     18  C   UNL A   1      30.887  22.874  26.495  1.00  0.00     0.226 A 
ATOM     19  N   UNL A   1      32.776  23.789  25.768  1.00  0.00    -0.155 NA
ATOM     20  N   UNL A   1      30.962  24.015  27.137  1.00  0.00    -0.223 NA
ATOM     21  C   UNL A   1      32.109  24.552  26.637  1.00  0.00     0.246 A 
ENDBRANCH  13  17
BRANCH  14  22
ATOM     22  C   UNL A   1      32.450  18.262  22.053  1.00  0.00     0.416 C 
ATOM     23  F   UNL A   1      33.596  17.553  22.267  1.00  0.00    -0.166 F 
ATOM     24  F   UNL A   1      31.432  17.374  22.215  1.00  0.00    -0.166 F 
ATOM     25  F   UNL A   1      32.457  18.596  20.735  1.00  0.00    -0.166 F 
ENDBRANCH  14  22
ENDBRANCH   9  11
ENDBRANCH   6   7
ENDBRANCH   5   6
BRANCH   5  26
ATOM     26  C   UNL A   1      31.054  26.710  23.144  1.00  0.00    -0.033 A 
ATOM     27  C   UNL A   1      30.601  27.895  22.534  1.00  0.00     0.004 A 
ATOM     28  C   UNL A   1      30.133  25.967  23.898  1.00  0.00     0.004 A 
ATOM     29  C   UNL A   1      29.274  28.313  22.664  1.00  0.00     0.000 A 
ATOM     30  C   UNL A   1      28.808  26.390  24.035  1.00  0.00     0.000 A 
ATOM     31  C   UNL A   1      28.378  27.562  23.416  1.00  0.00     0.000 A 
ENDBRANCH   5  26
ENDBRANCH   3   5
ENDBRANCH   2   3
ENDBRANCH   1   2
BRANCH   1  32
ATOM     32  C   UNL A   1      32.138  29.524  25.242  1.00  0.00     0.275 C 
BRANCH  32  33
ATOM     33  O   UNL A   1      32.467  29.722  26.626  1.00  0.00    -0.458 OA
BRANCH  33  34
ATOM     34  C   UNL A   1      32.901  30.960  26.947  1.00  0.00     0.338 C 
ATOM     35  O   UNL A   1      32.269  32.006  26.913  1.00  0.00    -0.246 OA
BRANCH  34  36
ATOM     36  C   UNL A   1      34.236  30.827  27.536  1.00  0.00     0.060 A 
ATOM     37  C   UNL A   1      34.707  29.542  27.798  1.00  0.00     0.016 A 
ATOM     38  C   UNL A   1      34.981  31.946  27.899  1.00  0.00     0.016 A 
ATOM     39  C   UNL A   1      35.895  29.368  28.501  1.00  0.00     0.010 A 
ATOM     40  C   UNL A   1      36.216  31.762  28.532  1.00  0.00     0.010 A 
ATOM     41  C   UNL A   1      36.673  30.471  28.868  1.00  0.00    -0.014 A 
BRANCH  41  42
ATOM     42  C   UNL A   1      37.939  30.290  29.629  1.00  0.00     0.031 A 
ATOM     43  C   UNL A   1      39.080  29.528  29.010  1.00  0.00     0.074 A 
ATOM     44  C   UNL A   1      38.081  30.793  30.872  1.00  0.00     0.049 A 
ATOM     45  N   UNL A   1      40.141  29.019  29.582  1.00  0.00    -0.248 NA
ATOM     46  C   UNL A   1      39.010  29.293  27.558  1.00  0.00     0.031 C 
ATOM     47  C   UNL A   1      37.098  31.620  31.578  1.00  0.00     0.029 A 
ATOM     48  N   UNL A   1      39.115  30.673  31.769  1.00  0.00    -0.354 N 
ATOM     49  C   UNL A   1      40.819  28.336  28.580  1.00  0.00     0.074 A 
ATOM     50  C   UNL A   1      40.066  28.515  27.359  1.00  0.00     0.031 C 
ATOM     51  C   UNL A   1      37.587  31.951  32.783  1.00  0.00     0.029 A 
ATOM     52  C   UNL A   1      38.866  31.281  32.976  1.00  0.00     0.049 A 
ATOM     53  H   UNL A   1      39.953  30.199  31.565  1.00  0.00     0.167 HD
ATOM     54  C   UNL A   1      41.957  27.609  28.681  1.00  0.00     0.031 A 
ATOM     55  C   UNL A   1      39.555  31.253  34.132  1.00  0.00     0.031 A 
ATOM     56  C   UNL A   1      42.739  27.489  29.881  1.00  0.00     0.049 A 
ATOM     57  C   UNL A   1      40.804  30.424  34.225  1.00  0.00     0.074 A 
ATOM     58  C   UNL A   1      43.915  26.785  30.077  1.00  0.00     0.029 A 
ATOM     59  N   UNL A   1      42.440  28.112  31.081  1.00  0.00    -0.354 N 
ATOM     60  N   UNL A   1      41.388  29.708  33.296  1.00  0.00    -0.248 NA
ATOM     61  C   UNL A   1      41.473  30.380  35.533  1.00  0.00     0.031 C 
ATOM     62  C   UNL A   1      44.312  26.959  31.407  1.00  0.00     0.029 A 
ATOM     63  C   UNL A   1      43.404  27.803  32.024  1.00  0.00     0.049 A 
ATOM     64  H   UNL A   1      41.657  28.688  31.240  1.00  0.00     0.167 HD
ATOM     65  C   UNL A   1      42.496  29.135  33.905  1.00  0.00     0.074 A 
ATOM     66  C   UNL A   1      42.516  29.602  35.275  1.00  0.00     0.031 C 
ATOM     67  C   UNL A   1      43.412  28.288  33.377  1.00  0.00     0.031 A 
BRANCH  54  68
ATOM     68  C   UNL A   1      42.407  26.839  27.473  1.00  0.00    -0.014 A 
ATOM     69  C   UNL A   1      41.950  25.539  27.214  1.00  0.00     0.009 A 
ATOM     70  C   UNL A   1      43.253  27.464  26.542  1.00  0.00     0.009 A 
ATOM     71  C   UNL A   1      42.345  24.875  26.050  1.00  0.00     0.001 A 
ATOM     72  C   UNL A   1      43.627  26.806  25.370  1.00  0.00     0.001 A 
ATOM     73  C   UNL A   1      43.177  25.510  25.127  1.00  0.00     0.000 A 
ENDBRANCH  54  68
BRANCH  55  74
ATOM     74  C   UNL A   1      39.032  31.969  35.327  1.00  0.00    -0.014 A 
ATOM     75  C   UNL A   1      39.303  33.332  35.520  1.00  0.00     0.009 A 
ATOM     76  C   UNL A   1      38.265  31.286  36.284  1.00  0.00     0.009 A 
ATOM     77  C   UNL A   1      38.830  33.990  36.657  1.00  0.00     0.001 A 
ATOM     78  C   UNL A   1      37.767  31.954  37.404  1.00  0.00     0.001 A 
ATOM     79  C   UNL A   1      38.057  33.304  37.593  1.00  0.00     0.000 A 
ENDBRANCH  55  74
BRANCH  67  80
ATOM     80  C   UNL A   1      44.531  27.848  34.272  1.00  0.00    -0.014 A 
ATOM     81  C   UNL A   1      44.382  26.747  35.129  1.00  0.00     0.009 A 
ATOM     82  C   UNL A   1      45.763  28.519  34.224  1.00  0.00     0.009 A 
ATOM     83  C   UNL A   1      45.443  26.340  35.940  1.00  0.00     0.001 A 
ATOM     84  C   UNL A   1      46.826  28.097  35.021  1.00  0.00     0.001 A 
ATOM     85  C   UNL A   1      46.664  27.013  35.882  1.00  0.00     0.000 A 
ENDBRANCH  67  80
ENDBRANCH  41  42
ENDBRANCH  34  36
ENDBRANCH  33  34
ENDBRANCH  32  33
ENDBRANCH   1  32
TORSDOF 17
ENDMDL
MODEL 2
REMARK VINA RESULT:     -11.9      3.988      6.780
REMARK SMILES O=C(C[C@@H](C(=O)OCCOC(=O)c1ccc(-c2c3nc(c(-c4ccccc4)c4ccc([nH]4)c(-c4ccccc4)c4nc(c(-c5ccccc5)c5ccc2[nH]5)C=C4)C=C3)cc1)c1ccccc1)Nc1cc(C(F)(F)F)ccc1-n1cncn1
REMARK SMILES IDX 8 1 7 2 5 3 6 4 4 5 3 6 2 7 1 8 67 9 68 11 69 12 77 13 70 14
REMARK SMILES IDX 76 15 75 16 78 17 79 18 82 19 80 20 81 21 71 22 72 23 73 24
REMARK SMILES IDX 74 25 61 26 62 27 66 28 63 29 65 30 64 31 9 32 10 33 11 34
REMARK SMILES IDX 12 35 13 36 14 37 60 38 15 39 59 40 16 41 17 42 18 43 53 44
REMARK SMILES IDX 19 45 58 46 52 47 54 48 20 49 57 50 51 51 50 52 21 54 43 55
REMARK SMILES IDX 28 56 42 57 29 58 32 59 41 60 55 61 30 62 31 63 40 65 56 66
REMARK SMILES IDX 33 67 22 68 23 69 27 70 24 71 26 72 25 73 44 74 45 75 49 76
REMARK SMILES IDX 46 77 48 78 47 79 34 80 35 81 39 82 36 83 38 84 37 85
REMARK H PARENT 67 10 54 53 32 64
REMARK Flexibility Score: inf
ROOT
ATOM      1  C   UNL A   1      32.914  30.143  25.803  1.00  0.00     0.274 C 
ENDROOT
BRANCH   1   2
ATOM      2  O   UNL A   1      31.884  29.477  25.034  1.00  0.00    -0.462 OA
BRANCH   2   3
ATOM      3  C   UNL A   1      32.280  28.676  24.005  1.00  0.00     0.314 C 
ATOM      4  O   UNL A   1      33.411  28.699  23.533  1.00  0.00    -0.252 OA
BRANCH   3   5
ATOM      5  C   UNL A   1      31.159  27.756  23.488  1.00  0.00     0.138 C 
BRANCH   5   6
ATOM      6  C   UNL A   1      31.625  26.682  22.500  1.00  0.00     0.120 C 
BRANCH   6   7
ATOM      7  C   UNL A   1      32.033  25.397  23.178  1.00  0.00     0.225 C 
ATOM      8  O   UNL A   1      31.780  24.299  22.698  1.00  0.00    -0.275 OA
ATOM      9  N   UNL A   1      32.721  25.608  24.361  1.00  0.00    -0.324 N 
ATOM     10  H   UNL A   1      32.723  26.516  24.744  1.00  0.00     0.170 HD
BRANCH   9  11
ATOM     11  C   UNL A   1      33.418  24.595  25.047  1.00  0.00     0.067 A 
ATOM     12  C   UNL A   1      34.719  24.333  24.596  1.00  0.00     0.041 A 
ATOM     13  C   UNL A   1      32.923  23.911  26.172  1.00  0.00     0.090 A 
ATOM     14  C   UNL A   1      35.571  23.470  25.303  1.00  0.00     0.058 A 
ATOM     15  C   UNL A   1      33.782  23.070  26.898  1.00  0.00     0.031 A 
ATOM     16  C   UNL A   1      35.094  22.855  26.468  1.00  0.00     0.015 A 
BRANCH  13  17
ATOM     17  N   UNL A   1      31.552  23.941  26.542  1.00  0.00    -0.219 N 
ATOM     18  C   UNL A   1      30.786  22.936  27.091  1.00  0.00     0.226 A 
ATOM     19  N   UNL A   1      30.814  25.082  26.515  1.00  0.00    -0.155 NA
ATOM     20  N   UNL A   1      29.547  23.333  27.260  1.00  0.00    -0.223 NA
ATOM     21  C   UNL A   1      29.606  24.635  26.864  1.00  0.00     0.246 A 
ENDBRANCH  13  17
BRANCH  14  22
ATOM     22  C   UNL A   1      36.996  23.282  24.845  1.00  0.00     0.416 C 
ATOM     23  F   UNL A   1      37.125  23.408  23.493  1.00  0.00    -0.166 F 
ATOM     24  F   UNL A   1      37.837  24.207  25.383  1.00  0.00    -0.166 F 
ATOM     25  F   UNL A   1      37.517  22.066  25.159  1.00  0.00    -0.166 F 
ENDBRANCH  14  22
ENDBRANCH   9  11
ENDBRANCH   6   7
ENDBRANCH   5   6
BRANCH   5  26
ATOM     26  C   UNL A   1      30.004  28.578  22.897  1.00  0.00    -0.033 A 
ATOM     27  C   UNL A   1      30.212  29.660  22.022  1.00  0.00     0.004 A 
ATOM     28  C   UNL A   1      28.682  28.263  23.248  1.00  0.00     0.004 A 
ATOM     29  C   UNL A   1      29.139  30.391  21.507  1.00  0.00     0.000 A 
ATOM     30  C   UNL A   1      27.609  28.999  22.739  1.00  0.00     0.000 A 
ATOM     31  C   UNL A   1      27.837  30.062  21.868  1.00  0.00     0.000 A 
ENDBRANCH   5  26
ENDBRANCH   3   5
ENDBRANCH   2   3
ENDBRANCH   1   2
BRANCH   1  32
ATOM     32  C   UNL A   1      32.826  29.692  27.264  1.00  0.00     0.275 C 
BRANCH  32  33
ATOM     33  O   UNL A   1      34.150  29.422  27.750  1.00  0.00    -0.458 OA
BRANCH  33  34
ATOM     34  C   UNL A   1      34.792  30.476  28.297  1.00  0.00     0.338 C 
ATOM     35  O   UNL A   1      34.305  31.522  28.700  1.00  0.00    -0.246 OA
BRANCH  34  36
ATOM     36  C   UNL A   1      36.190  30.088  28.506  1.00  0.00     0.060 A 
ATOM     37  C   UNL A   1      37.071  30.222  27.435  1.00  0.00     0.016 A 
ATOM     38  C   UNL A   1      36.613  29.529  29.709  1.00  0.00     0.016 A 
ATOM     39  C   UNL A   1      38.364  29.721  27.531  1.00  0.00     0.010 A 
ATOM     40  C   UNL A   1      37.941  29.102  29.828  1.00  0.00     0.010 A 
ATOM     41  C   UNL A   1      38.823  29.164  28.730  1.00  0.00    -0.014 A 
BRANCH  41  42
ATOM     42  C   UNL A   1      40.204  28.617  28.836  1.00  0.00     0.031 A 
ATOM     43  C   UNL A   1      41.341  29.526  29.220  1.00  0.00     0.074 A 
ATOM     44  C   UNL A   1      40.457  27.317  28.585  1.00  0.00     0.049 A 
ATOM     45  N   UNL A   1      42.629  29.334  29.100  1.00  0.00    -0.248 NA
ATOM     46  C   UNL A   1      40.979  30.831  29.801  1.00  0.00     0.031 C 
ATOM     47  C   UNL A   1      39.454  26.294  28.277  1.00  0.00     0.029 A 
ATOM     48  N   UNL A   1      41.648  26.633  28.543  1.00  0.00    -0.354 N 
ATOM     49  C   UNL A   1      43.227  30.520  29.511  1.00  0.00     0.074 A 
ATOM     50  C   UNL A   1      42.164  31.417  29.907  1.00  0.00     0.031 C 
ATOM     51  C   UNL A   1      40.068  25.114  28.104  1.00  0.00     0.029 A 
ATOM     52  C   UNL A   1      41.510  25.313  28.187  1.00  0.00     0.049 A 
ATOM     53  H   UNL A   1      42.516  27.049  28.749  1.00  0.00     0.167 HD
ATOM     54  C   UNL A   1      44.544  30.833  29.533  1.00  0.00     0.031 A 
ATOM     55  C   UNL A   1      42.435  24.380  27.896  1.00  0.00     0.031 A 
ATOM     56  C   UNL A   1      45.601  29.916  29.202  1.00  0.00     0.049 A 
ATOM     57  C   UNL A   1      43.889  24.756  27.908  1.00  0.00     0.074 A 
ATOM     58  C   UNL A   1      46.968  30.138  29.208  1.00  0.00     0.029 A 
ATOM     59  N   UNL A   1      45.411  28.594  28.835  1.00  0.00    -0.354 N 
ATOM     60  N   UNL A   1      44.439  25.906  28.210  1.00  0.00    -0.248 NA
ATOM     61  C   UNL A   1      44.846  23.712  27.514  1.00  0.00     0.031 C 
ATOM     62  C   UNL A   1      47.604  28.956  28.815  1.00  0.00     0.029 A 
ATOM     63  C   UNL A   1      46.634  27.990  28.605  1.00  0.00     0.049 A 
ATOM     64  H   UNL A   1      44.535  28.151  28.749  1.00  0.00     0.167 HD
ATOM     65  C   UNL A   1      45.806  25.722  28.051  1.00  0.00     0.074 A 
ATOM     66  C   UNL A   1      46.003  24.346  27.647  1.00  0.00     0.031 C 
ATOM     67  C   UNL A   1      46.808  26.618  28.216  1.00  0.00     0.031 A 
BRANCH  54  68
ATOM     68  C   UNL A   1      44.925  32.243  29.880  1.00  0.00    -0.014 A 
ATOM     69  C   UNL A   1      44.988  33.251  28.908  1.00  0.00     0.009 A 
ATOM     70  C   UNL A   1      45.154  32.576  31.225  1.00  0.00     0.009 A 
ATOM     71  C   UNL A   1      45.289  34.565  29.276  1.00  0.00     0.001 A 
ATOM     72  C   UNL A   1      45.433  33.894  31.592  1.00  0.00     0.001 A 
ATOM     73  C   UNL A   1      45.505  34.885  30.617  1.00  0.00     0.000 A 
ENDBRANCH  54  68
BRANCH  55  74
ATOM     74  C   UNL A   1      42.011  23.015  27.483  1.00  0.00    -0.014 A 
ATOM     75  C   UNL A   1      41.965  21.968  28.413  1.00  0.00     0.009 A 
ATOM     76  C   UNL A   1      41.656  22.756  26.148  1.00  0.00     0.009 A 
ATOM     77  C   UNL A   1      41.590  20.683  28.012  1.00  0.00     0.001 A 
ATOM     78  C   UNL A   1      41.252  21.479  25.757  1.00  0.00     0.001 A 
ATOM     79  C   UNL A   1      41.227  20.442  26.687  1.00  0.00     0.000 A 
ENDBRANCH  55  74
BRANCH  67  80
ATOM     80  C   UNL A   1      48.207  26.124  27.999  1.00  0.00    -0.014 A 
ATOM     81  C   UNL A   1      48.954  25.578  29.053  1.00  0.00     0.009 A 
ATOM     82  C   UNL A   1      48.766  26.168  26.711  1.00  0.00     0.009 A 
ATOM     83  C   UNL A   1      50.248  25.105  28.825  1.00  0.00     0.001 A 
ATOM     84  C   UNL A   1      50.052  25.677  26.485  1.00  0.00     0.001 A 
ATOM     85  C   UNL A   1      50.793  25.152  27.542  1.00  0.00     0.000 A 
ENDBRANCH  67  80
ENDBRANCH  41  42
ENDBRANCH  34  36
ENDBRANCH  33  34
ENDBRANCH  32  33
ENDBRANCH   1  32
TORSDOF 17
ENDMDL
MODEL 3
REMARK VINA RESULT:     -11.5      2.456      3.209
REMARK SMILES O=C(C[C@@H](C(=O)OCCOC(=O)c1ccc(-c2c3nc(c(-c4ccccc4)c4ccc([nH]4)c(-c4ccccc4)c4nc(c(-c5ccccc5)c5ccc2[nH]5)C=C4)C=C3)cc1)c1ccccc1)Nc1cc(C(F)(F)F)ccc1-n1cncn1
REMARK SMILES IDX 8 1 7 2 5 3 6 4 4 5 3 6 2 7 1 8 67 9 68 11 69 12 77 13 70 14
REMARK SMILES IDX 76 15 75 16 78 17 79 18 82 19 80 20 81 21 71 22 72 23 73 24
REMARK SMILES IDX 74 25 61 26 62 27 66 28 63 29 65 30 64 31 9 32 10 33 11 34
REMARK SMILES IDX 12 35 13 36 14 37 60 38 15 39 59 40 16 41 17 42 18 43 53 44
REMARK SMILES IDX 19 45 58 46 52 47 54 48 20 49 57 50 51 51 50 52 21 54 43 55
REMARK SMILES IDX 28 56 42 57 29 58 32 59 41 60 55 61 30 62 31 63 40 65 56 66
REMARK SMILES IDX 33 67 22 68 23 69 27 70 24 71 26 72 25 73 44 74 45 75 49 76
REMARK SMILES IDX 46 77 48 78 47 79 34 80 35 81 39 82 36 83 38 84 37 85
REMARK H PARENT 67 10 54 53 32 64
REMARK Flexibility Score: inf
ROOT
ATOM      1  C   UNL A   1      31.805  28.140  27.491  1.00  0.00     0.274 C 
ENDROOT
BRANCH   1   2
ATOM      2  O   UNL A   1      32.378  27.069  26.703  1.00  0.00    -0.462 OA
BRANCH   2   3
ATOM      3  C   UNL A   1      31.523  26.268  26.007  1.00  0.00     0.314 C 
ATOM      4  O   UNL A   1      30.646  25.597  26.540  1.00  0.00    -0.252 OA
BRANCH   3   5
ATOM      5  C   UNL A   1      31.783  26.279  24.490  1.00  0.00     0.138 C 
BRANCH   5   6
ATOM      6  C   UNL A   1      33.243  26.531  24.098  1.00  0.00     0.120 C 
BRANCH   6   7
ATOM      7  C   UNL A   1      34.050  25.261  23.991  1.00  0.00     0.225 C 
ATOM      8  O   UNL A   1      34.351  24.771  22.909  1.00  0.00    -0.275 OA
ATOM      9  N   UNL A   1      34.412  24.748  25.225  1.00  0.00    -0.324 N 
ATOM     10  H   UNL A   1      33.979  25.118  26.029  1.00  0.00     0.170 HD
BRANCH   9  11
ATOM     11  C   UNL A   1      35.363  23.725  25.394  1.00  0.00     0.067 A 
ATOM     12  C   UNL A   1      36.667  24.144  25.693  1.00  0.00     0.041 A 
ATOM     13  C   UNL A   1      35.069  22.350  25.356  1.00  0.00     0.090 A 
ATOM     14  C   UNL A   1      37.661  23.219  26.051  1.00  0.00     0.058 A 
ATOM     15  C   UNL A   1      36.053  21.424  25.740  1.00  0.00     0.031 A 
ATOM     16  C   UNL A   1      37.336  21.857  26.087  1.00  0.00     0.015 A 
BRANCH  13  17
ATOM     17  N   UNL A   1      33.850  21.844  24.830  1.00  0.00    -0.219 N 
ATOM     18  C   UNL A   1      33.639  20.701  24.090  1.00  0.00     0.226 A 
ATOM     19  N   UNL A   1      32.644  22.398  25.123  1.00  0.00    -0.155 NA
ATOM     20  N   UNL A   1      32.376  20.590  23.754  1.00  0.00    -0.223 NA
ATOM     21  C   UNL A   1      31.816  21.663  24.378  1.00  0.00     0.246 A 
ENDBRANCH  13  17
BRANCH  14  22
ATOM     22  C   UNL A   1      39.028  23.709  26.459  1.00  0.00     0.416 C 
ATOM     23  F   UNL A   1      40.015  22.830  26.123  1.00  0.00    -0.166 F 
ATOM     24  F   UNL A   1      39.358  24.882  25.853  1.00  0.00    -0.166 F 
ATOM     25  F   UNL A   1      39.157  23.923  27.796  1.00  0.00    -0.166 F 
ENDBRANCH  14  22
ENDBRANCH   9  11
ENDBRANCH   6   7
ENDBRANCH   5   6
BRANCH   5  26
ATOM     26  C   UNL A   1      30.848  27.270  23.781  1.00  0.00    -0.033 A 
ATOM     27  C   UNL A   1      31.322  28.404  23.095  1.00  0.00     0.004 A 
ATOM     28  C   UNL A   1      29.460  27.062  23.824  1.00  0.00     0.004 A 
ATOM     29  C   UNL A   1      30.443  29.288  22.465  1.00  0.00     0.000 A 
ATOM     30  C   UNL A   1      28.581  27.951  23.200  1.00  0.00     0.000 A 
ATOM     31  C   UNL A   1      29.072  29.063  22.520  1.00  0.00     0.000 A 
ENDBRANCH   5  26
ENDBRANCH   3   5
ENDBRANCH   2   3
ENDBRANCH   1   2
BRANCH   1  32
ATOM     32  C   UNL A   1      31.658  29.387  26.616  1.00  0.00     0.275 C 
BRANCH  32  33
ATOM     33  O   UNL A   1      32.964  29.904  26.316  1.00  0.00    -0.458 OA
BRANCH  33  34
ATOM     34  C   UNL A   1      33.300  31.041  26.964  1.00  0.00     0.338 C 
ATOM     35  O   UNL A   1      32.594  32.016  27.178  1.00  0.00    -0.246 OA
BRANCH  34  36
ATOM     36  C   UNL A   1      34.630  30.847  27.548  1.00  0.00     0.060 A 
ATOM     37  C   UNL A   1      35.003  29.551  27.900  1.00  0.00     0.016 A 
ATOM     38  C   UNL A   1      35.465  31.926  27.819  1.00  0.00     0.016 A 
ATOM     39  C   UNL A   1      36.184  29.335  28.603  1.00  0.00     0.010 A 
ATOM     40  C   UNL A   1      36.692  31.692  28.453  1.00  0.00     0.010 A 
ATOM     41  C   UNL A   1      37.051  30.397  28.879  1.00  0.00    -0.014 A 
BRANCH  41  42
ATOM     42  C   UNL A   1      38.311  30.173  29.639  1.00  0.00     0.031 A 
ATOM     43  C   UNL A   1      39.434  29.393  29.010  1.00  0.00     0.074 A 
ATOM     44  C   UNL A   1      38.462  30.652  30.891  1.00  0.00     0.049 A 
ATOM     45  N   UNL A   1      40.482  28.849  29.576  1.00  0.00    -0.248 NA
ATOM     46  C   UNL A   1      39.362  29.183  27.554  1.00  0.00     0.031 C 
ATOM     47  C   UNL A   1      37.499  31.491  31.609  1.00  0.00     0.029 A 
ATOM     48  N   UNL A   1      39.492  30.492  31.787  1.00  0.00    -0.354 N 
ATOM     49  C   UNL A   1      41.145  28.165  28.564  1.00  0.00     0.074 A 
ATOM     50  C   UNL A   1      40.398  28.383  27.344  1.00  0.00     0.031 C 
ATOM     51  C   UNL A   1      37.993  31.790  32.819  1.00  0.00     0.029 A 
ATOM     52  C   UNL A   1      39.255  31.086  33.004  1.00  0.00     0.049 A 
ATOM     53  H   UNL A   1      40.318  30.000  31.578  1.00  0.00     0.167 HD
ATOM     54  C   UNL A   1      42.264  27.409  28.655  1.00  0.00     0.031 A 
ATOM     55  C   UNL A   1      39.940  31.022  34.161  1.00  0.00     0.031 A 
ATOM     56  C   UNL A   1      43.040  27.251  29.855  1.00  0.00     0.049 A 
ATOM     57  C   UNL A   1      41.168  30.161  34.242  1.00  0.00     0.074 A 
ATOM     58  C   UNL A   1      44.198  26.514  30.041  1.00  0.00     0.029 A 
ATOM     59  N   UNL A   1      42.754  27.861  31.064  1.00  0.00    -0.354 N 
ATOM     60  N   UNL A   1      41.737  29.446  33.303  1.00  0.00    -0.248 NA
ATOM     61  C   UNL A   1      41.833  30.079  35.551  1.00  0.00     0.031 C 
ATOM     62  C   UNL A   1      44.596  26.657  31.374  1.00  0.00     0.029 A 
ATOM     63  C   UNL A   1      43.708  27.513  32.003  1.00  0.00     0.049 A 
ATOM     64  H   UNL A   1      41.985  28.453  31.231  1.00  0.00     0.167 HD
ATOM     65  C   UNL A   1      42.829  28.836  33.904  1.00  0.00     0.074 A 
ATOM     66  C   UNL A   1      42.857  29.280  35.281  1.00  0.00     0.031 C 
ATOM     67  C   UNL A   1      43.725  27.975  33.364  1.00  0.00     0.031 A 
BRANCH  54  68
ATOM     68  C   UNL A   1      42.698  26.648  27.435  1.00  0.00    -0.014 A 
ATOM     69  C   UNL A   1      43.567  27.205  26.487  1.00  0.00     0.009 A 
ATOM     70  C   UNL A   1      42.278  25.316  27.278  1.00  0.00     0.009 A 
ATOM     71  C   UNL A   1      43.996  26.446  25.395  1.00  0.00     0.001 A 
ATOM     72  C   UNL A   1      42.725  24.554  26.198  1.00  0.00     0.001 A 
ATOM     73  C   UNL A   1      43.579  25.121  25.255  1.00  0.00     0.000 A 
ENDBRANCH  54  68
BRANCH  55  74
ATOM     74  C   UNL A   1      39.433  31.731  35.366  1.00  0.00    -0.014 A 
ATOM     75  C   UNL A   1      39.936  32.991  35.719  1.00  0.00     0.009 A 
ATOM     76  C   UNL A   1      38.445  31.142  36.172  1.00  0.00     0.009 A 
ATOM     77  C   UNL A   1      39.473  33.639  36.867  1.00  0.00     0.001 A 
ATOM     78  C   UNL A   1      37.961  31.806  37.300  1.00  0.00     0.001 A 
ATOM     79  C   UNL A   1      38.482  33.050  37.652  1.00  0.00     0.000 A 
ENDBRANCH  55  74
BRANCH  67  80
ATOM     80  C   UNL A   1      44.830  27.493  34.254  1.00  0.00    -0.014 A 
ATOM     81  C   UNL A   1      46.028  28.214  34.377  1.00  0.00     0.009 A 
ATOM     82  C   UNL A   1      44.651  26.325  35.011  1.00  0.00     0.009 A 
ATOM     83  C   UNL A   1      47.037  27.758  35.227  1.00  0.00     0.001 A 
ATOM     84  C   UNL A   1      45.654  25.884  35.874  1.00  0.00     0.001 A 
ATOM     85  C   UNL A   1      46.848  26.597  35.976  1.00  0.00     0.000 A 
ENDBRANCH  67  80
ENDBRANCH  41  42
ENDBRANCH  34  36
ENDBRANCH  33  34
ENDBRANCH  32  33
ENDBRANCH   1  32
TORSDOF 17
ENDMDL
