MODEL 1
REMARK VINA RESULT:      -9.6      0.000      0.000
REMARK SMILES CN(CCOCC1CC1)C(=O)N1CC[C@H](C(=O)OCCOC(=O)c2ccc(-c3c4nc(c(-c5ccccc5)c5ccc([nH]5)c(-c5ccccc5)c5nc(c(-c6ccccc6)c6ccc3[nH]6)C=C5)C=C4)cc2)C1
REMARK SMILES IDX 16 1 17 2 15 3 12 4 13 5 72 6 14 7 10 8 11 9 2 10 1 11 3 12
REMARK SMILES IDX 4 13 5 14 6 15 7 16 8 17 9 18 18 19 19 20 20 21 21 22 22 23
REMARK SMILES IDX 23 24 24 25 25 26 71 27 26 28 70 29 27 30 28 31 29 32 64 33
REMARK SMILES IDX 30 34 69 35 63 36 65 37 31 38 68 39 62 40 61 41 32 43 54 44
REMARK SMILES IDX 39 45 53 46 40 47 43 48 52 49 66 50 41 51 42 52 51 54 67 55
REMARK SMILES IDX 44 56 33 57 34 58 38 59 35 60 37 61 36 62 55 63 56 64 60 65
REMARK SMILES IDX 57 66 59 67 58 68 45 69 46 70 50 71 47 72 49 73 48 74
REMARK H PARENT 65 42 43 53
REMARK Flexibility Score: inf
ROOT
ATOM      1  C   UNL A   1      37.742  23.148  25.574  1.00  0.00     0.310 C 
ATOM      2  O   UNL A   1      38.246  23.800  26.478  1.00  0.00    -0.252 OA
ENDROOT
BRANCH   1   3
ATOM      3  C   UNL A   1      36.678  23.699  24.661  1.00  0.00     0.120 C 
ATOM      4  N   UNL A   1      34.331  23.331  24.414  1.00  0.00    -0.324 N 
ATOM      5  C   UNL A   1      34.960  23.100  23.120  1.00  0.00     0.122 C 
ATOM      6  C   UNL A   1      35.341  23.789  25.366  1.00  0.00     0.136 C 
ATOM      7  C   UNL A   1      36.419  22.841  23.429  1.00  0.00     0.039 C 
BRANCH   4   8
ATOM      8  C   UNL A   1      33.033  23.370  24.852  1.00  0.00     0.319 C 
ATOM      9  O   UNL A   1      32.329  24.321  24.480  1.00  0.00    -0.248 OA
BRANCH   8  10
ATOM     10  N   UNL A   1      32.474  22.395  25.648  1.00  0.00    -0.325 N 
ATOM     11  C   UNL A   1      31.031  22.485  25.872  1.00  0.00     0.148 C 
BRANCH  10  12
ATOM     12  C   UNL A   1      33.103  21.237  26.284  1.00  0.00     0.149 C 
BRANCH  12  13
ATOM     13  C   UNL A   1      33.332  20.033  25.355  1.00  0.00     0.181 C 
BRANCH  13  14
ATOM     14  O   UNL A   1      32.148  19.309  25.031  1.00  0.00    -0.379 OA
BRANCH  14  15
ATOM     15  C   UNL A   1      32.362  17.923  24.763  1.00  0.00     0.163 C 
BRANCH  15  16
ATOM     16  C   UNL A   1      33.748  17.696  24.256  1.00  0.00     0.015 C 
ATOM     17  C   UNL A   1      34.450  16.407  24.600  1.00  0.00     0.006 C 
ATOM     18  C   UNL A   1      34.027  16.679  23.182  1.00  0.00     0.006 C 
ENDBRANCH  15  16
ENDBRANCH  14  15
ENDBRANCH  13  14
ENDBRANCH  12  13
ENDBRANCH  10  12
ENDBRANCH   8  10
ENDBRANCH   4   8
ENDBRANCH   1   3
BRANCH   1  19
ATOM     19  O   UNL A   1      38.084  21.879  25.234  1.00  0.00    -0.462 OA
BRANCH  19  20
ATOM     20  C   UNL A   1      39.085  21.243  26.046  1.00  0.00     0.274 C 
BRANCH  20  21
ATOM     21  C   UNL A   1      39.523  19.935  25.384  1.00  0.00     0.275 C 
BRANCH  21  22
ATOM     22  O   UNL A   1      40.380  19.186  26.271  1.00  0.00    -0.458 OA
BRANCH  22  23
ATOM     23  C   UNL A   1      41.708  19.238  26.022  1.00  0.00     0.338 C 
ATOM     24  O   UNL A   1      42.406  18.393  25.485  1.00  0.00    -0.246 OA
BRANCH  23  25
ATOM     25  C   UNL A   1      42.213  20.554  26.435  1.00  0.00     0.060 A 
ATOM     26  C   UNL A   1      42.735  21.414  25.467  1.00  0.00     0.016 A 
ATOM     27  C   UNL A   1      42.211  20.924  27.779  1.00  0.00     0.016 A 
ATOM     28  C   UNL A   1      43.238  22.660  25.829  1.00  0.00     0.010 A 
ATOM     29  C   UNL A   1      42.693  22.186  28.141  1.00  0.00     0.010 A 
ATOM     30  C   UNL A   1      43.200  23.067  27.168  1.00  0.00    -0.014 A 
BRANCH  30  31
ATOM     31  C   UNL A   1      43.656  24.423  27.553  1.00  0.00     0.031 A 
ATOM     32  C   UNL A   1      42.663  25.464  27.975  1.00  0.00     0.074 A 
ATOM     33  C   UNL A   1      44.967  24.725  27.496  1.00  0.00     0.049 A 
ATOM     34  N   UNL A   1      42.845  26.746  28.172  1.00  0.00    -0.248 NA
ATOM     35  C   UNL A   1      41.285  25.005  28.206  1.00  0.00     0.031 C 
ATOM     36  C   UNL A   1      46.039  23.784  27.162  1.00  0.00     0.029 A 
ATOM     37  N   UNL A   1      45.620  25.914  27.704  1.00  0.00    -0.354 N 
ATOM     38  C   UNL A   1      41.600  27.252  28.520  1.00  0.00     0.074 A 
ATOM     39  C   UNL A   1      40.671  26.143  28.504  1.00  0.00     0.031 C 
ATOM     40  C   UNL A   1      47.214  24.433  27.186  1.00  0.00     0.029 A 
ATOM     41  C   UNL A   1      46.970  25.845  27.464  1.00  0.00     0.049 A 
ATOM     42  H   UNL A   1      45.164  26.736  27.997  1.00  0.00     0.167 HD
ATOM     43  C   UNL A   1      41.266  28.531  28.817  1.00  0.00     0.031 A 
ATOM     44  C   UNL A   1      47.901  26.815  27.419  1.00  0.00     0.031 A 
ATOM     45  C   UNL A   1      42.195  29.629  28.832  1.00  0.00     0.049 A 
ATOM     46  C   UNL A   1      47.485  28.241  27.645  1.00  0.00     0.074 A 
ATOM     47  C   UNL A   1      41.956  30.958  29.136  1.00  0.00     0.029 A 
ATOM     48  N   UNL A   1      43.542  29.526  28.522  1.00  0.00    -0.354 N 
ATOM     49  N   UNL A   1      46.302  28.715  27.952  1.00  0.00    -0.248 NA
ATOM     50  C   UNL A   1      48.527  29.266  27.495  1.00  0.00     0.031 C 
ATOM     51  C   UNL A   1      43.149  31.668  28.960  1.00  0.00     0.029 A 
ATOM     52  C   UNL A   1      44.140  30.773  28.592  1.00  0.00     0.049 A 
ATOM     53  H   UNL A   1      44.006  28.690  28.288  1.00  0.00     0.167 HD
ATOM     54  C   UNL A   1      46.457  30.092  28.039  1.00  0.00     0.074 A 
ATOM     55  C   UNL A   1      47.853  30.374  27.772  1.00  0.00     0.031 C 
ATOM     56  C   UNL A   1      45.527  31.037  28.309  1.00  0.00     0.031 A 
BRANCH  43  57
ATOM     57  C   UNL A   1      39.820  28.820  29.102  1.00  0.00    -0.014 A 
ATOM     58  C   UNL A   1      39.300  28.741  30.402  1.00  0.00     0.009 A 
ATOM     59  C   UNL A   1      38.974  29.213  28.053  1.00  0.00     0.009 A 
ATOM     60  C   UNL A   1      37.953  29.024  30.642  1.00  0.00     0.001 A 
ATOM     61  C   UNL A   1      37.635  29.518  28.298  1.00  0.00     0.001 A 
ATOM     62  C   UNL A   1      37.123  29.415  29.591  1.00  0.00     0.000 A 
ENDBRANCH  43  57
BRANCH  44  63
ATOM     63  C   UNL A   1      49.307  26.479  27.075  1.00  0.00    -0.014 A 
ATOM     64  C   UNL A   1      49.720  26.419  25.736  1.00  0.00     0.009 A 
ATOM     65  C   UNL A   1      50.244  26.221  28.088  1.00  0.00     0.009 A 
ATOM     66  C   UNL A   1      51.041  26.095  25.419  1.00  0.00     0.001 A 
ATOM     67  C   UNL A   1      51.570  25.924  27.770  1.00  0.00     0.001 A 
ATOM     68  C   UNL A   1      51.966  25.856  26.435  1.00  0.00     0.000 A 
ENDBRANCH  44  63
BRANCH  56  69
ATOM     69  C   UNL A   1      45.990  32.464  28.337  1.00  0.00    -0.014 A 
ATOM     70  C   UNL A   1      45.828  33.296  27.219  1.00  0.00     0.009 A 
ATOM     71  C   UNL A   1      46.556  32.993  29.508  1.00  0.00     0.009 A 
ATOM     72  C   UNL A   1      46.246  34.627  27.266  1.00  0.00     0.001 A 
ATOM     73  C   UNL A   1      46.951  34.330  29.558  1.00  0.00     0.001 A 
ATOM     74  C   UNL A   1      46.801  35.144  28.436  1.00  0.00     0.000 A 
ENDBRANCH  56  69
ENDBRANCH  30  31
ENDBRANCH  23  25
ENDBRANCH  22  23
ENDBRANCH  21  22
ENDBRANCH  20  21
ENDBRANCH  19  20
ENDBRANCH   1  19
TORSDOF 18
ENDMDL
MODEL 2
REMARK VINA RESULT:      -9.4      1.371      6.225
REMARK SMILES CN(CCOCC1CC1)C(=O)N1CC[C@H](C(=O)OCCOC(=O)c2ccc(-c3c4nc(c(-c5ccccc5)c5ccc([nH]5)c(-c5ccccc5)c5nc(c(-c6ccccc6)c6ccc3[nH]6)C=C5)C=C4)cc2)C1
REMARK SMILES IDX 16 1 17 2 15 3 12 4 13 5 72 6 14 7 10 8 11 9 2 10 1 11 3 12
REMARK SMILES IDX 4 13 5 14 6 15 7 16 8 17 9 18 18 19 19 20 20 21 21 22 22 23
REMARK SMILES IDX 23 24 24 25 25 26 71 27 26 28 70 29 27 30 28 31 29 32 64 33
REMARK SMILES IDX 30 34 69 35 63 36 65 37 31 38 68 39 62 40 61 41 32 43 54 44
REMARK SMILES IDX 39 45 53 46 40 47 43 48 52 49 66 50 41 51 42 52 51 54 67 55
REMARK SMILES IDX 44 56 33 57 34 58 38 59 35 60 37 61 36 62 55 63 56 64 60 65
REMARK SMILES IDX 57 66 59 67 58 68 45 69 46 70 50 71 47 72 49 73 48 74
REMARK H PARENT 65 42 43 53
REMARK Flexibility Score: inf
ROOT
ATOM      1  C   UNL A   1      37.654  23.117  25.599  1.00  0.00     0.310 C 
ATOM      2  O   UNL A   1      38.097  23.783  26.525  1.00  0.00    -0.252 OA
ENDROOT
BRANCH   1   3
ATOM      3  C   UNL A   1      36.615  23.637  24.640  1.00  0.00     0.120 C 
ATOM      4  N   UNL A   1      34.240  23.447  24.482  1.00  0.00    -0.324 N 
ATOM      5  C   UNL A   1      34.812  22.998  23.218  1.00  0.00     0.122 C 
ATOM      6  C   UNL A   1      35.311  23.934  25.348  1.00  0.00     0.136 C 
ATOM      7  C   UNL A   1      36.251  22.653  23.534  1.00  0.00     0.039 C 
BRANCH   4   8
ATOM      8  C   UNL A   1      32.962  23.655  24.931  1.00  0.00     0.319 C 
ATOM      9  O   UNL A   1      32.504  24.804  24.850  1.00  0.00    -0.248 OA
BRANCH   8  10
ATOM     10  N   UNL A   1      32.165  22.650  25.432  1.00  0.00    -0.325 N 
ATOM     11  C   UNL A   1      30.759  22.987  25.659  1.00  0.00     0.148 C 
BRANCH  10  12
ATOM     12  C   UNL A   1      32.500  21.261  25.742  1.00  0.00     0.149 C 
BRANCH  12  13
ATOM     13  C   UNL A   1      32.570  20.325  24.523  1.00  0.00     0.181 C 
BRANCH  13  14
ATOM     14  O   UNL A   1      32.153  18.988  24.786  1.00  0.00    -0.379 OA
BRANCH  14  15
ATOM     15  C   UNL A   1      33.168  18.156  25.348  1.00  0.00     0.163 C 
BRANCH  15  16
ATOM     16  C   UNL A   1      34.096  17.672  24.284  1.00  0.00     0.015 C 
ATOM     17  C   UNL A   1      34.035  16.226  23.863  1.00  0.00     0.006 C 
ATOM     18  C   UNL A   1      33.589  17.306  22.915  1.00  0.00     0.006 C 
ENDBRANCH  15  16
ENDBRANCH  14  15
ENDBRANCH  13  14
ENDBRANCH  12  13
ENDBRANCH  10  12
ENDBRANCH   8  10
ENDBRANCH   4   8
ENDBRANCH   1   3
BRANCH   1  19
ATOM     19  O   UNL A   1      38.050  21.860  25.274  1.00  0.00    -0.462 OA
BRANCH  19  20
ATOM     20  C   UNL A   1      39.041  21.258  26.123  1.00  0.00     0.274 C 
BRANCH  20  21
ATOM     21  C   UNL A   1      39.637  20.035  25.423  1.00  0.00     0.275 C 
BRANCH  21  22
ATOM     22  O   UNL A   1      40.667  19.440  26.241  1.00  0.00    -0.458 OA
BRANCH  22  23
ATOM     23  C   UNL A   1      41.946  19.707  25.897  1.00  0.00     0.338 C 
ATOM     24  O   UNL A   1      42.720  18.999  25.272  1.00  0.00    -0.246 OA
BRANCH  23  25
ATOM     25  C   UNL A   1      42.277  21.070  26.332  1.00  0.00     0.060 A 
ATOM     26  C   UNL A   1      42.632  22.020  25.373  1.00  0.00     0.016 A 
ATOM     27  C   UNL A   1      42.276  21.402  27.686  1.00  0.00     0.016 A 
ATOM     28  C   UNL A   1      42.969  23.315  25.756  1.00  0.00     0.010 A 
ATOM     29  C   UNL A   1      42.589  22.709  28.070  1.00  0.00     0.010 A 
ATOM     30  C   UNL A   1      42.927  23.678  27.107  1.00  0.00    -0.014 A 
BRANCH  30  31
ATOM     31  C   UNL A   1      43.202  25.076  27.516  1.00  0.00     0.031 A 
ATOM     32  C   UNL A   1      44.608  25.524  27.780  1.00  0.00     0.074 A 
ATOM     33  C   UNL A   1      42.178  25.935  27.676  1.00  0.00     0.049 A 
ATOM     34  N   UNL A   1      45.030  26.641  28.317  1.00  0.00    -0.248 NA
ATOM     35  C   UNL A   1      45.680  24.595  27.392  1.00  0.00     0.031 C 
ATOM     36  C   UNL A   1      40.771  25.641  27.390  1.00  0.00     0.029 A 
ATOM     37  N   UNL A   1      42.161  27.229  28.132  1.00  0.00    -0.354 N 
ATOM     38  C   UNL A   1      46.414  26.538  28.358  1.00  0.00     0.074 A 
ATOM     39  C   UNL A   1      46.761  25.250  27.797  1.00  0.00     0.031 C 
ATOM     40  C   UNL A   1      40.031  26.722  27.680  1.00  0.00     0.029 A 
ATOM     41  C   UNL A   1      40.897  27.755  28.238  1.00  0.00     0.049 A 
ATOM     42  H   UNL A   1      42.976  27.732  28.361  1.00  0.00     0.167 HD
ATOM     43  C   UNL A   1      47.310  27.437  28.831  1.00  0.00     0.031 A 
ATOM     44  C   UNL A   1      40.473  28.915  28.772  1.00  0.00     0.031 A 
ATOM     45  C   UNL A   1      46.958  28.717  29.387  1.00  0.00     0.049 A 
ATOM     46  C   UNL A   1      41.478  29.847  29.389  1.00  0.00     0.074 A 
ATOM     47  C   UNL A   1      47.796  29.704  29.877  1.00  0.00     0.029 A 
ATOM     48  N   UNL A   1      45.662  29.184  29.532  1.00  0.00    -0.354 N 
ATOM     49  N   UNL A   1      42.783  29.733  29.444  1.00  0.00    -0.248 NA
ATOM     50  C   UNL A   1      40.948  31.055  30.037  1.00  0.00     0.031 C 
ATOM     51  C   UNL A   1      47.002  30.747  30.367  1.00  0.00     0.029 A 
ATOM     52  C   UNL A   1      45.673  30.429  30.138  1.00  0.00     0.049 A 
ATOM     53  H   UNL A   1      44.852  28.703  29.246  1.00  0.00     0.167 HD
ATOM     54  C   UNL A   1      43.232  30.855  30.126  1.00  0.00     0.074 A 
ATOM     55  C   UNL A   1      42.062  31.648  30.447  1.00  0.00     0.031 C 
ATOM     56  C   UNL A   1      44.498  31.196  30.461  1.00  0.00     0.031 A 
BRANCH  43  57
ATOM     57  C   UNL A   1      48.759  27.045  28.813  1.00  0.00    -0.014 A 
ATOM     58  C   UNL A   1      49.594  27.375  27.736  1.00  0.00     0.009 A 
ATOM     59  C   UNL A   1      49.304  26.363  29.913  1.00  0.00     0.009 A 
ATOM     60  C   UNL A   1      50.942  27.005  27.748  1.00  0.00     0.001 A 
ATOM     61  C   UNL A   1      50.656  26.016  29.934  1.00  0.00     0.001 A 
ATOM     62  C   UNL A   1      51.471  26.329  28.848  1.00  0.00     0.000 A 
ENDBRANCH  43  57
BRANCH  44  63
ATOM     63  C   UNL A   1      39.021  29.226  28.815  1.00  0.00    -0.014 A 
ATOM     64  C   UNL A   1      38.286  29.043  29.995  1.00  0.00     0.009 A 
ATOM     65  C   UNL A   1      38.365  29.712  27.673  1.00  0.00     0.009 A 
ATOM     66  C   UNL A   1      36.920  29.330  30.027  1.00  0.00     0.001 A 
ATOM     67  C   UNL A   1      37.005  30.024  27.715  1.00  0.00     0.001 A 
ATOM     68  C   UNL A   1      36.282  29.827  28.890  1.00  0.00     0.000 A 
ENDBRANCH  44  63
BRANCH  56  69
ATOM     69  C   UNL A   1      44.685  32.485  31.207  1.00  0.00    -0.014 A 
ATOM     70  C   UNL A   1      44.710  32.508  32.610  1.00  0.00     0.009 A 
ATOM     71  C   UNL A   1      44.878  33.681  30.499  1.00  0.00     0.009 A 
ATOM     72  C   UNL A   1      44.904  33.712  33.290  1.00  0.00     0.001 A 
ATOM     73  C   UNL A   1      45.095  34.878  31.182  1.00  0.00     0.001 A 
ATOM     74  C   UNL A   1      45.102  34.893  32.577  1.00  0.00     0.000 A 
ENDBRANCH  56  69
ENDBRANCH  30  31
ENDBRANCH  23  25
ENDBRANCH  22  23
ENDBRANCH  21  22
ENDBRANCH  20  21
ENDBRANCH  19  20
ENDBRANCH   1  19
TORSDOF 18
ENDMDL
MODEL 3
REMARK VINA RESULT:      -9.3      2.871      7.671
REMARK SMILES CN(CCOCC1CC1)C(=O)N1CC[C@H](C(=O)OCCOC(=O)c2ccc(-c3c4nc(c(-c5ccccc5)c5ccc([nH]5)c(-c5ccccc5)c5nc(c(-c6ccccc6)c6ccc3[nH]6)C=C5)C=C4)cc2)C1
REMARK SMILES IDX 16 1 17 2 15 3 12 4 13 5 72 6 14 7 10 8 11 9 2 10 1 11 3 12
REMARK SMILES IDX 4 13 5 14 6 15 7 16 8 17 9 18 18 19 19 20 20 21 21 22 22 23
REMARK SMILES IDX 23 24 24 25 25 26 71 27 26 28 70 29 27 30 28 31 29 32 64 33
REMARK SMILES IDX 30 34 69 35 63 36 65 37 31 38 68 39 62 40 61 41 32 43 54 44
REMARK SMILES IDX 39 45 53 46 40 47 43 48 52 49 66 50 41 51 42 52 51 54 67 55
REMARK SMILES IDX 44 56 33 57 34 58 38 59 35 60 37 61 36 62 55 63 56 64 60 65
REMARK SMILES IDX 57 66 59 67 58 68 45 69 46 70 50 71 47 72 49 73 48 74
REMARK H PARENT 65 42 43 53
REMARK Flexibility Score: inf
ROOT
ATOM      1  C   UNL A   1      30.817  29.048  24.161  1.00  0.00     0.310 C 
ATOM      2  O   UNL A   1      30.030  29.904  23.782  1.00  0.00    -0.252 OA
ENDROOT
BRANCH   1   3
ATOM      3  C   UNL A   1      30.647  27.583  23.855  1.00  0.00     0.120 C 
ATOM      4  N   UNL A   1      31.413  25.561  24.868  1.00  0.00    -0.324 N 
ATOM      5  C   UNL A   1      31.820  25.544  23.468  1.00  0.00     0.122 C 
ATOM      6  C   UNL A   1      30.611  26.756  25.121  1.00  0.00     0.136 C 
ATOM      7  C   UNL A   1      31.781  26.991  23.026  1.00  0.00     0.039 C 
BRANCH   4   8
ATOM      8  C   UNL A   1      31.479  24.653  25.893  1.00  0.00     0.319 C 
ATOM      9  O   UNL A   1      31.574  25.096  27.047  1.00  0.00    -0.248 OA
BRANCH   8  10
ATOM     10  N   UNL A   1      31.413  23.291  25.701  1.00  0.00    -0.325 N 
ATOM     11  C   UNL A   1      30.330  22.590  26.390  1.00  0.00     0.148 C 
BRANCH  10  12
ATOM     12  C   UNL A   1      32.248  22.425  24.869  1.00  0.00     0.149 C 
BRANCH  12  13
ATOM     13  C   UNL A   1      33.669  22.185  25.406  1.00  0.00     0.181 C 
BRANCH  13  14
ATOM     14  O   UNL A   1      34.610  21.782  24.415  1.00  0.00    -0.379 OA
BRANCH  14  15
ATOM     15  C   UNL A   1      35.741  22.645  24.295  1.00  0.00     0.163 C 
BRANCH  15  16
ATOM     16  C   UNL A   1      36.493  22.704  25.583  1.00  0.00     0.015 C 
ATOM     17  C   UNL A   1      37.923  22.227  25.617  1.00  0.00     0.006 C 
ATOM     18  C   UNL A   1      37.613  23.690  25.787  1.00  0.00     0.006 C 
ENDBRANCH  15  16
ENDBRANCH  14  15
ENDBRANCH  13  14
ENDBRANCH  12  13
ENDBRANCH  10  12
ENDBRANCH   8  10
ENDBRANCH   4   8
ENDBRANCH   1   3
BRANCH   1  19
ATOM     19  O   UNL A   1      31.958  29.283  24.859  1.00  0.00    -0.462 OA
BRANCH  19  20
ATOM     20  C   UNL A   1      31.881  30.263  25.907  1.00  0.00     0.274 C 
BRANCH  20  21
ATOM     21  C   UNL A   1      32.669  29.773  27.123  1.00  0.00     0.275 C 
BRANCH  21  22
ATOM     22  O   UNL A   1      34.057  30.152  27.008  1.00  0.00    -0.458 OA
BRANCH  22  23
ATOM     23  C   UNL A   1      34.592  30.825  28.051  1.00  0.00     0.338 C 
ATOM     24  O   UNL A   1      34.077  31.706  28.721  1.00  0.00    -0.246 OA
BRANCH  23  25
ATOM     25  C   UNL A   1      35.921  30.271  28.338  1.00  0.00     0.060 A 
ATOM     26  C   UNL A   1      36.882  30.254  27.325  1.00  0.00     0.016 A 
ATOM     27  C   UNL A   1      36.209  29.732  29.592  1.00  0.00     0.016 A 
ATOM     28  C   UNL A   1      38.144  29.718  27.561  1.00  0.00     0.010 A 
ATOM     29  C   UNL A   1      37.485  29.217  29.838  1.00  0.00     0.010 A 
ATOM     30  C   UNL A   1      38.466  29.216  28.828  1.00  0.00    -0.014 A 
BRANCH  30  31
ATOM     31  C   UNL A   1      39.833  28.721  29.114  1.00  0.00     0.031 A 
ATOM     32  C   UNL A   1      40.865  29.640  29.695  1.00  0.00     0.074 A 
ATOM     33  C   UNL A   1      40.151  27.445  28.824  1.00  0.00     0.049 A 
ATOM     34  N   UNL A   1      42.151  29.446  29.844  1.00  0.00    -0.248 NA
ATOM     35  C   UNL A   1      40.390  30.948  30.169  1.00  0.00     0.031 C 
ATOM     36  C   UNL A   1      39.222  26.434  28.315  1.00  0.00     0.029 A 
ATOM     37  N   UNL A   1      41.352  26.785  28.902  1.00  0.00    -0.354 N 
ATOM     38  C   UNL A   1      42.645  30.618  30.402  1.00  0.00     0.074 A 
ATOM     39  C   UNL A   1      41.523  31.518  30.560  1.00  0.00     0.031 C 
ATOM     40  C   UNL A   1      39.887  25.284  28.126  1.00  0.00     0.029 A 
ATOM     41  C   UNL A   1      41.299  25.496  28.430  1.00  0.00     0.049 A 
ATOM     42  H   UNL A   1      42.171  27.194  29.264  1.00  0.00     0.167 HD
ATOM     43  C   UNL A   1      43.922  30.914  30.741  1.00  0.00     0.031 A 
ATOM     44  C   UNL A   1      42.281  24.603  28.212  1.00  0.00     0.031 A 
ATOM     45  C   UNL A   1      45.033  30.014  30.581  1.00  0.00     0.049 A 
ATOM     46  C   UNL A   1      43.703  24.995  28.495  1.00  0.00     0.074 A 
ATOM     47  C   UNL A   1      46.362  30.217  30.911  1.00  0.00     0.029 A 
ATOM     48  N   UNL A   1      44.945  28.742  30.041  1.00  0.00    -0.354 N 
ATOM     49  N   UNL A   1      44.165  26.113  29.001  1.00  0.00    -0.248 NA
ATOM     50  C   UNL A   1      44.741  24.012  28.154  1.00  0.00     0.031 C 
ATOM     51  C   UNL A   1      47.087  29.085  30.521  1.00  0.00     0.029 A 
ATOM     52  C   UNL A   1      46.201  28.160  29.993  1.00  0.00     0.049 A 
ATOM     53  H   UNL A   1      44.113  28.313  29.736  1.00  0.00     0.167 HD
ATOM     54  C   UNL A   1      45.544  25.966  29.046  1.00  0.00     0.074 A 
ATOM     55  C   UNL A   1      45.843  24.643  28.534  1.00  0.00     0.031 C 
ATOM     56  C   UNL A   1      46.480  26.849  29.467  1.00  0.00     0.031 A 
BRANCH  43  57
ATOM     57  C   UNL A   1      44.195  32.292  31.274  1.00  0.00    -0.014 A 
ATOM     58  C   UNL A   1      44.355  33.390  30.417  1.00  0.00     0.009 A 
ATOM     59  C   UNL A   1      44.255  32.496  32.662  1.00  0.00     0.009 A 
ATOM     60  C   UNL A   1      44.598  34.663  30.940  1.00  0.00     0.001 A 
ATOM     61  C   UNL A   1      44.474  33.772  33.182  1.00  0.00     0.001 A 
ATOM     62  C   UNL A   1      44.655  34.853  32.321  1.00  0.00     0.000 A 
ENDBRANCH  43  57
BRANCH  44  63
ATOM     63  C   UNL A   1      41.960  23.275  27.629  1.00  0.00    -0.014 A 
ATOM     64  C   UNL A   1      41.559  22.212  28.450  1.00  0.00     0.009 A 
ATOM     65  C   UNL A   1      42.050  23.068  26.243  1.00  0.00     0.009 A 
ATOM     66  C   UNL A   1      41.265  20.964  27.895  1.00  0.00     0.001 A 
ATOM     67  C   UNL A   1      41.730  21.827  25.688  1.00  0.00     0.001 A 
ATOM     68  C   UNL A   1      41.344  20.774  26.516  1.00  0.00     0.000 A 
ENDBRANCH  44  63
BRANCH  56  69
ATOM     69  C   UNL A   1      47.914  26.410  29.400  1.00  0.00    -0.014 A 
ATOM     70  C   UNL A   1      48.674  26.611  28.238  1.00  0.00     0.009 A 
ATOM     71  C   UNL A   1      48.521  25.828  30.524  1.00  0.00     0.009 A 
ATOM     72  C   UNL A   1      50.012  26.216  28.196  1.00  0.00     0.001 A 
ATOM     73  C   UNL A   1      49.864  25.457  30.486  1.00  0.00     0.001 A 
ATOM     74  C   UNL A   1      50.607  25.645  29.320  1.00  0.00     0.000 A 
ENDBRANCH  56  69
ENDBRANCH  30  31
ENDBRANCH  23  25
ENDBRANCH  22  23
ENDBRANCH  21  22
ENDBRANCH  20  21
ENDBRANCH  19  20
ENDBRANCH   1  19
TORSDOF 18
ENDMDL
