MODEL 1
REMARK VINA RESULT:     -10.5      0.000      0.000
REMARK SMILES [NH3+][C@H]1COC[C@H]1C(=O)N[C@@H]1C=C[C@@H](C(=O)OCCOC(=O)c2ccc(-c3c4nc(c(-c5ccccc5)c5ccc([nH]5)c(-c5ccccc5)c5nc(c(-c6ccccc6)c6ccc3[nH]6)C=C5)C=C4)cc2)C1
REMARK SMILES IDX 17 1 16 2 14 3 15 4 13 5 10 6 11 7 70 8 12 9 9 10 7 11 8 12
REMARK SMILES IDX 6 14 2 15 3 16 4 17 5 18 1 19 18 23 19 24 20 25 21 26 22 27
REMARK SMILES IDX 23 28 69 29 24 30 68 31 25 32 26 33 27 34 62 35 28 36 67 37
REMARK SMILES IDX 61 38 63 39 29 40 66 41 60 42 59 43 30 45 52 46 37 47 51 48
REMARK SMILES IDX 38 49 41 50 50 51 64 52 39 53 40 54 49 56 65 57 42 58 31 59
REMARK SMILES IDX 32 60 36 61 33 62 35 63 34 64 53 65 54 66 58 67 55 68 57 69
REMARK SMILES IDX 56 70 43 71 44 72 48 73 45 74 47 75 46 76
REMARK H PARENT 9 13 1 20 1 21 1 22 63 44 41 55
REMARK Flexibility Score: inf
ROOT
ATOM      1  C   UNL A   1      38.814  21.518  26.020  1.00  0.00     0.274 C 
ENDROOT
BRANCH   1   2
ATOM      2  O   UNL A   1      38.114  22.224  24.978  1.00  0.00    -0.462 OA
BRANCH   2   3
ATOM      3  C   UNL A   1      36.957  22.819  25.358  1.00  0.00     0.312 C 
ATOM      4  O   UNL A   1      36.869  23.979  25.751  1.00  0.00    -0.252 OA
BRANCH   3   5
ATOM      5  C   UNL A   1      35.748  21.903  25.293  1.00  0.00     0.124 C 
ATOM      6  C   UNL A   1      33.628  21.350  26.343  1.00  0.00     0.106 C 
ATOM      7  C   UNL A   1      33.423  22.146  25.108  1.00  0.00    -0.006 C 
ATOM      8  C   UNL A   1      35.127  21.440  26.613  1.00  0.00     0.048 C 
ATOM      9  C   UNL A   1      34.588  22.492  24.548  1.00  0.00    -0.014 C 
BRANCH   6  10
ATOM     10  N   UNL A   1      33.010  20.036  26.279  1.00  0.00    -0.349 N 
ATOM     11  C   UNL A   1      32.950  18.912  25.547  1.00  0.00     0.232 C 
ATOM     12  O   UNL A   1      32.199  18.054  26.045  1.00  0.00    -0.274 OA
ATOM     13  H   UNL A   1      32.417  19.931  27.058  1.00  0.00     0.164 HD
BRANCH  11  14
ATOM     14  C   UNL A   1      33.644  18.540  24.246  1.00  0.00     0.164 C 
ATOM     15  C   UNL A   1      34.622  17.384  24.139  1.00  0.00     0.221 C 
ATOM     16  C   UNL A   1      34.085  16.527  22.994  1.00  0.00     0.225 C 
ATOM     17  O   UNL A   1      33.057  17.256  22.314  1.00  0.00    -0.374 OA
ATOM     18  C   UNL A   1      32.760  18.457  23.027  1.00  0.00     0.180 C 
BRANCH  15  19
ATOM     19  N   UNL A   1      34.994  16.644  25.338  1.00  0.00    -0.352 N 
ATOM     20  H   UNL A   1      34.195  16.596  25.971  1.00  0.00     0.344 HD
ATOM     21  H   UNL A   1      35.767  17.119  25.805  1.00  0.00     0.344 HD
ATOM     22  H   UNL A   1      35.281  15.700  25.080  1.00  0.00     0.344 HD
ENDBRANCH  15  19
ENDBRANCH  11  14
ENDBRANCH   6  10
ENDBRANCH   3   5
ENDBRANCH   2   3
ENDBRANCH   1   2
BRANCH   1  23
ATOM     23  C   UNL A   1      39.370  20.183  25.516  1.00  0.00     0.275 C 
BRANCH  23  24
ATOM     24  O   UNL A   1      40.292  19.580  26.447  1.00  0.00    -0.458 OA
BRANCH  24  25
ATOM     25  C   UNL A   1      41.599  19.725  26.128  1.00  0.00     0.338 C 
ATOM     26  O   UNL A   1      42.294  18.951  25.492  1.00  0.00    -0.246 OA
BRANCH  25  27
ATOM     27  C   UNL A   1      42.107  21.028  26.587  1.00  0.00     0.060 A 
ATOM     28  C   UNL A   1      42.046  21.314  27.953  1.00  0.00     0.016 A 
ATOM     29  C   UNL A   1      42.507  22.006  25.676  1.00  0.00     0.016 A 
ATOM     30  C   UNL A   1      42.346  22.594  28.414  1.00  0.00     0.010 A 
ATOM     31  C   UNL A   1      42.823  23.288  26.142  1.00  0.00     0.010 A 
ATOM     32  C   UNL A   1      42.722  23.597  27.510  1.00  0.00    -0.014 A 
BRANCH  32  33
ATOM     33  C   UNL A   1      42.971  24.978  27.993  1.00  0.00     0.031 A 
ATOM     34  C   UNL A   1      44.371  25.432  28.301  1.00  0.00     0.074 A 
ATOM     35  C   UNL A   1      41.944  25.838  28.132  1.00  0.00     0.049 A 
ATOM     36  N   UNL A   1      44.779  26.570  28.805  1.00  0.00    -0.248 NA
ATOM     37  C   UNL A   1      45.455  24.483  28.001  1.00  0.00     0.031 C 
ATOM     38  C   UNL A   1      40.546  25.546  27.817  1.00  0.00     0.029 A 
ATOM     39  N   UNL A   1      41.926  27.136  28.576  1.00  0.00    -0.354 N 
ATOM     40  C   UNL A   1      46.162  26.472  28.891  1.00  0.00     0.074 A 
ATOM     41  C   UNL A   1      46.524  25.156  28.407  1.00  0.00     0.031 C 
ATOM     42  C   UNL A   1      39.805  26.637  28.071  1.00  0.00     0.029 A 
ATOM     43  C   UNL A   1      40.667  27.685  28.608  1.00  0.00     0.049 A 
ATOM     44  H   UNL A   1      42.736  27.627  28.846  1.00  0.00     0.167 HD
ATOM     45  C   UNL A   1      47.052  27.395  29.328  1.00  0.00     0.031 A 
ATOM     46  C   UNL A   1      40.253  28.890  29.044  1.00  0.00     0.031 A 
ATOM     47  C   UNL A   1      46.703  28.703  29.815  1.00  0.00     0.049 A 
ATOM     48  C   UNL A   1      41.252  29.865  29.597  1.00  0.00     0.074 A 
ATOM     49  C   UNL A   1      47.537  29.696  30.301  1.00  0.00     0.029 A 
ATOM     50  N   UNL A   1      45.413  29.205  29.869  1.00  0.00    -0.354 N 
ATOM     51  N   UNL A   1      42.553  29.746  29.700  1.00  0.00    -0.248 NA
ATOM     52  C   UNL A   1      40.723  31.143  30.095  1.00  0.00     0.031 C 
ATOM     53  C   UNL A   1      46.748  30.788  30.678  1.00  0.00     0.029 A 
ATOM     54  C   UNL A   1      45.428  30.488  30.389  1.00  0.00     0.049 A 
ATOM     55  H   UNL A   1      44.606  28.721  29.580  1.00  0.00     0.167 HD
ATOM     56  C   UNL A   1      42.998  30.939  30.256  1.00  0.00     0.074 A 
ATOM     57  C   UNL A   1      41.832  31.774  30.452  1.00  0.00     0.031 C 
ATOM     58  C   UNL A   1      44.261  31.309  30.574  1.00  0.00     0.031 A 
BRANCH  45  59
ATOM     59  C   UNL A   1      48.504  27.012  29.319  1.00  0.00    -0.014 A 
ATOM     60  C   UNL A   1      49.088  26.370  30.423  1.00  0.00     0.009 A 
ATOM     61  C   UNL A   1      49.284  27.251  28.178  1.00  0.00     0.009 A 
ATOM     62  C   UNL A   1      50.431  25.994  30.389  1.00  0.00     0.001 A 
ATOM     63  C   UNL A   1      50.622  26.856  28.139  1.00  0.00     0.001 A 
ATOM     64  C   UNL A   1      51.196  26.232  29.247  1.00  0.00     0.000 A 
ENDBRANCH  45  59
BRANCH  46  65
ATOM     65  C   UNL A   1      38.810  29.238  29.006  1.00  0.00    -0.014 A 
ATOM     66  C   UNL A   1      38.004  29.056  30.139  1.00  0.00     0.009 A 
ATOM     67  C   UNL A   1      38.228  29.726  27.826  1.00  0.00     0.009 A 
ATOM     68  C   UNL A   1      36.635  29.330  30.082  1.00  0.00     0.001 A 
ATOM     69  C   UNL A   1      36.865  30.023  27.780  1.00  0.00     0.001 A 
ATOM     70  C   UNL A   1      36.068  29.816  28.904  1.00  0.00     0.000 A 
ENDBRANCH  46  65
BRANCH  58  71
ATOM     71  C   UNL A   1      44.447  32.689  31.135  1.00  0.00    -0.014 A 
ATOM     72  C   UNL A   1      44.546  32.903  32.518  1.00  0.00     0.009 A 
ATOM     73  C   UNL A   1      44.547  33.785  30.263  1.00  0.00     0.009 A 
ATOM     74  C   UNL A   1      44.711  34.196  33.020  1.00  0.00     0.001 A 
ATOM     75  C   UNL A   1      44.734  35.073  30.768  1.00  0.00     0.001 A 
ATOM     76  C   UNL A   1      44.806  35.278  32.145  1.00  0.00     0.000 A 
ENDBRANCH  58  71
ENDBRANCH  32  33
ENDBRANCH  25  27
ENDBRANCH  24  25
ENDBRANCH  23  24
ENDBRANCH   1  23
TORSDOF 14
ENDMDL
MODEL 2
REMARK VINA RESULT:     -10.2      4.908      9.536
REMARK SMILES [NH3+][C@H]1COC[C@H]1C(=O)N[C@@H]1C=C[C@@H](C(=O)OCCOC(=O)c2ccc(-c3c4nc(c(-c5ccccc5)c5ccc([nH]5)c(-c5ccccc5)c5nc(c(-c6ccccc6)c6ccc3[nH]6)C=C5)C=C4)cc2)C1
REMARK SMILES IDX 17 1 16 2 14 3 15 4 13 5 10 6 11 7 70 8 12 9 9 10 7 11 8 12
REMARK SMILES IDX 6 14 2 15 3 16 4 17 5 18 1 19 18 23 19 24 20 25 21 26 22 27
REMARK SMILES IDX 23 28 69 29 24 30 68 31 25 32 26 33 27 34 62 35 28 36 67 37
REMARK SMILES IDX 61 38 63 39 29 40 66 41 60 42 59 43 30 45 52 46 37 47 51 48
REMARK SMILES IDX 38 49 41 50 50 51 64 52 39 53 40 54 49 56 65 57 42 58 31 59
REMARK SMILES IDX 32 60 36 61 33 62 35 63 34 64 53 65 54 66 58 67 55 68 57 69
REMARK SMILES IDX 56 70 43 71 44 72 48 73 45 74 47 75 46 76
REMARK H PARENT 9 13 1 20 1 21 1 22 63 44 41 55
REMARK Flexibility Score: inf
ROOT
ATOM      1  C   UNL A   1      33.772  31.356  27.248  1.00  0.00     0.274 C 
ENDROOT
BRANCH   1   2
ATOM      2  O   UNL A   1      33.396  29.994  27.525  1.00  0.00    -0.462 OA
BRANCH   2   3
ATOM      3  C   UNL A   1      34.156  29.049  26.920  1.00  0.00     0.312 C 
ATOM      4  O   UNL A   1      35.338  28.840  27.176  1.00  0.00    -0.252 OA
BRANCH   3   5
ATOM      5  C   UNL A   1      33.421  28.270  25.843  1.00  0.00     0.124 C 
ATOM      6  C   UNL A   1      33.701  26.856  23.888  1.00  0.00     0.106 C 
ATOM      7  C   UNL A   1      33.345  26.053  25.084  1.00  0.00    -0.006 C 
ATOM      8  C   UNL A   1      34.029  28.239  24.439  1.00  0.00     0.048 C 
ATOM      9  C   UNL A   1      33.233  26.820  26.174  1.00  0.00    -0.014 C 
BRANCH   6  10
ATOM     10  N   UNL A   1      32.721  26.745  22.820  1.00  0.00    -0.349 N 
ATOM     11  C   UNL A   1      31.487  27.124  22.451  1.00  0.00     0.232 C 
ATOM     12  O   UNL A   1      31.170  26.699  21.326  1.00  0.00    -0.274 OA
ATOM     13  H   UNL A   1      33.102  26.188  22.103  1.00  0.00     0.164 HD
BRANCH  11  14
ATOM     14  C   UNL A   1      30.454  27.971  23.178  1.00  0.00     0.164 C 
ATOM     15  C   UNL A   1      30.075  29.370  22.726  1.00  0.00     0.221 C 
ATOM     16  C   UNL A   1      28.555  29.333  22.583  1.00  0.00     0.225 C 
ATOM     17  O   UNL A   1      28.066  28.120  23.166  1.00  0.00    -0.374 OA
ATOM     18  C   UNL A   1      29.161  27.279  23.529  1.00  0.00     0.180 C 
BRANCH  15  19
ATOM     19  N   UNL A   1      30.783  29.979  21.606  1.00  0.00    -0.352 N 
ATOM     20  H   UNL A   1      31.788  29.851  21.728  1.00  0.00     0.344 HD
ATOM     21  H   UNL A   1      30.570  30.976  21.572  1.00  0.00     0.344 HD
ATOM     22  H   UNL A   1      30.487  29.538  20.736  1.00  0.00     0.344 HD
ENDBRANCH  15  19
ENDBRANCH  11  14
ENDBRANCH   6  10
ENDBRANCH   3   5
ENDBRANCH   2   3
ENDBRANCH   1   2
BRANCH   1  23
ATOM     23  C   UNL A   1      32.715  32.343  27.754  1.00  0.00     0.275 C 
BRANCH  23  24
ATOM     24  O   UNL A   1      33.177  33.709  27.735  1.00  0.00    -0.458 OA
BRANCH  24  25
ATOM     25  C   UNL A   1      33.371  34.262  28.954  1.00  0.00     0.338 C 
ATOM     26  O   UNL A   1      32.585  34.946  29.588  1.00  0.00    -0.246 OA
BRANCH  25  27
ATOM     27  C   UNL A   1      34.677  33.865  29.505  1.00  0.00     0.060 A 
ATOM     28  C   UNL A   1      35.826  34.201  28.786  1.00  0.00     0.016 A 
ATOM     29  C   UNL A   1      34.762  33.054  30.638  1.00  0.00     0.016 A 
ATOM     30  C   UNL A   1      37.065  33.696  29.171  1.00  0.00     0.010 A 
ATOM     31  C   UNL A   1      36.012  32.560  31.033  1.00  0.00     0.010 A 
ATOM     32  C   UNL A   1      37.167  32.858  30.290  1.00  0.00    -0.014 A 
BRANCH  32  33
ATOM     33  C   UNL A   1      38.476  32.262  30.656  1.00  0.00     0.031 A 
ATOM     34  C   UNL A   1      38.912  30.959  30.043  1.00  0.00     0.074 A 
ATOM     35  C   UNL A   1      39.289  32.899  31.519  1.00  0.00     0.049 A 
ATOM     36  N   UNL A   1      39.981  30.244  30.294  1.00  0.00    -0.248 NA
ATOM     37  C   UNL A   1      38.034  30.387  29.010  1.00  0.00     0.031 C 
ATOM     38  C   UNL A   1      39.014  34.193  32.144  1.00  0.00     0.029 A 
ATOM     39  N   UNL A   1      40.515  32.537  32.017  1.00  0.00    -0.354 N 
ATOM     40  C   UNL A   1      39.900  29.136  29.460  1.00  0.00     0.074 A 
ATOM     41  C   UNL A   1      38.668  29.261  28.709  1.00  0.00     0.031 C 
ATOM     42  C   UNL A   1      40.047  34.521  32.939  1.00  0.00     0.029 A 
ATOM     43  C   UNL A   1      41.030  33.442  32.913  1.00  0.00     0.049 A 
ATOM     44  H   UNL A   1      40.981  31.710  31.759  1.00  0.00     0.167 HD
ATOM     45  C   UNL A   1      40.773  28.110  29.327  1.00  0.00     0.031 A 
ATOM     46  C   UNL A   1      42.157  33.397  33.648  1.00  0.00     0.031 A 
ATOM     47  C   UNL A   1      41.997  27.974  30.071  1.00  0.00     0.049 A 
ATOM     48  C   UNL A   1      43.069  32.209  33.538  1.00  0.00     0.074 A 
ATOM     49  C   UNL A   1      42.932  26.953  30.018  1.00  0.00     0.029 A 
ATOM     50  N   UNL A   1      42.461  28.892  30.997  1.00  0.00    -0.354 N 
ATOM     51  N   UNL A   1      42.963  31.154  32.768  1.00  0.00    -0.248 NA
ATOM     52  C   UNL A   1      44.258  32.206  34.404  1.00  0.00     0.031 C 
ATOM     53  C   UNL A   1      43.948  27.240  30.936  1.00  0.00     0.029 A 
ATOM     54  C   UNL A   1      43.663  28.458  31.530  1.00  0.00     0.049 A 
ATOM     55  H   UNL A   1      42.004  29.730  31.241  1.00  0.00     0.167 HD
ATOM     56  C   UNL A   1      44.079  30.374  33.041  1.00  0.00     0.074 A 
ATOM     57  C   UNL A   1      44.857  31.083  34.035  1.00  0.00     0.031 C 
ATOM     58  C   UNL A   1      44.428  29.176  32.514  1.00  0.00     0.031 A 
BRANCH  45  59
ATOM     59  C   UNL A   1      40.424  27.029  28.344  1.00  0.00    -0.014 A 
ATOM     60  C   UNL A   1      40.920  27.060  27.031  1.00  0.00     0.009 A 
ATOM     61  C   UNL A   1      39.631  25.945  28.749  1.00  0.00     0.009 A 
ATOM     62  C   UNL A   1      40.610  26.033  26.138  1.00  0.00     0.001 A 
ATOM     63  C   UNL A   1      39.340  24.910  27.859  1.00  0.00     0.001 A 
ATOM     64  C   UNL A   1      39.826  24.957  26.553  1.00  0.00     0.000 A 
ENDBRANCH  45  59
BRANCH  46  65
ATOM     65  C   UNL A   1      42.478  34.502  34.586  1.00  0.00    -0.014 A 
ATOM     66  C   UNL A   1      42.024  34.466  35.912  1.00  0.00     0.009 A 
ATOM     67  C   UNL A   1      43.216  35.613  34.148  1.00  0.00     0.009 A 
ATOM     68  C   UNL A   1      42.279  35.535  36.775  1.00  0.00     0.001 A 
ATOM     69  C   UNL A   1      43.491  36.667  35.020  1.00  0.00     0.001 A 
ATOM     70  C   UNL A   1      43.015  36.632  36.328  1.00  0.00     0.000 A 
ENDBRANCH  46  65
BRANCH  58  71
ATOM     71  C   UNL A   1      45.724  28.577  32.979  1.00  0.00    -0.014 A 
ATOM     72  C   UNL A   1      45.769  27.706  34.077  1.00  0.00     0.009 A 
ATOM     73  C   UNL A   1      46.912  28.874  32.292  1.00  0.00     0.009 A 
ATOM     74  C   UNL A   1      46.985  27.166  34.499  1.00  0.00     0.001 A 
ATOM     75  C   UNL A   1      48.123  28.316  32.703  1.00  0.00     0.001 A 
ATOM     76  C   UNL A   1      48.160  27.470  33.811  1.00  0.00     0.000 A 
ENDBRANCH  58  71
ENDBRANCH  32  33
ENDBRANCH  25  27
ENDBRANCH  24  25
ENDBRANCH  23  24
ENDBRANCH   1  23
TORSDOF 14
ENDMDL
MODEL 3
REMARK VINA RESULT:     -10.1      6.044     11.070
REMARK SMILES [NH3+][C@H]1COC[C@H]1C(=O)N[C@@H]1C=C[C@@H](C(=O)OCCOC(=O)c2ccc(-c3c4nc(c(-c5ccccc5)c5ccc([nH]5)c(-c5ccccc5)c5nc(c(-c6ccccc6)c6ccc3[nH]6)C=C5)C=C4)cc2)C1
REMARK SMILES IDX 17 1 16 2 14 3 15 4 13 5 10 6 11 7 70 8 12 9 9 10 7 11 8 12
REMARK SMILES IDX 6 14 2 15 3 16 4 17 5 18 1 19 18 23 19 24 20 25 21 26 22 27
REMARK SMILES IDX 23 28 69 29 24 30 68 31 25 32 26 33 27 34 62 35 28 36 67 37
REMARK SMILES IDX 61 38 63 39 29 40 66 41 60 42 59 43 30 45 52 46 37 47 51 48
REMARK SMILES IDX 38 49 41 50 50 51 64 52 39 53 40 54 49 56 65 57 42 58 31 59
REMARK SMILES IDX 32 60 36 61 33 62 35 63 34 64 53 65 54 66 58 67 55 68 57 69
REMARK SMILES IDX 56 70 43 71 44 72 48 73 45 74 47 75 46 76
REMARK H PARENT 9 13 1 20 1 21 1 22 63 44 41 55
REMARK Flexibility Score: inf
ROOT
ATOM      1  C   UNL A   1      33.416  34.679  28.913  1.00  0.00     0.274 C 
ENDROOT
BRANCH   1   2
ATOM      2  O   UNL A   1      34.678  34.102  29.298  1.00  0.00    -0.462 OA
BRANCH   2   3
ATOM      3  C   UNL A   1      35.201  33.213  28.418  1.00  0.00     0.312 C 
ATOM      4  O   UNL A   1      36.102  33.470  27.625  1.00  0.00    -0.252 OA
BRANCH   3   5
ATOM      5  C   UNL A   1      34.542  31.846  28.465  1.00  0.00     0.124 C 
ATOM      6  C   UNL A   1      33.747  29.988  27.116  1.00  0.00     0.106 C 
ATOM      7  C   UNL A   1      35.053  29.673  27.746  1.00  0.00    -0.006 C 
ATOM      8  C   UNL A   1      33.561  31.484  27.348  1.00  0.00     0.048 C 
ATOM      9  C   UNL A   1      35.519  30.709  28.455  1.00  0.00    -0.014 C 
BRANCH   6  10
ATOM     10  N   UNL A   1      32.688  29.082  27.529  1.00  0.00    -0.349 N 
ATOM     11  C   UNL A   1      32.013  27.980  27.163  1.00  0.00     0.232 C 
ATOM     12  O   UNL A   1      31.160  27.639  28.002  1.00  0.00    -0.274 OA
ATOM     13  H   UNL A   1      32.334  29.389  28.395  1.00  0.00     0.164 HD
BRANCH  11  14
ATOM     14  C   UNL A   1      32.136  27.113  25.921  1.00  0.00     0.164 C 
ATOM     15  C   UNL A   1      31.724  27.593  24.541  1.00  0.00     0.221 C 
ATOM     16  C   UNL A   1      32.956  27.364  23.667  1.00  0.00     0.225 C 
ATOM     17  O   UNL A   1      33.897  26.568  24.396  1.00  0.00    -0.374 OA
ATOM     18  C   UNL A   1      33.451  26.398  25.742  1.00  0.00     0.180 C 
BRANCH  15  19
ATOM     19  N   UNL A   1      31.101  28.902  24.392  1.00  0.00    -0.352 N 
ATOM     20  H   UNL A   1      31.200  29.219  23.428  1.00  0.00     0.344 HD
ATOM     21  H   UNL A   1      31.555  29.568  25.017  1.00  0.00     0.344 HD
ATOM     22  H   UNL A   1      30.110  28.835  24.628  1.00  0.00     0.344 HD
ENDBRANCH  15  19
ENDBRANCH  11  14
ENDBRANCH   6  10
ENDBRANCH   3   5
ENDBRANCH   2   3
ENDBRANCH   1   2
BRANCH   1  23
ATOM     23  C   UNL A   1      32.939  35.715  29.936  1.00  0.00     0.275 C 
BRANCH  23  24
ATOM     24  O   UNL A   1      32.425  35.109  31.139  1.00  0.00    -0.458 OA
BRANCH  24  25
ATOM     25  C   UNL A   1      32.823  35.701  32.289  1.00  0.00     0.338 C 
ATOM     26  O   UNL A   1      32.267  36.609  32.883  1.00  0.00    -0.246 OA
BRANCH  25  27
ATOM     27  C   UNL A   1      34.026  35.044  32.824  1.00  0.00     0.060 A 
ATOM     28  C   UNL A   1      35.252  35.698  32.683  1.00  0.00     0.016 A 
ATOM     29  C   UNL A   1      33.971  33.744  33.329  1.00  0.00     0.016 A 
ATOM     30  C   UNL A   1      36.437  35.042  33.010  1.00  0.00     0.010 A 
ATOM     31  C   UNL A   1      35.162  33.092  33.672  1.00  0.00     0.010 A 
ATOM     32  C   UNL A   1      36.404  33.727  33.493  1.00  0.00    -0.014 A 
BRANCH  32  33
ATOM     33  C   UNL A   1      37.670  33.005  33.771  1.00  0.00     0.031 A 
ATOM     34  C   UNL A   1      38.200  32.000  32.785  1.00  0.00     0.074 A 
ATOM     35  C   UNL A   1      38.361  33.265  34.896  1.00  0.00     0.049 A 
ATOM     36  N   UNL A   1      39.244  31.215  32.885  1.00  0.00    -0.248 NA
ATOM     37  C   UNL A   1      37.463  31.864  31.518  1.00  0.00     0.031 C 
ATOM     38  C   UNL A   1      37.990  34.253  35.909  1.00  0.00     0.029 A 
ATOM     39  N   UNL A   1      39.525  32.715  35.371  1.00  0.00    -0.354 N 
ATOM     40  C   UNL A   1      39.284  30.485  31.704  1.00  0.00     0.074 A 
ATOM     41  C   UNL A   1      38.149  30.906  30.908  1.00  0.00     0.031 C 
ATOM     42  C   UNL A   1      38.913  34.244  36.885  1.00  0.00     0.029 A 
ATOM     43  C   UNL A   1      39.912  33.222  36.588  1.00  0.00     0.049 A 
ATOM     44  H   UNL A   1      40.034  32.025  34.888  1.00  0.00     0.167 HD
ATOM     45  C   UNL A   1      40.186  29.554  31.312  1.00  0.00     0.031 A 
ATOM     46  C   UNL A   1      40.943  32.885  37.385  1.00  0.00     0.031 A 
ATOM     47  C   UNL A   1      41.313  29.125  32.097  1.00  0.00     0.049 A 
ATOM     48  C   UNL A   1      41.883  31.792  36.962  1.00  0.00     0.074 A 
ATOM     49  C   UNL A   1      42.266  28.169  31.790  1.00  0.00     0.029 A 
ATOM     50  N   UNL A   1      41.646  29.635  33.341  1.00  0.00    -0.354 N 
ATOM     51  N   UNL A   1      41.890  31.090  35.855  1.00  0.00    -0.248 NA
ATOM     52  C   UNL A   1      42.960  31.446  37.902  1.00  0.00     0.031 C 
ATOM     53  C   UNL A   1      43.159  28.078  32.863  1.00  0.00     0.029 A 
ATOM     54  C   UNL A   1      42.783  29.006  33.819  1.00  0.00     0.049 A 
ATOM     55  H   UNL A   1      41.147  30.339  33.815  1.00  0.00     0.167 HD
ATOM     56  C   UNL A   1      42.979  30.235  35.958  1.00  0.00     0.074 A 
ATOM     57  C   UNL A   1      43.619  30.516  37.226  1.00  0.00     0.031 C 
ATOM     58  C   UNL A   1      43.411  29.299  35.079  1.00  0.00     0.031 A 
BRANCH  45  59
ATOM     59  C   UNL A   1      39.976  28.911  29.971  1.00  0.00    -0.014 A 
ATOM     60  C   UNL A   1      40.500  29.489  28.805  1.00  0.00     0.009 A 
ATOM     61  C   UNL A   1      39.292  27.689  29.880  1.00  0.00     0.009 A 
ATOM     62  C   UNL A   1      40.323  28.864  27.569  1.00  0.00     0.001 A 
ATOM     63  C   UNL A   1      39.134  27.057  28.646  1.00  0.00     0.001 A 
ATOM     64  C   UNL A   1      39.645  27.648  27.491  1.00  0.00     0.000 A 
ENDBRANCH  45  59
BRANCH  46  65
ATOM     65  C   UNL A   1      41.129  33.568  38.690  1.00  0.00    -0.014 A 
ATOM     66  C   UNL A   1      40.505  33.077  39.846  1.00  0.00     0.009 A 
ATOM     67  C   UNL A   1      41.909  34.731  38.778  1.00  0.00     0.009 A 
ATOM     68  C   UNL A   1      40.635  33.756  41.060  1.00  0.00     0.001 A 
ATOM     69  C   UNL A   1      42.058  35.392  39.998  1.00  0.00     0.001 A 
ATOM     70  C   UNL A   1      41.414  34.910  41.135  1.00  0.00     0.000 A 
ENDBRANCH  46  65
BRANCH  58  71
ATOM     71  C   UNL A   1      44.652  28.539  35.446  1.00  0.00    -0.014 A 
ATOM     72  C   UNL A   1      45.925  29.014  35.095  1.00  0.00     0.009 A 
ATOM     73  C   UNL A   1      44.545  27.343  36.173  1.00  0.00     0.009 A 
ATOM     74  C   UNL A   1      47.067  28.288  35.439  1.00  0.00     0.001 A 
ATOM     75  C   UNL A   1      45.689  26.630  36.534  1.00  0.00     0.001 A 
ATOM     76  C   UNL A   1      46.948  27.099  36.159  1.00  0.00     0.000 A 
ENDBRANCH  58  71
ENDBRANCH  32  33
ENDBRANCH  25  27
ENDBRANCH  24  25
ENDBRANCH  23  24
ENDBRANCH   1  23
TORSDOF 14
ENDMDL
