MODEL 1
REMARK VINA RESULT:     -10.7      0.000      0.000
REMARK SMILES CCc1cc(C(=O)N[C@@H]2C=C[C@H](C(=O)OCCOC(=O)c3ccc(-c4c5nc(c(-c6ccccc6)c6ccc([nH]6)c(-c6ccccc6)c6nc(c(-c7ccccc7)c7ccc4[nH]7)C=C6)C=C5)cc3)C2)n(C)n1
REMARK SMILES IDX 16 1 15 2 13 3 14 4 12 5 9 6 10 7 69 8 11 9 8 10 6 11 7 12
REMARK SMILES IDX 5 14 3 15 4 16 72 17 70 18 71 19 2 20 1 21 17 22 18 23 19 24
REMARK SMILES IDX 20 25 21 26 22 27 68 28 23 29 67 30 24 31 25 32 26 33 61 34
REMARK SMILES IDX 27 35 66 36 60 37 62 38 28 39 65 40 59 41 58 42 29 44 51 45
REMARK SMILES IDX 36 46 50 47 37 48 40 49 49 50 63 51 38 52 39 53 48 55 64 56
REMARK SMILES IDX 41 57 30 58 31 59 35 60 32 61 34 62 33 63 52 64 53 65 57 66
REMARK SMILES IDX 54 67 56 68 55 69 42 70 43 71 47 72 44 73 46 74 45 75
REMARK H PARENT 8 13 62 43 40 54
REMARK Flexibility Score: inf
ROOT
ATOM      1  C   UNL A   1      36.571  22.610  23.689  1.00  0.00     0.274 C 
ENDROOT
BRANCH   1   2
ATOM      2  O   UNL A   1      35.574  23.400  24.367  1.00  0.00    -0.462 OA
BRANCH   2   3
ATOM      3  C   UNL A   1      34.589  23.917  23.578  1.00  0.00     0.312 C 
ATOM      4  O   UNL A   1      34.184  23.411  22.538  1.00  0.00    -0.252 OA
BRANCH   3   5
ATOM      5  C   UNL A   1      34.102  25.250  24.139  1.00  0.00     0.124 C 
ATOM      6  C   UNL A   1      32.474  25.764  25.939  1.00  0.00     0.106 C 
ATOM      7  C   UNL A   1      31.875  25.892  24.575  1.00  0.00    -0.006 C 
ATOM      8  C   UNL A   1      33.883  25.226  25.665  1.00  0.00     0.048 C 
ATOM      9  C   UNL A   1      32.748  25.612  23.604  1.00  0.00    -0.014 C 
BRANCH   6  10
ATOM     10  N   UNL A   1      31.620  24.884  26.699  1.00  0.00    -0.344 N 
ATOM     11  C   UNL A   1      31.421  23.537  26.777  1.00  0.00     0.270 C 
ATOM     12  O   UNL A   1      30.515  23.204  27.545  1.00  0.00    -0.268 OA
ATOM     13  H   UNL A   1      31.036  25.379  27.318  1.00  0.00     0.164 HD
BRANCH  11  14
ATOM     14  C   UNL A   1      32.133  22.540  26.019  1.00  0.00     0.126 A 
ATOM     15  C   UNL A   1      32.512  20.932  24.498  1.00  0.00     0.063 A 
ATOM     16  C   UNL A   1      31.654  21.994  24.832  1.00  0.00     0.059 A 
ATOM     17  N   UNL A   1      33.524  20.854  25.365  1.00  0.00    -0.178 NA
ATOM     18  N   UNL A   1      33.233  21.775  26.311  1.00  0.00    -0.263 N 
ATOM     19  C   UNL A   1      33.978  21.682  27.541  1.00  0.00     0.174 C 
BRANCH  15  20
ATOM     20  C   UNL A   1      32.356  19.905  23.424  1.00  0.00     0.055 C 
ATOM     21  C   UNL A   1      32.509  18.472  23.905  1.00  0.00     0.011 C 
ENDBRANCH  15  20
ENDBRANCH  11  14
ENDBRANCH   6  10
ENDBRANCH   3   5
ENDBRANCH   2   3
ENDBRANCH   1   2
BRANCH   1  22
ATOM     22  C   UNL A   1      36.808  21.310  24.455  1.00  0.00     0.275 C 
BRANCH  22  23
ATOM     23  O   UNL A   1      37.281  21.622  25.777  1.00  0.00    -0.458 OA
BRANCH  23  24
ATOM     24  C   UNL A   1      38.603  21.437  25.989  1.00  0.00     0.338 C 
ATOM     25  O   UNL A   1      39.240  20.412  25.783  1.00  0.00    -0.246 OA
BRANCH  24  26
ATOM     26  C   UNL A   1      39.210  22.672  26.524  1.00  0.00     0.060 A 
ATOM     27  C   UNL A   1      38.702  23.927  26.188  1.00  0.00     0.016 A 
ATOM     28  C   UNL A   1      40.373  22.581  27.292  1.00  0.00     0.016 A 
ATOM     29  C   UNL A   1      39.409  25.081  26.529  1.00  0.00     0.010 A 
ATOM     30  C   UNL A   1      41.026  23.745  27.713  1.00  0.00     0.010 A 
ATOM     31  C   UNL A   1      40.583  25.011  27.297  1.00  0.00    -0.014 A 
BRANCH  31  32
ATOM     32  C   UNL A   1      41.360  26.244  27.626  1.00  0.00     0.031 A 
ATOM     33  C   UNL A   1      40.804  27.281  28.577  1.00  0.00     0.074 A 
ATOM     34  C   UNL A   1      42.584  26.445  27.094  1.00  0.00     0.049 A 
ATOM     35  N   UNL A   1      41.278  28.467  28.880  1.00  0.00    -0.248 NA
ATOM     36  C   UNL A   1      39.554  26.949  29.275  1.00  0.00     0.031 C 
ATOM     37  C   UNL A   1      43.279  25.531  26.186  1.00  0.00     0.029 A 
ATOM     38  N   UNL A   1      43.465  27.489  27.249  1.00  0.00    -0.354 N 
ATOM     39  C   UNL A   1      40.363  29.030  29.764  1.00  0.00     0.074 A 
ATOM     40  C   UNL A   1      39.309  28.060  29.955  1.00  0.00     0.031 C 
ATOM     41  C   UNL A   1      44.492  26.029  25.902  1.00  0.00     0.029 A 
ATOM     42  C   UNL A   1      44.626  27.339  26.529  1.00  0.00     0.049 A 
ATOM     43  H   UNL A   1      43.282  28.269  27.821  1.00  0.00     0.167 HD
ATOM     44  C   UNL A   1      40.386  30.246  30.358  1.00  0.00     0.031 A 
ATOM     45  C   UNL A   1      45.667  28.174  26.344  1.00  0.00     0.031 A 
ATOM     46  C   UNL A   1      41.436  31.216  30.200  1.00  0.00     0.049 A 
ATOM     47  C   UNL A   1      45.648  29.536  26.972  1.00  0.00     0.074 A 
ATOM     48  C   UNL A   1      41.543  32.472  30.772  1.00  0.00     0.029 A 
ATOM     49  N   UNL A   1      42.564  31.035  29.418  1.00  0.00    -0.354 N 
ATOM     50  N   UNL A   1      44.750  30.066  27.764  1.00  0.00    -0.248 NA
ATOM     51  C   UNL A   1      46.776  30.424  26.655  1.00  0.00     0.031 C 
ATOM     52  C   UNL A   1      42.719  33.069  30.303  1.00  0.00     0.029 A 
ATOM     53  C   UNL A   1      43.361  32.166  29.474  1.00  0.00     0.049 A 
ATOM     54  H   UNL A   1      42.768  30.223  28.898  1.00  0.00     0.167 HD
ATOM     55  C   UNL A   1      45.199  31.351  28.034  1.00  0.00     0.074 A 
ATOM     56  C   UNL A   1      46.465  31.511  27.348  1.00  0.00     0.031 C 
ATOM     57  C   UNL A   1      44.607  32.319  28.774  1.00  0.00     0.031 A 
BRANCH  44  58
ATOM     58  C   UNL A   1      39.211  30.628  31.213  1.00  0.00    -0.014 A 
ATOM     59  C   UNL A   1      39.193  30.368  32.591  1.00  0.00     0.009 A 
ATOM     60  C   UNL A   1      38.133  31.317  30.634  1.00  0.00     0.009 A 
ATOM     61  C   UNL A   1      38.108  30.778  33.370  1.00  0.00     0.001 A 
ATOM     62  C   UNL A   1      37.060  31.742  31.418  1.00  0.00     0.001 A 
ATOM     63  C   UNL A   1      37.046  31.469  32.786  1.00  0.00     0.000 A 
ENDBRANCH  44  58
BRANCH  45  64
ATOM     64  C   UNL A   1      46.785  27.765  25.456  1.00  0.00    -0.014 A 
ATOM     65  C   UNL A   1      46.744  28.034  24.080  1.00  0.00     0.009 A 
ATOM     66  C   UNL A   1      47.906  27.110  25.990  1.00  0.00     0.009 A 
ATOM     67  C   UNL A   1      47.805  27.648  23.257  1.00  0.00     0.001 A 
ATOM     68  C   UNL A   1      48.976  26.753  25.169  1.00  0.00     0.001 A 
ATOM     69  C   UNL A   1      48.922  27.017  23.802  1.00  0.00     0.000 A 
ENDBRANCH  45  64
BRANCH  57  70
ATOM     70  C   UNL A   1      45.326  33.631  28.879  1.00  0.00    -0.014 A 
ATOM     71  C   UNL A   1      46.282  33.847  29.883  1.00  0.00     0.009 A 
ATOM     72  C   UNL A   1      45.061  34.652  27.954  1.00  0.00     0.009 A 
ATOM     73  C   UNL A   1      46.936  35.077  29.979  1.00  0.00     0.001 A 
ATOM     74  C   UNL A   1      45.732  35.872  28.040  1.00  0.00     0.001 A 
ATOM     75  C   UNL A   1      46.662  36.087  29.057  1.00  0.00     0.000 A 
ENDBRANCH  57  70
ENDBRANCH  31  32
ENDBRANCH  24  26
ENDBRANCH  23  24
ENDBRANCH  22  23
ENDBRANCH   1  22
TORSDOF 14
ENDMDL
MODEL 2
REMARK VINA RESULT:     -10.6      5.488      9.417
REMARK SMILES CCc1cc(C(=O)N[C@@H]2C=C[C@H](C(=O)OCCOC(=O)c3ccc(-c4c5nc(c(-c6ccccc6)c6ccc([nH]6)c(-c6ccccc6)c6nc(c(-c7ccccc7)c7ccc4[nH]7)C=C6)C=C5)cc3)C2)n(C)n1
REMARK SMILES IDX 16 1 15 2 13 3 14 4 12 5 9 6 10 7 69 8 11 9 8 10 6 11 7 12
REMARK SMILES IDX 5 14 3 15 4 16 72 17 70 18 71 19 2 20 1 21 17 22 18 23 19 24
REMARK SMILES IDX 20 25 21 26 22 27 68 28 23 29 67 30 24 31 25 32 26 33 61 34
REMARK SMILES IDX 27 35 66 36 60 37 62 38 28 39 65 40 59 41 58 42 29 44 51 45
REMARK SMILES IDX 36 46 50 47 37 48 40 49 49 50 63 51 38 52 39 53 48 55 64 56
REMARK SMILES IDX 41 57 30 58 31 59 35 60 32 61 34 62 33 63 52 64 53 65 57 66
REMARK SMILES IDX 54 67 56 68 55 69 42 70 43 71 47 72 44 73 46 74 45 75
REMARK H PARENT 8 13 62 43 40 54
REMARK Flexibility Score: inf
ROOT
ATOM      1  C   UNL A   1      33.171  34.833  28.822  1.00  0.00     0.274 C 
ENDROOT
BRANCH   1   2
ATOM      2  O   UNL A   1      34.464  34.197  28.798  1.00  0.00    -0.462 OA
BRANCH   2   3
ATOM      3  C   UNL A   1      34.484  32.879  29.147  1.00  0.00     0.312 C 
ATOM      4  O   UNL A   1      34.294  32.449  30.278  1.00  0.00    -0.252 OA
BRANCH   3   5
ATOM      5  C   UNL A   1      34.838  32.014  27.941  1.00  0.00     0.124 C 
ATOM      6  C   UNL A   1      33.820  29.920  27.082  1.00  0.00     0.106 C 
ATOM      7  C   UNL A   1      35.060  29.666  27.879  1.00  0.00    -0.006 C 
ATOM      8  C   UNL A   1      33.603  31.431  27.225  1.00  0.00     0.048 C 
ATOM      9  C   UNL A   1      35.608  30.791  28.346  1.00  0.00    -0.014 C 
BRANCH   6  10
ATOM     10  N   UNL A   1      32.777  29.096  27.641  1.00  0.00    -0.344 N 
ATOM     11  C   UNL A   1      32.077  27.996  27.242  1.00  0.00     0.270 C 
ATOM     12  O   UNL A   1      31.200  27.641  28.035  1.00  0.00    -0.268 OA
ATOM     13  H   UNL A   1      32.502  29.404  28.534  1.00  0.00     0.164 HD
BRANCH  11  14
ATOM     14  C   UNL A   1      32.259  27.293  25.998  1.00  0.00     0.126 A 
ATOM     15  C   UNL A   1      33.179  25.921  24.476  1.00  0.00     0.063 A 
ATOM     16  C   UNL A   1      33.118  26.208  25.851  1.00  0.00     0.059 A 
ATOM     17  N   UNL A   1      32.348  26.713  23.793  1.00  0.00    -0.178 NA
ATOM     18  N   UNL A   1      31.868  27.578  24.715  1.00  0.00    -0.263 N 
ATOM     19  C   UNL A   1      31.206  28.751  24.203  1.00  0.00     0.174 C 
BRANCH  15  20
ATOM     20  C   UNL A   1      34.082  24.974  23.756  1.00  0.00     0.055 C 
ATOM     21  C   UNL A   1      33.402  24.180  22.652  1.00  0.00     0.011 C 
ENDBRANCH  15  20
ENDBRANCH  11  14
ENDBRANCH   6  10
ENDBRANCH   3   5
ENDBRANCH   2   3
ENDBRANCH   1   2
BRANCH   1  22
ATOM     22  C   UNL A   1      33.121  35.860  29.951  1.00  0.00     0.275 C 
BRANCH  22  23
ATOM     23  O   UNL A   1      32.410  35.299  31.067  1.00  0.00    -0.458 OA
BRANCH  23  24
ATOM     24  C   UNL A   1      32.741  35.788  32.283  1.00  0.00     0.338 C 
ATOM     25  O   UNL A   1      32.150  36.660  32.906  1.00  0.00    -0.246 OA
BRANCH  24  26
ATOM     26  C   UNL A   1      33.954  35.114  32.788  1.00  0.00     0.060 A 
ATOM     27  C   UNL A   1      35.218  35.669  32.594  1.00  0.00     0.016 A 
ATOM     28  C   UNL A   1      33.836  33.852  33.374  1.00  0.00     0.016 A 
ATOM     29  C   UNL A   1      36.362  34.925  32.889  1.00  0.00     0.010 A 
ATOM     30  C   UNL A   1      34.985  33.148  33.756  1.00  0.00     0.010 A 
ATOM     31  C   UNL A   1      36.265  33.652  33.474  1.00  0.00    -0.014 A 
BRANCH  31  32
ATOM     32  C   UNL A   1      37.488  32.839  33.751  1.00  0.00     0.031 A 
ATOM     33  C   UNL A   1      38.249  32.999  35.048  1.00  0.00     0.074 A 
ATOM     34  C   UNL A   1      37.926  31.932  32.852  1.00  0.00     0.049 A 
ATOM     35  N   UNL A   1      39.397  32.473  35.407  1.00  0.00    -0.248 NA
ATOM     36  C   UNL A   1      37.648  33.861  36.076  1.00  0.00     0.031 C 
ATOM     37  C   UNL A   1      37.292  31.631  31.568  1.00  0.00     0.029 A 
ATOM     38  N   UNL A   1      39.011  31.088  32.890  1.00  0.00    -0.354 N 
ATOM     39  C   UNL A   1      39.669  32.978  36.675  1.00  0.00     0.074 A 
ATOM     40  C   UNL A   1      38.569  33.845  37.030  1.00  0.00     0.031 C 
ATOM     41  C   UNL A   1      37.969  30.643  30.963  1.00  0.00     0.029 A 
ATOM     42  C   UNL A   1      39.137  30.304  31.769  1.00  0.00     0.049 A 
ATOM     43  H   UNL A   1      39.638  31.049  33.649  1.00  0.00     0.167 HD
ATOM     44  C   UNL A   1      40.739  32.751  37.473  1.00  0.00     0.031 A 
ATOM     45  C   UNL A   1      40.103  29.443  31.395  1.00  0.00     0.031 A 
ATOM     46  C   UNL A   1      41.832  31.874  37.149  1.00  0.00     0.049 A 
ATOM     47  C   UNL A   1      41.304  29.246  32.271  1.00  0.00     0.074 A 
ATOM     48  C   UNL A   1      42.955  31.581  37.904  1.00  0.00     0.029 A 
ATOM     49  N   UNL A   1      41.937  31.145  35.977  1.00  0.00    -0.354 N 
ATOM     50  N   UNL A   1      41.564  29.770  33.443  1.00  0.00    -0.248 NA
ATOM     51  C   UNL A   1      42.357  28.359  31.757  1.00  0.00     0.031 C 
ATOM     52  C   UNL A   1      43.761  30.704  37.170  1.00  0.00     0.029 A 
ATOM     53  C   UNL A   1      43.116  30.420  35.979  1.00  0.00     0.049 A 
ATOM     54  H   UNL A   1      41.271  31.143  35.251  1.00  0.00     0.167 HD
ATOM     55  C   UNL A   1      42.812  29.284  33.803  1.00  0.00     0.074 A 
ATOM     56  C   UNL A   1      43.244  28.398  32.742  1.00  0.00     0.031 C 
ATOM     57  C   UNL A   1      43.543  29.558  34.910  1.00  0.00     0.031 A 
BRANCH  44  58
ATOM     58  C   UNL A   1      40.811  33.500  38.773  1.00  0.00    -0.014 A 
ATOM     59  C   UNL A   1      41.383  34.778  38.851  1.00  0.00     0.009 A 
ATOM     60  C   UNL A   1      40.237  32.937  39.925  1.00  0.00     0.009 A 
ATOM     61  C   UNL A   1      41.391  35.472  40.064  1.00  0.00     0.001 A 
ATOM     62  C   UNL A   1      40.230  33.641  41.130  1.00  0.00     0.001 A 
ATOM     63  C   UNL A   1      40.811  34.907  41.200  1.00  0.00     0.000 A 
ENDBRANCH  44  58
BRANCH  45  64
ATOM     64  C   UNL A   1      40.005  28.759  30.080  1.00  0.00    -0.014 A 
ATOM     65  C   UNL A   1      40.504  29.363  28.917  1.00  0.00     0.009 A 
ATOM     66  C   UNL A   1      39.416  27.487  29.990  1.00  0.00     0.009 A 
ATOM     67  C   UNL A   1      40.410  28.706  27.687  1.00  0.00     0.001 A 
ATOM     68  C   UNL A   1      39.350  26.822  28.764  1.00  0.00     0.001 A 
ATOM     69  C   UNL A   1      39.842  27.435  27.614  1.00  0.00     0.000 A 
ENDBRANCH  45  64
BRANCH  57  70
ATOM     70  C   UNL A   1      44.880  28.890  35.026  1.00  0.00    -0.014 A 
ATOM     71  C   UNL A   1      46.039  29.514  34.542  1.00  0.00     0.009 A 
ATOM     72  C   UNL A   1      44.986  27.634  35.643  1.00  0.00     0.009 A 
ATOM     73  C   UNL A   1      47.278  28.877  34.643  1.00  0.00     0.001 A 
ATOM     74  C   UNL A   1      46.228  27.010  35.763  1.00  0.00     0.001 A 
ATOM     75  C   UNL A   1      47.371  27.627  35.256  1.00  0.00     0.000 A 
ENDBRANCH  57  70
ENDBRANCH  31  32
ENDBRANCH  24  26
ENDBRANCH  23  24
ENDBRANCH  22  23
ENDBRANCH   1  22
TORSDOF 14
ENDMDL
MODEL 3
REMARK VINA RESULT:     -10.3      3.728      7.192
REMARK SMILES CCc1cc(C(=O)N[C@@H]2C=C[C@H](C(=O)OCCOC(=O)c3ccc(-c4c5nc(c(-c6ccccc6)c6ccc([nH]6)c(-c6ccccc6)c6nc(c(-c7ccccc7)c7ccc4[nH]7)C=C6)C=C5)cc3)C2)n(C)n1
REMARK SMILES IDX 16 1 15 2 13 3 14 4 12 5 9 6 10 7 69 8 11 9 8 10 6 11 7 12
REMARK SMILES IDX 5 14 3 15 4 16 72 17 70 18 71 19 2 20 1 21 17 22 18 23 19 24
REMARK SMILES IDX 20 25 21 26 22 27 68 28 23 29 67 30 24 31 25 32 26 33 61 34
REMARK SMILES IDX 27 35 66 36 60 37 62 38 28 39 65 40 59 41 58 42 29 44 51 45
REMARK SMILES IDX 36 46 50 47 37 48 40 49 49 50 63 51 38 52 39 53 48 55 64 56
REMARK SMILES IDX 41 57 30 58 31 59 35 60 32 61 34 62 33 63 52 64 53 65 57 66
REMARK SMILES IDX 54 67 56 68 55 69 42 70 43 71 47 72 44 73 46 74 45 75
REMARK H PARENT 8 13 62 43 40 54
REMARK Flexibility Score: inf
ROOT
ATOM      1  C   UNL A   1      43.604  21.988  25.483  1.00  0.00     0.274 C 
ENDROOT
BRANCH   1   2
ATOM      2  O   UNL A   1      42.173  22.109  25.603  1.00  0.00    -0.462 OA
BRANCH   2   3
ATOM      3  C   UNL A   1      41.532  21.040  26.156  1.00  0.00     0.312 C 
ATOM      4  O   UNL A   1      41.893  19.875  26.053  1.00  0.00    -0.252 OA
BRANCH   3   5
ATOM      5  C   UNL A   1      40.261  21.493  26.870  1.00  0.00     0.124 C 
ATOM      6  C   UNL A   1      38.120  22.380  25.983  1.00  0.00     0.106 C 
ATOM      7  C   UNL A   1      39.024  23.463  26.482  1.00  0.00    -0.006 C 
ATOM      8  C   UNL A   1      38.970  21.111  26.117  1.00  0.00     0.048 C 
ATOM      9  C   UNL A   1      40.178  22.988  26.956  1.00  0.00    -0.014 C 
BRANCH   6  10
ATOM     10  N   UNL A   1      37.745  22.725  24.634  1.00  0.00    -0.344 N 
ATOM     11  C   UNL A   1      36.575  22.901  23.956  1.00  0.00     0.270 C 
ATOM     12  O   UNL A   1      36.718  23.140  22.754  1.00  0.00    -0.268 OA
ATOM     13  H   UNL A   1      38.530  22.871  24.058  1.00  0.00     0.164 HD
BRANCH  11  14
ATOM     14  C   UNL A   1      35.254  22.783  24.520  1.00  0.00     0.126 A 
ATOM     15  C   UNL A   1      33.383  23.355  25.623  1.00  0.00     0.063 A 
ATOM     16  C   UNL A   1      34.514  23.874  24.968  1.00  0.00     0.059 A 
ATOM     17  N   UNL A   1      33.354  22.024  25.530  1.00  0.00    -0.178 NA
ATOM     18  N   UNL A   1      34.524  21.699  24.934  1.00  0.00    -0.263 N 
ATOM     19  C   UNL A   1      34.912  20.313  25.005  1.00  0.00     0.174 C 
BRANCH  15  20
ATOM     20  C   UNL A   1      32.359  24.078  26.436  1.00  0.00     0.055 C 
ATOM     21  C   UNL A   1      31.033  23.345  26.564  1.00  0.00     0.011 C 
ENDBRANCH  15  20
ENDBRANCH  11  14
ENDBRANCH   6  10
ENDBRANCH   3   5
ENDBRANCH   2   3
ENDBRANCH   1   2
BRANCH   1  22
ATOM     22  C   UNL A   1      44.114  22.943  24.406  1.00  0.00     0.275 C 
BRANCH  22  23
ATOM     23  O   UNL A   1      43.543  24.245  24.623  1.00  0.00    -0.458 OA
BRANCH  23  24
ATOM     24  C   UNL A   1      44.344  25.146  25.236  1.00  0.00     0.338 C 
ATOM     25  O   UNL A   1      45.528  25.349  25.004  1.00  0.00    -0.246 OA
BRANCH  24  26
ATOM     26  C   UNL A   1      43.583  25.885  26.264  1.00  0.00     0.060 A 
ATOM     27  C   UNL A   1      43.674  27.272  26.367  1.00  0.00     0.016 A 
ATOM     28  C   UNL A   1      42.848  25.168  27.210  1.00  0.00     0.016 A 
ATOM     29  C   UNL A   1      43.120  27.929  27.467  1.00  0.00     0.010 A 
ATOM     30  C   UNL A   1      42.212  25.843  28.260  1.00  0.00     0.010 A 
ATOM     31  C   UNL A   1      42.380  27.227  28.432  1.00  0.00    -0.014 A 
BRANCH  31  32
ATOM     32  C   UNL A   1      41.823  27.925  29.631  1.00  0.00     0.031 A 
ATOM     33  C   UNL A   1      40.556  28.745  29.531  1.00  0.00     0.074 A 
ATOM     34  C   UNL A   1      42.432  27.819  30.830  1.00  0.00     0.049 A 
ATOM     35  N   UNL A   1      39.996  29.520  30.431  1.00  0.00    -0.248 NA
ATOM     36  C   UNL A   1      39.822  28.693  28.258  1.00  0.00     0.031 C 
ATOM     37  C   UNL A   1      43.642  27.043  31.106  1.00  0.00     0.029 A 
ATOM     38  N   UNL A   1      42.107  28.367  32.049  1.00  0.00    -0.354 N 
ATOM     39  C   UNL A   1      38.879  30.075  29.815  1.00  0.00     0.074 A 
ATOM     40  C   UNL A   1      38.832  29.549  28.471  1.00  0.00     0.031 C 
ATOM     41  C   UNL A   1      43.931  27.127  32.414  1.00  0.00     0.029 A 
ATOM     42  C   UNL A   1      42.985  28.035  33.052  1.00  0.00     0.049 A 
ATOM     43  H   UNL A   1      41.321  28.942  32.189  1.00  0.00     0.167 HD
ATOM     44  C   UNL A   1      37.976  30.951  30.315  1.00  0.00     0.031 A 
ATOM     45  C   UNL A   1      43.062  28.445  34.332  1.00  0.00     0.031 A 
ATOM     46  C   UNL A   1      37.991  31.469  31.657  1.00  0.00     0.049 A 
ATOM     47  C   UNL A   1      42.081  29.455  34.850  1.00  0.00     0.074 A 
ATOM     48  C   UNL A   1      37.109  32.357  32.249  1.00  0.00     0.029 A 
ATOM     49  N   UNL A   1      38.933  31.141  32.617  1.00  0.00    -0.354 N 
ATOM     50  N   UNL A   1      41.062  30.003  34.237  1.00  0.00    -0.248 NA
ATOM     51  C   UNL A   1      42.280  29.921  36.230  1.00  0.00     0.031 C 
ATOM     52  C   UNL A   1      37.540  32.598  33.558  1.00  0.00     0.029 A 
ATOM     53  C   UNL A   1      38.666  31.826  33.790  1.00  0.00     0.049 A 
ATOM     54  H   UNL A   1      39.681  30.514  32.484  1.00  0.00     0.167 HD
ATOM     55  C   UNL A   1      40.504  30.885  35.152  1.00  0.00     0.074 A 
ATOM     56  C   UNL A   1      41.276  30.775  36.372  1.00  0.00     0.031 C 
ATOM     57  C   UNL A   1      39.452  31.722  34.990  1.00  0.00     0.031 A 
BRANCH  44  58
ATOM     58  C   UNL A   1      36.902  31.451  29.390  1.00  0.00    -0.014 A 
ATOM     59  C   UNL A   1      35.744  30.702  29.140  1.00  0.00     0.009 A 
ATOM     60  C   UNL A   1      37.030  32.724  28.811  1.00  0.00     0.009 A 
ATOM     61  C   UNL A   1      34.740  31.213  28.314  1.00  0.00     0.001 A 
ATOM     62  C   UNL A   1      36.017  33.240  28.002  1.00  0.00     0.001 A 
ATOM     63  C   UNL A   1      34.874  32.483  27.750  1.00  0.00     0.000 A 
ENDBRANCH  44  58
BRANCH  45  64
ATOM     64  C   UNL A   1      44.167  27.953  35.194  1.00  0.00    -0.014 A 
ATOM     65  C   UNL A   1      45.395  28.627  35.243  1.00  0.00     0.009 A 
ATOM     66  C   UNL A   1      43.988  26.804  35.983  1.00  0.00     0.009 A 
ATOM     67  C   UNL A   1      46.425  28.156  36.061  1.00  0.00     0.001 A 
ATOM     68  C   UNL A   1      45.009  26.354  36.821  1.00  0.00     0.001 A 
ATOM     69  C   UNL A   1      46.228  27.027  36.854  1.00  0.00     0.000 A 
ENDBRANCH  45  64
BRANCH  57  70
ATOM     70  C   UNL A   1      39.077  32.580  36.161  1.00  0.00    -0.014 A 
ATOM     71  C   UNL A   1      39.613  33.868  36.309  1.00  0.00     0.009 A 
ATOM     72  C   UNL A   1      38.166  32.104  37.116  1.00  0.00     0.009 A 
ATOM     73  C   UNL A   1      39.267  34.653  37.410  1.00  0.00     0.001 A 
ATOM     74  C   UNL A   1      37.806  32.899  38.204  1.00  0.00     0.001 A 
ATOM     75  C   UNL A   1      38.363  34.169  38.356  1.00  0.00     0.000 A 
ENDBRANCH  57  70
ENDBRANCH  31  32
ENDBRANCH  24  26
ENDBRANCH  23  24
ENDBRANCH  22  23
ENDBRANCH   1  22
TORSDOF 14
ENDMDL
