MODEL 1
REMARK VINA RESULT:     -11.1      0.000      0.000
REMARK SMILES O=C(OCCOC(=O)c1ccccc1[C@@H]1SCC(=O)N1NC(=S)Nc1ccccc1)c1ccc(-c2c3nc(c(-c4ccccc4)c4ccc([nH]4)c(-c4ccccc4)c4nc(c(-c5ccccc5)c5ccc2[nH]5)C=C4)C=C3)cc1
REMARK SMILES IDX 6 1 5 2 4 3 3 4 2 5 1 6 31 7 32 8 78 9 33 10 77 11 34 12
REMARK SMILES IDX 35 13 36 14 71 15 37 16 76 17 70 18 72 19 38 20 75 21 69 22
REMARK SMILES IDX 68 23 39 25 61 26 46 27 60 28 47 29 50 30 59 31 73 32 48 33
REMARK SMILES IDX 49 34 58 36 74 37 51 38 40 39 41 40 45 41 42 42 44 43 43 44
REMARK SMILES IDX 62 45 63 46 67 47 64 48 66 49 65 50 52 51 53 52 57 53 54 54
REMARK SMILES IDX 56 55 55 56 7 57 8 58 9 59 10 60 14 61 11 62 13 63 12 64
REMARK SMILES IDX 15 65 16 66 20 67 17 68 18 69 19 70 21 71 22 73 23 74 24 75
REMARK SMILES IDX 25 77 26 78 30 79 27 80 29 81 28 82
REMARK H PARENT 72 24 50 35 21 72 24 76
REMARK Flexibility Score: inf
ROOT
ATOM      1  O   UNL A   1      31.727  29.879  26.109  1.00  0.00    -0.458 OA
ENDROOT
BRANCH   1   2
ATOM      2  C   UNL A   1      32.449  30.919  26.785  1.00  0.00     0.275 C 
BRANCH   2   3
ATOM      3  C   UNL A   1      31.477  32.042  27.107  1.00  0.00     0.275 C 
BRANCH   3   4
ATOM      4  O   UNL A   1      32.116  33.346  27.130  1.00  0.00    -0.458 OA
BRANCH   4   5
ATOM      5  C   UNL A   1      32.881  33.970  28.058  1.00  0.00     0.338 C 
ATOM      6  O   UNL A   1      32.405  34.952  28.628  1.00  0.00    -0.246 OA
BRANCH   5   7
ATOM      7  C   UNL A   1      34.252  33.532  28.497  1.00  0.00     0.060 A 
ATOM      8  C   UNL A   1      35.448  33.954  27.939  1.00  0.00     0.016 A 
ATOM      9  C   UNL A   1      34.342  32.580  29.543  1.00  0.00     0.016 A 
ATOM     10  C   UNL A   1      36.671  33.483  28.432  1.00  0.00     0.010 A 
ATOM     11  C   UNL A   1      35.579  32.128  30.057  1.00  0.00     0.010 A 
ATOM     12  C   UNL A   1      36.771  32.595  29.511  1.00  0.00    -0.014 A 
BRANCH  12  13
ATOM     13  C   UNL A   1      38.135  32.075  29.853  1.00  0.00     0.031 A 
ATOM     14  C   UNL A   1      38.793  32.631  31.067  1.00  0.00     0.074 A 
ATOM     15  C   UNL A   1      38.678  30.981  29.278  1.00  0.00     0.049 A 
ATOM     16  N   UNL A   1      39.802  32.156  31.740  1.00  0.00    -0.248 NA
ATOM     17  C   UNL A   1      38.219  33.877  31.596  1.00  0.00     0.031 C 
ATOM     18  C   UNL A   1      38.103  30.321  28.133  1.00  0.00     0.029 A 
ATOM     19  N   UNL A   1      39.733  30.160  29.613  1.00  0.00    -0.354 N 
ATOM     20  C   UNL A   1      39.976  33.031  32.795  1.00  0.00     0.074 A 
ATOM     21  C   UNL A   1      38.978  34.074  32.660  1.00  0.00     0.031 C 
ATOM     22  C   UNL A   1      38.682  29.126  27.935  1.00  0.00     0.029 A 
ATOM     23  C   UNL A   1      39.753  28.966  28.909  1.00  0.00     0.049 A 
ATOM     24  H   UNL A   1      40.409  30.398  30.287  1.00  0.00     0.167 HD
ATOM     25  C   UNL A   1      40.904  32.985  33.776  1.00  0.00     0.031 A 
ATOM     26  C   UNL A   1      40.524  27.863  29.046  1.00  0.00     0.031 A 
ATOM     27  C   UNL A   1      41.945  32.001  33.863  1.00  0.00     0.049 A 
ATOM     28  C   UNL A   1      41.622  27.901  30.077  1.00  0.00     0.074 A 
ATOM     29  C   UNL A   1      43.019  31.963  34.733  1.00  0.00     0.029 A 
ATOM     30  N   UNL A   1      42.052  30.888  33.041  1.00  0.00    -0.354 N 
ATOM     31  N   UNL A   1      41.821  28.774  31.033  1.00  0.00    -0.248 NA
ATOM     32  C   UNL A   1      42.628  26.830  30.019  1.00  0.00     0.031 C 
ATOM     33  C   UNL A   1      43.817  30.867  34.390  1.00  0.00     0.029 A 
ATOM     34  C   UNL A   1      43.200  30.179  33.357  1.00  0.00     0.049 A 
ATOM     35  H   UNL A   1      41.409  30.638  32.339  1.00  0.00     0.167 HD
ATOM     36  C   UNL A   1      42.971  28.362  31.690  1.00  0.00     0.074 A 
ATOM     37  C   UNL A   1      43.401  27.133  31.054  1.00  0.00     0.031 C 
ATOM     38  C   UNL A   1      43.625  28.962  32.713  1.00  0.00     0.031 A 
BRANCH  25  39
ATOM     39  C   UNL A   1      40.885  34.134  34.731  1.00  0.00    -0.014 A 
ATOM     40  C   UNL A   1      39.991  34.175  35.811  1.00  0.00     0.009 A 
ATOM     41  C   UNL A   1      41.714  35.236  34.479  1.00  0.00     0.009 A 
ATOM     42  C   UNL A   1      39.898  35.324  36.597  1.00  0.00     0.001 A 
ATOM     43  C   UNL A   1      41.638  36.371  35.282  1.00  0.00     0.001 A 
ATOM     44  C   UNL A   1      40.721  36.420  36.331  1.00  0.00     0.000 A 
ENDBRANCH  25  39
BRANCH  26  45
ATOM     45  C   UNL A   1      40.361  26.648  28.183  1.00  0.00    -0.014 A 
ATOM     46  C   UNL A   1      40.986  26.561  26.924  1.00  0.00     0.009 A 
ATOM     47  C   UNL A   1      39.496  25.608  28.560  1.00  0.00     0.009 A 
ATOM     48  C   UNL A   1      40.716  25.493  26.059  1.00  0.00     0.001 A 
ATOM     49  C   UNL A   1      39.263  24.519  27.713  1.00  0.00     0.001 A 
ATOM     50  C   UNL A   1      39.858  24.470  26.456  1.00  0.00     0.000 A 
ENDBRANCH  26  45
BRANCH  38  51
ATOM     51  C   UNL A   1      44.874  28.293  33.217  1.00  0.00    -0.014 A 
ATOM     52  C   UNL A   1      44.828  27.334  34.241  1.00  0.00     0.009 A 
ATOM     53  C   UNL A   1      46.109  28.597  32.626  1.00  0.00     0.009 A 
ATOM     54  C   UNL A   1      46.000  26.719  34.687  1.00  0.00     0.001 A 
ATOM     55  C   UNL A   1      47.274  27.957  33.049  1.00  0.00     0.001 A 
ATOM     56  C   UNL A   1      47.220  27.026  34.087  1.00  0.00     0.000 A 
ENDBRANCH  38  51
ENDBRANCH  12  13
ENDBRANCH   5   7
ENDBRANCH   4   5
ENDBRANCH   3   4
ENDBRANCH   2   3
ENDBRANCH   1   2
BRANCH   1  57
ATOM     57  C   UNL A   1      32.254  29.451  24.952  1.00  0.00     0.338 C 
ATOM     58  O   UNL A   1      33.423  29.466  24.624  1.00  0.00    -0.246 OA
BRANCH  57  59
ATOM     59  C   UNL A   1      31.208  28.758  24.184  1.00  0.00     0.066 A 
ATOM     60  C   UNL A   1      30.135  29.617  23.847  1.00  0.00     0.016 A 
ATOM     61  C   UNL A   1      31.149  27.370  23.938  1.00  0.00     0.001 A 
ATOM     62  C   UNL A   1      28.958  29.117  23.309  1.00  0.00     0.001 A 
ATOM     63  C   UNL A   1      29.860  26.895  23.587  1.00  0.00     0.008 A 
ATOM     64  C   UNL A   1      28.804  27.745  23.225  1.00  0.00     0.000 A 
BRANCH  61  65
ATOM     65  C   UNL A   1      32.272  26.319  24.062  1.00  0.00     0.197 C 
ATOM     66  S   UNL A   1      33.333  26.330  22.604  1.00  0.00    -0.120 SA
ATOM     67  N   UNL A   1      31.885  24.916  24.284  1.00  0.00    -0.236 N 
ATOM     68  C   UNL A   1      32.773  24.702  22.065  1.00  0.00     0.174 C 
ATOM     69  C   UNL A   1      31.840  24.148  23.128  1.00  0.00     0.252 C 
ATOM     70  O   UNL A   1      31.106  23.183  22.941  1.00  0.00    -0.272 OA
BRANCH  67  71
ATOM     71  N   UNL A   1      32.184  24.331  25.600  1.00  0.00    -0.270 N 
ATOM     72  H   UNL A   1      31.902  24.887  26.362  1.00  0.00     0.191 HD
BRANCH  71  73
ATOM     73  C   UNL A   1      32.787  23.145  25.956  1.00  0.00     0.189 C 
ATOM     74  S   UNL A   1      32.829  22.669  27.561  1.00  0.00    -0.039 S 
BRANCH  73  75
ATOM     75  N   UNL A   1      33.332  22.301  25.057  1.00  0.00    -0.331 N 
ATOM     76  H   UNL A   1      32.718  21.737  24.534  1.00  0.00     0.169 HD
BRANCH  75  77
ATOM     77  C   UNL A   1      34.705  22.163  24.810  1.00  0.00     0.040 A 
ATOM     78  C   UNL A   1      35.434  23.307  24.483  1.00  0.00     0.026 A 
ATOM     79  C   UNL A   1      35.347  20.938  24.994  1.00  0.00     0.026 A 
ATOM     80  C   UNL A   1      36.825  23.258  24.528  1.00  0.00     0.002 A 
ATOM     81  C   UNL A   1      36.735  20.882  24.981  1.00  0.00     0.002 A 
ATOM     82  C   UNL A   1      37.471  22.051  24.795  1.00  0.00     0.000 A 
ENDBRANCH  75  77
ENDBRANCH  73  75
ENDBRANCH  71  73
ENDBRANCH  67  71
ENDBRANCH  61  65
ENDBRANCH  57  59
ENDBRANCH   1  57
TORSDOF 16
ENDMDL
MODEL 2
REMARK VINA RESULT:     -10.9      3.398      8.574
REMARK SMILES O=C(OCCOC(=O)c1ccccc1[C@@H]1SCC(=O)N1NC(=S)Nc1ccccc1)c1ccc(-c2c3nc(c(-c4ccccc4)c4ccc([nH]4)c(-c4ccccc4)c4nc(c(-c5ccccc5)c5ccc2[nH]5)C=C4)C=C3)cc1
REMARK SMILES IDX 6 1 5 2 4 3 3 4 2 5 1 6 31 7 32 8 78 9 33 10 77 11 34 12
REMARK SMILES IDX 35 13 36 14 71 15 37 16 76 17 70 18 72 19 38 20 75 21 69 22
REMARK SMILES IDX 68 23 39 25 61 26 46 27 60 28 47 29 50 30 59 31 73 32 48 33
REMARK SMILES IDX 49 34 58 36 74 37 51 38 40 39 41 40 45 41 42 42 44 43 43 44
REMARK SMILES IDX 62 45 63 46 67 47 64 48 66 49 65 50 52 51 53 52 57 53 54 54
REMARK SMILES IDX 56 55 55 56 7 57 8 58 9 59 10 60 14 61 11 62 13 63 12 64
REMARK SMILES IDX 15 65 16 66 20 67 17 68 18 69 19 70 21 71 22 73 23 74 24 75
REMARK SMILES IDX 25 77 26 78 30 79 27 80 29 81 28 82
REMARK H PARENT 72 24 50 35 21 72 24 76
REMARK Flexibility Score: inf
ROOT
ATOM      1  O   UNL A   1      36.991  21.201  25.678  1.00  0.00    -0.458 OA
ENDROOT
BRANCH   1   2
ATOM      2  C   UNL A   1      38.398  21.145  25.400  1.00  0.00     0.275 C 
BRANCH   2   3
ATOM      3  C   UNL A   1      38.776  19.694  25.150  1.00  0.00     0.275 C 
BRANCH   3   4
ATOM      4  O   UNL A   1      39.941  19.280  25.910  1.00  0.00    -0.458 OA
BRANCH   4   5
ATOM      5  C   UNL A   1      41.199  19.778  25.996  1.00  0.00     0.338 C 
ATOM      6  O   UNL A   1      42.128  19.055  25.635  1.00  0.00    -0.246 OA
BRANCH   5   7
ATOM      7  C   UNL A   1      41.559  21.168  26.446  1.00  0.00     0.060 A 
ATOM      8  C   UNL A   1      42.058  22.172  25.631  1.00  0.00     0.016 A 
ATOM      9  C   UNL A   1      41.419  21.479  27.821  1.00  0.00     0.016 A 
ATOM     10  C   UNL A   1      42.356  23.435  26.157  1.00  0.00     0.010 A 
ATOM     11  C   UNL A   1      41.694  22.763  28.344  1.00  0.00     0.010 A 
ATOM     12  C   UNL A   1      42.154  23.772  27.502  1.00  0.00    -0.014 A 
BRANCH  12  13
ATOM     13  C   UNL A   1      42.634  25.117  27.956  1.00  0.00     0.031 A 
ATOM     14  C   UNL A   1      41.601  26.154  28.230  1.00  0.00     0.074 A 
ATOM     15  C   UNL A   1      43.900  25.358  28.359  1.00  0.00     0.049 A 
ATOM     16  N   UNL A   1      41.715  27.264  28.903  1.00  0.00    -0.248 NA
ATOM     17  C   UNL A   1      40.262  25.887  27.687  1.00  0.00     0.031 C 
ATOM     18  C   UNL A   1      44.974  24.409  28.198  1.00  0.00     0.029 A 
ATOM     19  N   UNL A   1      44.490  26.377  29.073  1.00  0.00    -0.354 N 
ATOM     20  C   UNL A   1      40.453  27.825  28.889  1.00  0.00     0.074 A 
ATOM     21  C   UNL A   1      39.595  26.940  28.127  1.00  0.00     0.031 C 
ATOM     22  C   UNL A   1      46.047  24.784  28.914  1.00  0.00     0.029 A 
ATOM     23  C   UNL A   1      45.762  26.072  29.531  1.00  0.00     0.049 A 
ATOM     24  H   UNL A   1      44.051  27.242  29.243  1.00  0.00     0.167 HD
ATOM     25  C   UNL A   1      40.050  28.991  29.441  1.00  0.00     0.031 A 
ATOM     26  C   UNL A   1      46.592  26.736  30.367  1.00  0.00     0.031 A 
ATOM     27  C   UNL A   1      40.916  29.908  30.124  1.00  0.00     0.049 A 
ATOM     28  C   UNL A   1      46.147  28.086  30.867  1.00  0.00     0.074 A 
ATOM     29  C   UNL A   1      40.628  31.180  30.581  1.00  0.00     0.029 A 
ATOM     30  N   UNL A   1      42.246  29.659  30.434  1.00  0.00    -0.354 N 
ATOM     31  N   UNL A   1      44.964  28.642  30.789  1.00  0.00    -0.248 NA
ATOM     32  C   UNL A   1      47.163  28.920  31.528  1.00  0.00     0.031 C 
ATOM     33  C   UNL A   1      41.803  31.731  31.104  1.00  0.00     0.029 A 
ATOM     34  C   UNL A   1      42.803  30.773  31.041  1.00  0.00     0.049 A 
ATOM     35  H   UNL A   1      42.722  28.817  30.252  1.00  0.00     0.167 HD
ATOM     36  C   UNL A   1      45.090  29.887  31.387  1.00  0.00     0.074 A 
ATOM     37  C   UNL A   1      46.454  29.988  31.866  1.00  0.00     0.031 C 
ATOM     38  C   UNL A   1      44.164  30.868  31.506  1.00  0.00     0.031 A 
BRANCH  25  39
ATOM     39  C   UNL A   1      38.627  29.366  29.178  1.00  0.00    -0.014 A 
ATOM     40  C   UNL A   1      37.641  29.245  30.168  1.00  0.00     0.009 A 
ATOM     41  C   UNL A   1      38.259  29.754  27.882  1.00  0.00     0.009 A 
ATOM     42  C   UNL A   1      36.300  29.464  29.850  1.00  0.00     0.001 A 
ATOM     43  C   UNL A   1      36.924  29.999  27.573  1.00  0.00     0.001 A 
ATOM     44  C   UNL A   1      35.945  29.841  28.553  1.00  0.00     0.000 A 
ENDBRANCH  25  39
BRANCH  26  45
ATOM     45  C   UNL A   1      47.939  26.208  30.761  1.00  0.00    -0.014 A 
ATOM     46  C   UNL A   1      48.999  26.157  29.836  1.00  0.00     0.009 A 
ATOM     47  C   UNL A   1      48.150  25.652  32.033  1.00  0.00     0.009 A 
ATOM     48  C   UNL A   1      50.209  25.530  30.161  1.00  0.00     0.001 A 
ATOM     49  C   UNL A   1      49.376  25.066  32.372  1.00  0.00     0.001 A 
ATOM     50  C   UNL A   1      50.398  24.990  31.430  1.00  0.00     0.000 A 
ENDBRANCH  26  45
BRANCH  38  51
ATOM     51  C   UNL A   1      44.591  32.137  32.191  1.00  0.00    -0.014 A 
ATOM     52  C   UNL A   1      44.485  32.290  33.582  1.00  0.00     0.009 A 
ATOM     53  C   UNL A   1      45.148  33.179  31.434  1.00  0.00     0.009 A 
ATOM     54  C   UNL A   1      44.896  33.474  34.197  1.00  0.00     0.001 A 
ATOM     55  C   UNL A   1      45.590  34.347  32.053  1.00  0.00     0.001 A 
ATOM     56  C   UNL A   1      45.454  34.498  33.433  1.00  0.00     0.000 A 
ENDBRANCH  38  51
ENDBRANCH  12  13
ENDBRANCH   5   7
ENDBRANCH   4   5
ENDBRANCH   3   4
ENDBRANCH   2   3
ENDBRANCH   1   2
BRANCH   1  57
ATOM     57  C   UNL A   1      36.203  21.568  24.657  1.00  0.00     0.338 C 
ATOM     58  O   UNL A   1      36.517  22.216  23.678  1.00  0.00    -0.246 OA
BRANCH  57  59
ATOM     59  C   UNL A   1      34.905  20.889  24.794  1.00  0.00     0.066 A 
ATOM     60  C   UNL A   1      35.025  19.483  24.688  1.00  0.00     0.016 A 
ATOM     61  C   UNL A   1      33.646  21.521  24.849  1.00  0.00     0.001 A 
ATOM     62  C   UNL A   1      33.903  18.674  24.580  1.00  0.00     0.001 A 
ATOM     63  C   UNL A   1      32.554  20.676  24.526  1.00  0.00     0.008 A 
ATOM     64  C   UNL A   1      32.666  19.279  24.450  1.00  0.00     0.000 A 
BRANCH  61  65
ATOM     65  C   UNL A   1      33.320  23.000  25.147  1.00  0.00     0.197 C 
ATOM     66  S   UNL A   1      32.267  23.151  26.602  1.00  0.00    -0.120 SA
ATOM     67  N   UNL A   1      32.680  23.796  24.086  1.00  0.00    -0.236 N 
ATOM     68  C   UNL A   1      30.852  23.721  25.639  1.00  0.00     0.174 C 
ATOM     69  C   UNL A   1      31.299  23.884  24.196  1.00  0.00     0.252 C 
ATOM     70  O   UNL A   1      30.516  24.013  23.260  1.00  0.00    -0.272 OA
BRANCH  67  71
ATOM     71  N   UNL A   1      33.484  24.853  23.453  1.00  0.00    -0.270 N 
ATOM     72  H   UNL A   1      34.125  24.526  22.782  1.00  0.00     0.191 HD
BRANCH  71  73
ATOM     73  C   UNL A   1      33.499  26.218  23.633  1.00  0.00     0.189 C 
ATOM     74  S   UNL A   1      32.968  27.235  22.413  1.00  0.00    -0.039 S 
BRANCH  73  75
ATOM     75  N   UNL A   1      33.895  26.803  24.782  1.00  0.00    -0.331 N 
ATOM     76  H   UNL A   1      34.778  26.553  25.136  1.00  0.00     0.169 HD
BRANCH  75  77
ATOM     77  C   UNL A   1      33.147  27.738  25.510  1.00  0.00     0.040 A 
ATOM     78  C   UNL A   1      32.141  27.265  26.352  1.00  0.00     0.026 A 
ATOM     79  C   UNL A   1      33.471  29.095  25.482  1.00  0.00     0.026 A 
ATOM     80  C   UNL A   1      31.591  28.124  27.300  1.00  0.00     0.002 A 
ATOM     81  C   UNL A   1      32.879  29.961  26.391  1.00  0.00     0.002 A 
ATOM     82  C   UNL A   1      31.976  29.465  27.330  1.00  0.00     0.000 A 
ENDBRANCH  75  77
ENDBRANCH  73  75
ENDBRANCH  71  73
ENDBRANCH  67  71
ENDBRANCH  61  65
ENDBRANCH  57  59
ENDBRANCH   1  57
TORSDOF 16
ENDMDL
MODEL 3
REMARK VINA RESULT:     -10.8      3.975      9.085
REMARK SMILES O=C(OCCOC(=O)c1ccccc1[C@@H]1SCC(=O)N1NC(=S)Nc1ccccc1)c1ccc(-c2c3nc(c(-c4ccccc4)c4ccc([nH]4)c(-c4ccccc4)c4nc(c(-c5ccccc5)c5ccc2[nH]5)C=C4)C=C3)cc1
REMARK SMILES IDX 6 1 5 2 4 3 3 4 2 5 1 6 31 7 32 8 78 9 33 10 77 11 34 12
REMARK SMILES IDX 35 13 36 14 71 15 37 16 76 17 70 18 72 19 38 20 75 21 69 22
REMARK SMILES IDX 68 23 39 25 61 26 46 27 60 28 47 29 50 30 59 31 73 32 48 33
REMARK SMILES IDX 49 34 58 36 74 37 51 38 40 39 41 40 45 41 42 42 44 43 43 44
REMARK SMILES IDX 62 45 63 46 67 47 64 48 66 49 65 50 52 51 53 52 57 53 54 54
REMARK SMILES IDX 56 55 55 56 7 57 8 58 9 59 10 60 14 61 11 62 13 63 12 64
REMARK SMILES IDX 15 65 16 66 20 67 17 68 18 69 19 70 21 71 22 73 23 74 24 75
REMARK SMILES IDX 25 77 26 78 30 79 27 80 29 81 28 82
REMARK H PARENT 72 24 50 35 21 72 24 76
REMARK Flexibility Score: inf
ROOT
ATOM      1  O   UNL A   1      35.849  20.838  24.652  1.00  0.00    -0.458 OA
ENDROOT
BRANCH   1   2
ATOM      2  C   UNL A   1      36.844  19.824  24.857  1.00  0.00     0.275 C 
BRANCH   2   3
ATOM      3  C   UNL A   1      38.167  20.508  25.158  1.00  0.00     0.275 C 
BRANCH   3   4
ATOM      4  O   UNL A   1      39.248  19.565  25.378  1.00  0.00    -0.458 OA
BRANCH   4   5
ATOM      5  C   UNL A   1      40.503  19.714  25.868  1.00  0.00     0.338 C 
ATOM      6  O   UNL A   1      41.289  18.777  25.726  1.00  0.00    -0.246 OA
BRANCH   5   7
ATOM      7  C   UNL A   1      41.042  20.955  26.527  1.00  0.00     0.060 A 
ATOM      8  C   UNL A   1      41.141  21.160  27.894  1.00  0.00     0.016 A 
ATOM      9  C   UNL A   1      41.451  22.025  25.694  1.00  0.00     0.016 A 
ATOM     10  C   UNL A   1      41.664  22.357  28.400  1.00  0.00     0.010 A 
ATOM     11  C   UNL A   1      42.005  23.221  26.206  1.00  0.00     0.010 A 
ATOM     12  C   UNL A   1      42.136  23.393  27.582  1.00  0.00    -0.014 A 
BRANCH  12  13
ATOM     13  C   UNL A   1      42.552  24.666  28.253  1.00  0.00     0.031 A 
ATOM     14  C   UNL A   1      43.998  25.017  28.215  1.00  0.00     0.074 A 
ATOM     15  C   UNL A   1      41.678  25.610  28.662  1.00  0.00     0.049 A 
ATOM     16  N   UNL A   1      44.566  26.168  28.439  1.00  0.00    -0.248 NA
ATOM     17  C   UNL A   1      44.915  23.926  27.855  1.00  0.00     0.031 C 
ATOM     18  C   UNL A   1      40.251  25.407  28.692  1.00  0.00     0.029 A 
ATOM     19  N   UNL A   1      41.810  26.936  29.013  1.00  0.00    -0.354 N 
ATOM     20  C   UNL A   1      45.914  25.952  28.226  1.00  0.00     0.074 A 
ATOM     21  C   UNL A   1      46.077  24.557  27.870  1.00  0.00     0.031 C 
ATOM     22  C   UNL A   1      39.611  26.573  28.878  1.00  0.00     0.029 A 
ATOM     23  C   UNL A   1      40.605  27.619  29.071  1.00  0.00     0.049 A 
ATOM     24  H   UNL A   1      42.678  27.360  29.204  1.00  0.00     0.167 HD
ATOM     25  C   UNL A   1      46.931  26.834  28.342  1.00  0.00     0.031 A 
ATOM     26  C   UNL A   1      40.333  28.933  29.236  1.00  0.00     0.031 A 
ATOM     27  C   UNL A   1      46.781  28.194  28.775  1.00  0.00     0.049 A 
ATOM     28  C   UNL A   1      41.493  29.863  29.477  1.00  0.00     0.074 A 
ATOM     29  C   UNL A   1      47.769  29.114  29.069  1.00  0.00     0.029 A 
ATOM     30  N   UNL A   1      45.564  28.825  28.993  1.00  0.00    -0.354 N 
ATOM     31  N   UNL A   1      42.775  29.631  29.339  1.00  0.00    -0.248 NA
ATOM     32  C   UNL A   1      41.173  31.222  29.943  1.00  0.00     0.031 C 
ATOM     33  C   UNL A   1      47.153  30.280  29.535  1.00  0.00     0.029 A 
ATOM     34  C   UNL A   1      45.779  30.112  29.459  1.00  0.00     0.049 A 
ATOM     35  H   UNL A   1      44.681  28.420  28.840  1.00  0.00     0.167 HD
ATOM     36  C   UNL A   1      43.415  30.808  29.699  1.00  0.00     0.074 A 
ATOM     37  C   UNL A   1      42.379  31.769  30.017  1.00  0.00     0.031 C 
ATOM     38  C   UNL A   1      44.743  31.060  29.782  1.00  0.00     0.031 A 
BRANCH  25  39
ATOM     39  C   UNL A   1      48.298  26.269  28.123  1.00  0.00    -0.014 A 
ATOM     40  C   UNL A   1      49.041  25.719  29.178  1.00  0.00     0.009 A 
ATOM     41  C   UNL A   1      48.881  26.384  26.853  1.00  0.00     0.009 A 
ATOM     42  C   UNL A   1      50.367  25.335  28.971  1.00  0.00     0.001 A 
ATOM     43  C   UNL A   1      50.195  25.974  26.644  1.00  0.00     0.001 A 
ATOM     44  C   UNL A   1      50.940  25.462  27.705  1.00  0.00     0.000 A 
ENDBRANCH  25  39
BRANCH  26  45
ATOM     45  C   UNL A   1      38.935  29.477  29.243  1.00  0.00    -0.014 A 
ATOM     46  C   UNL A   1      38.155  29.461  30.414  1.00  0.00     0.009 A 
ATOM     47  C   UNL A   1      38.329  29.919  28.056  1.00  0.00     0.009 A 
ATOM     48  C   UNL A   1      36.804  29.831  30.385  1.00  0.00     0.001 A 
ATOM     49  C   UNL A   1      36.992  30.332  28.038  1.00  0.00     0.001 A 
ATOM     50  C   UNL A   1      36.225  30.272  29.197  1.00  0.00     0.000 A 
ENDBRANCH  26  45
BRANCH  38  51
ATOM     51  C   UNL A   1      45.155  32.436  30.226  1.00  0.00    -0.014 A 
ATOM     52  C   UNL A   1      45.368  32.734  31.581  1.00  0.00     0.009 A 
ATOM     53  C   UNL A   1      45.377  33.435  29.267  1.00  0.00     0.009 A 
ATOM     54  C   UNL A   1      45.760  34.018  31.969  1.00  0.00     0.001 A 
ATOM     55  C   UNL A   1      45.802  34.706  29.654  1.00  0.00     0.001 A 
ATOM     56  C   UNL A   1      45.983  35.000  31.006  1.00  0.00     0.000 A 
ENDBRANCH  38  51
ENDBRANCH  12  13
ENDBRANCH   5   7
ENDBRANCH   4   5
ENDBRANCH   3   4
ENDBRANCH   2   3
ENDBRANCH   1   2
BRANCH   1  57
ATOM     57  C   UNL A   1      34.750  20.749  25.416  1.00  0.00     0.338 C 
ATOM     58  O   UNL A   1      34.601  21.170  26.546  1.00  0.00    -0.246 OA
BRANCH  57  59
ATOM     59  C   UNL A   1      33.647  20.221  24.598  1.00  0.00     0.066 A 
ATOM     60  C   UNL A   1      33.634  18.806  24.568  1.00  0.00     0.016 A 
ATOM     61  C   UNL A   1      32.787  20.986  23.782  1.00  0.00     0.001 A 
ATOM     62  C   UNL A   1      32.809  18.115  23.692  1.00  0.00     0.001 A 
ATOM     63  C   UNL A   1      32.128  20.241  22.771  1.00  0.00     0.008 A 
ATOM     64  C   UNL A   1      32.090  18.838  22.757  1.00  0.00     0.000 A 
BRANCH  61  65
ATOM     65  C   UNL A   1      32.530  22.507  23.810  1.00  0.00     0.197 C 
ATOM     66  S   UNL A   1      33.020  23.276  22.256  1.00  0.00    -0.120 SA
ATOM     67  N   UNL A   1      33.162  23.296  24.882  1.00  0.00    -0.236 N 
ATOM     68  C   UNL A   1      34.396  24.162  23.014  1.00  0.00     0.174 C 
ATOM     69  C   UNL A   1      34.352  23.907  24.511  1.00  0.00     0.252 C 
ATOM     70  O   UNL A   1      35.288  24.160  25.264  1.00  0.00    -0.272 OA
BRANCH  67  71
ATOM     71  N   UNL A   1      32.282  23.859  25.917  1.00  0.00    -0.270 N 
ATOM     72  H   UNL A   1      32.179  23.290  26.713  1.00  0.00     0.191 HD
BRANCH  71  73
ATOM     73  C   UNL A   1      31.578  25.042  25.971  1.00  0.00     0.189 C 
ATOM     74  S   UNL A   1      30.384  25.364  24.840  1.00  0.00    -0.039 S 
BRANCH  73  75
ATOM     75  N   UNL A   1      31.774  25.970  26.928  1.00  0.00    -0.331 N 
ATOM     76  H   UNL A   1      31.520  25.732  27.849  1.00  0.00     0.169 HD
BRANCH  75  77
ATOM     77  C   UNL A   1      32.310  27.248  26.715  1.00  0.00     0.040 A 
ATOM     78  C   UNL A   1      31.547  28.353  27.092  1.00  0.00     0.026 A 
ATOM     79  C   UNL A   1      33.613  27.410  26.245  1.00  0.00     0.026 A 
ATOM     80  C   UNL A   1      32.159  29.602  27.173  1.00  0.00     0.002 A 
ATOM     81  C   UNL A   1      34.202  28.667  26.274  1.00  0.00     0.002 A 
ATOM     82  C   UNL A   1      33.490  29.752  26.783  1.00  0.00     0.000 A 
ENDBRANCH  75  77
ENDBRANCH  73  75
ENDBRANCH  71  73
ENDBRANCH  67  71
ENDBRANCH  61  65
ENDBRANCH  57  59
ENDBRANCH   1  57
TORSDOF 16
ENDMDL
