MODEL 1
REMARK VINA RESULT:      -9.7      0.000      0.000
REMARK SMILES O=C(Cc1ccccc1Nc1c(Cl)cccc1C(F)(F)F)OCCOC(=O)c1ccc(-c2c3nc(c(-c4ccccc4)c4ccc([nH]4)c(-c4ccccc4)c4nc(c(-c5ccccc5)c5ccc2[nH]5)C=C4)C=C3)cc1
REMARK SMILES IDX 23 1 22 2 2 3 1 4 3 5 4 6 5 7 9 8 6 9 8 10 7 11 10 12 11 14
REMARK SMILES IDX 12 15 17 16 13 17 14 18 16 19 15 20 18 21 19 22 20 23 21 24
REMARK SMILES IDX 24 25 25 26 26 27 27 28 28 29 29 30 75 31 30 32 74 33 31 34
REMARK SMILES IDX 32 35 33 36 68 37 34 38 73 39 67 40 69 41 35 42 72 43 66 44
REMARK SMILES IDX 65 45 36 47 58 48 43 49 57 50 44 51 47 52 56 53 70 54 45 55
REMARK SMILES IDX 46 56 55 58 71 59 48 60 37 61 38 62 42 63 39 64 41 65 40 66
REMARK SMILES IDX 59 67 60 68 64 69 61 70 63 71 62 72 49 73 50 74 54 75 51 76
REMARK SMILES IDX 53 77 52 78
REMARK H PARENT 10 13 69 46 47 57
REMARK Flexibility Score: inf
ROOT
ATOM      1  C   UNL A   1      46.238  20.704  24.667  1.00  0.00     0.274 C 
ENDROOT
BRANCH   1   2
ATOM      2  O   UNL A   1      46.231  21.862  25.523  1.00  0.00    -0.462 OA
BRANCH   2   3
ATOM      3  C   UNL A   1      46.077  23.106  24.982  1.00  0.00     0.310 C 
ATOM      4  O   UNL A   1      45.566  23.243  23.873  1.00  0.00    -0.252 OA
BRANCH   3   5
ATOM      5  C   UNL A   1      46.798  24.237  25.689  1.00  0.00     0.160 C 
BRANCH   5   6
ATOM      6  C   UNL A   1      47.141  25.443  24.847  1.00  0.00    -0.013 A 
ATOM      7  C   UNL A   1      48.155  25.333  23.882  1.00  0.00     0.006 A 
ATOM      8  C   UNL A   1      46.491  26.681  25.032  1.00  0.00     0.042 A 
ATOM      9  C   UNL A   1      48.560  26.447  23.148  1.00  0.00     0.000 A 
ATOM     10  C   UNL A   1      46.925  27.794  24.302  1.00  0.00     0.026 A 
ATOM     11  C   UNL A   1      47.951  27.678  23.364  1.00  0.00     0.002 A 
BRANCH   8  12
ATOM     12  N   UNL A   1      45.542  26.842  26.059  1.00  0.00    -0.354 N 
ATOM     13  H   UNL A   1      45.607  26.181  26.785  1.00  0.00     0.167 HD
BRANCH  12  14
ATOM     14  C   UNL A   1      44.507  27.797  26.222  1.00  0.00     0.070 A 
ATOM     15  C   UNL A   1      43.214  27.460  25.743  1.00  0.00     0.065 A 
ATOM     16  C   UNL A   1      44.693  29.083  26.771  1.00  0.00     0.080 A 
ATOM     17  Cl  UNL A   1      42.941  25.940  24.953  1.00  0.00    -0.082 Cl
ATOM     18  C   UNL A   1      42.130  28.329  25.865  1.00  0.00     0.023 A 
ATOM     19  C   UNL A   1      43.574  29.938  26.911  1.00  0.00     0.015 A 
ATOM     20  C   UNL A   1      42.307  29.565  26.467  1.00  0.00     0.002 A 
BRANCH  16  21
ATOM     21  C   UNL A   1      46.043  29.645  27.159  1.00  0.00     0.418 C 
ATOM     22  F   UNL A   1      45.940  30.614  28.121  1.00  0.00    -0.166 F 
ATOM     23  F   UNL A   1      46.882  28.715  27.688  1.00  0.00    -0.166 F 
ATOM     24  F   UNL A   1      46.698  30.254  26.135  1.00  0.00    -0.166 F 
ENDBRANCH  16  21
ENDBRANCH  12  14
ENDBRANCH   8  12
ENDBRANCH   5   6
ENDBRANCH   3   5
ENDBRANCH   2   3
ENDBRANCH   1   2
BRANCH   1  25
ATOM     25  C   UNL A   1      45.228  19.624  25.069  1.00  0.00     0.275 C 
BRANCH  25  26
ATOM     26  O   UNL A   1      43.906  19.934  24.603  1.00  0.00    -0.458 OA
BRANCH  26  27
ATOM     27  C   UNL A   1      42.937  19.666  25.512  1.00  0.00     0.338 C 
ATOM     28  O   UNL A   1      42.515  18.564  25.823  1.00  0.00    -0.246 OA
BRANCH  27  29
ATOM     29  C   UNL A   1      42.556  20.898  26.231  1.00  0.00     0.060 A 
ATOM     30  C   UNL A   1      42.673  22.103  25.529  1.00  0.00     0.016 A 
ATOM     31  C   UNL A   1      42.139  20.896  27.566  1.00  0.00     0.016 A 
ATOM     32  C   UNL A   1      42.476  23.315  26.185  1.00  0.00     0.010 A 
ATOM     33  C   UNL A   1      41.936  22.117  28.225  1.00  0.00     0.010 A 
ATOM     34  C   UNL A   1      42.169  23.330  27.552  1.00  0.00    -0.014 A 
BRANCH  34  35
ATOM     35  C   UNL A   1      42.343  24.603  28.294  1.00  0.00     0.031 A 
ATOM     36  C   UNL A   1      43.711  24.933  28.837  1.00  0.00     0.074 A 
ATOM     37  C   UNL A   1      41.348  25.502  28.400  1.00  0.00     0.049 A 
ATOM     38  N   UNL A   1      44.145  26.043  29.378  1.00  0.00    -0.248 NA
ATOM     39  C   UNL A   1      44.727  23.870  28.750  1.00  0.00     0.031 C 
ATOM     40  C   UNL A   1      39.988  25.327  27.894  1.00  0.00     0.029 A 
ATOM     41  N   UNL A   1      41.347  26.759  28.952  1.00  0.00    -0.354 N 
ATOM     42  C   UNL A   1      45.482  25.815  29.683  1.00  0.00     0.074 A 
ATOM     43  C   UNL A   1      45.775  24.449  29.314  1.00  0.00     0.031 C 
ATOM     44  C   UNL A   1      39.285  26.447  28.146  1.00  0.00     0.029 A 
ATOM     45  C   UNL A   1      40.144  27.410  28.836  1.00  0.00     0.049 A 
ATOM     46  H   UNL A   1      42.134  27.155  29.391  1.00  0.00     0.167 HD
ATOM     47  C   UNL A   1      46.395  26.668  30.205  1.00  0.00     0.031 A 
ATOM     48  C   UNL A   1      39.781  28.646  29.229  1.00  0.00     0.031 A 
ATOM     49  C   UNL A   1      46.113  28.023  30.589  1.00  0.00     0.049 A 
ATOM     50  C   UNL A   1      40.799  29.556  29.869  1.00  0.00     0.074 A 
ATOM     51  C   UNL A   1      46.979  28.968  31.113  1.00  0.00     0.029 A 
ATOM     52  N   UNL A   1      44.867  28.622  30.502  1.00  0.00    -0.354 N 
ATOM     53  N   UNL A   1      42.074  29.347  30.094  1.00  0.00    -0.248 NA
ATOM     54  C   UNL A   1      40.326  30.885  30.284  1.00  0.00     0.031 C 
ATOM     55  C   UNL A   1      46.242  30.124  31.392  1.00  0.00     0.029 A 
ATOM     56  C   UNL A   1      44.934  29.917  30.986  1.00  0.00     0.049 A 
ATOM     57  H   UNL A   1      44.055  28.192  30.148  1.00  0.00     0.167 HD
ATOM     58  C   UNL A   1      42.562  30.532  30.635  1.00  0.00     0.074 A 
ATOM     59  C   UNL A   1      41.449  31.455  30.698  1.00  0.00     0.031 C 
ATOM     60  C   UNL A   1      43.823  30.831  31.036  1.00  0.00     0.031 A 
BRANCH  47  61
ATOM     61  C   UNL A   1      47.784  26.138  30.413  1.00  0.00    -0.014 A 
ATOM     62  C   UNL A   1      48.225  25.727  31.683  1.00  0.00     0.009 A 
ATOM     63  C   UNL A   1      48.662  26.035  29.323  1.00  0.00     0.009 A 
ATOM     64  C   UNL A   1      49.529  25.260  31.860  1.00  0.00     0.001 A 
ATOM     65  C   UNL A   1      49.955  25.542  29.498  1.00  0.00     0.001 A 
ATOM     66  C   UNL A   1      50.390  25.164  30.769  1.00  0.00     0.000 A 
ENDBRANCH  47  61
BRANCH  48  67
ATOM     67  C   UNL A   1      38.390  29.122  29.014  1.00  0.00    -0.014 A 
ATOM     68  C   UNL A   1      38.001  29.661  27.777  1.00  0.00     0.009 A 
ATOM     69  C   UNL A   1      37.456  29.083  30.060  1.00  0.00     0.009 A 
ATOM     70  C   UNL A   1      36.715  30.180  27.604  1.00  0.00     0.001 A 
ATOM     71  C   UNL A   1      36.164  29.579  29.876  1.00  0.00     0.001 A 
ATOM     72  C   UNL A   1      35.798  30.136  28.653  1.00  0.00     0.000 A 
ENDBRANCH  48  67
BRANCH  60  73
ATOM     73  C   UNL A   1      44.082  32.229  31.526  1.00  0.00    -0.014 A 
ATOM     74  C   UNL A   1      44.452  33.259  30.648  1.00  0.00     0.009 A 
ATOM     75  C   UNL A   1      43.914  32.525  32.889  1.00  0.00     0.009 A 
ATOM     76  C   UNL A   1      44.688  34.548  31.133  1.00  0.00     0.001 A 
ATOM     77  C   UNL A   1      44.120  33.821  33.365  1.00  0.00     0.001 A 
ATOM     78  C   UNL A   1      44.518  34.829  32.489  1.00  0.00     0.000 A 
ENDBRANCH  60  73
ENDBRANCH  34  35
ENDBRANCH  27  29
ENDBRANCH  26  27
ENDBRANCH  25  26
ENDBRANCH   1  25
TORSDOF 15
ENDMDL
MODEL 2
REMARK VINA RESULT:      -9.5      5.953     11.305
REMARK SMILES O=C(Cc1ccccc1Nc1c(Cl)cccc1C(F)(F)F)OCCOC(=O)c1ccc(-c2c3nc(c(-c4ccccc4)c4ccc([nH]4)c(-c4ccccc4)c4nc(c(-c5ccccc5)c5ccc2[nH]5)C=C4)C=C3)cc1
REMARK SMILES IDX 23 1 22 2 2 3 1 4 3 5 4 6 5 7 9 8 6 9 8 10 7 11 10 12 11 14
REMARK SMILES IDX 12 15 17 16 13 17 14 18 16 19 15 20 18 21 19 22 20 23 21 24
REMARK SMILES IDX 24 25 25 26 26 27 27 28 28 29 29 30 75 31 30 32 74 33 31 34
REMARK SMILES IDX 32 35 33 36 68 37 34 38 73 39 67 40 69 41 35 42 72 43 66 44
REMARK SMILES IDX 65 45 36 47 58 48 43 49 57 50 44 51 47 52 56 53 70 54 45 55
REMARK SMILES IDX 46 56 55 58 71 59 48 60 37 61 38 62 42 63 39 64 41 65 40 66
REMARK SMILES IDX 59 67 60 68 64 69 61 70 63 71 62 72 49 73 50 74 54 75 51 76
REMARK SMILES IDX 53 77 52 78
REMARK H PARENT 10 13 69 46 47 57
REMARK Flexibility Score: inf
ROOT
ATOM      1  C   UNL A   1      34.128  36.104  33.188  1.00  0.00     0.274 C 
ENDROOT
BRANCH   1   2
ATOM      2  O   UNL A   1      35.454  35.551  33.096  1.00  0.00    -0.462 OA
BRANCH   2   3
ATOM      3  C   UNL A   1      35.731  34.350  33.684  1.00  0.00     0.310 C 
ATOM      4  O   UNL A   1      34.821  33.589  34.004  1.00  0.00    -0.252 OA
BRANCH   3   5
ATOM      5  C   UNL A   1      37.160  34.145  34.147  1.00  0.00     0.160 C 
BRANCH   5   6
ATOM      6  C   UNL A   1      37.350  33.293  35.379  1.00  0.00    -0.013 A 
ATOM      7  C   UNL A   1      36.789  33.719  36.595  1.00  0.00     0.006 A 
ATOM      8  C   UNL A   1      38.104  32.102  35.344  1.00  0.00     0.042 A 
ATOM      9  C   UNL A   1      37.017  33.006  37.770  1.00  0.00     0.000 A 
ATOM     10  C   UNL A   1      38.342  31.410  36.538  1.00  0.00     0.026 A 
ATOM     11  C   UNL A   1      37.800  31.857  37.743  1.00  0.00     0.002 A 
BRANCH   8  12
ATOM     12  N   UNL A   1      38.759  31.707  34.162  1.00  0.00    -0.354 N 
ATOM     13  H   UNL A   1      39.157  32.445  33.647  1.00  0.00     0.167 HD
BRANCH  12  14
ATOM     14  C   UNL A   1      38.938  30.424  33.587  1.00  0.00     0.070 A 
ATOM     15  C   UNL A   1      37.876  29.891  32.811  1.00  0.00     0.065 A 
ATOM     16  C   UNL A   1      40.077  29.616  33.789  1.00  0.00     0.080 A 
ATOM     17  Cl  UNL A   1      36.401  30.783  32.617  1.00  0.00    -0.082 Cl
ATOM     18  C   UNL A   1      37.961  28.641  32.198  1.00  0.00     0.023 A 
ATOM     19  C   UNL A   1      40.155  28.364  33.136  1.00  0.00     0.015 A 
ATOM     20  C   UNL A   1      39.112  27.883  32.346  1.00  0.00     0.002 A 
BRANCH  16  21
ATOM     21  C   UNL A   1      41.206  29.975  34.731  1.00  0.00     0.418 C 
ATOM     22  F   UNL A   1      40.948  29.583  36.017  1.00  0.00    -0.166 F 
ATOM     23  F   UNL A   1      42.384  29.375  34.412  1.00  0.00    -0.166 F 
ATOM     24  F   UNL A   1      41.437  31.311  34.824  1.00  0.00    -0.166 F 
ENDBRANCH  16  21
ENDBRANCH  12  14
ENDBRANCH   8  12
ENDBRANCH   5   6
ENDBRANCH   3   5
ENDBRANCH   2   3
ENDBRANCH   1   2
BRANCH   1  25
ATOM     25  C   UNL A   1      33.453  36.335  31.831  1.00  0.00     0.275 C 
BRANCH  25  26
ATOM     26  O   UNL A   1      33.020  35.101  31.238  1.00  0.00    -0.458 OA
BRANCH  26  27
ATOM     27  C   UNL A   1      33.270  35.026  29.907  1.00  0.00     0.338 C 
ATOM     28  O   UNL A   1      32.715  35.663  29.025  1.00  0.00    -0.246 OA
BRANCH  27  29
ATOM     29  C   UNL A   1      34.450  34.177  29.655  1.00  0.00     0.060 A 
ATOM     30  C   UNL A   1      34.624  33.069  30.492  1.00  0.00     0.016 A 
ATOM     31  C   UNL A   1      35.393  34.467  28.664  1.00  0.00     0.016 A 
ATOM     32  C   UNL A   1      35.788  32.310  30.413  1.00  0.00     0.010 A 
ATOM     33  C   UNL A   1      36.563  33.700  28.581  1.00  0.00     0.010 A 
ATOM     34  C   UNL A   1      36.791  32.660  29.500  1.00  0.00    -0.014 A 
BRANCH  34  35
ATOM     35  C   UNL A   1      38.147  32.089  29.698  1.00  0.00     0.031 A 
ATOM     36  C   UNL A   1      39.126  32.851  30.555  1.00  0.00     0.074 A 
ATOM     37  C   UNL A   1      38.479  30.875  29.224  1.00  0.00     0.049 A 
ATOM     38  N   UNL A   1      40.302  32.487  30.997  1.00  0.00    -0.248 NA
ATOM     39  C   UNL A   1      38.719  34.203  30.974  1.00  0.00     0.031 C 
ATOM     40  C   UNL A   1      37.621  30.017  28.410  1.00  0.00     0.029 A 
ATOM     41  N   UNL A   1      39.632  30.147  29.386  1.00  0.00    -0.354 N 
ATOM     42  C   UNL A   1      40.767  33.557  31.754  1.00  0.00     0.074 A 
ATOM     43  C   UNL A   1      39.771  34.601  31.670  1.00  0.00     0.031 C 
ATOM     44  C   UNL A   1      38.273  28.867  28.157  1.00  0.00     0.029 A 
ATOM     45  C   UNL A   1      39.594  28.914  28.784  1.00  0.00     0.049 A 
ATOM     46  H   UNL A   1      40.412  30.479  29.886  1.00  0.00     0.167 HD
ATOM     47  C   UNL A   1      41.910  33.660  32.472  1.00  0.00     0.031 A 
ATOM     48  C   UNL A   1      40.514  27.930  28.754  1.00  0.00     0.031 A 
ATOM     49  C   UNL A   1      42.914  32.636  32.552  1.00  0.00     0.049 A 
ATOM     50  C   UNL A   1      41.809  28.095  29.509  1.00  0.00     0.074 A 
ATOM     51  C   UNL A   1      44.099  32.645  33.268  1.00  0.00     0.029 A 
ATOM     52  N   UNL A   1      42.857  31.424  31.883  1.00  0.00    -0.354 N 
ATOM     53  N   UNL A   1      42.207  29.086  30.269  1.00  0.00    -0.248 NA
ATOM     54  C   UNL A   1      42.770  26.986  29.418  1.00  0.00     0.031 C 
ATOM     55  C   UNL A   1      44.784  31.457  32.989  1.00  0.00     0.029 A 
ATOM     56  C   UNL A   1      43.998  30.687  32.148  1.00  0.00     0.049 A 
ATOM     57  H   UNL A   1      42.115  31.131  31.305  1.00  0.00     0.167 HD
ATOM     58  C   UNL A   1      43.441  28.701  30.780  1.00  0.00     0.074 A 
ATOM     59  C   UNL A   1      43.723  27.383  30.249  1.00  0.00     0.031 C 
ATOM     60  C   UNL A   1      44.264  29.373  31.622  1.00  0.00     0.031 A 
BRANCH  47  61
ATOM     61  C   UNL A   1      42.140  34.948  33.210  1.00  0.00    -0.014 A 
ATOM     62  C   UNL A   1      41.525  35.199  34.448  1.00  0.00     0.009 A 
ATOM     63  C   UNL A   1      42.992  35.920  32.664  1.00  0.00     0.009 A 
ATOM     64  C   UNL A   1      41.732  36.414  35.105  1.00  0.00     0.001 A 
ATOM     65  C   UNL A   1      43.219  37.121  33.337  1.00  0.00     0.001 A 
ATOM     66  C   UNL A   1      42.581  37.371  34.552  1.00  0.00     0.000 A 
ENDBRANCH  47  61
BRANCH  48  67
ATOM     67  C   UNL A   1      40.247  26.678  27.999  1.00  0.00    -0.014 A 
ATOM     68  C   UNL A   1      40.746  26.505  26.699  1.00  0.00     0.009 A 
ATOM     69  C   UNL A   1      39.452  25.668  28.561  1.00  0.00     0.009 A 
ATOM     70  C   UNL A   1      40.425  25.361  25.964  1.00  0.00     0.001 A 
ATOM     71  C   UNL A   1      39.155  24.514  27.833  1.00  0.00     0.001 A 
ATOM     72  C   UNL A   1      39.632  24.366  26.533  1.00  0.00     0.000 A 
ENDBRANCH  48  67
BRANCH  60  73
ATOM     73  C   UNL A   1      45.521  28.678  32.068  1.00  0.00    -0.014 A 
ATOM     74  C   UNL A   1      45.557  27.898  33.233  1.00  0.00     0.009 A 
ATOM     75  C   UNL A   1      46.680  28.777  31.281  1.00  0.00     0.009 A 
ATOM     76  C   UNL A   1      46.740  27.265  33.623  1.00  0.00     0.001 A 
ATOM     77  C   UNL A   1      47.852  28.118  31.656  1.00  0.00     0.001 A 
ATOM     78  C   UNL A   1      47.884  27.373  32.833  1.00  0.00     0.000 A 
ENDBRANCH  60  73
ENDBRANCH  34  35
ENDBRANCH  27  29
ENDBRANCH  26  27
ENDBRANCH  25  26
ENDBRANCH   1  25
TORSDOF 15
ENDMDL
MODEL 3
REMARK VINA RESULT:      -8.5      5.511      8.398
REMARK SMILES O=C(Cc1ccccc1Nc1c(Cl)cccc1C(F)(F)F)OCCOC(=O)c1ccc(-c2c3nc(c(-c4ccccc4)c4ccc([nH]4)c(-c4ccccc4)c4nc(c(-c5ccccc5)c5ccc2[nH]5)C=C4)C=C3)cc1
REMARK SMILES IDX 23 1 22 2 2 3 1 4 3 5 4 6 5 7 9 8 6 9 8 10 7 11 10 12 11 14
REMARK SMILES IDX 12 15 17 16 13 17 14 18 16 19 15 20 18 21 19 22 20 23 21 24
REMARK SMILES IDX 24 25 25 26 26 27 27 28 28 29 29 30 75 31 30 32 74 33 31 34
REMARK SMILES IDX 32 35 33 36 68 37 34 38 73 39 67 40 69 41 35 42 72 43 66 44
REMARK SMILES IDX 65 45 36 47 58 48 43 49 57 50 44 51 47 52 56 53 70 54 45 55
REMARK SMILES IDX 46 56 55 58 71 59 48 60 37 61 38 62 42 63 39 64 41 65 40 66
REMARK SMILES IDX 59 67 60 68 64 69 61 70 63 71 62 72 49 73 50 74 54 75 51 76
REMARK SMILES IDX 53 77 52 78
REMARK H PARENT 10 13 69 46 47 57
REMARK Flexibility Score: inf
ROOT
ATOM      1  C   UNL A   1      36.109  20.835  25.044  1.00  0.00     0.274 C 
ENDROOT
BRANCH   1   2
ATOM      2  O   UNL A   1      35.848  22.159  25.544  1.00  0.00    -0.462 OA
BRANCH   2   3
ATOM      3  C   UNL A   1      35.123  23.039  24.792  1.00  0.00     0.310 C 
ATOM      4  O   UNL A   1      35.127  22.958  23.566  1.00  0.00    -0.252 OA
BRANCH   3   5
ATOM      5  C   UNL A   1      34.559  24.240  25.524  1.00  0.00     0.160 C 
BRANCH   5   6
ATOM      6  C   UNL A   1      33.112  24.148  25.947  1.00  0.00    -0.013 A 
ATOM      7  C   UNL A   1      32.649  22.961  26.537  1.00  0.00     0.006 A 
ATOM      8  C   UNL A   1      32.211  25.212  25.731  1.00  0.00     0.042 A 
ATOM      9  C   UNL A   1      31.302  22.807  26.859  1.00  0.00     0.000 A 
ATOM     10  C   UNL A   1      30.858  25.032  26.039  1.00  0.00     0.026 A 
ATOM     11  C   UNL A   1      30.405  23.839  26.602  1.00  0.00     0.002 A 
BRANCH   8  12
ATOM     12  N   UNL A   1      32.628  26.373  25.051  1.00  0.00    -0.354 N 
ATOM     13  H   UNL A   1      33.592  26.560  25.111  1.00  0.00     0.167 HD
BRANCH  12  14
ATOM     14  C   UNL A   1      31.890  27.319  24.297  1.00  0.00     0.070 A 
ATOM     15  C   UNL A   1      31.454  28.497  24.956  1.00  0.00     0.065 A 
ATOM     16  C   UNL A   1      31.507  27.135  22.951  1.00  0.00     0.080 A 
ATOM     17  Cl  UNL A   1      31.792  28.734  26.641  1.00  0.00    -0.082 Cl
ATOM     18  C   UNL A   1      30.730  29.490  24.297  1.00  0.00     0.023 A 
ATOM     19  C   UNL A   1      30.797  28.167  22.294  1.00  0.00     0.015 A 
ATOM     20  C   UNL A   1      30.416  29.333  22.955  1.00  0.00     0.002 A 
BRANCH  16  21
ATOM     21  C   UNL A   1      31.745  25.859  22.175  1.00  0.00     0.418 C 
ATOM     22  F   UNL A   1      33.064  25.489  22.184  1.00  0.00    -0.166 F 
ATOM     23  F   UNL A   1      31.079  24.788  22.681  1.00  0.00    -0.166 F 
ATOM     24  F   UNL A   1      31.430  25.953  20.856  1.00  0.00    -0.166 F 
ENDBRANCH  16  21
ENDBRANCH  12  14
ENDBRANCH   8  12
ENDBRANCH   5   6
ENDBRANCH   3   5
ENDBRANCH   2   3
ENDBRANCH   1   2
BRANCH   1  25
ATOM     25  C   UNL A   1      37.599  20.493  24.928  1.00  0.00     0.275 C 
BRANCH  25  26
ATOM     26  O   UNL A   1      38.427  21.629  25.221  1.00  0.00    -0.458 OA
BRANCH  26  27
ATOM     27  C   UNL A   1      39.438  21.351  26.080  1.00  0.00     0.338 C 
ATOM     28  O   UNL A   1      40.092  20.320  26.126  1.00  0.00    -0.246 OA
BRANCH  27  29
ATOM     29  C   UNL A   1      39.781  22.548  26.872  1.00  0.00     0.060 A 
ATOM     30  C   UNL A   1      39.057  23.715  26.602  1.00  0.00     0.016 A 
ATOM     31  C   UNL A   1      40.809  22.558  27.821  1.00  0.00     0.016 A 
ATOM     32  C   UNL A   1      39.424  24.917  27.200  1.00  0.00     0.010 A 
ATOM     33  C   UNL A   1      41.175  23.768  28.427  1.00  0.00     0.010 A 
ATOM     34  C   UNL A   1      40.524  24.962  28.066  1.00  0.00    -0.014 A 
BRANCH  34  35
ATOM     35  C   UNL A   1      41.116  26.287  28.377  1.00  0.00     0.031 A 
ATOM     36  C   UNL A   1      42.451  26.635  27.765  1.00  0.00     0.074 A 
ATOM     37  C   UNL A   1      40.450  27.210  29.094  1.00  0.00     0.049 A 
ATOM     38  N   UNL A   1      43.091  27.776  27.762  1.00  0.00    -0.248 NA
ATOM     39  C   UNL A   1      43.152  25.550  27.058  1.00  0.00     0.031 C 
ATOM     40  C   UNL A   1      39.140  27.020  29.714  1.00  0.00     0.029 A 
ATOM     41  N   UNL A   1      40.785  28.506  29.397  1.00  0.00    -0.354 N 
ATOM     42  C   UNL A   1      44.259  27.549  27.044  1.00  0.00     0.074 A 
ATOM     43  C   UNL A   1      44.265  26.152  26.672  1.00  0.00     0.031 C 
ATOM     44  C   UNL A   1      38.774  28.168  30.313  1.00  0.00     0.029 A 
ATOM     45  C   UNL A   1      39.826  29.168  30.123  1.00  0.00     0.049 A 
ATOM     46  H   UNL A   1      41.634  28.922  29.120  1.00  0.00     0.167 HD
ATOM     47  C   UNL A   1      45.236  28.424  26.705  1.00  0.00     0.031 A 
ATOM     48  C   UNL A   1      39.794  30.438  30.570  1.00  0.00     0.031 A 
ATOM     49  C   UNL A   1      45.250  29.810  27.082  1.00  0.00     0.049 A 
ATOM     50  C   UNL A   1      40.925  31.376  30.236  1.00  0.00     0.074 A 
ATOM     51  C   UNL A   1      46.190  30.778  26.771  1.00  0.00     0.029 A 
ATOM     52  N   UNL A   1      44.283  30.423  27.862  1.00  0.00    -0.354 N 
ATOM     53  N   UNL A   1      41.993  31.164  29.505  1.00  0.00    -0.248 NA
ATOM     54  C   UNL A   1      40.827  32.743  30.771  1.00  0.00     0.031 C 
ATOM     55  C   UNL A   1      45.817  31.966  27.409  1.00  0.00     0.029 A 
ATOM     56  C   UNL A   1      44.617  31.751  28.065  1.00  0.00     0.049 A 
ATOM     57  H   UNL A   1      43.479  29.980  28.218  1.00  0.00     0.167 HD
ATOM     58  C   UNL A   1      42.669  32.378  29.457  1.00  0.00     0.074 A 
ATOM     59  C   UNL A   1      41.887  33.324  30.227  1.00  0.00     0.031 C 
ATOM     60  C   UNL A   1      43.828  32.686  28.825  1.00  0.00     0.031 A 
BRANCH  47  61
ATOM     61  C   UNL A   1      46.387  27.887  25.904  1.00  0.00    -0.014 A 
ATOM     62  C   UNL A   1      46.405  27.981  24.502  1.00  0.00     0.009 A 
ATOM     63  C   UNL A   1      47.473  27.289  26.559  1.00  0.00     0.009 A 
ATOM     64  C   UNL A   1      47.473  27.453  23.774  1.00  0.00     0.001 A 
ATOM     65  C   UNL A   1      48.552  26.787  25.830  1.00  0.00     0.001 A 
ATOM     66  C   UNL A   1      48.546  26.861  24.437  1.00  0.00     0.000 A 
ENDBRANCH  47  61
BRANCH  48  67
ATOM     67  C   UNL A   1      38.639  30.920  31.372  1.00  0.00    -0.014 A 
ATOM     68  C   UNL A   1      38.631  30.784  32.769  1.00  0.00     0.009 A 
ATOM     69  C   UNL A   1      37.519  31.478  30.738  1.00  0.00     0.009 A 
ATOM     70  C   UNL A   1      37.509  31.166  33.511  1.00  0.00     0.001 A 
ATOM     71  C   UNL A   1      36.411  31.882  31.484  1.00  0.00     0.001 A 
ATOM     72  C   UNL A   1      36.402  31.716  32.867  1.00  0.00     0.000 A 
ENDBRANCH  48  67
BRANCH  60  73
ATOM     73  C   UNL A   1      44.296  34.114  28.889  1.00  0.00    -0.014 A 
ATOM     74  C   UNL A   1      43.895  35.063  27.937  1.00  0.00     0.009 A 
ATOM     75  C   UNL A   1      45.126  34.521  29.947  1.00  0.00     0.009 A 
ATOM     76  C   UNL A   1      44.348  36.382  28.022  1.00  0.00     0.001 A 
ATOM     77  C   UNL A   1      45.552  35.846  30.046  1.00  0.00     0.001 A 
ATOM     78  C   UNL A   1      45.172  36.773  29.077  1.00  0.00     0.000 A 
ENDBRANCH  60  73
ENDBRANCH  34  35
ENDBRANCH  27  29
ENDBRANCH  26  27
ENDBRANCH  25  26
ENDBRANCH   1  25
TORSDOF 15
ENDMDL
