MODEL 1
REMARK VINA RESULT:     -11.3      0.000      0.000
REMARK SMILES C[C@H]1[C@H](C(=O)OCCOC(=O)c2ccc(-c3c4nc(c(-c5ccccc5)c5ccc([nH]5)c(-c5ccccc5)c5nc(c(-c6ccccc6)c6ccc3[nH]6)C=C5)C=C4)cc2)CCN1C(=O)Nc1ccc(F)cc1
REMARK SMILES IDX 7 1 6 2 4 3 5 4 3 5 1 6 2 7 62 8 60 9 61 10 63 11 64 12
REMARK SMILES IDX 65 13 66 15 67 16 72 17 68 18 71 19 69 20 70 21 8 22 9 23
REMARK SMILES IDX 10 24 11 25 12 26 13 27 59 28 14 29 58 30 15 31 16 32 17 33
REMARK SMILES IDX 52 34 18 35 57 36 51 37 53 38 19 39 56 40 50 41 49 42 20 44
REMARK SMILES IDX 42 45 27 46 41 47 28 48 31 49 40 50 54 51 29 52 30 53 39 55
REMARK SMILES IDX 55 56 32 57 21 58 22 59 26 60 23 61 25 62 24 63 43 64 44 65
REMARK SMILES IDX 48 66 45 67 47 68 46 69 33 70 34 71 38 72 35 73 37 74 36 75
REMARK H PARENT 65 14 53 43 31 54
REMARK Flexibility Score: inf
ROOT
ATOM      1  C   UNL A   1      36.659  23.016  23.645  1.00  0.00     0.274 C 
ENDROOT
BRANCH   1   2
ATOM      2  O   UNL A   1      35.541  22.954  22.736  1.00  0.00    -0.462 OA
BRANCH   2   3
ATOM      3  C   UNL A   1      34.400  23.570  23.139  1.00  0.00     0.311 C 
ATOM      4  O   UNL A   1      34.002  24.648  22.712  1.00  0.00    -0.252 OA
BRANCH   3   5
ATOM      5  C   UNL A   1      33.672  22.825  24.239  1.00  0.00     0.123 C 
ATOM      6  C   UNL A   1      34.083  23.225  26.706  1.00  0.00     0.032 C 
ATOM      7  C   UNL A   1      33.297  23.679  25.471  1.00  0.00     0.098 C 
ATOM      8  N   UNL A   1      31.852  23.481  25.647  1.00  0.00    -0.321 N 
ATOM      9  C   UNL A   1      32.360  22.263  23.701  1.00  0.00     0.039 C 
ATOM     10  C   UNL A   1      31.420  22.326  24.884  1.00  0.00     0.122 C 
BRANCH   8  11
ATOM     11  C   UNL A   1      30.975  24.028  26.543  1.00  0.00     0.322 C 
ATOM     12  O   UNL A   1      30.483  23.340  27.446  1.00  0.00    -0.248 OA
ATOM     13  N   UNL A   1      30.731  25.359  26.601  1.00  0.00    -0.308 N 
ATOM     14  H   UNL A   1      30.524  25.668  27.512  1.00  0.00     0.171 HD
BRANCH  13  15
ATOM     15  C   UNL A   1      30.702  26.393  25.660  1.00  0.00     0.043 A 
ATOM     16  C   UNL A   1      29.852  26.226  24.558  1.00  0.00     0.029 A 
ATOM     17  C   UNL A   1      31.506  27.530  25.741  1.00  0.00     0.029 A 
ATOM     18  C   UNL A   1      29.721  27.239  23.608  1.00  0.00     0.041 A 
ATOM     19  C   UNL A   1      31.383  28.540  24.782  1.00  0.00     0.041 A 
ATOM     20  C   UNL A   1      30.477  28.395  23.738  1.00  0.00     0.123 A 
ATOM     21  F   UNL A   1      30.336  29.381  22.841  1.00  0.00    -0.207 F 
ENDBRANCH  13  15
ENDBRANCH   8  11
ENDBRANCH   3   5
ENDBRANCH   2   3
ENDBRANCH   1   2
BRANCH   1  22
ATOM     22  C   UNL A   1      36.965  21.653  24.274  1.00  0.00     0.275 C 
BRANCH  22  23
ATOM     23  O   UNL A   1      37.293  21.766  25.671  1.00  0.00    -0.458 OA
BRANCH  23  24
ATOM     24  C   UNL A   1      38.575  21.468  25.977  1.00  0.00     0.338 C 
ATOM     25  O   UNL A   1      39.172  20.431  25.752  1.00  0.00    -0.246 OA
BRANCH  24  26
ATOM     26  C   UNL A   1      39.245  22.647  26.532  1.00  0.00     0.060 A 
ATOM     27  C   UNL A   1      38.774  23.909  26.158  1.00  0.00     0.016 A 
ATOM     28  C   UNL A   1      40.391  22.513  27.315  1.00  0.00     0.016 A 
ATOM     29  C   UNL A   1      39.458  25.052  26.549  1.00  0.00     0.010 A 
ATOM     30  C   UNL A   1      41.067  23.663  27.722  1.00  0.00     0.010 A 
ATOM     31  C   UNL A   1      40.610  24.934  27.331  1.00  0.00    -0.014 A 
BRANCH  31  32
ATOM     32  C   UNL A   1      41.357  26.142  27.734  1.00  0.00     0.031 A 
ATOM     33  C   UNL A   1      40.710  27.155  28.628  1.00  0.00     0.074 A 
ATOM     34  C   UNL A   1      42.607  26.330  27.274  1.00  0.00     0.049 A 
ATOM     35  N   UNL A   1      41.120  28.355  28.945  1.00  0.00    -0.248 NA
ATOM     36  C   UNL A   1      39.432  26.766  29.245  1.00  0.00     0.031 C 
ATOM     37  C   UNL A   1      43.359  25.378  26.455  1.00  0.00     0.029 A 
ATOM     38  N   UNL A   1      43.455  27.396  27.419  1.00  0.00    -0.354 N 
ATOM     39  C   UNL A   1      40.137  28.879  29.773  1.00  0.00     0.074 A 
ATOM     40  C   UNL A   1      39.111  27.867  29.912  1.00  0.00     0.031 C 
ATOM     41  C   UNL A   1      44.555  25.911  26.156  1.00  0.00     0.029 A 
ATOM     42  C   UNL A   1      44.623  27.259  26.711  1.00  0.00     0.049 A 
ATOM     43  H   UNL A   1      43.247  28.182  27.974  1.00  0.00     0.167 HD
ATOM     44  C   UNL A   1      40.093  30.101  30.352  1.00  0.00     0.031 A 
ATOM     45  C   UNL A   1      45.615  28.142  26.494  1.00  0.00     0.031 A 
ATOM     46  C   UNL A   1      41.118  31.100  30.203  1.00  0.00     0.049 A 
ATOM     47  C   UNL A   1      45.508  29.518  27.084  1.00  0.00     0.074 A 
ATOM     48  C   UNL A   1      41.168  32.373  30.742  1.00  0.00     0.029 A 
ATOM     49  N   UNL A   1      42.276  30.931  29.460  1.00  0.00    -0.354 N 
ATOM     50  N   UNL A   1      44.558  30.020  27.836  1.00  0.00    -0.248 NA
ATOM     51  C   UNL A   1      46.601  30.453  26.784  1.00  0.00     0.031 C 
ATOM     52  C   UNL A   1      42.341  32.989  30.294  1.00  0.00     0.029 A 
ATOM     53  C   UNL A   1      43.041  32.083  29.512  1.00  0.00     0.049 A 
ATOM     54  H   UNL A   1      42.518  30.113  28.970  1.00  0.00     0.167 HD
ATOM     55  C   UNL A   1      44.948  31.322  28.117  1.00  0.00     0.074 A 
ATOM     56  C   UNL A   1      46.222  31.531  27.460  1.00  0.00     0.031 C 
ATOM     57  C   UNL A   1      44.308  32.261  28.855  1.00  0.00     0.031 A 
BRANCH  44  58
ATOM     58  C   UNL A   1      38.874  30.440  31.157  1.00  0.00    -0.014 A 
ATOM     59  C   UNL A   1      38.832  30.230  32.543  1.00  0.00     0.009 A 
ATOM     60  C   UNL A   1      37.758  31.003  30.519  1.00  0.00     0.009 A 
ATOM     61  C   UNL A   1      37.686  30.556  33.272  1.00  0.00     0.001 A 
ATOM     62  C   UNL A   1      36.621  31.346  31.252  1.00  0.00     0.001 A 
ATOM     63  C   UNL A   1      36.583  31.116  32.626  1.00  0.00     0.000 A 
ENDBRANCH  44  58
BRANCH  45  64
ATOM     64  C   UNL A   1      46.765  27.760  25.638  1.00  0.00    -0.014 A 
ATOM     65  C   UNL A   1      47.896  27.147  26.195  1.00  0.00     0.009 A 
ATOM     66  C   UNL A   1      46.726  27.989  24.254  1.00  0.00     0.009 A 
ATOM     67  C   UNL A   1      48.972  26.783  25.382  1.00  0.00     0.001 A 
ATOM     68  C   UNL A   1      47.793  27.602  23.441  1.00  0.00     0.001 A 
ATOM     69  C   UNL A   1      48.917  27.004  24.006  1.00  0.00     0.000 A 
ENDBRANCH  45  64
BRANCH  57  70
ATOM     70  C   UNL A   1      44.996  33.582  29.023  1.00  0.00    -0.014 A 
ATOM     71  C   UNL A   1      44.744  34.647  28.146  1.00  0.00     0.009 A 
ATOM     72  C   UNL A   1      45.863  33.777  30.110  1.00  0.00     0.009 A 
ATOM     73  C   UNL A   1      45.365  35.882  28.345  1.00  0.00     0.001 A 
ATOM     74  C   UNL A   1      46.466  35.017  30.316  1.00  0.00     0.001 A 
ATOM     75  C   UNL A   1      46.221  36.067  29.432  1.00  0.00     0.000 A 
ENDBRANCH  57  70
ENDBRANCH  31  32
ENDBRANCH  24  26
ENDBRANCH  23  24
ENDBRANCH  22  23
ENDBRANCH   1  22
TORSDOF 13
ENDMDL
MODEL 2
REMARK VINA RESULT:     -11.1      3.125      4.568
REMARK SMILES C[C@H]1[C@H](C(=O)OCCOC(=O)c2ccc(-c3c4nc(c(-c5ccccc5)c5ccc([nH]5)c(-c5ccccc5)c5nc(c(-c6ccccc6)c6ccc3[nH]6)C=C5)C=C4)cc2)CCN1C(=O)Nc1ccc(F)cc1
REMARK SMILES IDX 7 1 6 2 4 3 5 4 3 5 1 6 2 7 62 8 60 9 61 10 63 11 64 12
REMARK SMILES IDX 65 13 66 15 67 16 72 17 68 18 71 19 69 20 70 21 8 22 9 23
REMARK SMILES IDX 10 24 11 25 12 26 13 27 59 28 14 29 58 30 15 31 16 32 17 33
REMARK SMILES IDX 52 34 18 35 57 36 51 37 53 38 19 39 56 40 50 41 49 42 20 44
REMARK SMILES IDX 42 45 27 46 41 47 28 48 31 49 40 50 54 51 29 52 30 53 39 55
REMARK SMILES IDX 55 56 32 57 21 58 22 59 26 60 23 61 25 62 24 63 43 64 44 65
REMARK SMILES IDX 48 66 45 67 47 68 46 69 33 70 34 71 38 72 35 73 37 74 36 75
REMARK H PARENT 65 14 53 43 31 54
REMARK Flexibility Score: inf
ROOT
ATOM      1  C   UNL A   1      38.056  20.055  24.680  1.00  0.00     0.274 C 
ENDROOT
BRANCH   1   2
ATOM      2  O   UNL A   1      36.953  20.578  25.448  1.00  0.00    -0.462 OA
BRANCH   2   3
ATOM      3  C   UNL A   1      36.876  21.930  25.551  1.00  0.00     0.311 C 
ATOM      4  O   UNL A   1      37.835  22.672  25.728  1.00  0.00    -0.252 OA
BRANCH   3   5
ATOM      5  C   UNL A   1      35.456  22.455  25.492  1.00  0.00     0.123 C 
ATOM      6  C   UNL A   1      34.491  23.642  23.473  1.00  0.00     0.032 C 
ATOM      7  C   UNL A   1      34.750  22.281  24.128  1.00  0.00     0.098 C 
ATOM      8  N   UNL A   1      33.497  21.580  24.434  1.00  0.00    -0.321 N 
ATOM      9  C   UNL A   1      34.590  21.721  26.511  1.00  0.00     0.039 C 
ATOM     10  C   UNL A   1      33.228  21.656  25.857  1.00  0.00     0.122 C 
BRANCH   8  11
ATOM     11  C   UNL A   1      32.503  21.119  23.614  1.00  0.00     0.322 C 
ATOM     12  O   UNL A   1      31.730  21.906  23.055  1.00  0.00    -0.248 OA
ATOM     13  N   UNL A   1      32.416  19.821  23.237  1.00  0.00    -0.308 N 
ATOM     14  H   UNL A   1      32.037  19.711  22.335  1.00  0.00     0.171 HD
BRANCH  13  15
ATOM     15  C   UNL A   1      32.740  18.601  23.839  1.00  0.00     0.043 A 
ATOM     16  C   UNL A   1      33.392  17.652  23.041  1.00  0.00     0.029 A 
ATOM     17  C   UNL A   1      32.398  18.276  25.152  1.00  0.00     0.029 A 
ATOM     18  C   UNL A   1      33.803  16.435  23.585  1.00  0.00     0.041 A 
ATOM     19  C   UNL A   1      32.800  17.051  25.694  1.00  0.00     0.041 A 
ATOM     20  C   UNL A   1      33.517  16.152  24.913  1.00  0.00     0.123 A 
ATOM     21  F   UNL A   1      33.931  14.994  25.445  1.00  0.00    -0.207 F 
ENDBRANCH  13  15
ENDBRANCH   8  11
ENDBRANCH   3   5
ENDBRANCH   2   3
ENDBRANCH   1   2
BRANCH   1  22
ATOM     22  C   UNL A   1      38.968  19.156  25.521  1.00  0.00     0.275 C 
BRANCH  22  23
ATOM     23  O   UNL A   1      39.822  19.920  26.392  1.00  0.00    -0.458 OA
BRANCH  23  24
ATOM     24  C   UNL A   1      41.145  19.779  26.153  1.00  0.00     0.338 C 
ATOM     25  O   UNL A   1      41.710  18.836  25.631  1.00  0.00    -0.246 OA
BRANCH  24  26
ATOM     26  C   UNL A   1      41.851  21.016  26.499  1.00  0.00     0.060 A 
ATOM     27  C   UNL A   1      42.136  21.256  27.846  1.00  0.00     0.016 A 
ATOM     28  C   UNL A   1      42.124  21.976  25.526  1.00  0.00     0.016 A 
ATOM     29  C   UNL A   1      42.681  22.472  28.237  1.00  0.00     0.010 A 
ATOM     30  C   UNL A   1      42.689  23.190  25.917  1.00  0.00     0.010 A 
ATOM     31  C   UNL A   1      42.958  23.447  27.273  1.00  0.00    -0.014 A 
BRANCH  31  32
ATOM     32  C   UNL A   1      43.517  24.751  27.679  1.00  0.00     0.031 A 
ATOM     33  C   UNL A   1      42.603  25.833  28.169  1.00  0.00     0.074 A 
ATOM     34  C   UNL A   1      44.841  24.961  27.584  1.00  0.00     0.049 A 
ATOM     35  N   UNL A   1      42.866  27.093  28.396  1.00  0.00    -0.248 NA
ATOM     36  C   UNL A   1      41.209  25.444  28.436  1.00  0.00     0.031 C 
ATOM     37  C   UNL A   1      45.831  23.959  27.187  1.00  0.00     0.029 A 
ATOM     38  N   UNL A   1      45.578  26.096  27.800  1.00  0.00    -0.354 N 
ATOM     39  C   UNL A   1      41.665  27.657  28.802  1.00  0.00     0.074 A 
ATOM     40  C   UNL A   1      40.672  26.604  28.793  1.00  0.00     0.031 C 
ATOM     41  C   UNL A   1      47.046  24.529  27.172  1.00  0.00     0.029 A 
ATOM     42  C   UNL A   1      46.908  25.944  27.499  1.00  0.00     0.049 A 
ATOM     43  H   UNL A   1      45.191  26.937  28.135  1.00  0.00     0.167 HD
ATOM     44  C   UNL A   1      41.416  28.945  29.139  1.00  0.00     0.031 A 
ATOM     45  C   UNL A   1      47.896  26.856  27.446  1.00  0.00     0.031 A 
ATOM     46  C   UNL A   1      42.411  29.983  29.141  1.00  0.00     0.049 A 
ATOM     47  C   UNL A   1      47.579  28.292  27.749  1.00  0.00     0.074 A 
ATOM     48  C   UNL A   1      42.262  31.322  29.459  1.00  0.00     0.029 A 
ATOM     49  N   UNL A   1      43.744  29.793  28.810  1.00  0.00    -0.354 N 
ATOM     50  N   UNL A   1      46.433  28.827  28.098  1.00  0.00    -0.248 NA
ATOM     51  C   UNL A   1      48.687  29.252  27.640  1.00  0.00     0.031 C 
ATOM     52  C   UNL A   1      43.499  31.950  29.285  1.00  0.00     0.029 A 
ATOM     53  C   UNL A   1      44.426  30.994  28.899  1.00  0.00     0.049 A 
ATOM     54  H   UNL A   1      44.144  28.933  28.550  1.00  0.00     0.167 HD
ATOM     55  C   UNL A   1      46.685  30.181  28.268  1.00  0.00     0.074 A 
ATOM     56  C   UNL A   1      48.093  30.385  27.992  1.00  0.00     0.031 C 
ATOM     57  C   UNL A   1      45.827  31.168  28.625  1.00  0.00     0.031 A 
BRANCH  44  58
ATOM     58  C   UNL A   1      40.002  29.306  29.484  1.00  0.00    -0.014 A 
ATOM     59  C   UNL A   1      39.079  29.670  28.493  1.00  0.00     0.009 A 
ATOM     60  C   UNL A   1      39.581  29.255  30.822  1.00  0.00     0.009 A 
ATOM     61  C   UNL A   1      37.766  30.000  28.838  1.00  0.00     0.001 A 
ATOM     62  C   UNL A   1      38.264  29.566  31.162  1.00  0.00     0.001 A 
ATOM     63  C   UNL A   1      37.360  29.945  30.172  1.00  0.00     0.000 A 
ENDBRANCH  44  58
BRANCH  45  64
ATOM     64  C   UNL A   1      49.260  26.441  27.039  1.00  0.00    -0.014 A 
ATOM     65  C   UNL A   1      50.166  25.942  27.987  1.00  0.00     0.009 A 
ATOM     66  C   UNL A   1      49.656  26.520  25.695  1.00  0.00     0.009 A 
ATOM     67  C   UNL A   1      51.447  25.544  27.595  1.00  0.00     0.001 A 
ATOM     68  C   UNL A   1      50.928  26.099  25.304  1.00  0.00     0.001 A 
ATOM     69  C   UNL A   1      51.824  25.617  26.255  1.00  0.00     0.000 A 
ENDBRANCH  45  64
BRANCH  57  70
ATOM     70  C   UNL A   1      46.398  32.546  28.775  1.00  0.00    -0.014 A 
ATOM     71  C   UNL A   1      46.398  33.450  27.703  1.00  0.00     0.009 A 
ATOM     72  C   UNL A   1      46.887  32.960  30.023  1.00  0.00     0.009 A 
ATOM     73  C   UNL A   1      46.896  34.743  27.876  1.00  0.00     0.001 A 
ATOM     74  C   UNL A   1      47.367  34.258  30.197  1.00  0.00     0.001 A 
ATOM     75  C   UNL A   1      47.376  35.146  29.123  1.00  0.00     0.000 A 
ENDBRANCH  57  70
ENDBRANCH  31  32
ENDBRANCH  24  26
ENDBRANCH  23  24
ENDBRANCH  22  23
ENDBRANCH   1  22
TORSDOF 13
ENDMDL
MODEL 3
REMARK VINA RESULT:     -11.1      3.017      7.371
REMARK SMILES C[C@H]1[C@H](C(=O)OCCOC(=O)c2ccc(-c3c4nc(c(-c5ccccc5)c5ccc([nH]5)c(-c5ccccc5)c5nc(c(-c6ccccc6)c6ccc3[nH]6)C=C5)C=C4)cc2)CCN1C(=O)Nc1ccc(F)cc1
REMARK SMILES IDX 7 1 6 2 4 3 5 4 3 5 1 6 2 7 62 8 60 9 61 10 63 11 64 12
REMARK SMILES IDX 65 13 66 15 67 16 72 17 68 18 71 19 69 20 70 21 8 22 9 23
REMARK SMILES IDX 10 24 11 25 12 26 13 27 59 28 14 29 58 30 15 31 16 32 17 33
REMARK SMILES IDX 52 34 18 35 57 36 51 37 53 38 19 39 56 40 50 41 49 42 20 44
REMARK SMILES IDX 42 45 27 46 41 47 28 48 31 49 40 50 54 51 29 52 30 53 39 55
REMARK SMILES IDX 55 56 32 57 21 58 22 59 26 60 23 61 25 62 24 63 43 64 44 65
REMARK SMILES IDX 48 66 45 67 47 68 46 69 33 70 34 71 38 72 35 73 37 74 36 75
REMARK H PARENT 65 14 53 43 31 54
REMARK Flexibility Score: inf
ROOT
ATOM      1  C   UNL A   1      38.321  19.580  24.914  1.00  0.00     0.274 C 
ENDROOT
BRANCH   1   2
ATOM      2  O   UNL A   1      37.098  20.207  25.350  1.00  0.00    -0.462 OA
BRANCH   2   3
ATOM      3  C   UNL A   1      37.104  21.564  25.416  1.00  0.00     0.311 C 
ATOM      4  O   UNL A   1      38.114  22.252  25.512  1.00  0.00    -0.252 OA
BRANCH   3   5
ATOM      5  C   UNL A   1      35.717  22.171  25.425  1.00  0.00     0.123 C 
ATOM      6  C   UNL A   1      34.711  23.386  23.444  1.00  0.00     0.032 C 
ATOM      7  C   UNL A   1      34.927  22.020  24.106  1.00  0.00     0.098 C 
ATOM      8  N   UNL A   1      33.654  21.398  24.490  1.00  0.00    -0.321 N 
ATOM      9  C   UNL A   1      34.867  21.501  26.502  1.00  0.00     0.039 C 
ATOM     10  C   UNL A   1      33.470  21.508  25.924  1.00  0.00     0.122 C 
BRANCH   8  11
ATOM     11  C   UNL A   1      32.592  20.986  23.733  1.00  0.00     0.322 C 
ATOM     12  O   UNL A   1      31.779  21.804  23.286  1.00  0.00    -0.248 OA
ATOM     13  N   UNL A   1      32.464  19.711  23.295  1.00  0.00    -0.308 N 
ATOM     14  H   UNL A   1      32.009  19.652  22.423  1.00  0.00     0.171 HD
BRANCH  13  15
ATOM     15  C   UNL A   1      32.828  18.458  23.799  1.00  0.00     0.043 A 
ATOM     16  C   UNL A   1      32.352  18.124  25.074  1.00  0.00     0.029 A 
ATOM     17  C   UNL A   1      33.671  17.574  23.126  1.00  0.00     0.029 A 
ATOM     18  C   UNL A   1      32.621  16.869  25.620  1.00  0.00     0.041 A 
ATOM     19  C   UNL A   1      33.950  16.319  23.679  1.00  0.00     0.041 A 
ATOM     20  C   UNL A   1      33.405  15.971  24.910  1.00  0.00     0.123 A 
ATOM     21  F   UNL A   1      33.644  14.756  25.421  1.00  0.00    -0.207 F 
ENDBRANCH  13  15
ENDBRANCH   8  11
ENDBRANCH   3   5
ENDBRANCH   2   3
ENDBRANCH   1   2
BRANCH   1  22
ATOM     22  C   UNL A   1      39.283  19.325  26.078  1.00  0.00     0.275 C 
BRANCH  22  23
ATOM     23  O   UNL A   1      40.641  19.166  25.630  1.00  0.00    -0.458 OA
BRANCH  23  24
ATOM     24  C   UNL A   1      41.581  19.419  26.568  1.00  0.00     0.338 C 
ATOM     25  O   UNL A   1      42.326  18.622  27.107  1.00  0.00    -0.246 OA
BRANCH  24  26
ATOM     26  C   UNL A   1      41.695  20.864  26.787  1.00  0.00     0.060 A 
ATOM     27  C   UNL A   1      41.316  21.718  25.748  1.00  0.00     0.016 A 
ATOM     28  C   UNL A   1      42.274  21.364  27.952  1.00  0.00     0.016 A 
ATOM     29  C   UNL A   1      41.532  23.086  25.857  1.00  0.00     0.010 A 
ATOM     30  C   UNL A   1      42.474  22.739  28.068  1.00  0.00     0.010 A 
ATOM     31  C   UNL A   1      42.115  23.603  27.018  1.00  0.00    -0.014 A 
BRANCH  31  32
ATOM     32  C   UNL A   1      42.370  25.052  27.136  1.00  0.00     0.031 A 
ATOM     33  C   UNL A   1      43.618  25.639  26.550  1.00  0.00     0.074 A 
ATOM     34  C   UNL A   1      41.487  25.827  27.788  1.00  0.00     0.049 A 
ATOM     35  N   UNL A   1      44.113  26.838  26.702  1.00  0.00    -0.248 NA
ATOM     36  C   UNL A   1      44.413  24.758  25.680  1.00  0.00     0.031 C 
ATOM     37  C   UNL A   1      40.207  25.375  28.337  1.00  0.00     0.029 A 
ATOM     38  N   UNL A   1      41.543  27.157  28.114  1.00  0.00    -0.354 N 
ATOM     39  C   UNL A   1      45.295  26.849  25.974  1.00  0.00     0.074 A 
ATOM     40  C   UNL A   1      45.442  25.538  25.378  1.00  0.00     0.031 C 
ATOM     41  C   UNL A   1      39.605  26.409  28.947  1.00  0.00     0.029 A 
ATOM     42  C   UNL A   1      40.483  27.573  28.881  1.00  0.00     0.049 A 
ATOM     43  H   UNL A   1      42.271  27.754  27.827  1.00  0.00     0.167 HD
ATOM     44  C   UNL A   1      46.181  27.862  25.830  1.00  0.00     0.031 A 
ATOM     45  C   UNL A   1      40.270  28.746  29.503  1.00  0.00     0.031 A 
ATOM     46  C   UNL A   1      46.025  29.160  26.430  1.00  0.00     0.049 A 
ATOM     47  C   UNL A   1      41.304  29.829  29.391  1.00  0.00     0.074 A 
ATOM     48  C   UNL A   1      46.867  30.255  26.352  1.00  0.00     0.029 A 
ATOM     49  N   UNL A   1      44.948  29.535  27.218  1.00  0.00    -0.354 N 
ATOM     50  N   UNL A   1      42.436  29.821  28.731  1.00  0.00    -0.248 NA
ATOM     51  C   UNL A   1      41.036  31.077  30.120  1.00  0.00     0.031 C 
ATOM     52  C   UNL A   1      46.317  31.282  27.125  1.00  0.00     0.029 A 
ATOM     53  C   UNL A   1      45.112  30.841  27.648  1.00  0.00     0.049 A 
ATOM     54  H   UNL A   1      44.181  28.959  27.438  1.00  0.00     0.167 HD
ATOM     55  C   UNL A   1      43.009  31.067  28.947  1.00  0.00     0.074 A 
ATOM     56  C   UNL A   1      42.096  31.807  29.795  1.00  0.00     0.031 C 
ATOM     57  C   UNL A   1      44.185  31.555  28.484  1.00  0.00     0.031 A 
BRANCH  44  58
ATOM     58  C   UNL A   1      47.420  27.586  25.031  1.00  0.00    -0.014 A 
ATOM     59  C   UNL A   1      47.468  27.827  23.651  1.00  0.00     0.009 A 
ATOM     60  C   UNL A   1      48.567  27.102  25.680  1.00  0.00     0.009 A 
ATOM     61  C   UNL A   1      48.635  27.564  22.929  1.00  0.00     0.001 A 
ATOM     62  C   UNL A   1      49.737  26.859  24.960  1.00  0.00     0.001 A 
ATOM     63  C   UNL A   1      49.769  27.083  23.585  1.00  0.00     0.000 A 
ENDBRANCH  44  58
BRANCH  45  64
ATOM     64  C   UNL A   1      39.050  28.932  30.325  1.00  0.00    -0.014 A 
ATOM     65  C   UNL A   1      39.049  28.593  31.686  1.00  0.00     0.009 A 
ATOM     66  C   UNL A   1      37.885  29.471  29.756  1.00  0.00     0.009 A 
ATOM     67  C   UNL A   1      37.898  28.779  32.457  1.00  0.00     0.001 A 
ATOM     68  C   UNL A   1      36.745  29.677  30.535  1.00  0.00     0.001 A 
ATOM     69  C   UNL A   1      36.751  29.326  31.883  1.00  0.00     0.000 A 
ENDBRANCH  45  64
BRANCH  57  70
ATOM     70  C   UNL A   1      44.529  32.967  28.851  1.00  0.00    -0.014 A 
ATOM     71  C   UNL A   1      44.211  34.035  27.998  1.00  0.00     0.009 A 
ATOM     72  C   UNL A   1      45.126  33.234  30.092  1.00  0.00     0.009 A 
ATOM     73  C   UNL A   1      44.503  35.346  28.376  1.00  0.00     0.001 A 
ATOM     74  C   UNL A   1      45.399  34.547  30.475  1.00  0.00     0.001 A 
ATOM     75  C   UNL A   1      45.092  35.601  29.616  1.00  0.00     0.000 A 
ENDBRANCH  57  70
ENDBRANCH  31  32
ENDBRANCH  24  26
ENDBRANCH  23  24
ENDBRANCH  22  23
ENDBRANCH   1  22
TORSDOF 13
ENDMDL
