MODEL 1
REMARK VINA RESULT:     -10.9      0.000      0.000
REMARK SMILES N#C[C@H]1CN(c2cc(C(=O)OCCOC(=O)c3ccc(-c4c5nc(c(-c6ccccc6)c6ccc([nH]6)c(-c6ccccc6)c6nc(c(-c7ccccc7)c7ccc4[nH]7)C=C6)C=C5)cc3)c(N)cc2F)CCO1
REMARK SMILES IDX 12 1 11 2 9 3 10 4 8 5 6 6 7 7 68 8 67 9 69 10 65 11 5 12
REMARK SMILES IDX 3 13 4 14 72 15 71 16 70 17 2 18 1 19 66 20 13 23 14 24
REMARK SMILES IDX 15 25 16 26 17 27 18 28 64 29 19 30 63 31 20 32 21 33 22 34
REMARK SMILES IDX 57 35 23 36 62 37 56 38 58 39 24 40 61 41 55 42 54 43 25 45
REMARK SMILES IDX 47 46 32 47 46 48 33 49 36 50 45 51 59 52 34 53 35 54 44 56
REMARK SMILES IDX 60 57 37 58 26 59 27 60 31 61 28 62 30 63 29 64 48 65 49 66
REMARK SMILES IDX 53 67 50 68 52 69 51 70 38 71 39 72 43 73 40 74 42 75 41 76
REMARK H PARENT 66 21 66 22 58 44 36 55
REMARK Flexibility Score: inf
ROOT
ATOM      1  C   UNL A   1      35.017  21.326  25.525  1.00  0.00     0.275 C 
ENDROOT
BRANCH   1   2
ATOM      2  O   UNL A   1      34.393  22.076  24.457  1.00  0.00    -0.458 OA
BRANCH   2   3
ATOM      3  C   UNL A   1      33.048  21.941  24.328  1.00  0.00     0.340 C 
ATOM      4  O   UNL A   1      32.457  20.924  23.997  1.00  0.00    -0.246 OA
BRANCH   3   5
ATOM      5  C   UNL A   1      32.334  23.179  24.744  1.00  0.00     0.085 A 
ATOM      6  C   UNL A   1      31.914  25.549  24.237  1.00  0.00     0.074 A 
ATOM      7  C   UNL A   1      32.490  24.319  23.924  1.00  0.00     0.047 A 
ATOM      8  C   UNL A   1      31.242  25.629  25.459  1.00  0.00     0.148 A 
ATOM      9  C   UNL A   1      31.092  24.520  26.297  1.00  0.00     0.067 A 
ATOM     10  F   UNL A   1      30.725  26.803  25.855  1.00  0.00    -0.205 F 
ATOM     11  C   UNL A   1      31.591  23.263  25.931  1.00  0.00     0.049 A 
BRANCH   6  12
ATOM     12  N   UNL A   1      32.056  26.631  23.400  1.00  0.00    -0.363 N 
ATOM     13  C   UNL A   1      30.999  28.785  22.846  1.00  0.00     0.240 C 
ATOM     14  C   UNL A   1      30.934  27.248  22.674  1.00  0.00     0.164 C 
ATOM     15  O   UNL A   1      32.295  29.286  22.434  1.00  0.00    -0.360 OA
ATOM     16  C   UNL A   1      33.339  28.709  23.239  1.00  0.00     0.183 C 
ATOM     17  C   UNL A   1      33.382  27.179  23.109  1.00  0.00     0.145 C 
BRANCH  13  18
ATOM     18  C   UNL A   1      29.924  29.436  22.077  1.00  0.00     0.096 C 
ATOM     19  N   UNL A   1      29.089  29.911  21.426  1.00  0.00    -0.195 NA
ENDBRANCH  13  18
ENDBRANCH   6  12
BRANCH  11  20
ATOM     20  N   UNL A   1      31.495  22.211  26.843  1.00  0.00    -0.398 N 
ATOM     21  H   UNL A   1      32.260  21.990  27.420  1.00  0.00     0.156 HD
ATOM     22  H   UNL A   1      30.661  21.691  26.908  1.00  0.00     0.156 HD
ENDBRANCH  11  20
ENDBRANCH   3   5
ENDBRANCH   2   3
ENDBRANCH   1   2
BRANCH   1  23
ATOM     23  C   UNL A   1      36.195  20.496  25.010  1.00  0.00     0.275 C 
BRANCH  23  24
ATOM     24  O   UNL A   1      37.355  21.328  24.820  1.00  0.00    -0.458 OA
BRANCH  24  25
ATOM     25  C   UNL A   1      38.456  20.930  25.492  1.00  0.00     0.338 C 
ATOM     26  O   UNL A   1      39.021  19.851  25.426  1.00  0.00    -0.246 OA
BRANCH  25  27
ATOM     27  C   UNL A   1      39.023  22.053  26.250  1.00  0.00     0.060 A 
ATOM     28  C   UNL A   1      38.440  23.292  26.054  1.00  0.00     0.016 A 
ATOM     29  C   UNL A   1      40.232  21.958  26.928  1.00  0.00     0.016 A 
ATOM     30  C   UNL A   1      39.143  24.450  26.356  1.00  0.00     0.010 A 
ATOM     31  C   UNL A   1      40.858  23.130  27.387  1.00  0.00     0.010 A 
ATOM     32  C   UNL A   1      40.360  24.402  27.047  1.00  0.00    -0.014 A 
BRANCH  32  33
ATOM     33  C   UNL A   1      41.090  25.675  27.363  1.00  0.00     0.031 A 
ATOM     34  C   UNL A   1      40.517  26.692  28.329  1.00  0.00     0.074 A 
ATOM     35  C   UNL A   1      42.311  25.916  26.831  1.00  0.00     0.049 A 
ATOM     36  N   UNL A   1      40.943  27.900  28.608  1.00  0.00    -0.248 NA
ATOM     37  C   UNL A   1      39.295  26.311  29.053  1.00  0.00     0.031 C 
ATOM     38  C   UNL A   1      43.031  25.034  25.908  1.00  0.00     0.029 A 
ATOM     39  N   UNL A   1      43.179  26.968  27.012  1.00  0.00    -0.354 N 
ATOM     40  C   UNL A   1      40.021  28.434  29.506  1.00  0.00     0.074 A 
ATOM     41  C   UNL A   1      38.989  27.436  29.683  1.00  0.00     0.031 C 
ATOM     42  C   UNL A   1      44.254  25.529  25.682  1.00  0.00     0.029 A 
ATOM     43  C   UNL A   1      44.359  26.834  26.319  1.00  0.00     0.049 A 
ATOM     44  H   UNL A   1      42.974  27.743  27.583  1.00  0.00     0.167 HD
ATOM     45  C   UNL A   1      40.030  29.637  30.134  1.00  0.00     0.031 A 
ATOM     46  C   UNL A   1      45.396  27.675  26.153  1.00  0.00     0.031 A 
ATOM     47  C   UNL A   1      41.076  30.619  30.002  1.00  0.00     0.049 A 
ATOM     48  C   UNL A   1      45.344  29.033  26.784  1.00  0.00     0.074 A 
ATOM     49  C   UNL A   1      41.173  31.866  30.600  1.00  0.00     0.029 A 
ATOM     50  N   UNL A   1      42.219  30.458  29.234  1.00  0.00    -0.354 N 
ATOM     51  N   UNL A   1      44.429  29.545  27.570  1.00  0.00    -0.248 NA
ATOM     52  C   UNL A   1      46.465  29.935  26.491  1.00  0.00     0.031 C 
ATOM     53  C   UNL A   1      42.337  32.489  30.132  1.00  0.00     0.029 A 
ATOM     54  C   UNL A   1      43.006  31.599  29.308  1.00  0.00     0.049 A 
ATOM     55  H   UNL A   1      42.440  29.653  28.712  1.00  0.00     0.167 HD
ATOM     56  C   UNL A   1      44.873  30.822  27.882  1.00  0.00     0.074 A 
ATOM     57  C   UNL A   1      46.155  30.991  27.226  1.00  0.00     0.031 C 
ATOM     58  C   UNL A   1      44.270  31.770  28.640  1.00  0.00     0.031 A 
BRANCH  45  59
ATOM     59  C   UNL A   1      38.834  29.984  30.988  1.00  0.00    -0.014 A 
ATOM     60  C   UNL A   1      38.817  29.764  32.374  1.00  0.00     0.009 A 
ATOM     61  C   UNL A   1      37.706  30.566  30.386  1.00  0.00     0.009 A 
ATOM     62  C   UNL A   1      37.678  30.069  33.127  1.00  0.00     0.001 A 
ATOM     63  C   UNL A   1      36.585  30.906  31.145  1.00  0.00     0.001 A 
ATOM     64  C   UNL A   1      36.565  30.643  32.513  1.00  0.00     0.000 A 
ENDBRANCH  45  59
BRANCH  46  65
ATOM     65  C   UNL A   1      46.547  27.277  25.294  1.00  0.00    -0.014 A 
ATOM     66  C   UNL A   1      46.705  27.821  24.011  1.00  0.00     0.009 A 
ATOM     67  C   UNL A   1      47.496  26.351  25.758  1.00  0.00     0.009 A 
ATOM     68  C   UNL A   1      47.780  27.435  23.206  1.00  0.00     0.001 A 
ATOM     69  C   UNL A   1      48.593  26.000  24.969  1.00  0.00     0.001 A 
ATOM     70  C   UNL A   1      48.728  26.534  23.690  1.00  0.00     0.000 A 
ENDBRANCH  46  65
BRANCH  58  71
ATOM     71  C   UNL A   1      45.019  33.063  28.828  1.00  0.00    -0.014 A 
ATOM     72  C   UNL A   1      45.939  33.234  29.876  1.00  0.00     0.009 A 
ATOM     73  C   UNL A   1      44.784  34.134  27.952  1.00  0.00     0.009 A 
ATOM     74  C   UNL A   1      46.558  34.470  30.078  1.00  0.00     0.001 A 
ATOM     75  C   UNL A   1      45.436  35.354  28.132  1.00  0.00     0.001 A 
ATOM     76  C   UNL A   1      46.307  35.527  29.205  1.00  0.00     0.000 A 
ENDBRANCH  58  71
ENDBRANCH  32  33
ENDBRANCH  25  27
ENDBRANCH  24  25
ENDBRANCH  23  24
ENDBRANCH   1  23
TORSDOF 14
ENDMDL
MODEL 2
REMARK VINA RESULT:     -10.8      3.719      9.013
REMARK SMILES N#C[C@H]1CN(c2cc(C(=O)OCCOC(=O)c3ccc(-c4c5nc(c(-c6ccccc6)c6ccc([nH]6)c(-c6ccccc6)c6nc(c(-c7ccccc7)c7ccc4[nH]7)C=C6)C=C5)cc3)c(N)cc2F)CCO1
REMARK SMILES IDX 12 1 11 2 9 3 10 4 8 5 6 6 7 7 68 8 67 9 69 10 65 11 5 12
REMARK SMILES IDX 3 13 4 14 72 15 71 16 70 17 2 18 1 19 66 20 13 23 14 24
REMARK SMILES IDX 15 25 16 26 17 27 18 28 64 29 19 30 63 31 20 32 21 33 22 34
REMARK SMILES IDX 57 35 23 36 62 37 56 38 58 39 24 40 61 41 55 42 54 43 25 45
REMARK SMILES IDX 47 46 32 47 46 48 33 49 36 50 45 51 59 52 34 53 35 54 44 56
REMARK SMILES IDX 60 57 37 58 26 59 27 60 31 61 28 62 30 63 29 64 48 65 49 66
REMARK SMILES IDX 53 67 50 68 52 69 51 70 38 71 39 72 43 73 40 74 42 75 41 76
REMARK H PARENT 66 21 66 22 58 44 36 55
REMARK Flexibility Score: inf
ROOT
ATOM      1  C   UNL A   1      31.501  28.668  25.480  1.00  0.00     0.275 C 
ENDROOT
BRANCH   1   2
ATOM      2  O   UNL A   1      32.733  27.926  25.628  1.00  0.00    -0.458 OA
BRANCH   2   3
ATOM      3  C   UNL A   1      33.489  27.777  24.509  1.00  0.00     0.340 C 
ATOM      4  O   UNL A   1      34.345  28.553  24.112  1.00  0.00    -0.246 OA
BRANCH   3   5
ATOM      5  C   UNL A   1      33.228  26.471  23.845  1.00  0.00     0.085 A 
ATOM      6  C   UNL A   1      33.533  24.033  23.971  1.00  0.00     0.074 A 
ATOM      7  C   UNL A   1      33.673  25.308  24.515  1.00  0.00     0.047 A 
ATOM      8  C   UNL A   1      33.008  23.962  22.678  1.00  0.00     0.148 A 
ATOM      9  C   UNL A   1      32.579  25.100  21.988  1.00  0.00     0.067 A 
ATOM     10  F   UNL A   1      32.912  22.770  22.067  1.00  0.00    -0.205 F 
ATOM     11  C   UNL A   1      32.634  26.369  22.578  1.00  0.00     0.049 A 
BRANCH   6  12
ATOM     12  N   UNL A   1      33.946  22.919  24.662  1.00  0.00    -0.363 N 
ATOM     13  C   UNL A   1      33.770  20.462  24.633  1.00  0.00     0.240 C 
ATOM     14  C   UNL A   1      33.058  21.791  24.988  1.00  0.00     0.164 C 
ATOM     15  O   UNL A   1      35.059  20.387  25.291  1.00  0.00    -0.360 OA
ATOM     16  C   UNL A   1      35.908  21.468  24.865  1.00  0.00     0.183 C 
ATOM     17  C   UNL A   1      35.303  22.838  25.206  1.00  0.00     0.145 C 
BRANCH  13  18
ATOM     18  C   UNL A   1      32.929  19.311  25.008  1.00  0.00     0.096 C 
ATOM     19  N   UNL A   1      32.252  18.434  25.351  1.00  0.00    -0.195 NA
ENDBRANCH  13  18
ENDBRANCH   6  12
BRANCH  11  20
ATOM     20  N   UNL A   1      32.279  27.481  21.814  1.00  0.00    -0.398 N 
ATOM     21  H   UNL A   1      32.968  28.125  21.535  1.00  0.00     0.156 HD
ATOM     22  H   UNL A   1      31.340  27.620  21.555  1.00  0.00     0.156 HD
ENDBRANCH  11  20
ENDBRANCH   3   5
ENDBRANCH   2   3
ENDBRANCH   1   2
BRANCH   1  23
ATOM     23  C   UNL A   1      31.712  30.159  25.750  1.00  0.00     0.275 C 
BRANCH  23  24
ATOM     24  O   UNL A   1      32.230  30.364  27.078  1.00  0.00    -0.458 OA
BRANCH  24  25
ATOM     25  C   UNL A   1      32.909  31.518  27.250  1.00  0.00     0.338 C 
ATOM     26  O   UNL A   1      32.465  32.654  27.243  1.00  0.00    -0.246 OA
BRANCH  25  27
ATOM     27  C   UNL A   1      34.304  31.238  27.617  1.00  0.00     0.060 A 
ATOM     28  C   UNL A   1      34.641  29.910  27.809  1.00  0.00     0.016 A 
ATOM     29  C   UNL A   1      35.186  32.238  28.008  1.00  0.00     0.016 A 
ATOM     30  C   UNL A   1      35.758  29.575  28.560  1.00  0.00     0.010 A 
ATOM     31  C   UNL A   1      36.403  31.883  28.616  1.00  0.00     0.010 A 
ATOM     32  C   UNL A   1      36.680  30.548  28.967  1.00  0.00    -0.014 A 
BRANCH  32  33
ATOM     33  C   UNL A   1      37.881  30.149  29.774  1.00  0.00     0.031 A 
ATOM     34  C   UNL A   1      38.989  29.309  29.171  1.00  0.00     0.074 A 
ATOM     35  C   UNL A   1      38.028  30.582  31.047  1.00  0.00     0.049 A 
ATOM     36  N   UNL A   1      40.024  28.759  29.760  1.00  0.00    -0.248 NA
ATOM     37  C   UNL A   1      38.908  29.030  27.729  1.00  0.00     0.031 C 
ATOM     38  C   UNL A   1      37.078  31.425  31.779  1.00  0.00     0.029 A 
ATOM     39  N   UNL A   1      39.050  30.394  31.949  1.00  0.00    -0.354 N 
ATOM     40  C   UNL A   1      40.690  28.040  28.770  1.00  0.00     0.074 A 
ATOM     41  C   UNL A   1      39.913  28.184  27.558  1.00  0.00     0.031 C 
ATOM     42  C   UNL A   1      37.599  31.757  32.966  1.00  0.00     0.029 A 
ATOM     43  C   UNL A   1      38.850  31.034  33.149  1.00  0.00     0.049 A 
ATOM     44  H   UNL A   1      39.848  29.853  31.753  1.00  0.00     0.167 HD
ATOM     45  C   UNL A   1      41.845  27.331  28.851  1.00  0.00     0.031 A 
ATOM     46  C   UNL A   1      39.549  31.012  34.299  1.00  0.00     0.031 A 
ATOM     47  C   UNL A   1      42.651  27.219  30.040  1.00  0.00     0.049 A 
ATOM     48  C   UNL A   1      40.772  30.151  34.394  1.00  0.00     0.074 A 
ATOM     49  C   UNL A   1      43.837  26.524  30.219  1.00  0.00     0.029 A 
ATOM     50  N   UNL A   1      42.367  27.836  31.249  1.00  0.00    -0.354 N 
ATOM     51  N   UNL A   1      41.344  29.423  33.468  1.00  0.00    -0.248 NA
ATOM     52  C   UNL A   1      41.437  30.101  35.702  1.00  0.00     0.031 C 
ATOM     53  C   UNL A   1      44.228  26.658  31.557  1.00  0.00     0.029 A 
ATOM     54  C   UNL A   1      43.331  27.503  32.190  1.00  0.00     0.049 A 
ATOM     55  H   UNL A   1      41.595  28.423  31.416  1.00  0.00     0.167 HD
ATOM     56  C   UNL A   1      42.448  28.842  34.075  1.00  0.00     0.074 A 
ATOM     57  C   UNL A   1      42.481  29.332  35.439  1.00  0.00     0.031 C 
ATOM     58  C   UNL A   1      43.351  27.978  33.549  1.00  0.00     0.031 A 
BRANCH  45  59
ATOM     59  C   UNL A   1      42.280  26.568  27.623  1.00  0.00    -0.014 A 
ATOM     60  C   UNL A   1      43.129  27.130  26.657  1.00  0.00     0.009 A 
ATOM     61  C   UNL A   1      41.843  25.245  27.446  1.00  0.00     0.009 A 
ATOM     62  C   UNL A   1      43.485  26.403  25.516  1.00  0.00     0.001 A 
ATOM     63  C   UNL A   1      42.231  24.506  26.326  1.00  0.00     0.001 A 
ATOM     64  C   UNL A   1      43.039  25.091  25.354  1.00  0.00     0.000 A 
ENDBRANCH  45  59
BRANCH  46  65
ATOM     65  C   UNL A   1      39.065  31.782  35.479  1.00  0.00    -0.014 A 
ATOM     66  C   UNL A   1      39.490  33.101  35.696  1.00  0.00     0.009 A 
ATOM     67  C   UNL A   1      38.172  31.200  36.393  1.00  0.00     0.009 A 
ATOM     68  C   UNL A   1      39.041  33.814  36.810  1.00  0.00     0.001 A 
ATOM     69  C   UNL A   1      37.691  31.929  37.482  1.00  0.00     0.001 A 
ATOM     70  C   UNL A   1      38.134  33.232  37.696  1.00  0.00     0.000 A 
ENDBRANCH  46  65
BRANCH  58  71
ATOM     71  C   UNL A   1      44.473  27.540  34.452  1.00  0.00    -0.014 A 
ATOM     72  C   UNL A   1      45.698  28.227  34.489  1.00  0.00     0.009 A 
ATOM     73  C   UNL A   1      44.307  26.409  35.267  1.00  0.00     0.009 A 
ATOM     74  C   UNL A   1      46.752  27.752  35.273  1.00  0.00     0.001 A 
ATOM     75  C   UNL A   1      45.349  25.962  36.081  1.00  0.00     0.001 A 
ATOM     76  C   UNL A   1      46.575  26.622  36.069  1.00  0.00     0.000 A 
ENDBRANCH  58  71
ENDBRANCH  32  33
ENDBRANCH  25  27
ENDBRANCH  24  25
ENDBRANCH  23  24
ENDBRANCH   1  23
TORSDOF 14
ENDMDL
MODEL 3
REMARK VINA RESULT:     -10.7      5.525     10.745
REMARK SMILES N#C[C@H]1CN(c2cc(C(=O)OCCOC(=O)c3ccc(-c4c5nc(c(-c6ccccc6)c6ccc([nH]6)c(-c6ccccc6)c6nc(c(-c7ccccc7)c7ccc4[nH]7)C=C6)C=C5)cc3)c(N)cc2F)CCO1
REMARK SMILES IDX 12 1 11 2 9 3 10 4 8 5 6 6 7 7 68 8 67 9 69 10 65 11 5 12
REMARK SMILES IDX 3 13 4 14 72 15 71 16 70 17 2 18 1 19 66 20 13 23 14 24
REMARK SMILES IDX 15 25 16 26 17 27 18 28 64 29 19 30 63 31 20 32 21 33 22 34
REMARK SMILES IDX 57 35 23 36 62 37 56 38 58 39 24 40 61 41 55 42 54 43 25 45
REMARK SMILES IDX 47 46 32 47 46 48 33 49 36 50 45 51 59 52 34 53 35 54 44 56
REMARK SMILES IDX 60 57 37 58 26 59 27 60 31 61 28 62 30 63 29 64 48 65 49 66
REMARK SMILES IDX 53 67 50 68 52 69 51 70 38 71 39 72 43 73 40 74 42 75 41 76
REMARK H PARENT 66 21 66 22 58 44 36 55
REMARK Flexibility Score: inf
ROOT
ATOM      1  C   UNL A   1      33.919  35.443  28.783  1.00  0.00     0.275 C 
ENDROOT
BRANCH   1   2
ATOM      2  O   UNL A   1      33.855  34.001  28.874  1.00  0.00    -0.458 OA
BRANCH   2   3
ATOM      3  C   UNL A   1      33.084  33.369  27.950  1.00  0.00     0.340 C 
ATOM      4  O   UNL A   1      32.108  33.840  27.387  1.00  0.00    -0.246 OA
BRANCH   3   5
ATOM      5  C   UNL A   1      33.634  32.030  27.607  1.00  0.00     0.085 A 
ATOM      6  C   UNL A   1      33.102  29.750  26.852  1.00  0.00     0.074 A 
ATOM      7  C   UNL A   1      32.717  31.054  27.154  1.00  0.00     0.047 A 
ATOM      8  C   UNL A   1      34.435  29.420  27.107  1.00  0.00     0.148 A 
ATOM      9  C   UNL A   1      35.356  30.362  27.574  1.00  0.00     0.067 A 
ATOM     10  F   UNL A   1      34.856  28.160  26.905  1.00  0.00    -0.205 F 
ATOM     11  C   UNL A   1      34.985  31.696  27.784  1.00  0.00     0.049 A 
BRANCH   6  12
ATOM     12  N   UNL A   1      32.191  28.833  26.380  1.00  0.00    -0.363 N 
ATOM     13  C   UNL A   1      31.572  27.619  24.329  1.00  0.00     0.240 C 
ATOM     14  C   UNL A   1      31.502  28.967  25.087  1.00  0.00     0.164 C 
ATOM     15  O   UNL A   1      31.046  26.548  25.152  1.00  0.00    -0.360 OA
ATOM     16  C   UNL A   1      31.817  26.415  26.360  1.00  0.00     0.183 C 
ATOM     17  C   UNL A   1      31.781  27.697  27.206  1.00  0.00     0.145 C 
BRANCH  13  18
ATOM     18  C   UNL A   1      30.834  27.703  23.057  1.00  0.00     0.096 C 
ATOM     19  N   UNL A   1      30.244  27.827  22.065  1.00  0.00    -0.195 NA
ENDBRANCH  13  18
ENDBRANCH   6  12
BRANCH  11  20
ATOM     20  N   UNL A   1      35.917  32.573  28.338  1.00  0.00    -0.398 N 
ATOM     21  H   UNL A   1      36.631  32.229  28.921  1.00  0.00     0.156 HD
ATOM     22  H   UNL A   1      35.861  33.537  28.145  1.00  0.00     0.156 HD
ENDBRANCH  11  20
ENDBRANCH   3   5
ENDBRANCH   2   3
ENDBRANCH   1   2
BRANCH   1  23
ATOM     23  C   UNL A   1      32.981  36.108  29.793  1.00  0.00     0.275 C 
BRANCH  23  24
ATOM     24  O   UNL A   1      32.612  35.179  30.829  1.00  0.00    -0.458 OA
BRANCH  24  25
ATOM     25  C   UNL A   1      32.700  35.664  32.085  1.00  0.00     0.338 C 
ATOM     26  O   UNL A   1      31.936  36.433  32.644  1.00  0.00    -0.246 OA
BRANCH  25  27
ATOM     27  C   UNL A   1      33.803  35.014  32.806  1.00  0.00     0.060 A 
ATOM     28  C   UNL A   1      35.005  35.699  32.851  1.00  0.00     0.016 A 
ATOM     29  C   UNL A   1      33.752  33.683  33.201  1.00  0.00     0.016 A 
ATOM     30  C   UNL A   1      36.187  35.019  33.102  1.00  0.00     0.010 A 
ATOM     31  C   UNL A   1      34.931  33.044  33.623  1.00  0.00     0.010 A 
ATOM     32  C   UNL A   1      36.183  33.680  33.513  1.00  0.00    -0.014 A 
BRANCH  32  33
ATOM     33  C   UNL A   1      37.481  32.976  33.782  1.00  0.00     0.031 A 
ATOM     34  C   UNL A   1      38.092  32.037  32.762  1.00  0.00     0.074 A 
ATOM     35  C   UNL A   1      38.166  33.212  34.924  1.00  0.00     0.049 A 
ATOM     36  N   UNL A   1      39.129  31.242  32.885  1.00  0.00    -0.248 NA
ATOM     37  C   UNL A   1      37.438  31.961  31.447  1.00  0.00     0.031 C 
ATOM     38  C   UNL A   1      37.747  34.110  36.003  1.00  0.00     0.029 A 
ATOM     39  N   UNL A   1      39.381  32.734  35.360  1.00  0.00    -0.354 N 
ATOM     40  C   UNL A   1      39.224  30.549  31.681  1.00  0.00     0.074 A 
ATOM     41  C   UNL A   1      38.110  30.979  30.863  1.00  0.00     0.031 C 
ATOM     42  C   UNL A   1      38.719  34.192  36.920  1.00  0.00     0.029 A 
ATOM     43  C   UNL A   1      39.768  33.243  36.577  1.00  0.00     0.049 A 
ATOM     44  H   UNL A   1      39.921  32.089  34.848  1.00  0.00     0.167 HD
ATOM     45  C   UNL A   1      40.152  29.642  31.281  1.00  0.00     0.031 A 
ATOM     46  C   UNL A   1      40.814  32.952  37.373  1.00  0.00     0.031 A 
ATOM     47  C   UNL A   1      41.291  29.240  32.068  1.00  0.00     0.049 A 
ATOM     48  C   UNL A   1      41.778  31.884  36.952  1.00  0.00     0.074 A 
ATOM     49  C   UNL A   1      42.286  28.330  31.748  1.00  0.00     0.029 A 
ATOM     50  N   UNL A   1      41.601  29.739  33.324  1.00  0.00    -0.354 N 
ATOM     51  N   UNL A   1      41.809  31.189  35.843  1.00  0.00    -0.248 NA
ATOM     52  C   UNL A   1      42.844  31.553  37.905  1.00  0.00     0.031 C 
ATOM     53  C   UNL A   1      43.153  28.223  32.842  1.00  0.00     0.029 A 
ATOM     54  C   UNL A   1      42.746  29.126  33.810  1.00  0.00     0.049 A 
ATOM     55  H   UNL A   1      41.083  30.428  33.801  1.00  0.00     0.167 HD
ATOM     56  C   UNL A   1      42.908  30.351  35.955  1.00  0.00     0.074 A 
ATOM     57  C   UNL A   1      43.535  30.650  37.227  1.00  0.00     0.031 C 
ATOM     58  C   UNL A   1      43.356  29.414  35.083  1.00  0.00     0.031 A 
BRANCH  45  59
ATOM     59  C   UNL A   1      39.943  28.976  29.943  1.00  0.00    -0.014 A 
ATOM     60  C   UNL A   1      40.384  29.555  28.743  1.00  0.00     0.009 A 
ATOM     61  C   UNL A   1      39.305  27.724  29.891  1.00  0.00     0.009 A 
ATOM     62  C   UNL A   1      40.143  28.922  27.519  1.00  0.00     0.001 A 
ATOM     63  C   UNL A   1      39.101  27.075  28.672  1.00  0.00     0.001 A 
ATOM     64  C   UNL A   1      39.506  27.681  27.485  1.00  0.00     0.000 A 
ENDBRANCH  45  59
BRANCH  46  65
ATOM     65  C   UNL A   1      40.964  33.641  38.685  1.00  0.00    -0.014 A 
ATOM     66  C   UNL A   1      40.372  33.114  39.843  1.00  0.00     0.009 A 
ATOM     67  C   UNL A   1      41.706  34.830  38.786  1.00  0.00     0.009 A 
ATOM     68  C   UNL A   1      40.508  33.772  41.068  1.00  0.00     0.001 A 
ATOM     69  C   UNL A   1      41.876  35.461  40.019  1.00  0.00     0.001 A 
ATOM     70  C   UNL A   1      41.268  34.937  41.157  1.00  0.00     0.000 A 
ENDBRANCH  46  65
BRANCH  58  71
ATOM     71  C   UNL A   1      44.609  28.674  35.468  1.00  0.00    -0.014 A 
ATOM     72  C   UNL A   1      44.560  27.472  36.193  1.00  0.00     0.009 A 
ATOM     73  C   UNL A   1      45.861  29.201  35.116  1.00  0.00     0.009 A 
ATOM     74  C   UNL A   1      45.738  26.849  36.610  1.00  0.00     0.001 A 
ATOM     75  C   UNL A   1      47.037  28.554  35.499  1.00  0.00     0.001 A 
ATOM     76  C   UNL A   1      46.974  27.390  36.261  1.00  0.00     0.000 A 
ENDBRANCH  58  71
ENDBRANCH  32  33
ENDBRANCH  25  27
ENDBRANCH  24  25
ENDBRANCH  23  24
ENDBRANCH   1  23
TORSDOF 14
ENDMDL
