MODEL 1
REMARK VINA RESULT:     -11.5      0.000      0.000
REMARK SMILES C[NH+]1CCN(C(=O)c2ccc3c(c2)N(CC(=O)OCCOC(=O)c2ccc(-c4c5nc(c(-c6ccccc6)c6ccc([nH]6)c(-c6ccccc6)c6nc(c(-c7ccccc7)c7ccc4[nH]7)C=C6)C=C5)cc2)C(=O)CO3)CC1
REMARK SMILES IDX 19 1 18 2 16 3 17 4 15 5 14 6 8 7 9 8 13 9 10 10 12 11 11 12
REMARK SMILES IDX 75 13 72 14 74 15 73 16 6 17 1 18 2 19 3 20 77 21 4 23 76 24
REMARK SMILES IDX 5 25 7 26 20 27 21 28 22 29 23 30 24 31 25 32 71 33 26 34
REMARK SMILES IDX 70 35 27 36 28 37 29 38 64 39 30 40 69 41 63 42 65 43 31 44
REMARK SMILES IDX 68 45 62 46 61 47 32 49 54 50 39 51 53 52 40 53 43 54 52 55
REMARK SMILES IDX 66 56 41 57 42 58 51 60 67 61 44 62 33 63 34 64 38 65 35 66
REMARK SMILES IDX 37 67 36 68 55 69 56 70 60 71 57 72 59 73 58 74 45 75 46 76
REMARK SMILES IDX 50 77 47 78 49 79 48 80
REMARK H PARENT 2 22 65 48 43 59
REMARK Flexibility Score: inf
ROOT
ATOM      1  C   UNL A   1      32.374  31.755  27.209  1.00  0.00     0.274 C 
ENDROOT
BRANCH   1   2
ATOM      2  O   UNL A   1      33.422  30.763  27.201  1.00  0.00    -0.461 OA
BRANCH   2   3
ATOM      3  C   UNL A   1      33.175  29.681  26.414  1.00  0.00     0.326 C 
ATOM      4  O   UNL A   1      34.052  29.033  25.845  1.00  0.00    -0.250 OA
BRANCH   3   5
ATOM      5  C   UNL A   1      31.722  29.209  26.428  1.00  0.00     0.248 C 
BRANCH   5   6
ATOM      6  N   UNL A   1      31.169  28.621  25.220  1.00  0.00    -0.295 N 
ATOM      7  C   UNL A   1      31.412  24.878  25.611  1.00  0.00     0.042 A 
ATOM      8  C   UNL A   1      30.701  24.452  24.490  1.00  0.00     0.018 A 
ATOM      9  C   UNL A   1      31.649  26.249  25.827  1.00  0.00     0.044 A 
ATOM     10  C   UNL A   1      30.198  25.400  23.603  1.00  0.00     0.049 A 
ATOM     11  C   UNL A   1      31.094  27.216  24.976  1.00  0.00     0.087 A 
ATOM     12  C   UNL A   1      30.393  26.765  23.844  1.00  0.00     0.143 A 
ATOM     13  O   UNL A   1      29.816  27.601  22.924  1.00  0.00    -0.482 OA
ATOM     14  C   UNL A   1      30.671  29.514  24.278  1.00  0.00     0.265 C 
ATOM     15  C   UNL A   1      30.388  28.895  22.922  1.00  0.00     0.330 C 
ATOM     16  O   UNL A   1      30.575  30.726  24.474  1.00  0.00    -0.270 OA
BRANCH   7  17
ATOM     17  C   UNL A   1      32.012  23.861  26.507  1.00  0.00     0.254 C 
ATOM     18  C   UNL A   1      35.800  20.331  24.997  1.00  0.00     0.332 C 
ATOM     19  N   UNL A   1      35.500  21.639  25.599  1.00  0.00    -0.334 N 
ATOM     20  C   UNL A   1      34.703  21.452  26.830  1.00  0.00     0.283 C 
ATOM     21  C   UNL A   1      34.825  22.502  24.606  1.00  0.00     0.283 C 
ATOM     22  H   UNL A   1      36.364  22.108  25.870  1.00  0.00     0.347 HD
ATOM     23  C   UNL A   1      34.032  22.728  27.377  1.00  0.00     0.181 C 
ATOM     24  C   UNL A   1      34.180  23.787  25.174  1.00  0.00     0.181 C 
ATOM     25  N   UNL A   1      33.342  23.492  26.338  1.00  0.00    -0.327 N 
ATOM     26  O   UNL A   1      31.295  23.429  27.407  1.00  0.00    -0.269 OA
ENDBRANCH   7  17
ENDBRANCH   5   6
ENDBRANCH   3   5
ENDBRANCH   2   3
ENDBRANCH   1   2
BRANCH   1  27
ATOM     27  C   UNL A   1      32.897  33.199  27.251  1.00  0.00     0.275 C 
BRANCH  27  28
ATOM     28  O   UNL A   1      32.147  34.044  28.147  1.00  0.00    -0.458 OA
BRANCH  28  29
ATOM     29  C   UNL A   1      32.915  35.004  28.704  1.00  0.00     0.338 C 
ATOM     30  O   UNL A   1      32.642  36.192  28.751  1.00  0.00    -0.246 OA
BRANCH  29  31
ATOM     31  C   UNL A   1      34.171  34.509  29.288  1.00  0.00     0.060 A 
ATOM     32  C   UNL A   1      35.417  34.789  28.734  1.00  0.00     0.016 A 
ATOM     33  C   UNL A   1      34.052  33.533  30.276  1.00  0.00     0.016 A 
ATOM     34  C   UNL A   1      36.530  34.035  29.132  1.00  0.00     0.010 A 
ATOM     35  C   UNL A   1      35.161  32.817  30.712  1.00  0.00     0.010 A 
ATOM     36  C   UNL A   1      36.410  33.053  30.135  1.00  0.00    -0.014 A 
BRANCH  36  37
ATOM     37  C   UNL A   1      37.601  32.422  30.753  1.00  0.00     0.031 A 
ATOM     38  C   UNL A   1      38.294  31.230  30.155  1.00  0.00     0.074 A 
ATOM     39  C   UNL A   1      37.937  32.852  31.982  1.00  0.00     0.049 A 
ATOM     40  N   UNL A   1      39.277  30.518  30.652  1.00  0.00    -0.248 NA
ATOM     41  C   UNL A   1      37.809  30.753  28.855  1.00  0.00     0.031 C 
ATOM     42  C   UNL A   1      37.258  33.928  32.711  1.00  0.00     0.029 A 
ATOM     43  N   UNL A   1      38.906  32.422  32.847  1.00  0.00    -0.354 N 
ATOM     44  C   UNL A   1      39.507  29.494  29.741  1.00  0.00     0.074 A 
ATOM     45  C   UNL A   1      38.553  29.668  28.666  1.00  0.00     0.031 C 
ATOM     46  C   UNL A   1      37.839  34.083  33.906  1.00  0.00     0.029 A 
ATOM     47  C   UNL A   1      38.908  33.101  34.038  1.00  0.00     0.049 A 
ATOM     48  H   UNL A   1      39.537  31.697  32.637  1.00  0.00     0.167 HD
ATOM     49  C   UNL A   1      40.429  28.501  29.802  1.00  0.00     0.031 A 
ATOM     50  C   UNL A   1      39.679  32.956  35.127  1.00  0.00     0.031 A 
ATOM     51  C   UNL A   1      41.388  28.347  30.869  1.00  0.00     0.049 A 
ATOM     52  C   UNL A   1      40.750  31.916  35.129  1.00  0.00     0.074 A 
ATOM     53  C   UNL A   1      42.433  27.443  30.969  1.00  0.00     0.029 A 
ATOM     54  N   UNL A   1      41.414  29.114  32.023  1.00  0.00    -0.354 N 
ATOM     55  N   UNL A   1      41.018  31.017  34.216  1.00  0.00    -0.248 NA
ATOM     56  C   UNL A   1      41.635  31.886  36.299  1.00  0.00     0.031 C 
ATOM     57  C   UNL A   1      43.071  27.643  32.199  1.00  0.00     0.029 A 
ATOM     58  C   UNL A   1      42.446  28.694  32.847  1.00  0.00     0.049 A 
ATOM     59  H   UNL A   1      40.792  29.848  32.228  1.00  0.00     0.167 HD
ATOM     60  C   UNL A   1      42.114  30.316  34.694  1.00  0.00     0.074 A 
ATOM     61  C   UNL A   1      42.466  30.906  35.971  1.00  0.00     0.031 C 
ATOM     62  C   UNL A   1      42.770  29.279  34.122  1.00  0.00     0.031 A 
BRANCH  49  63
ATOM     63  C   UNL A   1      40.462  27.491  28.687  1.00  0.00    -0.014 A 
ATOM     64  C   UNL A   1      39.703  26.313  28.748  1.00  0.00     0.009 A 
ATOM     65  C   UNL A   1      41.190  27.765  27.516  1.00  0.00     0.009 A 
ATOM     66  C   UNL A   1      39.686  25.423  27.671  1.00  0.00     0.001 A 
ATOM     67  C   UNL A   1      41.155  26.883  26.433  1.00  0.00     0.001 A 
ATOM     68  C   UNL A   1      40.407  25.711  26.512  1.00  0.00     0.000 A 
ENDBRANCH  49  63
BRANCH  50  69
ATOM     69  C   UNL A   1      39.476  33.877  36.268  1.00  0.00    -0.014 A 
ATOM     70  C   UNL A   1      38.715  33.465  37.371  1.00  0.00     0.009 A 
ATOM     71  C   UNL A   1      40.134  35.116  36.310  1.00  0.00     0.009 A 
ATOM     72  C   UNL A   1      38.613  34.279  38.498  1.00  0.00     0.001 A 
ATOM     73  C   UNL A   1      40.043  35.920  37.447  1.00  0.00     0.001 A 
ATOM     74  C   UNL A   1      39.283  35.501  38.539  1.00  0.00     0.000 A 
ENDBRANCH  50  69
BRANCH  62  75
ATOM     75  C   UNL A   1      43.939  28.731  34.881  1.00  0.00    -0.014 A 
ATOM     76  C   UNL A   1      45.229  29.247  34.688  1.00  0.00     0.009 A 
ATOM     77  C   UNL A   1      43.748  27.681  35.792  1.00  0.00     0.009 A 
ATOM     78  C   UNL A   1      46.315  28.696  35.369  1.00  0.00     0.001 A 
ATOM     79  C   UNL A   1      44.834  27.145  36.484  1.00  0.00     0.001 A 
ATOM     80  C   UNL A   1      46.117  27.646  36.265  1.00  0.00     0.000 A 
ENDBRANCH  62  75
ENDBRANCH  36  37
ENDBRANCH  29  31
ENDBRANCH  28  29
ENDBRANCH  27  28
ENDBRANCH   1  27
TORSDOF 13
ENDMDL
MODEL 2
REMARK VINA RESULT:     -11.4      0.542      5.861
REMARK SMILES C[NH+]1CCN(C(=O)c2ccc3c(c2)N(CC(=O)OCCOC(=O)c2ccc(-c4c5nc(c(-c6ccccc6)c6ccc([nH]6)c(-c6ccccc6)c6nc(c(-c7ccccc7)c7ccc4[nH]7)C=C6)C=C5)cc2)C(=O)CO3)CC1
REMARK SMILES IDX 19 1 18 2 16 3 17 4 15 5 14 6 8 7 9 8 13 9 10 10 12 11 11 12
REMARK SMILES IDX 75 13 72 14 74 15 73 16 6 17 1 18 2 19 3 20 77 21 4 23 76 24
REMARK SMILES IDX 5 25 7 26 20 27 21 28 22 29 23 30 24 31 25 32 71 33 26 34
REMARK SMILES IDX 70 35 27 36 28 37 29 38 64 39 30 40 69 41 63 42 65 43 31 44
REMARK SMILES IDX 68 45 62 46 61 47 32 49 54 50 39 51 53 52 40 53 43 54 52 55
REMARK SMILES IDX 66 56 41 57 42 58 51 60 67 61 44 62 33 63 34 64 38 65 35 66
REMARK SMILES IDX 37 67 36 68 55 69 56 70 60 71 57 72 59 73 58 74 45 75 46 76
REMARK SMILES IDX 50 77 47 78 49 79 48 80
REMARK H PARENT 2 22 65 48 43 59
REMARK Flexibility Score: inf
ROOT
ATOM      1  C   UNL A   1      32.898  31.623  27.643  1.00  0.00     0.274 C 
ENDROOT
BRANCH   1   2
ATOM      2  O   UNL A   1      33.991  30.775  27.233  1.00  0.00    -0.461 OA
BRANCH   2   3
ATOM      3  C   UNL A   1      33.620  29.547  26.777  1.00  0.00     0.326 C 
ATOM      4  O   UNL A   1      34.416  28.665  26.458  1.00  0.00    -0.250 OA
BRANCH   3   5
ATOM      5  C   UNL A   1      32.120  29.272  26.858  1.00  0.00     0.248 C 
BRANCH   5   6
ATOM      6  N   UNL A   1      31.435  28.791  25.671  1.00  0.00    -0.295 N 
ATOM      7  C   UNL A   1      31.359  25.027  25.899  1.00  0.00     0.042 A 
ATOM      8  C   UNL A   1      30.538  24.717  24.816  1.00  0.00     0.018 A 
ATOM      9  C   UNL A   1      31.735  26.361  26.150  1.00  0.00     0.044 A 
ATOM     10  C   UNL A   1      30.066  25.745  24.004  1.00  0.00     0.049 A 
ATOM     11  C   UNL A   1      31.215  27.410  25.379  1.00  0.00     0.087 A 
ATOM     12  C   UNL A   1      30.401  27.075  24.282  1.00  0.00     0.143 A 
ATOM     13  O   UNL A   1      29.843  27.999  23.438  1.00  0.00    -0.482 OA
ATOM     14  C   UNL A   1      30.959  29.765  24.801  1.00  0.00     0.265 C 
ATOM     15  C   UNL A   1      30.530  29.235  23.445  1.00  0.00     0.330 C 
ATOM     16  O   UNL A   1      30.988  30.971  25.050  1.00  0.00    -0.270 OA
BRANCH   7  17
ATOM     17  C   UNL A   1      31.922  23.922  26.710  1.00  0.00     0.254 C 
ATOM     18  C   UNL A   1      35.759  20.539  24.999  1.00  0.00     0.332 C 
ATOM     19  N   UNL A   1      35.439  21.781  25.718  1.00  0.00    -0.334 N 
ATOM     20  C   UNL A   1      34.594  21.477  26.892  1.00  0.00     0.283 C 
ATOM     21  C   UNL A   1      34.804  22.744  24.791  1.00  0.00     0.283 C 
ATOM     22  H   UNL A   1      36.292  22.216  26.068  1.00  0.00     0.347 HD
ATOM     23  C   UNL A   1      33.904  22.695  27.538  1.00  0.00     0.181 C 
ATOM     24  C   UNL A   1      34.140  23.969  25.461  1.00  0.00     0.181 C 
ATOM     25  N   UNL A   1      33.257  23.563  26.556  1.00  0.00    -0.327 N 
ATOM     26  O   UNL A   1      31.170  23.405  27.534  1.00  0.00    -0.269 OA
ENDBRANCH   7  17
ENDBRANCH   5   6
ENDBRANCH   3   5
ENDBRANCH   2   3
ENDBRANCH   1   2
BRANCH   1  27
ATOM     27  C   UNL A   1      33.126  33.110  27.333  1.00  0.00     0.275 C 
BRANCH  27  28
ATOM     28  O   UNL A   1      32.291  33.983  28.121  1.00  0.00    -0.458 OA
BRANCH  28  29
ATOM     29  C   UNL A   1      33.011  34.922  28.774  1.00  0.00     0.338 C 
ATOM     30  O   UNL A   1      32.726  36.106  28.851  1.00  0.00    -0.246 OA
BRANCH  29  31
ATOM     31  C   UNL A   1      34.224  34.408  29.426  1.00  0.00     0.060 A 
ATOM     32  C   UNL A   1      35.500  34.626  28.914  1.00  0.00     0.016 A 
ATOM     33  C   UNL A   1      34.033  33.472  30.442  1.00  0.00     0.016 A 
ATOM     34  C   UNL A   1      36.569  33.851  29.384  1.00  0.00     0.010 A 
ATOM     35  C   UNL A   1      35.097  32.738  30.949  1.00  0.00     0.010 A 
ATOM     36  C   UNL A   1      36.376  32.911  30.416  1.00  0.00    -0.014 A 
BRANCH  36  37
ATOM     37  C   UNL A   1      37.519  32.265  31.104  1.00  0.00     0.031 A 
ATOM     38  C   UNL A   1      38.097  32.786  32.390  1.00  0.00     0.074 A 
ATOM     39  C   UNL A   1      38.145  31.282  30.432  1.00  0.00     0.049 A 
ATOM     40  N   UNL A   1      39.163  32.377  33.035  1.00  0.00    -0.248 NA
ATOM     41  C   UNL A   1      37.420  33.926  33.018  1.00  0.00     0.031 C 
ATOM     42  C   UNL A   1      37.740  30.772  29.119  1.00  0.00     0.029 A 
ATOM     43  N   UNL A   1      39.265  30.559  30.741  1.00  0.00    -0.354 N 
ATOM     44  C   UNL A   1      39.300  33.227  34.126  1.00  0.00     0.074 A 
ATOM     45  C   UNL A   1      38.216  34.184  34.050  1.00  0.00     0.031 C 
ATOM     46  C   UNL A   1      38.590  29.811  28.740  1.00  0.00     0.029 A 
ATOM     47  C   UNL A   1      39.613  29.659  29.767  1.00  0.00     0.049 A 
ATOM     48  H   UNL A   1      39.771  30.675  31.577  1.00  0.00     0.167 HD
ATOM     49  C   UNL A   1      40.246  33.208  35.097  1.00  0.00     0.031 A 
ATOM     50  C   UNL A   1      40.643  28.801  29.696  1.00  0.00     0.031 A 
ATOM     51  C   UNL A   1      41.312  32.239  35.175  1.00  0.00     0.049 A 
ATOM     52  C   UNL A   1      41.616  28.735  30.825  1.00  0.00     0.074 A 
ATOM     53  C   UNL A   1      42.253  32.067  36.177  1.00  0.00     0.029 A 
ATOM     54  N   UNL A   1      41.580  31.282  34.209  1.00  0.00    -0.354 N 
ATOM     55  N   UNL A   1      41.675  29.483  31.899  1.00  0.00    -0.248 NA
ATOM     56  C   UNL A   1      42.649  27.697  30.743  1.00  0.00     0.031 C 
ATOM     57  C   UNL A   1      43.110  31.026  35.801  1.00  0.00     0.029 A 
ATOM     58  C   UNL A   1      42.679  30.527  34.584  1.00  0.00     0.049 A 
ATOM     59  H   UNL A   1      41.065  31.157  33.380  1.00  0.00     0.167 HD
ATOM     60  C   UNL A   1      42.747  28.998  32.632  1.00  0.00     0.074 A 
ATOM     61  C   UNL A   1      43.299  27.885  31.883  1.00  0.00     0.031 C 
ATOM     62  C   UNL A   1      43.227  29.437  33.819  1.00  0.00     0.031 A 
BRANCH  49  63
ATOM     63  C   UNL A   1      40.187  34.263  36.170  1.00  0.00    -0.014 A 
ATOM     64  C   UNL A   1      40.863  35.484  36.029  1.00  0.00     0.009 A 
ATOM     65  C   UNL A   1      39.366  34.071  37.295  1.00  0.00     0.009 A 
ATOM     66  C   UNL A   1      40.735  36.482  36.999  1.00  0.00     0.001 A 
ATOM     67  C   UNL A   1      39.224  35.078  38.252  1.00  0.00     0.001 A 
ATOM     68  C   UNL A   1      39.912  36.282  38.106  1.00  0.00     0.000 A 
ENDBRANCH  49  63
BRANCH  50  69
ATOM     69  C   UNL A   1      40.740  27.906  28.521  1.00  0.00    -0.014 A 
ATOM     70  C   UNL A   1      40.052  26.685  28.516  1.00  0.00     0.009 A 
ATOM     71  C   UNL A   1      41.420  28.318  27.364  1.00  0.00     0.009 A 
ATOM     72  C   UNL A   1      40.044  25.888  27.372  1.00  0.00     0.001 A 
ATOM     73  C   UNL A   1      41.395  27.525  26.216  1.00  0.00     0.001 A 
ATOM     74  C   UNL A   1      40.708  26.312  26.221  1.00  0.00     0.000 A 
ENDBRANCH  50  69
BRANCH  62  75
ATOM     75  C   UNL A   1      44.404  28.696  34.375  1.00  0.00    -0.014 A 
ATOM     76  C   UNL A   1      44.225  27.569  35.192  1.00  0.00     0.009 A 
ATOM     77  C   UNL A   1      45.704  29.136  34.087  1.00  0.00     0.009 A 
ATOM     78  C   UNL A   1      45.330  26.917  35.740  1.00  0.00     0.001 A 
ATOM     79  C   UNL A   1      46.807  28.471  34.623  1.00  0.00     0.001 A 
ATOM     80  C   UNL A   1      46.619  27.369  35.455  1.00  0.00     0.000 A 
ENDBRANCH  62  75
ENDBRANCH  36  37
ENDBRANCH  29  31
ENDBRANCH  28  29
ENDBRANCH  27  28
ENDBRANCH   1  27
TORSDOF 13
ENDMDL
MODEL 3
REMARK VINA RESULT:     -10.9      2.288      7.623
REMARK SMILES C[NH+]1CCN(C(=O)c2ccc3c(c2)N(CC(=O)OCCOC(=O)c2ccc(-c4c5nc(c(-c6ccccc6)c6ccc([nH]6)c(-c6ccccc6)c6nc(c(-c7ccccc7)c7ccc4[nH]7)C=C6)C=C5)cc2)C(=O)CO3)CC1
REMARK SMILES IDX 19 1 18 2 16 3 17 4 15 5 14 6 8 7 9 8 13 9 10 10 12 11 11 12
REMARK SMILES IDX 75 13 72 14 74 15 73 16 6 17 1 18 2 19 3 20 77 21 4 23 76 24
REMARK SMILES IDX 5 25 7 26 20 27 21 28 22 29 23 30 24 31 25 32 71 33 26 34
REMARK SMILES IDX 70 35 27 36 28 37 29 38 64 39 30 40 69 41 63 42 65 43 31 44
REMARK SMILES IDX 68 45 62 46 61 47 32 49 54 50 39 51 53 52 40 53 43 54 52 55
REMARK SMILES IDX 66 56 41 57 42 58 51 60 67 61 44 62 33 63 34 64 38 65 35 66
REMARK SMILES IDX 37 67 36 68 55 69 56 70 60 71 57 72 59 73 58 74 45 75 46 76
REMARK SMILES IDX 50 77 47 78 49 79 48 80
REMARK H PARENT 2 22 65 48 43 59
REMARK Flexibility Score: inf
ROOT
ATOM      1  C   UNL A   1      37.854  22.359  25.355  1.00  0.00     0.274 C 
ENDROOT
BRANCH   1   2
ATOM      2  O   UNL A   1      36.778  21.858  26.175  1.00  0.00    -0.461 OA
BRANCH   2   3
ATOM      3  C   UNL A   1      35.663  22.639  26.193  1.00  0.00     0.326 C 
ATOM      4  O   UNL A   1      35.665  23.841  25.933  1.00  0.00    -0.250 OA
BRANCH   3   5
ATOM      5  C   UNL A   1      34.358  21.870  26.387  1.00  0.00     0.248 C 
BRANCH   5   6
ATOM      6  N   UNL A   1      33.449  21.743  25.261  1.00  0.00    -0.295 N 
ATOM      7  C   UNL A   1      31.409  24.912  25.135  1.00  0.00     0.042 A 
ATOM      8  C   UNL A   1      30.725  24.735  23.934  1.00  0.00     0.018 A 
ATOM      9  C   UNL A   1      32.251  23.900  25.633  1.00  0.00     0.044 A 
ATOM     10  C   UNL A   1      30.910  23.558  23.213  1.00  0.00     0.049 A 
ATOM     11  C   UNL A   1      32.495  22.738  24.887  1.00  0.00     0.087 A 
ATOM     12  C   UNL A   1      31.785  22.572  23.685  1.00  0.00     0.143 A 
ATOM     13  O   UNL A   1      31.915  21.479  22.869  1.00  0.00    -0.482 OA
ATOM     14  C   UNL A   1      33.562  20.578  24.511  1.00  0.00     0.265 C 
ATOM     15  C   UNL A   1      32.414  20.342  23.548  1.00  0.00     0.330 C 
ATOM     16  O   UNL A   1      34.448  19.740  24.687  1.00  0.00    -0.270 OA
BRANCH   7  17
ATOM     17  C   UNL A   1      31.146  26.132  25.935  1.00  0.00     0.254 C 
ATOM     18  C   UNL A   1      34.969  29.514  27.679  1.00  0.00     0.332 C 
ATOM     19  N   UNL A   1      33.989  29.193  26.631  1.00  0.00    -0.334 N 
ATOM     20  C   UNL A   1      32.626  29.190  27.204  1.00  0.00     0.283 C 
ATOM     21  C   UNL A   1      34.344  27.906  25.994  1.00  0.00     0.283 C 
ATOM     22  H   UNL A   1      34.005  29.906  25.903  1.00  0.00     0.347 HD
ATOM     23  C   UNL A   1      31.542  28.545  26.318  1.00  0.00     0.181 C 
ATOM     24  C   UNL A   1      33.250  27.290  25.090  1.00  0.00     0.181 C 
ATOM     25  N   UNL A   1      31.955  27.252  25.773  1.00  0.00    -0.327 N 
ATOM     26  O   UNL A   1      30.166  26.103  26.677  1.00  0.00    -0.269 OA
ENDBRANCH   7  17
ENDBRANCH   5   6
ENDBRANCH   3   5
ENDBRANCH   2   3
ENDBRANCH   1   2
BRANCH   1  27
ATOM     27  C   UNL A   1      39.077  22.819  26.162  1.00  0.00     0.275 C 
BRANCH  27  28
ATOM     28  O   UNL A   1      39.130  24.250  26.338  1.00  0.00    -0.458 OA
BRANCH  28  29
ATOM     29  C   UNL A   1      40.362  24.674  26.691  1.00  0.00     0.338 C 
ATOM     30  O   UNL A   1      41.405  24.359  26.141  1.00  0.00    -0.246 OA
BRANCH  29  31
ATOM     31  C   UNL A   1      40.379  25.592  27.840  1.00  0.00     0.060 A 
ATOM     32  C   UNL A   1      39.347  25.643  28.774  1.00  0.00     0.016 A 
ATOM     33  C   UNL A   1      41.348  26.593  27.819  1.00  0.00     0.016 A 
ATOM     34  C   UNL A   1      39.261  26.741  29.641  1.00  0.00     0.010 A 
ATOM     35  C   UNL A   1      41.298  27.658  28.711  1.00  0.00     0.010 A 
ATOM     36  C   UNL A   1      40.245  27.748  29.624  1.00  0.00    -0.014 A 
BRANCH  36  37
ATOM     37  C   UNL A   1      40.323  28.779  30.687  1.00  0.00     0.031 A 
ATOM     38  C   UNL A   1      41.206  28.639  31.896  1.00  0.00     0.074 A 
ATOM     39  C   UNL A   1      39.427  29.779  30.619  1.00  0.00     0.049 A 
ATOM     40  N   UNL A   1      41.284  29.416  32.949  1.00  0.00    -0.248 NA
ATOM     41  C   UNL A   1      42.089  27.468  31.951  1.00  0.00     0.031 C 
ATOM     42  C   UNL A   1      38.440  29.951  29.548  1.00  0.00     0.029 A 
ATOM     43  N   UNL A   1      39.177  30.818  31.474  1.00  0.00    -0.354 N 
ATOM     44  C   UNL A   1      42.200  28.814  33.803  1.00  0.00     0.074 A 
ATOM     45  C   UNL A   1      42.643  27.599  33.151  1.00  0.00     0.031 C 
ATOM     46  C   UNL A   1      37.700  31.037  29.803  1.00  0.00     0.029 A 
ATOM     47  C   UNL A   1      38.141  31.617  31.065  1.00  0.00     0.049 A 
ATOM     48  H   UNL A   1      39.687  30.974  32.300  1.00  0.00     0.167 HD
ATOM     49  C   UNL A   1      42.628  29.238  35.018  1.00  0.00     0.031 A 
ATOM     50  C   UNL A   1      37.593  32.701  31.638  1.00  0.00     0.031 A 
ATOM     51  C   UNL A   1      42.195  30.460  35.650  1.00  0.00     0.049 A 
ATOM     52  C   UNL A   1      38.148  33.202  32.930  1.00  0.00     0.074 A 
ATOM     53  C   UNL A   1      42.650  31.034  36.827  1.00  0.00     0.029 A 
ATOM     54  N   UNL A   1      41.201  31.293  35.160  1.00  0.00    -0.354 N 
ATOM     55  N   UNL A   1      39.084  32.673  33.678  1.00  0.00    -0.248 NA
ATOM     56  C   UNL A   1      37.587  34.456  33.444  1.00  0.00     0.031 C 
ATOM     57  C   UNL A   1      41.909  32.198  37.063  1.00  0.00     0.029 A 
ATOM     58  C   UNL A   1      41.019  32.367  36.016  1.00  0.00     0.049 A 
ATOM     59  H   UNL A   1      40.700  31.145  34.326  1.00  0.00     0.167 HD
ATOM     60  C   UNL A   1      39.235  33.537  34.751  1.00  0.00     0.074 A 
ATOM     61  C   UNL A   1      38.303  34.629  34.546  1.00  0.00     0.031 C 
ATOM     62  C   UNL A   1      40.074  33.433  35.808  1.00  0.00     0.031 A 
BRANCH  49  63
ATOM     63  C   UNL A   1      43.621  28.386  35.761  1.00  0.00    -0.014 A 
ATOM     64  C   UNL A   1      43.200  27.358  36.619  1.00  0.00     0.009 A 
ATOM     65  C   UNL A   1      44.997  28.550  35.528  1.00  0.00     0.009 A 
ATOM     66  C   UNL A   1      44.135  26.526  37.241  1.00  0.00     0.001 A 
ATOM     67  C   UNL A   1      45.928  27.704  36.136  1.00  0.00     0.001 A 
ATOM     68  C   UNL A   1      45.497  26.696  36.996  1.00  0.00     0.000 A 
ENDBRANCH  49  63
BRANCH  50  69
ATOM     69  C   UNL A   1      36.494  33.397  30.932  1.00  0.00    -0.014 A 
ATOM     70  C   UNL A   1      36.705  33.908  29.644  1.00  0.00     0.009 A 
ATOM     71  C   UNL A   1      35.207  33.448  31.491  1.00  0.00     0.009 A 
ATOM     72  C   UNL A   1      35.647  34.464  28.926  1.00  0.00     0.001 A 
ATOM     73  C   UNL A   1      34.147  33.989  30.762  1.00  0.00     0.001 A 
ATOM     74  C   UNL A   1      34.368  34.496  29.481  1.00  0.00     0.000 A 
ENDBRANCH  50  69
BRANCH  62  75
ATOM     75  C   UNL A   1      40.018  34.543  36.813  1.00  0.00    -0.014 A 
ATOM     76  C   UNL A   1      39.139  34.482  37.905  1.00  0.00     0.009 A 
ATOM     77  C   UNL A   1      40.847  35.664  36.660  1.00  0.00     0.009 A 
ATOM     78  C   UNL A   1      39.066  35.543  38.807  1.00  0.00     0.001 A 
ATOM     79  C   UNL A   1      40.783  36.715  37.575  1.00  0.00     0.001 A 
ATOM     80  C   UNL A   1      39.887  36.658  38.641  1.00  0.00     0.000 A 
ENDBRANCH  62  75
ENDBRANCH  36  37
ENDBRANCH  29  31
ENDBRANCH  28  29
ENDBRANCH  27  28
ENDBRANCH   1  27
TORSDOF 13
ENDMDL
