MODEL 1
REMARK VINA RESULT:      -9.2      0.000      0.000
REMARK SMILES O=C(OCCOC(=O)[C@H](Cc1ccccn1)c1ccc(F)cc1)c1ccc(-c2c3nc(c(-c4ccccc4)c4ccc([nH]4)c(-c4ccccc4)c4nc(c(-c5ccccc5)c5ccc2[nH]5)C=C4)C=C3)cc1
REMARK SMILES IDX 4 1 3 2 2 3 1 4 24 5 25 6 71 7 26 8 70 9 27 10 28 11 29 12
REMARK SMILES IDX 64 13 30 14 69 15 63 16 65 17 31 18 68 19 62 20 61 21 32 23
REMARK SMILES IDX 54 24 39 25 53 26 40 27 43 28 52 29 66 30 41 31 42 32 51 34
REMARK SMILES IDX 67 35 44 36 33 37 34 38 38 39 35 40 37 41 36 42 55 43 56 44
REMARK SMILES IDX 60 45 57 46 59 47 58 48 45 49 46 50 50 51 47 52 49 53 48 54
REMARK SMILES IDX 5 55 6 56 7 57 8 58 9 59 17 60 18 61 23 62 19 63 22 64 20 65
REMARK SMILES IDX 21 66 10 67 11 68 12 69 16 70 13 71 15 72 14 73
REMARK H PARENT 65 22 43 33
REMARK Flexibility Score: inf
ROOT
ATOM      1  C   UNL A   1      40.455  20.536  25.836  1.00  0.00     0.275 C 
ENDROOT
BRANCH   1   2
ATOM      2  O   UNL A   1      39.854  21.496  26.716  1.00  0.00    -0.458 OA
BRANCH   2   3
ATOM      3  C   UNL A   1      39.152  22.610  26.407  1.00  0.00     0.338 C 
ATOM      4  O   UNL A   1      38.230  22.521  25.597  1.00  0.00    -0.246 OA
BRANCH   3   5
ATOM      5  C   UNL A   1      39.547  23.986  26.854  1.00  0.00     0.060 A 
ATOM      6  C   UNL A   1      40.189  24.962  26.088  1.00  0.00     0.016 A 
ATOM      7  C   UNL A   1      39.198  24.319  28.178  1.00  0.00     0.016 A 
ATOM      8  C   UNL A   1      40.438  26.237  26.602  1.00  0.00     0.010 A 
ATOM      9  C   UNL A   1      39.400  25.603  28.684  1.00  0.00     0.010 A 
ATOM     10  C   UNL A   1      40.056  26.559  27.903  1.00  0.00    -0.014 A 
BRANCH  10  11
ATOM     11  C   UNL A   1      40.587  27.784  28.537  1.00  0.00     0.031 A 
ATOM     12  C   UNL A   1      39.609  28.892  28.805  1.00  0.00     0.074 A 
ATOM     13  C   UNL A   1      41.877  27.895  28.895  1.00  0.00     0.049 A 
ATOM     14  N   UNL A   1      39.822  30.105  29.239  1.00  0.00    -0.248 NA
ATOM     15  C   UNL A   1      38.197  28.596  28.508  1.00  0.00     0.031 C 
ATOM     16  C   UNL A   1      42.900  26.865  28.722  1.00  0.00     0.029 A 
ATOM     17  N   UNL A   1      42.541  28.936  29.489  1.00  0.00    -0.354 N 
ATOM     18  C   UNL A   1      38.582  30.730  29.197  1.00  0.00     0.074 A 
ATOM     19  C   UNL A   1      37.634  29.778  28.669  1.00  0.00     0.031 C 
ATOM     20  C   UNL A   1      44.064  27.322  29.217  1.00  0.00     0.029 A 
ATOM     21  C   UNL A   1      43.876  28.689  29.698  1.00  0.00     0.049 A 
ATOM     22  H   UNL A   1      42.104  29.781  29.741  1.00  0.00     0.167 HD
ATOM     23  C   UNL A   1      38.258  31.987  29.579  1.00  0.00     0.031 A 
ATOM     24  C   UNL A   1      44.832  29.492  30.203  1.00  0.00     0.031 A 
ATOM     25  C   UNL A   1      39.202  32.906  30.142  1.00  0.00     0.049 A 
ATOM     26  C   UNL A   1      44.454  30.887  30.632  1.00  0.00     0.074 A 
ATOM     27  C   UNL A   1      38.995  34.198  30.584  1.00  0.00     0.029 A 
ATOM     28  N   UNL A   1      40.541  32.611  30.353  1.00  0.00    -0.354 N 
ATOM     29  N   UNL A   1      43.281  31.475  30.589  1.00  0.00    -0.248 NA
ATOM     30  C   UNL A   1      45.527  31.729  31.179  1.00  0.00     0.031 C 
ATOM     31  C   UNL A   1      40.221  34.698  31.034  1.00  0.00     0.029 A 
ATOM     32  C   UNL A   1      41.178  33.699  30.916  1.00  0.00     0.049 A 
ATOM     33  H   UNL A   1      40.973  31.754  30.134  1.00  0.00     0.167 HD
ATOM     34  C   UNL A   1      43.468  32.744  31.123  1.00  0.00     0.074 A 
ATOM     35  C   UNL A   1      44.867  32.837  31.492  1.00  0.00     0.031 C 
ATOM     36  C   UNL A   1      42.568  33.744  31.291  1.00  0.00     0.031 A 
BRANCH  23  37
ATOM     37  C   UNL A   1      36.840  32.417  29.332  1.00  0.00    -0.014 A 
ATOM     38  C   UNL A   1      36.457  33.042  28.133  1.00  0.00     0.009 A 
ATOM     39  C   UNL A   1      35.893  32.278  30.358  1.00  0.00     0.009 A 
ATOM     40  C   UNL A   1      35.180  33.589  27.999  1.00  0.00     0.001 A 
ATOM     41  C   UNL A   1      34.604  32.792  30.205  1.00  0.00     0.001 A 
ATOM     42  C   UNL A   1      34.256  33.466  29.036  1.00  0.00     0.000 A 
ENDBRANCH  23  37
BRANCH  24  43
ATOM     43  C   UNL A   1      46.232  29.002  30.322  1.00  0.00    -0.014 A 
ATOM     44  C   UNL A   1      46.670  28.355  31.488  1.00  0.00     0.009 A 
ATOM     45  C   UNL A   1      47.138  29.169  29.263  1.00  0.00     0.009 A 
ATOM     46  C   UNL A   1      47.988  27.904  31.598  1.00  0.00     0.001 A 
ATOM     47  C   UNL A   1      48.448  28.695  29.364  1.00  0.00     0.001 A 
ATOM     48  C   UNL A   1      48.875  28.069  30.534  1.00  0.00     0.000 A 
ENDBRANCH  24  43
BRANCH  36  49
ATOM     49  C   UNL A   1      43.045  35.009  31.944  1.00  0.00    -0.014 A 
ATOM     50  C   UNL A   1      43.607  36.048  31.187  1.00  0.00     0.009 A 
ATOM     51  C   UNL A   1      42.808  35.207  33.312  1.00  0.00     0.009 A 
ATOM     52  C   UNL A   1      43.928  37.262  31.795  1.00  0.00     0.001 A 
ATOM     53  C   UNL A   1      43.108  36.431  33.912  1.00  0.00     0.001 A 
ATOM     54  C   UNL A   1      43.669  37.456  33.152  1.00  0.00     0.000 A 
ENDBRANCH  36  49
ENDBRANCH  10  11
ENDBRANCH   3   5
ENDBRANCH   2   3
ENDBRANCH   1   2
BRANCH   1  55
ATOM     55  C   UNL A   1      41.620  19.761  26.459  1.00  0.00     0.274 C 
BRANCH  55  56
ATOM     56  O   UNL A   1      42.775  20.566  26.763  1.00  0.00    -0.462 OA
BRANCH  56  57
ATOM     57  C   UNL A   1      43.261  21.295  25.709  1.00  0.00     0.313 C 
ATOM     58  O   UNL A   1      43.684  20.802  24.676  1.00  0.00    -0.252 OA
BRANCH  57  59
ATOM     59  C   UNL A   1      43.199  22.806  25.977  1.00  0.00     0.135 C 
BRANCH  59  60
ATOM     60  C   UNL A   1      43.514  23.070  27.453  1.00  0.00    -0.033 A 
ATOM     61  C   UNL A   1      44.841  23.351  27.832  1.00  0.00     0.007 A 
ATOM     62  C   UNL A   1      42.533  23.050  28.459  1.00  0.00     0.007 A 
ATOM     63  C   UNL A   1      45.161  23.633  29.162  1.00  0.00     0.039 A 
ATOM     64  C   UNL A   1      42.857  23.307  29.791  1.00  0.00     0.039 A 
ATOM     65  C   UNL A   1      44.166  23.606  30.129  1.00  0.00     0.123 A 
ATOM     66  F   UNL A   1      44.473  23.872  31.405  1.00  0.00    -0.207 F 
ENDBRANCH  59  60
BRANCH  59  67
ATOM     67  C   UNL A   1      44.170  23.404  24.939  1.00  0.00     0.076 C 
BRANCH  67  68
ATOM     68  C   UNL A   1      44.659  24.827  25.089  1.00  0.00     0.042 A 
ATOM     69  C   UNL A   1      43.704  25.824  25.302  1.00  0.00     0.024 A 
ATOM     70  N   UNL A   1      45.970  25.109  24.920  1.00  0.00    -0.261 NA
ATOM     71  C   UNL A   1      44.093  27.158  25.264  1.00  0.00     0.003 A 
ATOM     72  C   UNL A   1      46.321  26.418  24.882  1.00  0.00     0.111 A 
ATOM     73  C   UNL A   1      45.426  27.466  25.030  1.00  0.00     0.020 A 
ENDBRANCH  67  68
ENDBRANCH  59  67
ENDBRANCH  57  59
ENDBRANCH  56  57
ENDBRANCH  55  56
ENDBRANCH   1  55
TORSDOF 14
ENDMDL
MODEL 2
REMARK VINA RESULT:      -9.1      4.510      7.264
REMARK SMILES O=C(OCCOC(=O)[C@H](Cc1ccccn1)c1ccc(F)cc1)c1ccc(-c2c3nc(c(-c4ccccc4)c4ccc([nH]4)c(-c4ccccc4)c4nc(c(-c5ccccc5)c5ccc2[nH]5)C=C4)C=C3)cc1
REMARK SMILES IDX 4 1 3 2 2 3 1 4 24 5 25 6 71 7 26 8 70 9 27 10 28 11 29 12
REMARK SMILES IDX 64 13 30 14 69 15 63 16 65 17 31 18 68 19 62 20 61 21 32 23
REMARK SMILES IDX 54 24 39 25 53 26 40 27 43 28 52 29 66 30 41 31 42 32 51 34
REMARK SMILES IDX 67 35 44 36 33 37 34 38 38 39 35 40 37 41 36 42 55 43 56 44
REMARK SMILES IDX 60 45 57 46 59 47 58 48 45 49 46 50 50 51 47 52 49 53 48 54
REMARK SMILES IDX 5 55 6 56 7 57 8 58 9 59 17 60 18 61 23 62 19 63 22 64 20 65
REMARK SMILES IDX 21 66 10 67 11 68 12 69 16 70 13 71 15 72 14 73
REMARK H PARENT 65 22 43 33
REMARK Flexibility Score: inf
ROOT
ATOM      1  C   UNL A   1      38.170  20.927  25.242  1.00  0.00     0.275 C 
ENDROOT
BRANCH   1   2
ATOM      2  O   UNL A   1      39.090  19.961  25.771  1.00  0.00    -0.458 OA
BRANCH   2   3
ATOM      3  C   UNL A   1      40.422  20.077  25.970  1.00  0.00     0.338 C 
ATOM      4  O   UNL A   1      41.142  19.110  25.722  1.00  0.00    -0.246 OA
BRANCH   3   5
ATOM      5  C   UNL A   1      41.058  21.253  26.651  1.00  0.00     0.060 A 
ATOM      6  C   UNL A   1      41.161  21.467  28.027  1.00  0.00     0.016 A 
ATOM      7  C   UNL A   1      41.629  22.215  25.794  1.00  0.00     0.016 A 
ATOM      8  C   UNL A   1      41.845  22.574  28.538  1.00  0.00     0.010 A 
ATOM      9  C   UNL A   1      42.353  23.297  26.294  1.00  0.00     0.010 A 
ATOM     10  C   UNL A   1      42.432  23.498  27.675  1.00  0.00    -0.014 A 
BRANCH  10  11
ATOM     11  C   UNL A   1      42.880  24.804  28.200  1.00  0.00     0.031 A 
ATOM     12  C   UNL A   1      41.817  25.829  28.476  1.00  0.00     0.074 A 
ATOM     13  C   UNL A   1      44.173  25.060  28.458  1.00  0.00     0.049 A 
ATOM     14  N   UNL A   1      41.936  27.082  28.826  1.00  0.00    -0.248 NA
ATOM     15  C   UNL A   1      40.424  25.382  28.299  1.00  0.00     0.031 C 
ATOM     16  C   UNL A   1      45.280  24.124  28.268  1.00  0.00     0.029 A 
ATOM     17  N   UNL A   1      44.768  26.195  28.943  1.00  0.00    -0.354 N 
ATOM     18  C   UNL A   1      40.641  27.582  28.840  1.00  0.00     0.074 A 
ATOM     19  C   UNL A   1      39.759  26.513  28.435  1.00  0.00     0.031 C 
ATOM     20  C   UNL A   1      46.423  24.719  28.652  1.00  0.00     0.029 A 
ATOM     21  C   UNL A   1      46.132  26.090  29.069  1.00  0.00     0.049 A 
ATOM     22  H   UNL A   1      44.267  27.009  29.179  1.00  0.00     0.167 HD
ATOM     23  C   UNL A   1      40.219  28.823  29.173  1.00  0.00     0.031 A 
ATOM     24  C   UNL A   1      47.035  27.010  29.458  1.00  0.00     0.031 A 
ATOM     25  C   UNL A   1      41.102  29.861  29.615  1.00  0.00     0.049 A 
ATOM     26  C   UNL A   1      46.550  28.386  29.835  1.00  0.00     0.074 A 
ATOM     27  C   UNL A   1      40.798  31.152  29.999  1.00  0.00     0.029 A 
ATOM     28  N   UNL A   1      42.476  29.709  29.744  1.00  0.00    -0.354 N 
ATOM     29  N   UNL A   1      45.324  28.856  29.844  1.00  0.00    -0.248 NA
ATOM     30  C   UNL A   1      47.568  29.360  30.256  1.00  0.00     0.031 C 
ATOM     31  C   UNL A   1      41.996  31.794  30.331  1.00  0.00     0.029 A 
ATOM     32  C   UNL A   1      43.037  30.885  30.199  1.00  0.00     0.049 A 
ATOM     33  H   UNL A   1      42.975  28.885  29.543  1.00  0.00     0.167 HD
ATOM     34  C   UNL A   1      45.419  30.168  30.293  1.00  0.00     0.074 A 
ATOM     35  C   UNL A   1      46.824  30.417  30.554  1.00  0.00     0.031 C 
ATOM     36  C   UNL A   1      44.438  31.086  30.469  1.00  0.00     0.031 A 
BRANCH  23  37
ATOM     37  C   UNL A   1      38.752  29.100  29.007  1.00  0.00    -0.014 A 
ATOM     38  C   UNL A   1      38.223  29.562  27.790  1.00  0.00     0.009 A 
ATOM     39  C   UNL A   1      37.902  28.985  30.117  1.00  0.00     0.009 A 
ATOM     40  C   UNL A   1      36.893  29.978  27.711  1.00  0.00     0.001 A 
ATOM     41  C   UNL A   1      36.563  29.367  30.024  1.00  0.00     0.001 A 
ATOM     42  C   UNL A   1      36.065  29.883  28.829  1.00  0.00     0.000 A 
ENDBRANCH  23  37
BRANCH  24  43
ATOM     43  C   UNL A   1      48.482  26.664  29.502  1.00  0.00    -0.014 A 
ATOM     44  C   UNL A   1      49.313  26.909  28.398  1.00  0.00     0.009 A 
ATOM     45  C   UNL A   1      49.044  26.094  30.655  1.00  0.00     0.009 A 
ATOM     46  C   UNL A   1      50.669  26.574  28.442  1.00  0.00     0.001 A 
ATOM     47  C   UNL A   1      50.405  25.784  30.707  1.00  0.00     0.001 A 
ATOM     48  C   UNL A   1      51.216  26.018  29.597  1.00  0.00     0.000 A 
ENDBRANCH  24  43
BRANCH  36  49
ATOM     49  C   UNL A   1      44.829  32.429  31.015  1.00  0.00    -0.014 A 
ATOM     50  C   UNL A   1      44.913  32.654  32.396  1.00  0.00     0.009 A 
ATOM     51  C   UNL A   1      45.239  33.437  30.129  1.00  0.00     0.009 A 
ATOM     52  C   UNL A   1      45.398  33.870  32.880  1.00  0.00     0.001 A 
ATOM     53  C   UNL A   1      45.746  34.642  30.615  1.00  0.00     0.001 A 
ATOM     54  C   UNL A   1      45.823  34.857  31.990  1.00  0.00     0.000 A 
ENDBRANCH  36  49
ENDBRANCH  10  11
ENDBRANCH   3   5
ENDBRANCH   2   3
ENDBRANCH   1   2
BRANCH   1  55
ATOM     55  C   UNL A   1      36.773  20.367  24.956  1.00  0.00     0.274 C 
BRANCH  55  56
ATOM     56  O   UNL A   1      35.712  21.020  25.679  1.00  0.00    -0.462 OA
BRANCH  56  57
ATOM     57  C   UNL A   1      34.722  21.549  24.892  1.00  0.00     0.313 C 
ATOM     58  O   UNL A   1      34.929  22.226  23.899  1.00  0.00    -0.252 OA
BRANCH  57  59
ATOM     59  C   UNL A   1      33.322  21.179  25.403  1.00  0.00     0.135 C 
BRANCH  59  60
ATOM     60  C   UNL A   1      32.481  22.452  25.536  1.00  0.00    -0.033 A 
ATOM     61  C   UNL A   1      31.531  22.755  24.541  1.00  0.00     0.007 A 
ATOM     62  C   UNL A   1      32.607  23.342  26.617  1.00  0.00     0.007 A 
ATOM     63  C   UNL A   1      30.719  23.886  24.646  1.00  0.00     0.039 A 
ATOM     64  C   UNL A   1      31.814  24.486  26.709  1.00  0.00     0.039 A 
ATOM     65  C   UNL A   1      30.871  24.743  25.728  1.00  0.00     0.123 A 
ATOM     66  F   UNL A   1      30.097  25.831  25.827  1.00  0.00    -0.207 F 
ENDBRANCH  59  60
BRANCH  59  67
ATOM     67  C   UNL A   1      32.830  20.120  24.395  1.00  0.00     0.076 C 
BRANCH  67  68
ATOM     68  C   UNL A   1      33.088  18.653  24.648  1.00  0.00     0.042 A 
ATOM     69  C   UNL A   1      33.999  17.999  23.816  1.00  0.00     0.024 A 
ATOM     70  N   UNL A   1      32.375  17.998  25.591  1.00  0.00    -0.261 NA
ATOM     71  C   UNL A   1      34.127  16.617  23.900  1.00  0.00     0.003 A 
ATOM     72  C   UNL A   1      32.515  16.651  25.648  1.00  0.00     0.111 A 
ATOM     73  C   UNL A   1      33.356  15.923  24.822  1.00  0.00     0.020 A 
ENDBRANCH  67  68
ENDBRANCH  59  67
ENDBRANCH  57  59
ENDBRANCH  56  57
ENDBRANCH  55  56
ENDBRANCH   1  55
TORSDOF 14
ENDMDL
MODEL 3
REMARK VINA RESULT:      -9.1      4.803      9.159
REMARK SMILES O=C(OCCOC(=O)[C@H](Cc1ccccn1)c1ccc(F)cc1)c1ccc(-c2c3nc(c(-c4ccccc4)c4ccc([nH]4)c(-c4ccccc4)c4nc(c(-c5ccccc5)c5ccc2[nH]5)C=C4)C=C3)cc1
REMARK SMILES IDX 4 1 3 2 2 3 1 4 24 5 25 6 71 7 26 8 70 9 27 10 28 11 29 12
REMARK SMILES IDX 64 13 30 14 69 15 63 16 65 17 31 18 68 19 62 20 61 21 32 23
REMARK SMILES IDX 54 24 39 25 53 26 40 27 43 28 52 29 66 30 41 31 42 32 51 34
REMARK SMILES IDX 67 35 44 36 33 37 34 38 38 39 35 40 37 41 36 42 55 43 56 44
REMARK SMILES IDX 60 45 57 46 59 47 58 48 45 49 46 50 50 51 47 52 49 53 48 54
REMARK SMILES IDX 5 55 6 56 7 57 8 58 9 59 17 60 18 61 23 62 19 63 22 64 20 65
REMARK SMILES IDX 21 66 10 67 11 68 12 69 16 70 13 71 15 72 14 73
REMARK H PARENT 65 22 43 33
REMARK Flexibility Score: inf
ROOT
ATOM      1  C   UNL A   1      37.244  21.147  24.535  1.00  0.00     0.275 C 
ENDROOT
BRANCH   1   2
ATOM      2  O   UNL A   1      37.942  20.890  25.761  1.00  0.00    -0.458 OA
BRANCH   2   3
ATOM      3  C   UNL A   1      39.197  21.246  26.116  1.00  0.00     0.338 C 
ATOM      4  O   UNL A   1      40.050  20.367  26.232  1.00  0.00    -0.246 OA
BRANCH   3   5
ATOM      5  C   UNL A   1      39.570  22.631  26.556  1.00  0.00     0.060 A 
ATOM      6  C   UNL A   1      38.886  23.813  26.266  1.00  0.00     0.016 A 
ATOM      7  C   UNL A   1      40.717  22.721  27.370  1.00  0.00     0.016 A 
ATOM      8  C   UNL A   1      39.299  25.037  26.800  1.00  0.00     0.010 A 
ATOM      9  C   UNL A   1      41.109  23.929  27.944  1.00  0.00     0.010 A 
ATOM     10  C   UNL A   1      40.417  25.103  27.630  1.00  0.00    -0.014 A 
BRANCH  10  11
ATOM     11  C   UNL A   1      41.022  26.415  27.937  1.00  0.00     0.031 A 
ATOM     12  C   UNL A   1      42.336  26.730  27.283  1.00  0.00     0.074 A 
ATOM     13  C   UNL A   1      40.412  27.307  28.735  1.00  0.00     0.049 A 
ATOM     14  N   UNL A   1      43.136  27.747  27.465  1.00  0.00    -0.248 NA
ATOM     15  C   UNL A   1      42.831  25.739  26.312  1.00  0.00     0.031 C 
ATOM     16  C   UNL A   1      39.116  27.122  29.386  1.00  0.00     0.029 A 
ATOM     17  N   UNL A   1      40.812  28.558  29.127  1.00  0.00    -0.354 N 
ATOM     18  C   UNL A   1      44.253  27.477  26.685  1.00  0.00     0.074 A 
ATOM     19  C   UNL A   1      44.044  26.194  26.057  1.00  0.00     0.031 C 
ATOM     20  C   UNL A   1      38.817  28.232  30.084  1.00  0.00     0.029 A 
ATOM     21  C   UNL A   1      39.921  29.183  29.965  1.00  0.00     0.049 A 
ATOM     22  H   UNL A   1      41.657  28.971  28.835  1.00  0.00     0.167 HD
ATOM     23  C   UNL A   1      45.355  28.238  26.497  1.00  0.00     0.031 A 
ATOM     24  C   UNL A   1      40.008  30.379  30.579  1.00  0.00     0.031 A 
ATOM     25  C   UNL A   1      45.529  29.530  27.092  1.00  0.00     0.049 A 
ATOM     26  C   UNL A   1      41.238  31.220  30.353  1.00  0.00     0.074 A 
ATOM     27  C   UNL A   1      46.589  30.406  26.966  1.00  0.00     0.029 A 
ATOM     28  N   UNL A   1      44.596  30.133  27.923  1.00  0.00    -0.354 N 
ATOM     29  N   UNL A   1      42.294  30.960  29.617  1.00  0.00    -0.248 NA
ATOM     30  C   UNL A   1      41.292  32.519  31.040  1.00  0.00     0.031 C 
ATOM     31  C   UNL A   1      46.311  31.531  27.749  1.00  0.00     0.029 A 
ATOM     32  C   UNL A   1      45.056  31.372  28.323  1.00  0.00     0.049 A 
ATOM     33  H   UNL A   1      43.735  29.738  28.188  1.00  0.00     0.167 HD
ATOM     34  C   UNL A   1      43.124  32.068  29.731  1.00  0.00     0.074 A 
ATOM     35  C   UNL A   1      42.446  33.008  30.602  1.00  0.00     0.031 C 
ATOM     36  C   UNL A   1      44.339  32.289  29.172  1.00  0.00     0.031 A 
BRANCH  23  37
ATOM     37  C   UNL A   1      46.448  27.639  25.658  1.00  0.00    -0.014 A 
ATOM     38  C   UNL A   1      47.463  26.849  26.225  1.00  0.00     0.009 A 
ATOM     39  C   UNL A   1      46.514  27.952  24.292  1.00  0.00     0.009 A 
ATOM     40  C   UNL A   1      48.560  26.453  25.459  1.00  0.00     0.001 A 
ATOM     41  C   UNL A   1      47.594  27.521  23.520  1.00  0.00     0.001 A 
ATOM     42  C   UNL A   1      48.625  26.791  24.108  1.00  0.00     0.000 A 
ENDBRANCH  23  37
BRANCH  24  43
ATOM     43  C   UNL A   1      38.908  30.844  31.466  1.00  0.00    -0.014 A 
ATOM     44  C   UNL A   1      37.844  31.601  30.953  1.00  0.00     0.009 A 
ATOM     45  C   UNL A   1      38.912  30.525  32.833  1.00  0.00     0.009 A 
ATOM     46  C   UNL A   1      36.817  32.043  31.793  1.00  0.00     0.001 A 
ATOM     47  C   UNL A   1      37.871  30.945  33.666  1.00  0.00     0.001 A 
ATOM     48  C   UNL A   1      36.828  31.710  33.147  1.00  0.00     0.000 A 
ENDBRANCH  24  43
BRANCH  36  49
ATOM     49  C   UNL A   1      44.999  33.612  29.436  1.00  0.00    -0.014 A 
ATOM     50  C   UNL A   1      44.733  34.728  28.630  1.00  0.00     0.009 A 
ATOM     51  C   UNL A   1      45.793  33.766  30.583  1.00  0.00     0.009 A 
ATOM     52  C   UNL A   1      45.259  35.976  28.967  1.00  0.00     0.001 A 
ATOM     53  C   UNL A   1      46.297  35.020  30.930  1.00  0.00     0.001 A 
ATOM     54  C   UNL A   1      46.030  36.123  30.121  1.00  0.00     0.000 A 
ENDBRANCH  36  49
ENDBRANCH  10  11
ENDBRANCH   3   5
ENDBRANCH   2   3
ENDBRANCH   1   2
BRANCH   1  55
ATOM     55  C   UNL A   1      36.029  22.066  24.689  1.00  0.00     0.274 C 
BRANCH  55  56
ATOM     56  O   UNL A   1      34.760  21.415  24.485  1.00  0.00    -0.462 OA
BRANCH  56  57
ATOM     57  C   UNL A   1      34.001  21.270  25.617  1.00  0.00     0.313 C 
ATOM     58  O   UNL A   1      34.447  21.333  26.750  1.00  0.00    -0.252 OA
BRANCH  57  59
ATOM     59  C   UNL A   1      32.520  21.030  25.289  1.00  0.00     0.135 C 
BRANCH  59  60
ATOM     60  C   UNL A   1      31.846  22.372  24.987  1.00  0.00    -0.033 A 
ATOM     61  C   UNL A   1      31.590  22.726  23.648  1.00  0.00     0.007 A 
ATOM     62  C   UNL A   1      31.462  23.278  25.991  1.00  0.00     0.007 A 
ATOM     63  C   UNL A   1      30.943  23.924  23.335  1.00  0.00     0.039 A 
ATOM     64  C   UNL A   1      30.839  24.486  25.677  1.00  0.00     0.039 A 
ATOM     65  C   UNL A   1      30.577  24.794  24.353  1.00  0.00     0.123 A 
ATOM     66  F   UNL A   1      29.962  25.945  24.054  1.00  0.00    -0.207 F 
ENDBRANCH  59  60
BRANCH  59  67
ATOM     67  C   UNL A   1      32.559  19.997  24.144  1.00  0.00     0.076 C 
BRANCH  67  68
ATOM     68  C   UNL A   1      32.886  18.551  24.438  1.00  0.00     0.042 A 
ATOM     69  C   UNL A   1      33.616  17.841  23.482  1.00  0.00     0.024 A 
ATOM     70  N   UNL A   1      32.394  17.962  25.551  1.00  0.00    -0.261 NA
ATOM     71  C   UNL A   1      33.780  16.469  23.631  1.00  0.00     0.003 A 
ATOM     72  C   UNL A   1      32.564  16.623  25.669  1.00  0.00     0.111 A 
ATOM     73  C   UNL A   1      33.227  15.840  24.737  1.00  0.00     0.020 A 
ENDBRANCH  67  68
ENDBRANCH  59  67
ENDBRANCH  57  59
ENDBRANCH  56  57
ENDBRANCH  55  56
ENDBRANCH   1  55
TORSDOF 14
ENDMDL
