MODEL 1
REMARK VINA RESULT:     -11.3      0.000      0.000
REMARK SMILES O=C(OCCOC(=O)[C@@H]1C[C@@H](O)CN1C(=O)c1ccccc1)c1ccc(-c2c3nc(c(-c4ccccc4)c4ccc([nH]4)c(-c4ccccc4)c4nc(c(-c5ccccc5)c5ccc2[nH]5)C=C4)C=C3)cc1
REMARK SMILES IDX 4 1 3 2 2 3 1 4 23 5 24 6 70 7 25 8 69 9 26 10 27 11 28 12
REMARK SMILES IDX 63 13 29 14 68 15 62 16 64 17 30 18 67 19 61 20 60 21 31 23
REMARK SMILES IDX 53 24 38 25 52 26 39 27 42 28 51 29 65 30 40 31 41 32 50 34
REMARK SMILES IDX 66 35 43 36 32 37 33 38 37 39 34 40 36 41 35 42 54 43 55 44
REMARK SMILES IDX 59 45 56 46 58 47 57 48 44 49 45 50 49 51 46 52 48 53 47 54
REMARK SMILES IDX 5 55 6 56 7 57 8 58 9 59 10 60 14 61 11 62 13 63 15 64 16 65
REMARK SMILES IDX 17 66 18 67 22 68 19 69 21 70 20 71 12 72
REMARK H PARENT 64 22 42 33 12 73
REMARK Flexibility Score: inf
ROOT
ATOM      1  C   UNL A   1      32.679  32.676  27.568  1.00  0.00     0.275 C 
ENDROOT
BRANCH   1   2
ATOM      2  O   UNL A   1      32.450  34.037  27.924  1.00  0.00    -0.458 OA
BRANCH   2   3
ATOM      3  C   UNL A   1      33.076  34.628  28.961  1.00  0.00     0.338 C 
ATOM      4  O   UNL A   1      32.642  35.654  29.472  1.00  0.00    -0.246 OA
BRANCH   3   5
ATOM      5  C   UNL A   1      34.344  34.090  29.495  1.00  0.00     0.060 A 
ATOM      6  C   UNL A   1      34.514  33.031  30.993  1.00  0.00     0.016 A 
ATOM      7  C   UNL A   1      35.820  34.365  28.456  1.00  0.00     0.016 A 
ATOM      8  C   UNL A   1      36.102  32.389  31.500  1.00  0.00     0.010 A 
ATOM      9  C   UNL A   1      37.466  33.727  29.036  1.00  0.00     0.010 A 
ATOM     10  C   UNL A   1      37.563  32.720  30.556  1.00  0.00    -0.014 A 
BRANCH  10  11
ATOM     11  C   UNL A   1      38.750  31.904  30.943  1.00  0.00     0.031 A 
ATOM     12  C   UNL A   1      39.717  32.462  31.919  1.00  0.00     0.074 A 
ATOM     13  C   UNL A   1      38.958  30.681  30.393  1.00  0.00     0.049 A 
ATOM     14  N   UNL A   1      40.852  31.964  32.321  1.00  0.00    -0.248 NA
ATOM     15  C   UNL A   1      39.355  33.738  32.544  1.00  0.00     0.031 C 
ATOM     16  C   UNL A   1      38.044  29.967  29.498  1.00  0.00     0.029 A 
ATOM     17  N   UNL A   1      40.023  29.814  30.467  1.00  0.00    -0.354 N 
ATOM     18  C   UNL A   1      41.323  32.857  33.266  1.00  0.00     0.074 A 
ATOM     19  C   UNL A   1      40.410  33.975  33.304  1.00  0.00     0.031 C 
ATOM     20  C   UNL A   1      38.599  28.837  29.045  1.00  0.00     0.029 A 
ATOM     21  C   UNL A   1      39.916  28.722  29.626  1.00  0.00     0.049 A 
ATOM     22  H   UNL A   1      40.793  29.959  31.063  1.00  0.00     0.167 HD
ATOM     23  C   UNL A   1      42.393  32.721  34.076  1.00  0.00     0.031 A 
ATOM     24  C   UNL A   1      40.776  27.725  29.349  1.00  0.00     0.031 A 
ATOM     25  C   UNL A   1      43.290  31.603  34.017  1.00  0.00     0.049 A 
ATOM     26  C   UNL A   1      42.045  27.689  30.139  1.00  0.00     0.074 A 
ATOM     27  C   UNL A   1      44.415  31.364  34.780  1.00  0.00     0.029 A 
ATOM     28  N   UNL A   1      43.164  30.542  33.130  1.00  0.00    -0.354 N 
ATOM     29  N   UNL A   1      42.450  28.520  31.069  1.00  0.00    -0.248 NA
ATOM     30  C   UNL A   1      42.948  26.559  29.894  1.00  0.00     0.031 C 
ATOM     31  C   UNL A   1      45.017  30.200  34.299  1.00  0.00     0.029 A 
ATOM     32  C   UNL A   1      44.220  29.667  33.296  1.00  0.00     0.049 A 
ATOM     33  H   UNL A   1      42.432  30.431  32.481  1.00  0.00     0.167 HD
ATOM     34  C   UNL A   1      43.621  27.978  31.569  1.00  0.00     0.074 A 
ATOM     35  C   UNL A   1      43.855  26.746  30.841  1.00  0.00     0.031 C 
ATOM     36  C   UNL A   1      44.421  28.449  32.555  1.00  0.00     0.031 A 
BRANCH  23  37
ATOM     37  C   UNL A   1      42.640  33.831  35.050  1.00  0.00    -0.014 A 
ATOM     38  C   UNL A   1      43.428  34.941  34.705  1.00  0.00     0.009 A 
ATOM     39  C   UNL A   1      42.114  33.740  36.345  1.00  0.00     0.009 A 
ATOM     40  C   UNL A   1      43.724  35.917  35.657  1.00  0.00     0.001 A 
ATOM     41  C   UNL A   1      42.383  34.734  37.284  1.00  0.00     0.001 A 
ATOM     42  C   UNL A   1      43.196  35.815  36.944  1.00  0.00     0.000 A 
ENDBRANCH  23  37
BRANCH  24  43
ATOM     43  C   UNL A   1      40.470  26.678  28.330  1.00  0.00    -0.014 A 
ATOM     44  C   UNL A   1      40.993  26.762  27.031  1.00  0.00     0.009 A 
ATOM     45  C   UNL A   1      39.595  25.620  28.631  1.00  0.00     0.009 A 
ATOM     46  C   UNL A   1      40.592  25.862  26.038  1.00  0.00     0.001 A 
ATOM     47  C   UNL A   1      39.220  24.701  27.644  1.00  0.00     0.001 A 
ATOM     48  C   UNL A   1      39.703  24.835  26.344  1.00  0.00     0.000 A 
ENDBRANCH  24  43
BRANCH  36  49
ATOM     49  C   UNL A   1      45.598  27.600  32.930  1.00  0.00    -0.014 A 
ATOM     50  C   UNL A   1      45.493  26.589  33.895  1.00  0.00     0.009 A 
ATOM     51  C   UNL A   1      46.816  27.786  32.256  1.00  0.00     0.009 A 
ATOM     52  C   UNL A   1      46.600  25.798  34.202  1.00  0.00     0.001 A 
ATOM     53  C   UNL A   1      47.905  26.964  32.533  1.00  0.00     0.001 A 
ATOM     54  C   UNL A   1      47.798  25.978  33.513  1.00  0.00     0.000 A 
ENDBRANCH  36  49
ENDBRANCH  10  11
ENDBRANCH   3   5
ENDBRANCH   2   3
ENDBRANCH   1   2
BRANCH   1  55
ATOM     55  C   UNL A   1      31.487  32.111  26.796  1.00  0.00     0.274 C 
BRANCH  55  56
ATOM     56  O   UNL A   1      31.675  30.849  26.031  1.00  0.00    -0.461 OA
BRANCH  56  57
ATOM     57  C   UNL A   1      31.833  29.543  25.830  1.00  0.00     0.329 C 
ATOM     58  O   UNL A   1      32.030  28.908  26.878  1.00  0.00    -0.250 OA
BRANCH  57  59
ATOM     59  C   UNL A   1      31.664  28.669  24.472  1.00  0.00     0.198 C 
ATOM     60  C   UNL A   1      30.405  29.310  23.813  1.00  0.00     0.071 C 
ATOM     61  N   UNL A   1      31.620  27.020  23.816  1.00  0.00    -0.322 N 
ATOM     62  C   UNL A   1      30.369  28.898  22.375  1.00  0.00     0.136 C 
ATOM     63  C   UNL A   1      30.975  27.513  22.289  1.00  0.00     0.152 C 
BRANCH  61  64
ATOM     64  C   UNL A   1      32.454  25.309  24.415  1.00  0.00     0.254 C 
ATOM     65  O   UNL A   1      31.925  24.328  25.055  1.00  0.00    -0.269 OA
BRANCH  64  66
ATOM     66  C   UNL A   1      34.090  24.615  24.516  1.00  0.00     0.040 A 
ATOM     67  C   UNL A   1      34.500  23.875  23.365  1.00  0.00     0.014 A 
ATOM     68  C   UNL A   1      35.041  24.548  25.576  1.00  0.00     0.014 A 
ATOM     69  C   UNL A   1      35.707  23.157  23.278  1.00  0.00     0.001 A 
ATOM     70  C   UNL A   1      36.265  23.854  25.485  1.00  0.00     0.001 A 
ATOM     71  C   UNL A   1      36.595  23.156  24.337  1.00  0.00     0.000 A 
ENDBRANCH  64  66
ENDBRANCH  61  64
BRANCH  62  72
ATOM     72  O   UNL A   1      31.081  29.835  21.564  1.00  0.00    -0.391 OA
ATOM     73  H   UNL A   1      30.449  30.385  21.076  1.00  0.00     0.211 HD
ENDBRANCH  62  72
ENDBRANCH  57  59
ENDBRANCH  56  57
ENDBRANCH  55  56
ENDBRANCH   1  55
TORSDOF 14
ENDMDL
MODEL 2
REMARK VINA RESULT:     -11.2      3.809      9.164
REMARK SMILES O=C(OCCOC(=O)[C@@H]1C[C@@H](O)CN1C(=O)c1ccccc1)c1ccc(-c2c3nc(c(-c4ccccc4)c4ccc([nH]4)c(-c4ccccc4)c4nc(c(-c5ccccc5)c5ccc2[nH]5)C=C4)C=C3)cc1
REMARK SMILES IDX 4 1 3 2 2 3 1 4 23 5 24 6 70 7 25 8 69 9 26 10 27 11 28 12
REMARK SMILES IDX 63 13 29 14 68 15 62 16 64 17 30 18 67 19 61 20 60 21 31 23
REMARK SMILES IDX 53 24 38 25 52 26 39 27 42 28 51 29 65 30 40 31 41 32 50 34
REMARK SMILES IDX 66 35 43 36 32 37 33 38 37 39 34 40 36 41 35 42 54 43 55 44
REMARK SMILES IDX 59 45 56 46 58 47 57 48 44 49 45 50 49 51 46 52 48 53 47 54
REMARK SMILES IDX 5 55 6 56 7 57 8 58 9 59 10 60 14 61 11 62 13 63 15 64 16 65
REMARK SMILES IDX 17 66 18 67 22 68 19 69 21 70 20 71 12 72
REMARK H PARENT 64 22 42 33 12 73
REMARK Flexibility Score: inf
ROOT
ATOM      1  C   UNL A   1      39.640  20.037  25.839  1.00  0.00     0.275 C 
ENDROOT
BRANCH   1   2
ATOM      2  O   UNL A   1      40.696  19.087  25.715  1.00  0.00    -0.458 OA
BRANCH   2   3
ATOM      3  C   UNL A   1      41.995  19.437  25.791  1.00  0.00     0.338 C 
ATOM      4  O   UNL A   1      42.889  18.656  25.485  1.00  0.00    -0.246 OA
BRANCH   3   5
ATOM      5  C   UNL A   1      42.400  20.765  26.296  1.00  0.00     0.060 A 
ATOM      6  C   UNL A   1      42.978  22.175  25.262  1.00  0.00     0.016 A 
ATOM      7  C   UNL A   1      42.117  21.054  28.076  1.00  0.00     0.016 A 
ATOM      8  C   UNL A   1      43.380  23.757  25.990  1.00  0.00     0.010 A 
ATOM      9  C   UNL A   1      42.591  22.693  28.813  1.00  0.00     0.010 A 
ATOM     10  C   UNL A   1      43.199  24.031  27.730  1.00  0.00    -0.014 A 
BRANCH  10  11
ATOM     11  C   UNL A   1      43.308  25.459  28.147  1.00  0.00     0.031 A 
ATOM     12  C   UNL A   1      44.626  25.980  28.585  1.00  0.00     0.074 A 
ATOM     13  C   UNL A   1      42.215  26.264  28.152  1.00  0.00     0.049 A 
ATOM     14  N   UNL A   1      44.920  27.153  29.070  1.00  0.00    -0.248 NA
ATOM     15  C   UNL A   1      45.769  25.074  28.441  1.00  0.00     0.031 C 
ATOM     16  C   UNL A   1      40.882  25.916  27.656  1.00  0.00     0.029 A 
ATOM     17  N   UNL A   1      42.024  27.543  28.621  1.00  0.00    -0.354 N 
ATOM     18  C   UNL A   1      46.290  27.129  29.262  1.00  0.00     0.074 A 
ATOM     19  C   UNL A   1      46.753  25.800  28.944  1.00  0.00     0.031 C 
ATOM     20  C   UNL A   1      40.004  26.893  27.912  1.00  0.00     0.029 A 
ATOM     21  C   UNL A   1      40.707  27.962  28.582  1.00  0.00     0.049 A 
ATOM     22  H   UNL A   1      42.757  28.107  28.955  1.00  0.00     0.167 HD
ATOM     23  C   UNL A   1      47.096  28.152  29.615  1.00  0.00     0.031 A 
ATOM     24  C   UNL A   1      40.117  29.086  29.029  1.00  0.00     0.031 A 
ATOM     25  C   UNL A   1      46.613  29.464  29.933  1.00  0.00     0.049 A 
ATOM     26  C   UNL A   1      41.017  30.145  29.582  1.00  0.00     0.074 A 
ATOM     27  C   UNL A   1      47.336  30.576  30.315  1.00  0.00     0.029 A 
ATOM     28  N   UNL A   1      45.274  29.833  29.915  1.00  0.00    -0.354 N 
ATOM     29  N   UNL A   1      42.321  30.122  29.709  1.00  0.00    -0.248 NA
ATOM     30  C   UNL A   1      40.384  31.402  29.997  1.00  0.00     0.031 C 
ATOM     31  C   UNL A   1      46.428  31.595  30.609  1.00  0.00     0.029 A 
ATOM     32  C   UNL A   1      45.146  31.146  30.326  1.00  0.00     0.049 A 
ATOM     33  H   UNL A   1      44.529  29.246  29.650  1.00  0.00     0.167 HD
ATOM     34  C   UNL A   1      42.675  31.384  30.154  1.00  0.00     0.074 A 
ATOM     35  C   UNL A   1      41.446  32.145  30.269  1.00  0.00     0.031 C 
ATOM     36  C   UNL A   1      43.907  31.873  30.427  1.00  0.00     0.031 A 
BRANCH  23  37
ATOM     37  C   UNL A   1      48.560  27.851  29.698  1.00  0.00    -0.014 A 
ATOM     38  C   UNL A   1      49.398  27.992  28.579  1.00  0.00     0.009 A 
ATOM     39  C   UNL A   1      49.099  27.376  30.901  1.00  0.00     0.009 A 
ATOM     40  C   UNL A   1      50.739  27.616  28.652  1.00  0.00     0.001 A 
ATOM     41  C   UNL A   1      50.447  27.034  30.980  1.00  0.00     0.001 A 
ATOM     42  C   UNL A   1      51.263  27.143  29.854  1.00  0.00     0.000 A 
ENDBRANCH  23  37
BRANCH  24  43
ATOM     43  C   UNL A   1      38.641  29.291  28.946  1.00  0.00    -0.014 A 
ATOM     44  C   UNL A   1      38.044  29.758  27.765  1.00  0.00     0.009 A 
ATOM     45  C   UNL A   1      37.825  29.086  30.072  1.00  0.00     0.009 A 
ATOM     46  C   UNL A   1      36.684  30.086  27.732  1.00  0.00     0.001 A 
ATOM     47  C   UNL A   1      36.458  29.384  30.027  1.00  0.00     0.001 A 
ATOM     48  C   UNL A   1      35.894  29.903  28.864  1.00  0.00     0.000 A 
ENDBRANCH  24  43
BRANCH  36  49
ATOM     49  C   UNL A   1      43.985  33.315  30.831  1.00  0.00    -0.014 A 
ATOM     50  C   UNL A   1      43.941  33.700  32.179  1.00  0.00     0.009 A 
ATOM     51  C   UNL A   1      44.165  34.293  29.841  1.00  0.00     0.009 A 
ATOM     52  C   UNL A   1      44.044  35.046  32.524  1.00  0.00     0.001 A 
ATOM     53  C   UNL A   1      44.315  35.631  30.194  1.00  0.00     0.001 A 
ATOM     54  C   UNL A   1      44.243  36.007  31.534  1.00  0.00     0.000 A 
ENDBRANCH  36  49
ENDBRANCH  10  11
ENDBRANCH   3   5
ENDBRANCH   2   3
ENDBRANCH   1   2
BRANCH   1  55
ATOM     55  C   UNL A   1      38.430  19.613  25.007  1.00  0.00     0.274 C 
BRANCH  55  56
ATOM     56  O   UNL A   1      37.193  20.435  25.088  1.00  0.00    -0.461 OA
BRANCH  56  57
ATOM     57  C   UNL A   1      36.298  21.351  24.726  1.00  0.00     0.329 C 
ATOM     58  O   UNL A   1      36.752  22.190  23.933  1.00  0.00    -0.250 OA
BRANCH  57  59
ATOM     59  C   UNL A   1      34.710  21.442  25.050  1.00  0.00     0.198 C 
ATOM     60  C   UNL A   1      34.206  20.018  24.661  1.00  0.00     0.071 C 
ATOM     61  N   UNL A   1      33.247  22.421  24.823  1.00  0.00    -0.322 N 
ATOM     62  C   UNL A   1      32.861  19.812  25.285  1.00  0.00     0.136 C 
ATOM     63  C   UNL A   1      32.176  21.162  25.332  1.00  0.00     0.152 C 
BRANCH  61  64
ATOM     64  C   UNL A   1      32.964  24.379  24.559  1.00  0.00     0.254 C 
ATOM     65  O   UNL A   1      32.872  25.046  23.465  1.00  0.00    -0.269 OA
BRANCH  64  66
ATOM     66  C   UNL A   1      32.956  25.847  25.566  1.00  0.00     0.040 A 
ATOM     67  C   UNL A   1      31.703  26.143  26.185  1.00  0.00     0.014 A 
ATOM     68  C   UNL A   1      33.928  26.866  25.785  1.00  0.00     0.014 A 
ATOM     69  C   UNL A   1      31.448  27.307  26.932  1.00  0.00     0.001 A 
ATOM     70  C   UNL A   1      33.687  28.022  26.555  1.00  0.00     0.001 A 
ATOM     71  C   UNL A   1      32.447  28.244  27.125  1.00  0.00     0.000 A 
ENDBRANCH  64  66
ENDBRANCH  61  64
BRANCH  62  72
ATOM     72  O   UNL A   1      32.992  19.242  26.589  1.00  0.00    -0.391 OA
ATOM     73  H   UNL A   1      33.801  18.709  26.629  1.00  0.00     0.211 HD
ENDBRANCH  62  72
ENDBRANCH  57  59
ENDBRANCH  56  57
ENDBRANCH  55  56
ENDBRANCH   1  55
TORSDOF 14
ENDMDL
MODEL 3
REMARK VINA RESULT:     -11.1      8.793     13.471
REMARK SMILES O=C(OCCOC(=O)[C@@H]1C[C@@H](O)CN1C(=O)c1ccccc1)c1ccc(-c2c3nc(c(-c4ccccc4)c4ccc([nH]4)c(-c4ccccc4)c4nc(c(-c5ccccc5)c5ccc2[nH]5)C=C4)C=C3)cc1
REMARK SMILES IDX 4 1 3 2 2 3 1 4 23 5 24 6 70 7 25 8 69 9 26 10 27 11 28 12
REMARK SMILES IDX 63 13 29 14 68 15 62 16 64 17 30 18 67 19 61 20 60 21 31 23
REMARK SMILES IDX 53 24 38 25 52 26 39 27 42 28 51 29 65 30 40 31 41 32 50 34
REMARK SMILES IDX 66 35 43 36 32 37 33 38 37 39 34 40 36 41 35 42 54 43 55 44
REMARK SMILES IDX 59 45 56 46 58 47 57 48 44 49 45 50 49 51 46 52 48 53 47 54
REMARK SMILES IDX 5 55 6 56 7 57 8 58 9 59 10 60 14 61 11 62 13 63 15 64 16 65
REMARK SMILES IDX 17 66 18 67 22 68 19 69 21 70 20 71 12 72
REMARK H PARENT 64 22 42 33 12 73
REMARK Flexibility Score: inf
ROOT
ATOM      1  C   UNL A   1      47.767  38.845  26.174  1.00  0.00     0.275 C 
ENDROOT
BRANCH   1   2
ATOM      2  O   UNL A   1      47.446  37.523  26.599  1.00  0.00    -0.458 OA
BRANCH   2   3
ATOM      3  C   UNL A   1      46.526  37.274  27.551  1.00  0.00     0.338 C 
ATOM      4  O   UNL A   1      46.205  38.126  28.373  1.00  0.00    -0.246 OA
BRANCH   3   5
ATOM      5  C   UNL A   1      45.899  35.942  27.679  1.00  0.00     0.060 A 
ATOM      6  C   UNL A   1      44.659  35.226  26.520  1.00  0.00     0.016 A 
ATOM      7  C   UNL A   1      46.568  34.875  29.000  1.00  0.00     0.016 A 
ATOM      8  C   UNL A   1      44.022  33.572  26.749  1.00  0.00     0.010 A 
ATOM      9  C   UNL A   1      45.850  33.180  29.244  1.00  0.00     0.010 A 
ATOM     10  C   UNL A   1      44.590  32.553  28.081  1.00  0.00    -0.014 A 
BRANCH  10  11
ATOM     11  C   UNL A   1      44.179  31.122  27.986  1.00  0.00     0.031 A 
ATOM     12  C   UNL A   1      44.992  30.196  27.160  1.00  0.00     0.074 A 
ATOM     13  C   UNL A   1      43.066  30.678  28.622  1.00  0.00     0.049 A 
ATOM     14  N   UNL A   1      44.765  28.946  26.872  1.00  0.00    -0.248 NA
ATOM     15  C   UNL A   1      46.236  30.735  26.603  1.00  0.00     0.031 C 
ATOM     16  C   UNL A   1      42.229  31.450  29.542  1.00  0.00     0.029 A 
ATOM     17  N   UNL A   1      42.406  29.472  28.575  1.00  0.00    -0.354 N 
ATOM     18  C   UNL A   1      45.854  28.546  26.119  1.00  0.00     0.074 A 
ATOM     19  C   UNL A   1      46.688  29.705  25.908  1.00  0.00     0.031 C 
ATOM     20  C   UNL A   1      41.145  30.755  29.906  1.00  0.00     0.029 A 
ATOM     21  C   UNL A   1      41.203  29.465  29.258  1.00  0.00     0.049 A 
ATOM     22  H   UNL A   1      42.756  28.686  28.098  1.00  0.00     0.167 HD
ATOM     23  C   UNL A   1      46.159  27.302  25.697  1.00  0.00     0.031 A 
ATOM     24  C   UNL A   1      40.246  28.526  29.364  1.00  0.00     0.031 A 
ATOM     25  C   UNL A   1      45.313  26.165  25.913  1.00  0.00     0.049 A 
ATOM     26  C   UNL A   1      40.530  27.199  28.735  1.00  0.00     0.074 A 
ATOM     27  C   UNL A   1      45.513  24.857  25.520  1.00  0.00     0.029 A 
ATOM     28  N   UNL A   1      44.093  26.210  26.576  1.00  0.00    -0.354 N 
ATOM     29  N   UNL A   1      41.594  26.825  28.067  1.00  0.00    -0.248 NA
ATOM     30  C   UNL A   1      39.522  26.150  28.917  1.00  0.00     0.031 C 
ATOM     31  C   UNL A   1      44.377  24.127  25.871  1.00  0.00     0.029 A 
ATOM     32  C   UNL A   1      43.507  24.959  26.561  1.00  0.00     0.049 A 
ATOM     33  H   UNL A   1      43.705  27.013  26.993  1.00  0.00     0.167 HD
ATOM     34  C   UNL A   1      41.416  25.477  27.808  1.00  0.00     0.074 A 
ATOM     35  C   UNL A   1      40.144  25.103  28.395  1.00  0.00     0.031 C 
ATOM     36  C   UNL A   1      42.240  24.622  27.158  1.00  0.00     0.031 A 
BRANCH  23  37
ATOM     37  C   UNL A   1      47.442  27.149  24.939  1.00  0.00    -0.014 A 
ATOM     38  C   UNL A   1      47.515  27.439  23.566  1.00  0.00     0.009 A 
ATOM     39  C   UNL A   1      48.578  26.664  25.598  1.00  0.00     0.009 A 
ATOM     40  C   UNL A   1      48.694  27.199  22.858  1.00  0.00     0.001 A 
ATOM     41  C   UNL A   1      49.764  26.459  24.896  1.00  0.00     0.001 A 
ATOM     42  C   UNL A   1      49.818  26.715  23.526  1.00  0.00     0.000 A 
ENDBRANCH  23  37
BRANCH  24  43
ATOM     43  C   UNL A   1      38.975  28.774  30.105  1.00  0.00    -0.014 A 
ATOM     44  C   UNL A   1      37.859  29.326  29.458  1.00  0.00     0.009 A 
ATOM     45  C   UNL A   1      38.889  28.523  31.486  1.00  0.00     0.009 A 
ATOM     46  C   UNL A   1      36.719  29.690  30.182  1.00  0.00     0.001 A 
ATOM     47  C   UNL A   1      37.735  28.859  32.203  1.00  0.00     0.001 A 
ATOM     48  C   UNL A   1      36.660  29.461  31.554  1.00  0.00     0.000 A 
ENDBRANCH  24  43
BRANCH  36  49
ATOM     49  C   UNL A   1      41.806  23.189  27.090  1.00  0.00    -0.014 A 
ATOM     50  C   UNL A   1      42.382  22.211  27.913  1.00  0.00     0.009 A 
ATOM     51  C   UNL A   1      40.760  22.833  26.225  1.00  0.00     0.009 A 
ATOM     52  C   UNL A   1      41.937  20.891  27.845  1.00  0.00     0.001 A 
ATOM     53  C   UNL A   1      40.287  21.523  26.195  1.00  0.00     0.001 A 
ATOM     54  C   UNL A   1      40.884  20.552  26.997  1.00  0.00     0.000 A 
ENDBRANCH  36  49
ENDBRANCH  10  11
ENDBRANCH   3   5
ENDBRANCH   2   3
ENDBRANCH   1   2
BRANCH   1  55
ATOM     55  C   UNL A   1      47.005  39.203  24.897  1.00  0.00     0.274 C 
BRANCH  55  56
ATOM     56  O   UNL A   1      45.865  40.153  24.998  1.00  0.00    -0.461 OA
BRANCH  56  57
ATOM     57  C   UNL A   1      45.214  41.262  25.339  1.00  0.00     0.329 C 
ATOM     58  O   UNL A   1      44.743  41.218  26.486  1.00  0.00    -0.250 OA
BRANCH  57  59
ATOM     59  C   UNL A   1      45.075  42.675  24.551  1.00  0.00     0.198 C 
ATOM     60  C   UNL A   1      44.984  43.704  25.719  1.00  0.00     0.071 C 
ATOM     61  N   UNL A   1      44.212  43.521  23.251  1.00  0.00    -0.322 N 
ATOM     62  C   UNL A   1      45.269  45.065  25.167  1.00  0.00     0.136 C 
ATOM     63  C   UNL A   1      44.758  45.087  23.742  1.00  0.00     0.152 C 
BRANCH  61  64
ATOM     64  C   UNL A   1      43.348  42.883  21.569  1.00  0.00     0.254 C 
ATOM     65  O   UNL A   1      43.329  41.702  21.064  1.00  0.00    -0.269 OA
BRANCH  64  66
ATOM     66  C   UNL A   1      42.558  43.606  20.148  1.00  0.00     0.040 A 
ATOM     67  C   UNL A   1      43.393  44.467  19.371  1.00  0.00     0.014 A 
ATOM     68  C   UNL A   1      41.209  43.593  19.688  1.00  0.00     0.014 A 
ATOM     69  C   UNL A   1      42.942  45.221  18.273  1.00  0.00     0.001 A 
ATOM     70  C   UNL A   1      40.757  44.325  18.571  1.00  0.00     0.001 A 
ATOM     71  C   UNL A   1      41.623  45.142  17.867  1.00  0.00     0.000 A 
ENDBRANCH  64  66
ENDBRANCH  61  64
BRANCH  62  72
ATOM     72  O   UNL A   1      46.668  45.351  25.229  1.00  0.00    -0.391 OA
ATOM     73  H   UNL A   1      46.944  45.416  26.156  1.00  0.00     0.211 HD
ENDBRANCH  62  72
ENDBRANCH  57  59
ENDBRANCH  56  57
ENDBRANCH  55  56
ENDBRANCH   1  55
TORSDOF 14
ENDMDL
