MODEL 1
REMARK VINA RESULT:     -11.1      0.000      0.000
REMARK SMILES C[C@@H](Oc1ccc(I)cc1)C(=O)NCc1ccc(C(=O)OCCOC(=O)c2ccc(-c3c4nc(c(-c5ccccc5)c5ccc([nH]5)c(-c5ccccc5)c5nc(c(-c6ccccc6)c6ccc3[nH]6)C=C5)C=C4)cc2)cc1
REMARK SMILES IDX 21 1 19 2 20 3 18 4 15 5 16 6 76 7 17 8 75 9 14 10 13 11
REMARK SMILES IDX 11 12 12 13 2 15 1 16 3 17 4 18 5 19 10 20 6 21 9 22 7 23
REMARK SMILES IDX 8 24 22 25 23 26 24 27 25 28 26 29 27 30 28 31 74 32 29 33
REMARK SMILES IDX 73 34 30 35 31 36 32 37 67 38 33 39 72 40 66 41 68 42 34 43
REMARK SMILES IDX 71 44 65 45 64 46 35 48 57 49 42 50 56 51 43 52 46 53 55 54
REMARK SMILES IDX 69 55 44 56 45 57 54 59 70 60 47 61 36 62 37 63 41 64 38 65
REMARK SMILES IDX 40 66 39 67 58 68 59 69 63 70 60 71 62 72 61 73 48 74 49 75
REMARK SMILES IDX 53 76 50 77 52 78 51 79
REMARK H PARENT 13 14 68 47 46 58
REMARK Flexibility Score: inf
ROOT
ATOM      1  O   UNL A   1      40.447  20.845  26.427  1.00  0.00    -0.458 OA
ENDROOT
BRANCH   1   2
ATOM      2  C   UNL A   1      39.386  20.344  25.746  1.00  0.00     0.338 C 
ATOM      3  O   UNL A   1      39.252  19.199  25.343  1.00  0.00    -0.246 OA
BRANCH   2   4
ATOM      4  C   UNL A   1      38.314  21.360  25.625  1.00  0.00     0.060 A 
ATOM      5  C   UNL A   1      36.232  23.221  25.284  1.00  0.00    -0.029 A 
ATOM      6  C   UNL A   1      36.063  21.888  24.894  1.00  0.00     0.006 A 
ATOM      7  C   UNL A   1      37.451  23.607  25.867  1.00  0.00     0.006 A 
ATOM      8  C   UNL A   1      37.107  20.977  25.029  1.00  0.00     0.016 A 
ATOM      9  C   UNL A   1      38.484  22.678  26.052  1.00  0.00     0.016 A 
BRANCH   5  10
ATOM     10  C   UNL A   1      35.120  24.214  25.064  1.00  0.00     0.151 C 
BRANCH  10  11
ATOM     11  N   UNL A   1      34.849  24.419  23.656  1.00  0.00    -0.349 N 
ATOM     12  C   UNL A   1      33.709  24.765  22.998  1.00  0.00     0.261 C 
ATOM     13  O   UNL A   1      33.798  24.929  21.775  1.00  0.00    -0.271 OA
ATOM     14  H   UNL A   1      35.629  24.286  23.071  1.00  0.00     0.163 HD
BRANCH  12  15
ATOM     15  C   UNL A   1      32.337  24.870  23.693  1.00  0.00     0.258 C 
ATOM     16  C   UNL A   1      31.752  26.256  23.431  1.00  0.00     0.064 C 
BRANCH  15  17
ATOM     17  O   UNL A   1      31.449  23.831  23.279  1.00  0.00    -0.481 OA
BRANCH  17  18
ATOM     18  C   UNL A   1      31.860  22.582  23.650  1.00  0.00     0.120 A 
ATOM     19  C   UNL A   1      31.930  22.245  25.000  1.00  0.00     0.047 A 
ATOM     20  C   UNL A   1      32.066  21.614  22.668  1.00  0.00     0.047 A 
ATOM     21  C   UNL A   1      32.246  20.938  25.376  1.00  0.00     0.018 A 
ATOM     22  C   UNL A   1      32.374  20.304  23.041  1.00  0.00     0.018 A 
ATOM     23  C   UNL A   1      32.465  19.972  24.394  1.00  0.00     0.013 A 
ATOM     24  I   UNL A   1      32.892  18.015  24.955  1.00  0.00    -0.044 I 
ENDBRANCH  17  18
ENDBRANCH  15  17
ENDBRANCH  12  15
ENDBRANCH  10  11
ENDBRANCH   5  10
ENDBRANCH   2   4
ENDBRANCH   1   2
BRANCH   1  25
ATOM     25  C   UNL A   1      41.725  20.253  26.108  1.00  0.00     0.275 C 
BRANCH  25  26
ATOM     26  C   UNL A   1      42.793  21.330  25.934  1.00  0.00     0.275 C 
BRANCH  26  27
ATOM     27  O   UNL A   1      42.220  22.476  25.280  1.00  0.00    -0.458 OA
BRANCH  27  28
ATOM     28  C   UNL A   1      43.008  23.573  25.208  1.00  0.00     0.338 C 
ATOM     29  O   UNL A   1      43.995  23.733  24.512  1.00  0.00    -0.246 OA
BRANCH  28  30
ATOM     30  C   UNL A   1      42.502  24.607  26.133  1.00  0.00     0.060 A 
ATOM     31  C   UNL A   1      43.021  25.899  26.092  1.00  0.00     0.016 A 
ATOM     32  C   UNL A   1      41.582  24.258  27.120  1.00  0.00     0.016 A 
ATOM     33  C   UNL A   1      42.690  26.823  27.083  1.00  0.00     0.010 A 
ATOM     34  C   UNL A   1      41.181  25.214  28.061  1.00  0.00     0.010 A 
ATOM     35  C   UNL A   1      41.759  26.497  28.080  1.00  0.00    -0.014 A 
BRANCH  35  36
ATOM     36  C   UNL A   1      41.431  27.462  29.170  1.00  0.00     0.031 A 
ATOM     37  C   UNL A   1      42.259  27.491  30.431  1.00  0.00     0.074 A 
ATOM     38  C   UNL A   1      40.406  28.329  29.045  1.00  0.00     0.049 A 
ATOM     39  N   UNL A   1      42.031  28.119  31.558  1.00  0.00    -0.248 NA
ATOM     40  C   UNL A   1      43.497  26.696  30.430  1.00  0.00     0.031 C 
ATOM     41  C   UNL A   1      39.539  28.463  27.873  1.00  0.00     0.029 A 
ATOM     42  N   UNL A   1      39.924  29.274  29.920  1.00  0.00    -0.354 N 
ATOM     43  C   UNL A   1      43.056  27.739  32.418  1.00  0.00     0.074 A 
ATOM     44  C   UNL A   1      43.910  26.833  31.682  1.00  0.00     0.031 C 
ATOM     45  C   UNL A   1      38.667  29.462  28.082  1.00  0.00     0.029 A 
ATOM     46  C   UNL A   1      38.853  29.981  29.433  1.00  0.00     0.049 A 
ATOM     47  H   UNL A   1      40.312  29.427  30.812  1.00  0.00     0.167 HD
ATOM     48  C   UNL A   1      43.265  28.106  33.705  1.00  0.00     0.031 A 
ATOM     49  C   UNL A   1      38.078  30.917  30.014  1.00  0.00     0.031 A 
ATOM     50  C   UNL A   1      42.455  29.050  34.428  1.00  0.00     0.049 A 
ATOM     51  C   UNL A   1      38.320  31.301  31.445  1.00  0.00     0.074 A 
ATOM     52  C   UNL A   1      42.601  29.490  35.734  1.00  0.00     0.029 A 
ATOM     53  N   UNL A   1      41.363  29.718  33.901  1.00  0.00    -0.354 N 
ATOM     54  N   UNL A   1      39.249  30.877  32.265  1.00  0.00    -0.248 NA
ATOM     55  C   UNL A   1      37.389  32.274  32.034  1.00  0.00     0.031 C 
ATOM     56  C   UNL A   1      41.578  30.406  36.005  1.00  0.00     0.029 A 
ATOM     57  C   UNL A   1      40.820  30.562  34.855  1.00  0.00     0.049 A 
ATOM     58  H   UNL A   1      41.023  29.609  32.984  1.00  0.00     0.167 HD
ATOM     59  C   UNL A   1      39.016  31.532  33.467  1.00  0.00     0.074 A 
ATOM     60  C   UNL A   1      37.875  32.400  33.262  1.00  0.00     0.031 C 
ATOM     61  C   UNL A   1      39.683  31.415  34.641  1.00  0.00     0.031 A 
BRANCH  48  62
ATOM     62  C   UNL A   1      44.400  27.446  34.435  1.00  0.00    -0.014 A 
ATOM     63  C   UNL A   1      44.231  26.233  35.117  1.00  0.00     0.009 A 
ATOM     64  C   UNL A   1      45.674  28.037  34.404  1.00  0.00     0.009 A 
ATOM     65  C   UNL A   1      45.308  25.642  35.783  1.00  0.00     0.001 A 
ATOM     66  C   UNL A   1      46.753  27.433  35.050  1.00  0.00     0.001 A 
ATOM     67  C   UNL A   1      46.567  26.239  35.745  1.00  0.00     0.000 A 
ENDBRANCH  48  62
BRANCH  49  68
ATOM     68  C   UNL A   1      36.959  31.527  29.248  1.00  0.00    -0.014 A 
ATOM     69  C   UNL A   1      35.753  30.833  29.077  1.00  0.00     0.009 A 
ATOM     70  C   UNL A   1      37.092  32.810  28.694  1.00  0.00     0.009 A 
ATOM     71  C   UNL A   1      34.703  31.409  28.357  1.00  0.00     0.001 A 
ATOM     72  C   UNL A   1      36.031  33.394  28.000  1.00  0.00     0.001 A 
ATOM     73  C   UNL A   1      34.841  32.691  27.827  1.00  0.00     0.000 A 
ENDBRANCH  49  68
BRANCH  61  74
ATOM     74  C   UNL A   1      39.205  32.260  35.784  1.00  0.00    -0.014 A 
ATOM     75  C   UNL A   1      39.667  33.574  35.952  1.00  0.00     0.009 A 
ATOM     76  C   UNL A   1      38.264  31.744  36.688  1.00  0.00     0.009 A 
ATOM     77  C   UNL A   1      39.215  34.347  37.023  1.00  0.00     0.001 A 
ATOM     78  C   UNL A   1      37.799  32.527  37.746  1.00  0.00     0.001 A 
ATOM     79  C   UNL A   1      38.281  33.825  37.916  1.00  0.00     0.000 A 
ENDBRANCH  61  74
ENDBRANCH  35  36
ENDBRANCH  28  30
ENDBRANCH  27  28
ENDBRANCH  26  27
ENDBRANCH  25  26
ENDBRANCH   1  25
TORSDOF 16
ENDMDL
MODEL 2
REMARK VINA RESULT:     -11.0      4.690      6.776
REMARK SMILES C[C@@H](Oc1ccc(I)cc1)C(=O)NCc1ccc(C(=O)OCCOC(=O)c2ccc(-c3c4nc(c(-c5ccccc5)c5ccc([nH]5)c(-c5ccccc5)c5nc(c(-c6ccccc6)c6ccc3[nH]6)C=C5)C=C4)cc2)cc1
REMARK SMILES IDX 21 1 19 2 20 3 18 4 15 5 16 6 76 7 17 8 75 9 14 10 13 11
REMARK SMILES IDX 11 12 12 13 2 15 1 16 3 17 4 18 5 19 10 20 6 21 9 22 7 23
REMARK SMILES IDX 8 24 22 25 23 26 24 27 25 28 26 29 27 30 28 31 74 32 29 33
REMARK SMILES IDX 73 34 30 35 31 36 32 37 67 38 33 39 72 40 66 41 68 42 34 43
REMARK SMILES IDX 71 44 65 45 64 46 35 48 57 49 42 50 56 51 43 52 46 53 55 54
REMARK SMILES IDX 69 55 44 56 45 57 54 59 70 60 47 61 36 62 37 63 41 64 38 65
REMARK SMILES IDX 40 66 39 67 58 68 59 69 63 70 60 71 62 72 61 73 48 74 49 75
REMARK SMILES IDX 53 76 50 77 52 78 51 79
REMARK H PARENT 13 14 68 47 46 58
REMARK Flexibility Score: inf
ROOT
ATOM      1  O   UNL A   1      41.623  20.423  25.831  1.00  0.00    -0.458 OA
ENDROOT
BRANCH   1   2
ATOM      2  C   UNL A   1      41.453  21.504  26.633  1.00  0.00     0.338 C 
ATOM      3  O   UNL A   1      42.286  21.998  27.377  1.00  0.00    -0.246 OA
BRANCH   2   4
ATOM      4  C   UNL A   1      40.116  22.106  26.424  1.00  0.00     0.060 A 
ATOM      5  C   UNL A   1      37.562  23.168  25.914  1.00  0.00    -0.029 A 
ATOM      6  C   UNL A   1      37.869  21.854  25.547  1.00  0.00     0.006 A 
ATOM      7  C   UNL A   1      38.544  23.939  26.557  1.00  0.00     0.006 A 
ATOM      8  C   UNL A   1      39.145  21.341  25.767  1.00  0.00     0.016 A 
ATOM      9  C   UNL A   1      39.811  23.407  26.827  1.00  0.00     0.016 A 
BRANCH   5  10
ATOM     10  C   UNL A   1      36.200  23.735  25.603  1.00  0.00     0.151 C 
BRANCH  10  11
ATOM     11  N   UNL A   1      35.875  23.621  24.196  1.00  0.00    -0.349 N 
ATOM     12  C   UNL A   1      34.694  23.391  23.560  1.00  0.00     0.261 C 
ATOM     13  O   UNL A   1      34.714  23.407  22.323  1.00  0.00    -0.271 OA
ATOM     14  H   UNL A   1      36.645  23.730  23.593  1.00  0.00     0.163 HD
BRANCH  12  15
ATOM     15  C   UNL A   1      33.393  23.035  24.305  1.00  0.00     0.258 C 
ATOM     16  C   UNL A   1      32.687  24.325  24.717  1.00  0.00     0.064 C 
BRANCH  15  17
ATOM     17  O   UNL A   1      32.545  22.190  23.525  1.00  0.00    -0.481 OA
BRANCH  17  18
ATOM     18  C   UNL A   1      32.549  20.887  23.934  1.00  0.00     0.120 A 
ATOM     19  C   UNL A   1      32.299  19.869  23.016  1.00  0.00     0.047 A 
ATOM     20  C   UNL A   1      32.949  20.584  25.235  1.00  0.00     0.047 A 
ATOM     21  C   UNL A   1      32.410  18.534  23.409  1.00  0.00     0.018 A 
ATOM     22  C   UNL A   1      33.068  19.248  25.628  1.00  0.00     0.018 A 
ATOM     23  C   UNL A   1      32.797  18.229  24.714  1.00  0.00     0.013 A 
ATOM     24  I   UNL A   1      33.005  16.240  25.286  1.00  0.00    -0.044 I 
ENDBRANCH  17  18
ENDBRANCH  15  17
ENDBRANCH  12  15
ENDBRANCH  10  11
ENDBRANCH   5  10
ENDBRANCH   2   4
ENDBRANCH   1   2
BRANCH   1  25
ATOM     25  C   UNL A   1      42.076  19.223  26.494  1.00  0.00     0.275 C 
BRANCH  25  26
ATOM     26  C   UNL A   1      43.255  18.602  25.747  1.00  0.00     0.275 C 
BRANCH  26  27
ATOM     27  O   UNL A   1      43.495  19.335  24.532  1.00  0.00    -0.458 OA
BRANCH  27  28
ATOM     28  C   UNL A   1      44.791  19.595  24.244  1.00  0.00     0.338 C 
ATOM     29  O   UNL A   1      45.616  18.828  23.781  1.00  0.00    -0.246 OA
BRANCH  28  30
ATOM     30  C   UNL A   1      45.101  20.998  24.585  1.00  0.00     0.060 A 
ATOM     31  C   UNL A   1      45.731  21.303  25.789  1.00  0.00     0.016 A 
ATOM     32  C   UNL A   1      44.663  22.024  23.749  1.00  0.00     0.016 A 
ATOM     33  C   UNL A   1      45.852  22.630  26.204  1.00  0.00     0.010 A 
ATOM     34  C   UNL A   1      44.868  23.357  24.124  1.00  0.00     0.010 A 
ATOM     35  C   UNL A   1      45.428  23.678  25.374  1.00  0.00    -0.014 A 
BRANCH  35  36
ATOM     36  C   UNL A   1      45.513  25.098  25.827  1.00  0.00     0.031 A 
ATOM     37  C   UNL A   1      46.822  25.844  25.739  1.00  0.00     0.074 A 
ATOM     38  C   UNL A   1      44.430  25.741  26.308  1.00  0.00     0.049 A 
ATOM     39  N   UNL A   1      47.148  27.008  26.242  1.00  0.00    -0.248 NA
ATOM     40  C   UNL A   1      47.912  25.186  25.001  1.00  0.00     0.031 C 
ATOM     41  C   UNL A   1      43.082  25.179  26.414  1.00  0.00     0.029 A 
ATOM     42  N   UNL A   1      44.293  27.020  26.792  1.00  0.00    -0.354 N 
ATOM     43  C   UNL A   1      48.494  27.189  25.943  1.00  0.00     0.074 A 
ATOM     44  C   UNL A   1      48.923  26.018  25.209  1.00  0.00     0.031 C 
ATOM     45  C   UNL A   1      42.248  26.120  26.883  1.00  0.00     0.029 A 
ATOM     46  C   UNL A   1      43.015  27.323  27.193  1.00  0.00     0.049 A 
ATOM     47  H   UNL A   1      45.041  27.658  26.845  1.00  0.00     0.167 HD
ATOM     48  C   UNL A   1      49.302  28.230  26.256  1.00  0.00     0.031 A 
ATOM     49  C   UNL A   1      42.514  28.428  27.780  1.00  0.00     0.031 A 
ATOM     50  C   UNL A   1      48.873  29.423  26.935  1.00  0.00     0.049 A 
ATOM     51  C   UNL A   1      43.430  29.565  28.128  1.00  0.00     0.074 A 
ATOM     52  C   UNL A   1      49.623  30.535  27.283  1.00  0.00     0.029 A 
ATOM     53  N   UNL A   1      47.575  29.671  27.347  1.00  0.00    -0.354 N 
ATOM     54  N   UNL A   1      44.715  29.687  27.902  1.00  0.00    -0.248 NA
ATOM     55  C   UNL A   1      42.828  30.707  28.832  1.00  0.00     0.031 C 
ATOM     56  C   UNL A   1      48.781  31.446  27.932  1.00  0.00     0.029 A 
ATOM     57  C   UNL A   1      47.502  30.914  27.953  1.00  0.00     0.049 A 
ATOM     58  H   UNL A   1      46.817  29.055  27.229  1.00  0.00     0.167 HD
ATOM     59  C   UNL A   1      45.075  30.917  28.437  1.00  0.00     0.074 A 
ATOM     60  C   UNL A   1      43.870  31.514  28.973  1.00  0.00     0.031 C 
ATOM     61  C   UNL A   1      46.300  31.494  28.488  1.00  0.00     0.031 A 
BRANCH  48  62
ATOM     62  C   UNL A   1      50.757  28.104  25.901  1.00  0.00    -0.014 A 
ATOM     63  C   UNL A   1      51.255  28.550  24.668  1.00  0.00     0.009 A 
ATOM     64  C   UNL A   1      51.649  27.559  26.839  1.00  0.00     0.009 A 
ATOM     65  C   UNL A   1      52.615  28.423  24.371  1.00  0.00     0.001 A 
ATOM     66  C   UNL A   1      53.009  27.454  26.548  1.00  0.00     0.001 A 
ATOM     67  C   UNL A   1      53.490  27.879  25.310  1.00  0.00     0.000 A 
ENDBRANCH  48  62
BRANCH  49  68
ATOM     68  C   UNL A   1      41.070  28.491  28.121  1.00  0.00    -0.014 A 
ATOM     69  C   UNL A   1      40.600  27.952  29.327  1.00  0.00     0.009 A 
ATOM     70  C   UNL A   1      40.157  29.099  27.245  1.00  0.00     0.009 A 
ATOM     71  C   UNL A   1      39.240  28.014  29.646  1.00  0.00     0.001 A 
ATOM     72  C   UNL A   1      38.804  29.184  27.579  1.00  0.00     0.001 A 
ATOM     73  C   UNL A   1      38.347  28.636  28.776  1.00  0.00     0.000 A 
ENDBRANCH  49  68
BRANCH  61  74
ATOM     74  C   UNL A   1      46.390  32.847  29.129  1.00  0.00    -0.014 A 
ATOM     75  C   UNL A   1      46.690  32.981  30.494  1.00  0.00     0.009 A 
ATOM     76  C   UNL A   1      46.197  34.001  28.355  1.00  0.00     0.009 A 
ATOM     77  C   UNL A   1      46.767  34.246  31.076  1.00  0.00     0.001 A 
ATOM     78  C   UNL A   1      46.295  35.266  28.937  1.00  0.00     0.001 A 
ATOM     79  C   UNL A   1      46.572  35.387  30.298  1.00  0.00     0.000 A 
ENDBRANCH  61  74
ENDBRANCH  35  36
ENDBRANCH  28  30
ENDBRANCH  27  28
ENDBRANCH  26  27
ENDBRANCH  25  26
ENDBRANCH   1  25
TORSDOF 16
ENDMDL
MODEL 3
REMARK VINA RESULT:     -10.8      1.977      2.810
REMARK SMILES C[C@@H](Oc1ccc(I)cc1)C(=O)NCc1ccc(C(=O)OCCOC(=O)c2ccc(-c3c4nc(c(-c5ccccc5)c5ccc([nH]5)c(-c5ccccc5)c5nc(c(-c6ccccc6)c6ccc3[nH]6)C=C5)C=C4)cc2)cc1
REMARK SMILES IDX 21 1 19 2 20 3 18 4 15 5 16 6 76 7 17 8 75 9 14 10 13 11
REMARK SMILES IDX 11 12 12 13 2 15 1 16 3 17 4 18 5 19 10 20 6 21 9 22 7 23
REMARK SMILES IDX 8 24 22 25 23 26 24 27 25 28 26 29 27 30 28 31 74 32 29 33
REMARK SMILES IDX 73 34 30 35 31 36 32 37 67 38 33 39 72 40 66 41 68 42 34 43
REMARK SMILES IDX 71 44 65 45 64 46 35 48 57 49 42 50 56 51 43 52 46 53 55 54
REMARK SMILES IDX 69 55 44 56 45 57 54 59 70 60 47 61 36 62 37 63 41 64 38 65
REMARK SMILES IDX 40 66 39 67 58 68 59 69 63 70 60 71 62 72 61 73 48 74 49 75
REMARK SMILES IDX 53 76 50 77 52 78 51 79
REMARK H PARENT 13 14 68 47 46 58
REMARK Flexibility Score: inf
ROOT
ATOM      1  O   UNL A   1      41.198  21.243  25.671  1.00  0.00    -0.458 OA
ENDROOT
BRANCH   1   2
ATOM      2  C   UNL A   1      40.299  21.417  26.672  1.00  0.00     0.338 C 
ATOM      3  O   UNL A   1      40.477  21.191  27.859  1.00  0.00    -0.246 OA
BRANCH   2   4
ATOM      4  C   UNL A   1      39.054  22.032  26.157  1.00  0.00     0.060 A 
ATOM      5  C   UNL A   1      36.692  23.288  25.285  1.00  0.00    -0.029 A 
ATOM      6  C   UNL A   1      37.660  24.010  25.992  1.00  0.00     0.006 A 
ATOM      7  C   UNL A   1      36.930  21.933  25.002  1.00  0.00     0.006 A 
ATOM      8  C   UNL A   1      38.812  23.378  26.455  1.00  0.00     0.016 A 
ATOM      9  C   UNL A   1      38.113  21.309  25.421  1.00  0.00     0.016 A 
BRANCH   5  10
ATOM     10  C   UNL A   1      35.417  23.967  24.855  1.00  0.00     0.151 C 
BRANCH  10  11
ATOM     11  N   UNL A   1      34.254  23.389  25.496  1.00  0.00    -0.349 N 
ATOM     12  C   UNL A   1      32.996  23.871  25.686  1.00  0.00     0.261 C 
ATOM     13  O   UNL A   1      32.182  23.111  26.224  1.00  0.00    -0.271 OA
ATOM     14  H   UNL A   1      34.400  22.485  25.858  1.00  0.00     0.163 HD
BRANCH  12  15
ATOM     15  C   UNL A   1      32.590  25.318  25.342  1.00  0.00     0.258 C 
ATOM     16  C   UNL A   1      33.550  26.282  26.036  1.00  0.00     0.064 C 
BRANCH  15  17
ATOM     17  O   UNL A   1      32.543  25.539  23.931  1.00  0.00    -0.481 OA
BRANCH  17  18
ATOM     18  C   UNL A   1      31.568  26.416  23.549  1.00  0.00     0.120 A 
ATOM     19  C   UNL A   1      30.235  26.153  23.858  1.00  0.00     0.047 A 
ATOM     20  C   UNL A   1      31.936  27.636  22.984  1.00  0.00     0.047 A 
ATOM     21  C   UNL A   1      29.253  27.100  23.563  1.00  0.00     0.018 A 
ATOM     22  C   UNL A   1      30.955  28.589  22.696  1.00  0.00     0.018 A 
ATOM     23  C   UNL A   1      29.617  28.315  22.985  1.00  0.00     0.013 A 
ATOM     24  I   UNL A   1      28.157  29.743  22.588  1.00  0.00    -0.044 I 
ENDBRANCH  17  18
ENDBRANCH  15  17
ENDBRANCH  12  15
ENDBRANCH  10  11
ENDBRANCH   5  10
ENDBRANCH   2   4
ENDBRANCH   1   2
BRANCH   1  25
ATOM     25  C   UNL A   1      42.486  20.731  26.074  1.00  0.00     0.275 C 
BRANCH  25  26
ATOM     26  C   UNL A   1      43.614  21.491  25.379  1.00  0.00     0.275 C 
BRANCH  26  27
ATOM     27  O   UNL A   1      43.092  22.696  24.792  1.00  0.00    -0.458 OA
BRANCH  27  28
ATOM     28  C   UNL A   1      43.866  23.799  24.918  1.00  0.00     0.338 C 
ATOM     29  O   UNL A   1      44.920  24.034  24.354  1.00  0.00    -0.246 OA
BRANCH  28  30
ATOM     30  C   UNL A   1      43.246  24.731  25.881  1.00  0.00     0.060 A 
ATOM     31  C   UNL A   1      43.542  26.091  25.830  1.00  0.00     0.016 A 
ATOM     32  C   UNL A   1      42.449  24.231  26.909  1.00  0.00     0.016 A 
ATOM     33  C   UNL A   1      43.116  26.944  26.849  1.00  0.00     0.010 A 
ATOM     34  C   UNL A   1      41.946  25.104  27.881  1.00  0.00     0.010 A 
ATOM     35  C   UNL A   1      42.305  26.464  27.887  1.00  0.00    -0.014 A 
BRANCH  35  36
ATOM     36  C   UNL A   1      41.880  27.358  29.005  1.00  0.00     0.031 A 
ATOM     37  C   UNL A   1      42.674  27.395  30.287  1.00  0.00     0.074 A 
ATOM     38  C   UNL A   1      40.796  28.151  28.887  1.00  0.00     0.049 A 
ATOM     39  N   UNL A   1      42.374  27.959  31.432  1.00  0.00    -0.248 NA
ATOM     40  C   UNL A   1      43.968  26.695  30.288  1.00  0.00     0.031 C 
ATOM     41  C   UNL A   1      39.950  28.268  27.698  1.00  0.00     0.029 A 
ATOM     42  N   UNL A   1      40.225  29.020  29.785  1.00  0.00    -0.354 N 
ATOM     43  C   UNL A   1      43.403  27.621  32.303  1.00  0.00     0.074 A 
ATOM     44  C   UNL A   1      44.340  26.811  31.555  1.00  0.00     0.031 C 
ATOM     45  C   UNL A   1      39.001  29.190  27.923  1.00  0.00     0.029 A 
ATOM     46  C   UNL A   1      39.115  29.666  29.298  1.00  0.00     0.049 A 
ATOM     47  H   UNL A   1      40.579  29.166  30.692  1.00  0.00     0.167 HD
ATOM     48  C   UNL A   1      43.554  27.950  33.609  1.00  0.00     0.031 A 
ATOM     49  C   UNL A   1      38.259  30.518  29.894  1.00  0.00     0.031 A 
ATOM     50  C   UNL A   1      42.659  28.801  34.346  1.00  0.00     0.049 A 
ATOM     51  C   UNL A   1      38.438  30.860  31.345  1.00  0.00     0.074 A 
ATOM     52  C   UNL A   1      42.741  29.197  35.671  1.00  0.00     0.029 A 
ATOM     53  N   UNL A   1      41.533  29.408  33.816  1.00  0.00    -0.354 N 
ATOM     54  N   UNL A   1      39.377  30.473  32.172  1.00  0.00    -0.248 NA
ATOM     55  C   UNL A   1      37.423  31.737  31.947  1.00  0.00     0.031 C 
ATOM     56  C   UNL A   1      41.646  30.023  35.951  1.00  0.00     0.029 A 
ATOM     57  C   UNL A   1      40.906  30.169  34.789  1.00  0.00     0.049 A 
ATOM     58  H   UNL A   1      41.224  29.311  32.887  1.00  0.00     0.167 HD
ATOM     59  C   UNL A   1      39.067  31.059  33.392  1.00  0.00     0.074 A 
ATOM     60  C   UNL A   1      37.870  31.848  33.190  1.00  0.00     0.031 C 
ATOM     61  C   UNL A   1      39.713  30.944  34.578  1.00  0.00     0.031 A 
BRANCH  48  62
ATOM     62  C   UNL A   1      44.718  27.346  34.342  1.00  0.00    -0.014 A 
ATOM     63  C   UNL A   1      44.624  26.096  34.972  1.00  0.00     0.009 A 
ATOM     64  C   UNL A   1      45.944  28.031  34.368  1.00  0.00     0.009 A 
ATOM     65  C   UNL A   1      45.727  25.560  35.642  1.00  0.00     0.001 A 
ATOM     66  C   UNL A   1      47.050  27.482  35.018  1.00  0.00     0.001 A 
ATOM     67  C   UNL A   1      46.938  26.250  35.661  1.00  0.00     0.000 A 
ENDBRANCH  48  62
BRANCH  49  68
ATOM     68  C   UNL A   1      37.116  31.074  29.123  1.00  0.00    -0.014 A 
ATOM     69  C   UNL A   1      37.109  32.420  28.732  1.00  0.00     0.009 A 
ATOM     70  C   UNL A   1      36.032  30.256  28.769  1.00  0.00     0.009 A 
ATOM     71  C   UNL A   1      36.034  32.939  28.007  1.00  0.00     0.001 A 
ATOM     72  C   UNL A   1      34.972  30.770  28.021  1.00  0.00     0.001 A 
ATOM     73  C   UNL A   1      34.971  32.112  27.646  1.00  0.00     0.000 A 
ENDBRANCH  49  68
BRANCH  61  74
ATOM     74  C   UNL A   1      39.147  31.704  35.740  1.00  0.00    -0.014 A 
ATOM     75  C   UNL A   1      38.136  31.150  36.540  1.00  0.00     0.009 A 
ATOM     76  C   UNL A   1      39.647  32.976  36.053  1.00  0.00     0.009 A 
ATOM     77  C   UNL A   1      37.617  31.871  37.617  1.00  0.00     0.001 A 
ATOM     78  C   UNL A   1      39.139  33.686  37.142  1.00  0.00     0.001 A 
ATOM     79  C   UNL A   1      38.120  33.136  37.918  1.00  0.00     0.000 A 
ENDBRANCH  61  74
ENDBRANCH  35  36
ENDBRANCH  28  30
ENDBRANCH  27  28
ENDBRANCH  26  27
ENDBRANCH  25  26
ENDBRANCH   1  25
TORSDOF 16
ENDMDL
