MODEL 1
REMARK VINA RESULT:     -12.7      0.000      0.000
REMARK SMILES COc1ccc(-c2cc(CC3(C(=O)OCCOC(=O)c4ccc(-c5c6nc(c(-c7ccccc7)c7ccc([nH]7)c(-c7ccccc7)c7nc(c(-c8ccccc8)c8ccc5[nH]8)C=C7)C=C6)cc4)CCN(C(=O)C4CCCC4)CC3)on2)cc1
REMARK SMILES IDX 15 1 14 2 12 3 13 4 11 5 68 6 79 7 69 8 78 9 70 10 71 11
REMARK SMILES IDX 72 12 10 13 9 14 7 15 8 16 81 17 80 18 6 19 3 20 4 21 83 22
REMARK SMILES IDX 5 23 82 24 2 25 1 26 73 27 74 28 77 29 75 30 76 31 16 32
REMARK SMILES IDX 17 33 18 34 19 35 20 36 21 37 67 38 22 39 66 40 23 41 24 42
REMARK SMILES IDX 25 43 60 44 26 45 65 46 59 47 61 48 27 49 64 50 58 51 57 52
REMARK SMILES IDX 28 54 50 55 35 56 49 57 36 58 39 59 48 60 62 61 37 62 38 63
REMARK SMILES IDX 47 65 63 66 40 67 29 68 30 69 34 70 31 71 33 72 32 73 51 74
REMARK SMILES IDX 52 75 56 76 53 77 55 78 54 79 41 80 42 81 46 82 43 83 45 84
REMARK SMILES IDX 44 85
REMARK H PARENT 61 53 39 64
REMARK Flexibility Score: inf
ROOT
ATOM      1  C   UNL A   1      33.180  29.582  27.022  1.00  0.00     0.274 C 
ENDROOT
BRANCH   1   2
ATOM      2  O   UNL A   1      33.005  29.413  25.599  1.00  0.00    -0.462 OA
BRANCH   2   3
ATOM      3  C   UNL A   1      33.233  28.171  25.103  1.00  0.00     0.312 C 
ATOM      4  O   UNL A   1      34.060  27.390  25.563  1.00  0.00    -0.252 OA
BRANCH   3   5
ATOM      5  C   UNL A   1      32.373  27.817  23.869  1.00  0.00     0.078 C 
ATOM      6  C   UNL A   1      31.143  26.952  24.251  1.00  0.00     0.041 C 
ATOM      7  C   UNL A   1      31.920  29.194  23.331  1.00  0.00     0.041 C 
ATOM      8  C   UNL A   1      29.997  26.989  23.244  1.00  0.00     0.120 C 
ATOM      9  C   UNL A   1      30.732  29.156  22.379  1.00  0.00     0.120 C 
ATOM     10  N   UNL A   1      29.638  28.367  22.920  1.00  0.00    -0.342 N 
ATOM     11  C   UNL A   1      28.309  28.745  23.022  1.00  0.00     0.225 C 
ATOM     12  O   UNL A   1      27.443  27.938  23.376  1.00  0.00    -0.275 OA
BRANCH   5  13
ATOM     13  C   UNL A   1      33.353  27.065  22.929  1.00  0.00     0.097 C 
BRANCH  13  14
ATOM     14  C   UNL A   1      33.277  25.590  22.857  1.00  0.00     0.138 A 
ATOM     15  C   UNL A   1      33.043  23.403  23.033  1.00  0.00     0.114 A 
ATOM     16  C   UNL A   1      32.981  24.608  23.772  1.00  0.00     0.077 A 
ATOM     17  N   UNL A   1      33.330  23.649  21.748  1.00  0.00    -0.080 NA
ATOM     18  O   UNL A   1      33.435  25.022  21.634  1.00  0.00    -0.361 OA
BRANCH  15  19
ATOM     19  C   UNL A   1      32.852  22.055  23.530  1.00  0.00     0.004 A 
ATOM     20  C   UNL A   1      32.488  19.455  24.499  1.00  0.00     0.118 A 
ATOM     21  C   UNL A   1      32.991  20.451  25.336  1.00  0.00     0.047 A 
ATOM     22  C   UNL A   1      32.134  19.765  23.184  1.00  0.00     0.047 A 
ATOM     23  C   UNL A   1      33.187  21.745  24.851  1.00  0.00     0.014 A 
ATOM     24  C   UNL A   1      32.315  21.065  22.699  1.00  0.00     0.014 A 
BRANCH  20  25
ATOM     25  O   UNL A   1      32.336  18.220  25.067  1.00  0.00    -0.497 OA
ATOM     26  C   UNL A   1      33.354  17.286  24.717  1.00  0.00     0.278 C 
ENDBRANCH  20  25
ENDBRANCH  15  19
ENDBRANCH  13  14
ENDBRANCH   5  13
BRANCH  11  27
ATOM     27  C   UNL A   1      27.863  30.181  22.746  1.00  0.00     0.078 C 
ATOM     28  C   UNL A   1      28.499  31.227  23.661  1.00  0.00     0.013 C 
ATOM     29  C   UNL A   1      28.026  30.688  21.310  1.00  0.00     0.013 C 
ATOM     30  C   UNL A   1      28.399  32.515  22.862  1.00  0.00     0.001 C 
ATOM     31  C   UNL A   1      28.638  32.086  21.422  1.00  0.00     0.001 C 
ENDBRANCH  11  27
ENDBRANCH   3   5
ENDBRANCH   2   3
ENDBRANCH   1   2
BRANCH   1  32
ATOM     32  C   UNL A   1      33.115  31.059  27.392  1.00  0.00     0.275 C 
BRANCH  32  33
ATOM     33  O   UNL A   1      34.453  31.562  27.542  1.00  0.00    -0.458 OA
BRANCH  33  34
ATOM     34  C   UNL A   1      35.001  31.413  28.768  1.00  0.00     0.338 C 
ATOM     35  O   UNL A   1      34.620  31.931  29.815  1.00  0.00    -0.246 OA
BRANCH  34  36
ATOM     36  C   UNL A   1      36.137  30.475  28.717  1.00  0.00     0.060 A 
ATOM     37  C   UNL A   1      36.550  29.800  29.865  1.00  0.00     0.016 A 
ATOM     38  C   UNL A   1      36.898  30.391  27.553  1.00  0.00     0.016 A 
ATOM     39  C   UNL A   1      37.799  29.176  29.897  1.00  0.00     0.010 A 
ATOM     40  C   UNL A   1      38.092  29.662  27.555  1.00  0.00     0.010 A 
ATOM     41  C   UNL A   1      38.596  29.106  28.746  1.00  0.00    -0.014 A 
BRANCH  41  42
ATOM     42  C   UNL A   1      39.987  28.562  28.788  1.00  0.00     0.031 A 
ATOM     43  C   UNL A   1      41.126  29.459  29.221  1.00  0.00     0.074 A 
ATOM     44  C   UNL A   1      40.265  27.281  28.472  1.00  0.00     0.049 A 
ATOM     45  N   UNL A   1      42.416  29.290  29.069  1.00  0.00    -0.248 NA
ATOM     46  C   UNL A   1      40.761  30.718  29.888  1.00  0.00     0.031 C 
ATOM     47  C   UNL A   1      39.290  26.256  28.095  1.00  0.00     0.029 A 
ATOM     48  N   UNL A   1      41.469  26.618  28.432  1.00  0.00    -0.354 N 
ATOM     49  C   UNL A   1      43.006  30.459  29.537  1.00  0.00     0.074 A 
ATOM     50  C   UNL A   1      41.937  31.320  29.994  1.00  0.00     0.031 C 
ATOM     51  C   UNL A   1      39.925  25.087  27.917  1.00  0.00     0.029 A 
ATOM     52  C   UNL A   1      41.360  25.297  28.074  1.00  0.00     0.049 A 
ATOM     53  H   UNL A   1      42.328  27.051  28.640  1.00  0.00     0.167 HD
ATOM     54  C   UNL A   1      44.319  30.793  29.572  1.00  0.00     0.031 A 
ATOM     55  C   UNL A   1      42.306  24.364  27.855  1.00  0.00     0.031 A 
ATOM     56  C   UNL A   1      45.393  29.914  29.196  1.00  0.00     0.049 A 
ATOM     57  C   UNL A   1      43.758  24.736  27.951  1.00  0.00     0.074 A 
ATOM     58  C   UNL A   1      46.751  30.177  29.140  1.00  0.00     0.029 A 
ATOM     59  N   UNL A   1      45.230  28.579  28.867  1.00  0.00    -0.354 N 
ATOM     60  N   UNL A   1      44.295  25.896  28.239  1.00  0.00    -0.248 NA
ATOM     61  C   UNL A   1      44.734  23.672  27.670  1.00  0.00     0.031 C 
ATOM     62  C   UNL A   1      47.412  28.996  28.781  1.00  0.00     0.029 A 
ATOM     63  C   UNL A   1      46.465  27.996  28.643  1.00  0.00     0.049 A 
ATOM     64  H   UNL A   1      44.365  28.114  28.803  1.00  0.00     0.167 HD
ATOM     65  C   UNL A   1      45.668  25.702  28.169  1.00  0.00     0.074 A 
ATOM     66  C   UNL A   1      45.884  24.308  27.847  1.00  0.00     0.031 C 
ATOM     67  C   UNL A   1      46.662  26.606  28.339  1.00  0.00     0.031 A 
BRANCH  54  68
ATOM     68  C   UNL A   1      44.665  32.190  29.999  1.00  0.00    -0.014 A 
ATOM     69  C   UNL A   1      44.860  32.517  31.348  1.00  0.00     0.009 A 
ATOM     70  C   UNL A   1      44.829  33.188  29.024  1.00  0.00     0.009 A 
ATOM     71  C   UNL A   1      45.187  33.825  31.715  1.00  0.00     0.001 A 
ATOM     72  C   UNL A   1      45.179  34.488  29.392  1.00  0.00     0.001 A 
ATOM     73  C   UNL A   1      45.350  34.807  30.738  1.00  0.00     0.000 A 
ENDBRANCH  54  68
BRANCH  55  74
ATOM     74  C   UNL A   1      41.912  22.984  27.473  1.00  0.00    -0.014 A 
ATOM     75  C   UNL A   1      41.644  22.666  26.133  1.00  0.00     0.009 A 
ATOM     76  C   UNL A   1      41.792  21.982  28.449  1.00  0.00     0.009 A 
ATOM     77  C   UNL A   1      41.245  21.375  25.780  1.00  0.00     0.001 A 
ATOM     78  C   UNL A   1      41.421  20.685  28.088  1.00  0.00     0.001 A 
ATOM     79  C   UNL A   1      41.140  20.385  26.757  1.00  0.00     0.000 A 
ENDBRANCH  55  74
BRANCH  67  80
ATOM     80  C   UNL A   1      48.069  26.101  28.216  1.00  0.00    -0.014 A 
ATOM     81  C   UNL A   1      48.704  26.029  26.967  1.00  0.00     0.009 A 
ATOM     82  C   UNL A   1      48.770  25.708  29.365  1.00  0.00     0.009 A 
ATOM     83  C   UNL A   1      50.008  25.541  26.868  1.00  0.00     0.001 A 
ATOM     84  C   UNL A   1      50.080  25.235  29.265  1.00  0.00     0.001 A 
ATOM     85  C   UNL A   1      50.695  25.145  28.017  1.00  0.00     0.000 A 
ENDBRANCH  67  80
ENDBRANCH  41  42
ENDBRANCH  34  36
ENDBRANCH  33  34
ENDBRANCH  32  33
ENDBRANCH   1  32
TORSDOF 16
ENDMDL
MODEL 2
REMARK VINA RESULT:     -12.3      4.080      8.560
REMARK SMILES COc1ccc(-c2cc(CC3(C(=O)OCCOC(=O)c4ccc(-c5c6nc(c(-c7ccccc7)c7ccc([nH]7)c(-c7ccccc7)c7nc(c(-c8ccccc8)c8ccc5[nH]8)C=C7)C=C6)cc4)CCN(C(=O)C4CCCC4)CC3)on2)cc1
REMARK SMILES IDX 15 1 14 2 12 3 13 4 11 5 68 6 79 7 69 8 78 9 70 10 71 11
REMARK SMILES IDX 72 12 10 13 9 14 7 15 8 16 81 17 80 18 6 19 3 20 4 21 83 22
REMARK SMILES IDX 5 23 82 24 2 25 1 26 73 27 74 28 77 29 75 30 76 31 16 32
REMARK SMILES IDX 17 33 18 34 19 35 20 36 21 37 67 38 22 39 66 40 23 41 24 42
REMARK SMILES IDX 25 43 60 44 26 45 65 46 59 47 61 48 27 49 64 50 58 51 57 52
REMARK SMILES IDX 28 54 50 55 35 56 49 57 36 58 39 59 48 60 62 61 37 62 38 63
REMARK SMILES IDX 47 65 63 66 40 67 29 68 30 69 34 70 31 71 33 72 32 73 51 74
REMARK SMILES IDX 52 75 56 76 53 77 55 78 54 79 41 80 42 81 46 82 43 83 45 84
REMARK SMILES IDX 44 85
REMARK H PARENT 61 53 39 64
REMARK Flexibility Score: inf
ROOT
ATOM      1  C   UNL A   1      36.125  22.162  24.482  1.00  0.00     0.274 C 
ENDROOT
BRANCH   1   2
ATOM      2  O   UNL A   1      34.894  22.915  24.539  1.00  0.00    -0.462 OA
BRANCH   2   3
ATOM      3  C   UNL A   1      34.081  22.668  25.596  1.00  0.00     0.312 C 
ATOM      4  O   UNL A   1      34.237  23.158  26.711  1.00  0.00    -0.252 OA
BRANCH   3   5
ATOM      5  C   UNL A   1      32.935  21.678  25.292  1.00  0.00     0.078 C 
ATOM      6  C   UNL A   1      32.688  21.530  23.767  1.00  0.00     0.041 C 
ATOM      7  C   UNL A   1      33.434  20.343  25.891  1.00  0.00     0.041 C 
ATOM      8  C   UNL A   1      31.976  20.246  23.356  1.00  0.00     0.120 C 
ATOM      9  C   UNL A   1      32.715  19.100  25.386  1.00  0.00     0.120 C 
ATOM     10  N   UNL A   1      32.636  19.079  23.935  1.00  0.00    -0.342 N 
ATOM     11  C   UNL A   1      32.991  18.035  23.096  1.00  0.00     0.225 C 
ATOM     12  O   UNL A   1      32.753  18.084  21.884  1.00  0.00    -0.275 OA
BRANCH   5  13
ATOM     13  C   UNL A   1      31.709  22.279  26.031  1.00  0.00     0.097 C 
BRANCH  13  14
ATOM     14  C   UNL A   1      31.276  23.652  25.688  1.00  0.00     0.138 A 
ATOM     15  C   UNL A   1      30.620  25.598  24.885  1.00  0.00     0.114 A 
ATOM     16  C   UNL A   1      31.093  24.321  24.501  1.00  0.00     0.077 A 
ATOM     17  N   UNL A   1      30.499  25.681  26.216  1.00  0.00    -0.080 NA
ATOM     18  O   UNL A   1      30.872  24.446  26.712  1.00  0.00    -0.361 OA
BRANCH  15  19
ATOM     19  C   UNL A   1      30.305  26.717  24.018  1.00  0.00     0.004 A 
ATOM     20  C   UNL A   1      29.707  28.878  22.344  1.00  0.00     0.118 A 
ATOM     21  C   UNL A   1      31.034  28.501  22.555  1.00  0.00     0.047 A 
ATOM     22  C   UNL A   1      28.674  28.153  22.942  1.00  0.00     0.047 A 
ATOM     23  C   UNL A   1      31.336  27.433  23.402  1.00  0.00     0.014 A 
ATOM     24  C   UNL A   1      28.973  27.073  23.779  1.00  0.00     0.014 A 
BRANCH  20  25
ATOM     25  O   UNL A   1      29.517  29.939  21.501  1.00  0.00    -0.497 OA
ATOM     26  C   UNL A   1      28.183  30.440  21.484  1.00  0.00     0.278 C 
ENDBRANCH  20  25
ENDBRANCH  15  19
ENDBRANCH  13  14
ENDBRANCH   5  13
BRANCH  11  27
ATOM     27  C   UNL A   1      33.728  16.803  23.620  1.00  0.00     0.078 C 
ATOM     28  C   UNL A   1      35.033  17.111  24.353  1.00  0.00     0.013 C 
ATOM     29  C   UNL A   1      32.928  15.852  24.517  1.00  0.00     0.013 C 
ATOM     30  C   UNL A   1      35.241  15.900  25.246  1.00  0.00     0.001 C 
ATOM     31  C   UNL A   1      33.840  15.519  25.700  1.00  0.00     0.001 C 
ENDBRANCH  11  27
ENDBRANCH   3   5
ENDBRANCH   2   3
ENDBRANCH   1   2
BRANCH   1  32
ATOM     32  C   UNL A   1      37.315  23.070  24.771  1.00  0.00     0.275 C 
BRANCH  32  33
ATOM     33  O   UNL A   1      37.873  22.716  26.047  1.00  0.00    -0.458 OA
BRANCH  33  34
ATOM     34  C   UNL A   1      38.895  21.832  26.015  1.00  0.00     0.338 C 
ATOM     35  O   UNL A   1      38.928  20.764  25.409  1.00  0.00    -0.246 OA
BRANCH  34  36
ATOM     36  C   UNL A   1      40.042  22.338  26.790  1.00  0.00     0.060 A 
ATOM     37  C   UNL A   1      40.004  23.606  27.364  1.00  0.00     0.016 A 
ATOM     38  C   UNL A   1      41.227  21.605  26.806  1.00  0.00     0.016 A 
ATOM     39  C   UNL A   1      41.183  24.207  27.811  1.00  0.00     0.010 A 
ATOM     40  C   UNL A   1      42.381  22.165  27.364  1.00  0.00     0.010 A 
ATOM     41  C   UNL A   1      42.394  23.500  27.808  1.00  0.00    -0.014 A 
BRANCH  41  42
ATOM     42  C   UNL A   1      43.689  24.162  28.154  1.00  0.00     0.031 A 
ATOM     43  C   UNL A   1      44.166  24.163  29.589  1.00  0.00     0.074 A 
ATOM     44  C   UNL A   1      44.466  24.744  27.219  1.00  0.00     0.049 A 
ATOM     45  N   UNL A   1      45.093  24.897  30.153  1.00  0.00    -0.248 NA
ATOM     46  C   UNL A   1      43.495  23.233  30.512  1.00  0.00     0.031 C 
ATOM     47  C   UNL A   1      44.200  24.785  25.781  1.00  0.00     0.029 A 
ATOM     48  N   UNL A   1      45.663  25.411  27.351  1.00  0.00    -0.354 N 
ATOM     49  C   UNL A   1      45.050  24.584  31.507  1.00  0.00     0.074 A 
ATOM     50  C   UNL A   1      44.021  23.581  31.678  1.00  0.00     0.031 C 
ATOM     51  C   UNL A   1      45.226  25.390  25.159  1.00  0.00     0.029 A 
ATOM     52  C   UNL A   1      46.176  25.863  26.160  1.00  0.00     0.049 A 
ATOM     53  H   UNL A   1      46.108  25.551  28.217  1.00  0.00     0.167 HD
ATOM     54  C   UNL A   1      45.791  25.093  32.521  1.00  0.00     0.031 A 
ATOM     55  C   UNL A   1      47.265  26.610  25.898  1.00  0.00     0.031 A 
ATOM     56  C   UNL A   1      46.869  26.028  32.351  1.00  0.00     0.049 A 
ATOM     57  C   UNL A   1      48.108  27.123  27.031  1.00  0.00     0.074 A 
ATOM     58  C   UNL A   1      47.641  26.648  33.319  1.00  0.00     0.029 A 
ATOM     59  N   UNL A   1      47.365  26.433  31.124  1.00  0.00    -0.354 N 
ATOM     60  N   UNL A   1      47.953  26.946  28.320  1.00  0.00    -0.248 NA
ATOM     61  C   UNL A   1      49.265  27.956  26.671  1.00  0.00     0.031 C 
ATOM     62  C   UNL A   1      48.611  27.426  32.674  1.00  0.00     0.029 A 
ATOM     63  C   UNL A   1      48.456  27.265  31.307  1.00  0.00     0.049 A 
ATOM     64  H   UNL A   1      46.997  26.168  30.250  1.00  0.00     0.167 HD
ATOM     65  C   UNL A   1      48.988  27.648  28.923  1.00  0.00     0.074 A 
ATOM     66  C   UNL A   1      49.784  28.225  27.860  1.00  0.00     0.031 C 
ATOM     67  C   UNL A   1      49.245  27.816  30.242  1.00  0.00     0.031 A 
BRANCH  54  68
ATOM     68  C   UNL A   1      45.431  24.675  33.917  1.00  0.00    -0.014 A 
ATOM     69  C   UNL A   1      46.040  23.572  34.532  1.00  0.00     0.009 A 
ATOM     70  C   UNL A   1      44.484  25.421  34.638  1.00  0.00     0.009 A 
ATOM     71  C   UNL A   1      45.689  23.211  35.835  1.00  0.00     0.001 A 
ATOM     72  C   UNL A   1      44.153  25.071  35.947  1.00  0.00     0.001 A 
ATOM     73  C   UNL A   1      44.750  23.961  36.543  1.00  0.00     0.000 A 
ENDBRANCH  54  68
BRANCH  55  74
ATOM     74  C   UNL A   1      47.602  26.965  24.496  1.00  0.00    -0.014 A 
ATOM     75  C   UNL A   1      48.564  26.229  23.788  1.00  0.00     0.009 A 
ATOM     76  C   UNL A   1      46.969  28.047  23.864  1.00  0.00     0.009 A 
ATOM     77  C   UNL A   1      48.901  26.583  22.479  1.00  0.00     0.001 A 
ATOM     78  C   UNL A   1      47.288  28.380  22.546  1.00  0.00     0.001 A 
ATOM     79  C   UNL A   1      48.258  27.653  21.858  1.00  0.00     0.000 A 
ENDBRANCH  55  74
BRANCH  67  80
ATOM     80  C   UNL A   1      50.456  28.624  30.601  1.00  0.00    -0.014 A 
ATOM     81  C   UNL A   1      51.709  28.015  30.765  1.00  0.00     0.009 A 
ATOM     82  C   UNL A   1      50.343  30.013  30.762  1.00  0.00     0.009 A 
ATOM     83  C   UNL A   1      52.823  28.779  31.115  1.00  0.00     0.001 A 
ATOM     84  C   UNL A   1      51.462  30.777  31.097  1.00  0.00     0.001 A 
ATOM     85  C   UNL A   1      52.698  30.159  31.281  1.00  0.00     0.000 A 
ENDBRANCH  67  80
ENDBRANCH  41  42
ENDBRANCH  34  36
ENDBRANCH  33  34
ENDBRANCH  32  33
ENDBRANCH   1  32
TORSDOF 16
ENDMDL
MODEL 3
REMARK VINA RESULT:     -12.3      3.946      8.330
REMARK SMILES COc1ccc(-c2cc(CC3(C(=O)OCCOC(=O)c4ccc(-c5c6nc(c(-c7ccccc7)c7ccc([nH]7)c(-c7ccccc7)c7nc(c(-c8ccccc8)c8ccc5[nH]8)C=C7)C=C6)cc4)CCN(C(=O)C4CCCC4)CC3)on2)cc1
REMARK SMILES IDX 15 1 14 2 12 3 13 4 11 5 68 6 79 7 69 8 78 9 70 10 71 11
REMARK SMILES IDX 72 12 10 13 9 14 7 15 8 16 81 17 80 18 6 19 3 20 4 21 83 22
REMARK SMILES IDX 5 23 82 24 2 25 1 26 73 27 74 28 77 29 75 30 76 31 16 32
REMARK SMILES IDX 17 33 18 34 19 35 20 36 21 37 67 38 22 39 66 40 23 41 24 42
REMARK SMILES IDX 25 43 60 44 26 45 65 46 59 47 61 48 27 49 64 50 58 51 57 52
REMARK SMILES IDX 28 54 50 55 35 56 49 57 36 58 39 59 48 60 62 61 37 62 38 63
REMARK SMILES IDX 47 65 63 66 40 67 29 68 30 69 34 70 31 71 33 72 32 73 51 74
REMARK SMILES IDX 52 75 56 76 53 77 55 78 54 79 41 80 42 81 46 82 43 83 45 84
REMARK SMILES IDX 44 85
REMARK H PARENT 61 53 39 64
REMARK Flexibility Score: inf
ROOT
ATOM      1  C   UNL A   1      36.977  23.132  24.949  1.00  0.00     0.274 C 
ENDROOT
BRANCH   1   2
ATOM      2  O   UNL A   1      35.638  23.659  25.074  1.00  0.00    -0.462 OA
BRANCH   2   3
ATOM      3  C   UNL A   1      34.948  23.841  23.920  1.00  0.00     0.312 C 
ATOM      4  O   UNL A   1      35.379  23.544  22.810  1.00  0.00    -0.252 OA
BRANCH   3   5
ATOM      5  C   UNL A   1      33.560  24.491  24.111  1.00  0.00     0.078 C 
ATOM      6  C   UNL A   1      33.046  24.339  25.567  1.00  0.00     0.041 C 
ATOM      7  C   UNL A   1      33.804  25.981  23.776  1.00  0.00     0.041 C 
ATOM      8  C   UNL A   1      31.983  25.352  25.979  1.00  0.00     0.120 C 
ATOM      9  C   UNL A   1      32.730  26.938  24.273  1.00  0.00     0.120 C 
ATOM     10  N   UNL A   1      32.419  26.712  25.675  1.00  0.00    -0.342 N 
ATOM     11  C   UNL A   1      32.367  27.664  26.680  1.00  0.00     0.225 C 
ATOM     12  O   UNL A   1      31.959  27.374  27.811  1.00  0.00    -0.275 OA
BRANCH   5  13
ATOM     13  C   UNL A   1      32.654  23.756  23.087  1.00  0.00     0.097 C 
BRANCH  13  14
ATOM     14  C   UNL A   1      32.632  22.277  23.092  1.00  0.00     0.138 A 
ATOM     15  C   UNL A   1      32.669  20.093  23.399  1.00  0.00     0.114 A 
ATOM     16  C   UNL A   1      32.994  21.324  24.015  1.00  0.00     0.077 A 
ATOM     17  N   UNL A   1      32.121  20.294  22.194  1.00  0.00    -0.080 NA
ATOM     18  O   UNL A   1      32.062  21.663  22.024  1.00  0.00    -0.361 OA
BRANCH  15  19
ATOM     19  C   UNL A   1      32.886  18.760  23.928  1.00  0.00     0.004 A 
ATOM     20  C   UNL A   1      33.306  16.185  24.939  1.00  0.00     0.118 A 
ATOM     21  C   UNL A   1      33.693  16.498  23.635  1.00  0.00     0.047 A 
ATOM     22  C   UNL A   1      32.739  17.169  25.751  1.00  0.00     0.047 A 
ATOM     23  C   UNL A   1      33.471  17.778  23.123  1.00  0.00     0.014 A 
ATOM     24  C   UNL A   1      32.529  18.456  25.247  1.00  0.00     0.014 A 
BRANCH  20  25
ATOM     25  O   UNL A   1      33.564  14.904  25.345  1.00  0.00    -0.497 OA
ATOM     26  C   UNL A   1      32.545  14.334  26.163  1.00  0.00     0.278 C 
ENDBRANCH  20  25
ENDBRANCH  15  19
ENDBRANCH  13  14
ENDBRANCH   5  13
BRANCH  11  27
ATOM     27  C   UNL A   1      32.851  29.095  26.452  1.00  0.00     0.078 C 
ATOM     28  C   UNL A   1      31.854  30.175  26.874  1.00  0.00     0.013 C 
ATOM     29  C   UNL A   1      34.202  29.472  27.069  1.00  0.00     0.013 C 
ATOM     30  C   UNL A   1      32.724  31.396  27.117  1.00  0.00     0.001 C 
ATOM     31  C   UNL A   1      33.998  30.836  27.732  1.00  0.00     0.001 C 
ENDBRANCH  11  27
ENDBRANCH   3   5
ENDBRANCH   2   3
ENDBRANCH   1   2
BRANCH   1  32
ATOM     32  C   UNL A   1      37.870  23.690  26.052  1.00  0.00     0.275 C 
BRANCH  32  33
ATOM     33  O   UNL A   1      39.061  22.890  26.137  1.00  0.00    -0.458 OA
BRANCH  33  34
ATOM     34  C   UNL A   1      40.203  23.564  26.393  1.00  0.00     0.338 C 
ATOM     35  O   UNL A   1      41.345  23.222  26.094  1.00  0.00    -0.246 OA
BRANCH  34  36
ATOM     36  C   UNL A   1      39.911  24.844  27.063  1.00  0.00     0.060 A 
ATOM     37  C   UNL A   1      40.408  26.041  26.550  1.00  0.00     0.016 A 
ATOM     38  C   UNL A   1      39.272  24.833  28.301  1.00  0.00     0.016 A 
ATOM     39  C   UNL A   1      40.410  27.192  27.340  1.00  0.00     0.010 A 
ATOM     40  C   UNL A   1      39.170  26.017  29.039  1.00  0.00     0.010 A 
ATOM     41  C   UNL A   1      39.801  27.197  28.603  1.00  0.00    -0.014 A 
BRANCH  41  42
ATOM     42  C   UNL A   1      39.905  28.373  29.520  1.00  0.00     0.031 A 
ATOM     43  C   UNL A   1      41.050  28.451  30.504  1.00  0.00     0.074 A 
ATOM     44  C   UNL A   1      39.019  29.388  29.485  1.00  0.00     0.049 A 
ATOM     45  N   UNL A   1      41.185  29.217  31.559  1.00  0.00    -0.248 NA
ATOM     46  C   UNL A   1      42.178  27.532  30.285  1.00  0.00     0.031 C 
ATOM     47  C   UNL A   1      37.891  29.515  28.561  1.00  0.00     0.029 A 
ATOM     48  N   UNL A   1      38.942  30.526  30.254  1.00  0.00    -0.354 N 
ATOM     49  C   UNL A   1      42.361  28.806  32.176  1.00  0.00     0.074 A 
ATOM     50  C   UNL A   1      42.912  27.739  31.369  1.00  0.00     0.031 C 
ATOM     51  C   UNL A   1      37.271  30.686  28.780  1.00  0.00     0.029 A 
ATOM     52  C   UNL A   1      37.897  31.350  29.918  1.00  0.00     0.049 A 
ATOM     53  H   UNL A   1      39.578  30.729  30.978  1.00  0.00     0.167 HD
ATOM     54  C   UNL A   1      42.927  29.266  33.318  1.00  0.00     0.031 A 
ATOM     55  C   UNL A   1      37.460  32.492  30.483  1.00  0.00     0.031 A 
ATOM     56  C   UNL A   1      42.431  30.379  34.081  1.00  0.00     0.049 A 
ATOM     57  C   UNL A   1      38.132  33.018  31.718  1.00  0.00     0.074 A 
ATOM     58  C   UNL A   1      42.899  30.884  35.283  1.00  0.00     0.029 A 
ATOM     59  N   UNL A   1      41.387  31.195  33.683  1.00  0.00    -0.354 N 
ATOM     60  N   UNL A   1      39.149  32.521  32.380  1.00  0.00    -0.248 NA
ATOM     61  C   UNL A   1      37.582  34.254  32.295  1.00  0.00     0.031 C 
ATOM     62  C   UNL A   1      42.138  32.014  35.609  1.00  0.00     0.029 A 
ATOM     63  C   UNL A   1      41.217  32.222  34.595  1.00  0.00     0.049 A 
ATOM     64  H   UNL A   1      40.845  31.064  32.871  1.00  0.00     0.167 HD
ATOM     65  C   UNL A   1      39.355  33.380  33.451  1.00  0.00     0.074 A 
ATOM     66  C   UNL A   1      38.384  34.447  33.333  1.00  0.00     0.031 C 
ATOM     67  C   UNL A   1      40.259  33.282  34.455  1.00  0.00     0.031 A 
BRANCH  54  68
ATOM     68  C   UNL A   1      44.133  28.536  33.833  1.00  0.00    -0.014 A 
ATOM     69  C   UNL A   1      45.434  28.950  33.513  1.00  0.00     0.009 A 
ATOM     70  C   UNL A   1      43.959  27.430  34.682  1.00  0.00     0.009 A 
ATOM     71  C   UNL A   1      46.537  28.254  34.013  1.00  0.00     0.001 A 
ATOM     72  C   UNL A   1      45.063  26.751  35.198  1.00  0.00     0.001 A 
ATOM     73  C   UNL A   1      46.352  27.159  34.857  1.00  0.00     0.000 A 
ENDBRANCH  54  68
BRANCH  55  74
ATOM     74  C   UNL A   1      36.286  33.199  29.911  1.00  0.00    -0.014 A 
ATOM     75  C   UNL A   1      35.108  33.342  30.660  1.00  0.00     0.009 A 
ATOM     76  C   UNL A   1      36.336  33.726  28.611  1.00  0.00     0.009 A 
ATOM     77  C   UNL A   1      33.995  33.982  30.110  1.00  0.00     0.001 A 
ATOM     78  C   UNL A   1      35.231  34.390  28.075  1.00  0.00     0.001 A 
ATOM     79  C   UNL A   1      34.060  34.510  28.821  1.00  0.00     0.000 A 
ENDBRANCH  55  74
BRANCH  67  80
ATOM     80  C   UNL A   1      40.259  34.377  35.479  1.00  0.00    -0.014 A 
ATOM     81  C   UNL A   1      39.524  34.255  36.668  1.00  0.00     0.009 A 
ATOM     82  C   UNL A   1      41.016  35.537  35.258  1.00  0.00     0.009 A 
ATOM     83  C   UNL A   1      39.522  35.291  37.604  1.00  0.00     0.001 A 
ATOM     84  C   UNL A   1      41.025  36.564  36.202  1.00  0.00     0.001 A 
ATOM     85  C   UNL A   1      40.273  36.444  37.370  1.00  0.00     0.000 A 
ENDBRANCH  67  80
ENDBRANCH  41  42
ENDBRANCH  34  36
ENDBRANCH  33  34
ENDBRANCH  32  33
ENDBRANCH   1  32
TORSDOF 16
ENDMDL
