MODEL 1
REMARK VINA RESULT:     -11.8      0.000      0.000
REMARK SMILES CC(C)Oc1ccc([C@@H]2CC(=O)Nc3c(C(=O)OCCOC(=O)c4ccc(-c5c6nc(c(-c7ccccc7)c7ccc([nH]7)c(-c7ccccc7)c7nc(c(-c8ccccc8)c8ccc5[nH]8)C=C7)C=C6)cc4)nsc32)cc1
REMARK SMILES IDX 19 1 18 2 16 3 17 4 15 5 9 6 10 7 74 8 11 9 14 10 73 11
REMARK SMILES IDX 12 12 13 13 72 14 8 16 5 17 6 18 76 19 7 20 75 21 4 22 2 23
REMARK SMILES IDX 1 24 3 25 20 26 21 27 22 28 23 29 24 30 25 31 71 32 26 33
REMARK SMILES IDX 70 34 27 35 28 36 29 37 64 38 30 39 69 40 63 41 65 42 31 43
REMARK SMILES IDX 68 44 62 45 61 46 32 48 54 49 39 50 53 51 40 52 43 53 52 54
REMARK SMILES IDX 66 55 41 56 42 57 51 59 67 60 44 61 33 62 34 63 38 64 35 65
REMARK SMILES IDX 37 66 36 67 55 68 56 69 60 70 57 71 59 72 58 73 45 74 46 75
REMARK SMILES IDX 50 76 47 77 49 78 48 79
REMARK H PARENT 13 15 65 47 43 58
REMARK Flexibility Score: inf
ROOT
ATOM      1  C   UNL A   1      36.540  21.573  25.427  1.00  0.00     0.275 C 
ENDROOT
BRANCH   1   2
ATOM      2  O   UNL A   1      36.067  22.892  25.120  1.00  0.00    -0.457 OA
BRANCH   2   3
ATOM      3  C   UNL A   1      35.826  23.157  23.795  1.00  0.00     0.360 C 
ATOM      4  O   UNL A   1      36.655  22.977  22.904  1.00  0.00    -0.244 OA
BRANCH   3   5
ATOM      5  C   UNL A   1      34.456  23.635  23.570  1.00  0.00     0.185 A 
ATOM      6  C   UNL A   1      31.116  24.737  24.879  1.00  0.00     0.073 C 
ATOM      7  C   UNL A   1      31.442  24.602  26.382  1.00  0.00     0.114 C 
ATOM      8  C   UNL A   1      32.307  24.332  24.069  1.00  0.00     0.058 A 
ATOM      9  C   UNL A   1      32.390  23.467  26.737  1.00  0.00     0.225 C 
ATOM     10  C   UNL A   1      33.411  23.687  24.559  1.00  0.00     0.091 A 
ATOM     11  S   UNL A   1      32.516  24.581  22.401  1.00  0.00    -0.038 S 
ATOM     12  O   UNL A   1      32.347  22.902  27.827  1.00  0.00    -0.275 OA
ATOM     13  N   UNL A   1      33.405  23.209  25.855  1.00  0.00    -0.323 N 
ATOM     14  N   UNL A   1      34.094  24.082  22.358  1.00  0.00    -0.183 NA
ATOM     15  H   UNL A   1      34.165  22.660  26.158  1.00  0.00     0.170 HD
BRANCH   6  16
ATOM     16  C   UNL A   1      30.710  26.170  24.559  1.00  0.00    -0.039 A 
ATOM     17  C   UNL A   1      30.154  28.799  23.745  1.00  0.00     0.119 A 
ATOM     18  C   UNL A   1      29.261  27.767  23.452  1.00  0.00     0.047 A 
ATOM     19  C   UNL A   1      31.278  28.538  24.517  1.00  0.00     0.047 A 
ATOM     20  C   UNL A   1      29.537  26.454  23.851  1.00  0.00     0.008 A 
ATOM     21  C   UNL A   1      31.563  27.235  24.906  1.00  0.00     0.008 A 
BRANCH  17  22
ATOM     22  O   UNL A   1      29.829  30.058  23.333  1.00  0.00    -0.491 OA
BRANCH  22  23
ATOM     23  C   UNL A   1      28.517  30.256  22.769  1.00  0.00     0.167 C 
ATOM     24  C   UNL A   1      27.621  31.179  23.594  1.00  0.00     0.052 C 
ATOM     25  C   UNL A   1      28.525  30.632  21.287  1.00  0.00     0.052 C 
ENDBRANCH  22  23
ENDBRANCH  17  22
ENDBRANCH   6  16
ENDBRANCH   3   5
ENDBRANCH   2   3
ENDBRANCH   1   2
BRANCH   1  26
ATOM     26  C   UNL A   1      38.060  21.559  25.451  1.00  0.00     0.275 C 
BRANCH  26  27
ATOM     27  O   UNL A   1      38.559  22.705  26.135  1.00  0.00    -0.458 OA
BRANCH  27  28
ATOM     28  C   UNL A   1      39.725  22.543  26.799  1.00  0.00     0.338 C 
ATOM     29  O   UNL A   1      40.155  21.511  27.286  1.00  0.00    -0.246 OA
BRANCH  28  30
ATOM     30  C   UNL A   1      40.277  23.875  27.074  1.00  0.00     0.060 A 
ATOM     31  C   UNL A   1      41.316  23.975  28.004  1.00  0.00     0.016 A 
ATOM     32  C   UNL A   1      39.561  25.002  26.643  1.00  0.00     0.016 A 
ATOM     33  C   UNL A   1      41.514  25.185  28.637  1.00  0.00     0.010 A 
ATOM     34  C   UNL A   1      39.738  26.196  27.294  1.00  0.00     0.010 A 
ATOM     35  C   UNL A   1      40.662  26.253  28.331  1.00  0.00    -0.014 A 
BRANCH  35  36
ATOM     36  C   UNL A   1      40.830  27.505  29.032  1.00  0.00     0.031 A 
ATOM     37  C   UNL A   1      41.942  28.322  28.497  1.00  0.00     0.074 A 
ATOM     38  C   UNL A   1      39.955  27.941  29.956  1.00  0.00     0.049 A 
ATOM     39  N   UNL A   1      43.021  28.669  29.111  1.00  0.00    -0.248 NA
ATOM     40  C   UNL A   1      41.924  28.661  27.064  1.00  0.00     0.031 C 
ATOM     41  C   UNL A   1      38.668  27.355  30.341  1.00  0.00     0.029 A 
ATOM     42  N   UNL A   1      39.987  29.099  30.666  1.00  0.00    -0.354 N 
ATOM     43  C   UNL A   1      43.742  29.431  28.201  1.00  0.00     0.074 A 
ATOM     44  C   UNL A   1      43.111  29.247  26.919  1.00  0.00     0.031 C 
ATOM     45  C   UNL A   1      37.945  28.280  31.015  1.00  0.00     0.029 A 
ATOM     46  C   UNL A   1      38.765  29.464  31.216  1.00  0.00     0.049 A 
ATOM     47  H   UNL A   1      40.805  29.633  30.781  1.00  0.00     0.167 HD
ATOM     48  C   UNL A   1      44.644  30.359  28.618  1.00  0.00     0.031 A 
ATOM     49  C   UNL A   1      38.445  30.682  31.721  1.00  0.00     0.031 A 
ATOM     50  C   UNL A   1      45.025  30.151  29.991  1.00  0.00     0.049 A 
ATOM     51  C   UNL A   1      39.714  31.396  32.006  1.00  0.00     0.074 A 
ATOM     52  C   UNL A   1      45.608  29.107  30.684  1.00  0.00     0.029 A 
ATOM     53  N   UNL A   1      44.431  30.951  30.939  1.00  0.00    -0.354 N 
ATOM     54  N   UNL A   1      40.540  31.035  32.946  1.00  0.00    -0.248 NA
ATOM     55  C   UNL A   1      40.292  32.213  30.948  1.00  0.00     0.031 C 
ATOM     56  C   UNL A   1      44.923  29.072  31.934  1.00  0.00     0.029 A 
ATOM     57  C   UNL A   1      44.021  30.137  31.962  1.00  0.00     0.049 A 
ATOM     58  H   UNL A   1      44.320  31.928  30.890  1.00  0.00     0.167 HD
ATOM     59  C   UNL A   1      41.799  31.178  32.380  1.00  0.00     0.074 A 
ATOM     60  C   UNL A   1      41.589  32.000  31.188  1.00  0.00     0.031 C 
ATOM     61  C   UNL A   1      42.838  30.377  32.759  1.00  0.00     0.031 A 
BRANCH  48  62
ATOM     62  C   UNL A   1      44.824  31.683  27.925  1.00  0.00    -0.014 A 
ATOM     63  C   UNL A   1      46.097  32.014  27.434  1.00  0.00     0.009 A 
ATOM     64  C   UNL A   1      43.881  32.727  27.997  1.00  0.00     0.009 A 
ATOM     65  C   UNL A   1      46.431  33.336  27.114  1.00  0.00     0.001 A 
ATOM     66  C   UNL A   1      44.196  34.039  27.640  1.00  0.00     0.001 A 
ATOM     67  C   UNL A   1      45.483  34.349  27.228  1.00  0.00     0.000 A 
ENDBRANCH  48  62
BRANCH  49  68
ATOM     68  C   UNL A   1      37.139  31.380  31.696  1.00  0.00    -0.014 A 
ATOM     69  C   UNL A   1      36.480  31.719  32.890  1.00  0.00     0.009 A 
ATOM     70  C   UNL A   1      36.663  31.958  30.504  1.00  0.00     0.009 A 
ATOM     71  C   UNL A   1      35.415  32.631  32.893  1.00  0.00     0.001 A 
ATOM     72  C   UNL A   1      35.597  32.864  30.507  1.00  0.00     0.001 A 
ATOM     73  C   UNL A   1      34.983  33.213  31.704  1.00  0.00     0.000 A 
ENDBRANCH  49  68
BRANCH  61  74
ATOM     74  C   UNL A   1      42.642  29.475  33.955  1.00  0.00    -0.014 A 
ATOM     75  C   UNL A   1      42.093  28.182  33.864  1.00  0.00     0.009 A 
ATOM     76  C   UNL A   1      43.179  29.881  35.185  1.00  0.00     0.009 A 
ATOM     77  C   UNL A   1      42.058  27.337  34.978  1.00  0.00     0.001 A 
ATOM     78  C   UNL A   1      43.163  29.029  36.291  1.00  0.00     0.001 A 
ATOM     79  C   UNL A   1      42.597  27.760  36.190  1.00  0.00     0.000 A 
ENDBRANCH  61  74
ENDBRANCH  35  36
ENDBRANCH  28  30
ENDBRANCH  27  28
ENDBRANCH  26  27
ENDBRANCH   1  26
TORSDOF 14
ENDMDL
MODEL 2
REMARK VINA RESULT:     -11.7      2.852      7.555
REMARK SMILES CC(C)Oc1ccc([C@@H]2CC(=O)Nc3c(C(=O)OCCOC(=O)c4ccc(-c5c6nc(c(-c7ccccc7)c7ccc([nH]7)c(-c7ccccc7)c7nc(c(-c8ccccc8)c8ccc5[nH]8)C=C7)C=C6)cc4)nsc32)cc1
REMARK SMILES IDX 19 1 18 2 16 3 17 4 15 5 9 6 10 7 74 8 11 9 14 10 73 11
REMARK SMILES IDX 12 12 13 13 72 14 8 16 5 17 6 18 76 19 7 20 75 21 4 22 2 23
REMARK SMILES IDX 1 24 3 25 20 26 21 27 22 28 23 29 24 30 25 31 71 32 26 33
REMARK SMILES IDX 70 34 27 35 28 36 29 37 64 38 30 39 69 40 63 41 65 42 31 43
REMARK SMILES IDX 68 44 62 45 61 46 32 48 54 49 39 50 53 51 40 52 43 53 52 54
REMARK SMILES IDX 66 55 41 56 42 57 51 59 67 60 44 61 33 62 34 63 38 64 35 65
REMARK SMILES IDX 37 66 36 67 55 68 56 69 60 70 57 71 59 72 58 73 45 74 46 75
REMARK SMILES IDX 50 76 47 77 49 78 48 79
REMARK H PARENT 13 15 65 47 43 58
REMARK Flexibility Score: inf
ROOT
ATOM      1  C   UNL A   1      31.751  29.989  25.643  1.00  0.00     0.275 C 
ENDROOT
BRANCH   1   2
ATOM      2  O   UNL A   1      31.603  28.973  26.646  1.00  0.00    -0.457 OA
BRANCH   2   3
ATOM      3  C   UNL A   1      32.581  28.011  26.683  1.00  0.00     0.360 C 
ATOM      4  O   UNL A   1      33.659  28.160  27.256  1.00  0.00    -0.244 OA
BRANCH   3   5
ATOM      5  C   UNL A   1      32.166  26.778  26.001  1.00  0.00     0.185 A 
ATOM      6  C   UNL A   1      32.415  24.387  23.120  1.00  0.00     0.073 C 
ATOM      7  C   UNL A   1      33.515  25.138  22.338  1.00  0.00     0.114 C 
ATOM      8  C   UNL A   1      32.079  25.144  24.366  1.00  0.00     0.058 A 
ATOM      9  C   UNL A   1      33.463  26.653  22.448  1.00  0.00     0.225 C 
ATOM     10  C   UNL A   1      32.475  26.426  24.640  1.00  0.00     0.091 A 
ATOM     11  S   UNL A   1      31.143  24.573  25.664  1.00  0.00    -0.038 S 
ATOM     12  O   UNL A   1      33.873  27.384  21.548  1.00  0.00    -0.275 OA
ATOM     13  N   UNL A   1      33.095  27.175  23.659  1.00  0.00    -0.323 N 
ATOM     14  N   UNL A   1      31.440  25.861  26.659  1.00  0.00    -0.183 NA
ATOM     15  H   UNL A   1      33.280  28.125  23.839  1.00  0.00     0.170 HD
BRANCH   6  16
ATOM     16  C   UNL A   1      32.884  22.977  23.457  1.00  0.00    -0.039 A 
ATOM     17  C   UNL A   1      33.638  20.425  24.350  1.00  0.00     0.119 A 
ATOM     18  C   UNL A   1      32.518  20.582  23.532  1.00  0.00     0.047 A 
ATOM     19  C   UNL A   1      34.431  21.524  24.651  1.00  0.00     0.047 A 
ATOM     20  C   UNL A   1      32.135  21.853  23.090  1.00  0.00     0.008 A 
ATOM     21  C   UNL A   1      34.049  22.790  24.224  1.00  0.00     0.008 A 
BRANCH  17  22
ATOM     22  O   UNL A   1      33.964  19.161  24.747  1.00  0.00    -0.491 OA
BRANCH  22  23
ATOM     23  C   UNL A   1      33.149  18.078  24.255  1.00  0.00     0.167 C 
ATOM     24  C   UNL A   1      33.870  17.159  23.270  1.00  0.00     0.052 C 
ATOM     25  C   UNL A   1      32.424  17.295  25.349  1.00  0.00     0.052 C 
ENDBRANCH  22  23
ENDBRANCH  17  22
ENDBRANCH   6  16
ENDBRANCH   3   5
ENDBRANCH   2   3
ENDBRANCH   1   2
BRANCH   1  26
ATOM     26  C   UNL A   1      31.532  31.361  26.257  1.00  0.00     0.275 C 
BRANCH  26  27
ATOM     27  O   UNL A   1      32.498  31.613  27.274  1.00  0.00    -0.458 OA
BRANCH  27  28
ATOM     28  C   UNL A   1      32.636  32.901  27.661  1.00  0.00     0.338 C 
ATOM     29  O   UNL A   1      31.934  33.844  27.336  1.00  0.00    -0.246 OA
BRANCH  28  30
ATOM     30  C   UNL A   1      33.934  33.035  28.332  1.00  0.00     0.060 A 
ATOM     31  C   UNL A   1      34.976  33.647  27.629  1.00  0.00     0.016 A 
ATOM     32  C   UNL A   1      34.168  32.292  29.499  1.00  0.00     0.016 A 
ATOM     33  C   UNL A   1      36.274  33.360  27.999  1.00  0.00     0.010 A 
ATOM     34  C   UNL A   1      35.458  31.981  29.847  1.00  0.00     0.010 A 
ATOM     35  C   UNL A   1      36.491  32.461  29.050  1.00  0.00    -0.014 A 
BRANCH  35  36
ATOM     36  C   UNL A   1      37.848  32.114  29.404  1.00  0.00     0.031 A 
ATOM     37  C   UNL A   1      38.158  30.686  29.172  1.00  0.00     0.074 A 
ATOM     38  C   UNL A   1      38.766  33.036  29.746  1.00  0.00     0.049 A 
ATOM     39  N   UNL A   1      38.472  29.801  30.056  1.00  0.00    -0.248 NA
ATOM     40  C   UNL A   1      37.943  30.142  27.820  1.00  0.00     0.031 C 
ATOM     41  C   UNL A   1      38.647  34.496  29.715  1.00  0.00     0.029 A 
ATOM     42  N   UNL A   1      40.069  32.844  30.078  1.00  0.00    -0.354 N 
ATOM     43  C   UNL A   1      38.677  28.623  29.350  1.00  0.00     0.074 A 
ATOM     44  C   UNL A   1      38.172  28.845  28.020  1.00  0.00     0.031 C 
ATOM     45  C   UNL A   1      39.884  35.043  29.771  1.00  0.00     0.029 A 
ATOM     46  C   UNL A   1      40.858  33.981  29.970  1.00  0.00     0.049 A 
ATOM     47  H   UNL A   1      40.424  31.974  30.370  1.00  0.00     0.167 HD
ATOM     48  C   UNL A   1      39.482  27.642  29.839  1.00  0.00     0.031 A 
ATOM     49  C   UNL A   1      42.215  34.019  29.964  1.00  0.00     0.031 A 
ATOM     50  C   UNL A   1      39.718  27.799  31.250  1.00  0.00     0.049 A 
ATOM     51  C   UNL A   1      42.700  32.741  30.540  1.00  0.00     0.074 A 
ATOM     52  C   UNL A   1      38.905  27.843  32.366  1.00  0.00     0.029 A 
ATOM     53  N   UNL A   1      40.916  28.358  31.631  1.00  0.00    -0.354 N 
ATOM     54  N   UNL A   1      42.546  32.419  31.793  1.00  0.00    -0.248 NA
ATOM     55  C   UNL A   1      42.930  31.625  29.634  1.00  0.00     0.031 C 
ATOM     56  C   UNL A   1      39.476  28.855  33.193  1.00  0.00     0.029 A 
ATOM     57  C   UNL A   1      40.640  29.313  32.574  1.00  0.00     0.049 A 
ATOM     58  H   UNL A   1      41.806  28.116  31.288  1.00  0.00     0.167 HD
ATOM     59  C   UNL A   1      42.203  31.074  31.769  1.00  0.00     0.074 A 
ATOM     60  C   UNL A   1      42.554  30.616  30.425  1.00  0.00     0.031 C 
ATOM     61  C   UNL A   1      41.398  30.534  32.732  1.00  0.00     0.031 A 
BRANCH  48  62
ATOM     62  C   UNL A   1      40.390  26.825  28.958  1.00  0.00    -0.014 A 
ATOM     63  C   UNL A   1      39.943  25.568  28.518  1.00  0.00     0.009 A 
ATOM     64  C   UNL A   1      41.760  27.105  28.790  1.00  0.00     0.009 A 
ATOM     65  C   UNL A   1      40.837  24.614  28.017  1.00  0.00     0.001 A 
ATOM     66  C   UNL A   1      42.648  26.173  28.252  1.00  0.00     0.001 A 
ATOM     67  C   UNL A   1      42.191  24.914  27.895  1.00  0.00     0.000 A 
ENDBRANCH  48  62
BRANCH  49  68
ATOM     68  C   UNL A   1      43.112  34.942  29.231  1.00  0.00    -0.014 A 
ATOM     69  C   UNL A   1      43.333  34.788  27.852  1.00  0.00     0.009 A 
ATOM     70  C   UNL A   1      43.541  36.141  29.829  1.00  0.00     0.009 A 
ATOM     71  C   UNL A   1      43.924  35.811  27.097  1.00  0.00     0.001 A 
ATOM     72  C   UNL A   1      44.136  37.161  29.076  1.00  0.00     0.001 A 
ATOM     73  C   UNL A   1      44.313  37.001  27.707  1.00  0.00     0.000 A 
ENDBRANCH  49  68
BRANCH  61  74
ATOM     74  C   UNL A   1      41.061  31.381  33.936  1.00  0.00    -0.014 A 
ATOM     75  C   UNL A   1      41.824  31.377  35.119  1.00  0.00     0.009 A 
ATOM     76  C   UNL A   1      40.038  32.332  33.812  1.00  0.00     0.009 A 
ATOM     77  C   UNL A   1      41.550  32.277  36.154  1.00  0.00     0.001 A 
ATOM     78  C   UNL A   1      39.778  33.245  34.836  1.00  0.00     0.001 A 
ATOM     79  C   UNL A   1      40.529  33.213  36.008  1.00  0.00     0.000 A 
ENDBRANCH  61  74
ENDBRANCH  35  36
ENDBRANCH  28  30
ENDBRANCH  27  28
ENDBRANCH  26  27
ENDBRANCH   1  26
TORSDOF 14
ENDMDL
MODEL 3
REMARK VINA RESULT:     -11.6      2.840      8.057
REMARK SMILES CC(C)Oc1ccc([C@@H]2CC(=O)Nc3c(C(=O)OCCOC(=O)c4ccc(-c5c6nc(c(-c7ccccc7)c7ccc([nH]7)c(-c7ccccc7)c7nc(c(-c8ccccc8)c8ccc5[nH]8)C=C7)C=C6)cc4)nsc32)cc1
REMARK SMILES IDX 19 1 18 2 16 3 17 4 15 5 9 6 10 7 74 8 11 9 14 10 73 11
REMARK SMILES IDX 12 12 13 13 72 14 8 16 5 17 6 18 76 19 7 20 75 21 4 22 2 23
REMARK SMILES IDX 1 24 3 25 20 26 21 27 22 28 23 29 24 30 25 31 71 32 26 33
REMARK SMILES IDX 70 34 27 35 28 36 29 37 64 38 30 39 69 40 63 41 65 42 31 43
REMARK SMILES IDX 68 44 62 45 61 46 32 48 54 49 39 50 53 51 40 52 43 53 52 54
REMARK SMILES IDX 66 55 41 56 42 57 51 59 67 60 44 61 33 62 34 63 38 64 35 65
REMARK SMILES IDX 37 66 36 67 55 68 56 69 60 70 57 71 59 72 58 73 45 74 46 75
REMARK SMILES IDX 50 76 47 77 49 78 48 79
REMARK H PARENT 13 15 65 47 43 58
REMARK Flexibility Score: inf
ROOT
ATOM      1  C   UNL A   1      33.464  29.605  26.410  1.00  0.00     0.275 C 
ENDROOT
BRANCH   1   2
ATOM      2  O   UNL A   1      32.175  29.080  26.056  1.00  0.00    -0.457 OA
BRANCH   2   3
ATOM      3  C   UNL A   1      31.727  28.020  26.803  1.00  0.00     0.360 C 
ATOM      4  O   UNL A   1      31.502  28.086  28.010  1.00  0.00    -0.244 OA
BRANCH   3   5
ATOM      5  C   UNL A   1      31.507  26.823  25.981  1.00  0.00     0.185 A 
ATOM      6  C   UNL A   1      32.424  24.632  23.075  1.00  0.00     0.073 C 
ATOM      7  C   UNL A   1      33.626  25.464  22.576  1.00  0.00     0.114 C 
ATOM      8  C   UNL A   1      31.816  25.296  24.270  1.00  0.00     0.058 A 
ATOM      9  C   UNL A   1      33.490  26.967  22.760  1.00  0.00     0.225 C 
ATOM     10  C   UNL A   1      32.095  26.568  24.692  1.00  0.00     0.091 A 
ATOM     11  S   UNL A   1      30.665  24.614  25.318  1.00  0.00    -0.038 S 
ATOM     12  O   UNL A   1      34.039  27.766  22.005  1.00  0.00    -0.275 OA
ATOM     13  N   UNL A   1      32.867  27.398  23.901  1.00  0.00    -0.323 N 
ATOM     14  N   UNL A   1      30.705  25.844  26.426  1.00  0.00    -0.183 NA
ATOM     15  H   UNL A   1      32.972  28.340  24.169  1.00  0.00     0.170 HD
BRANCH   6  16
ATOM     16  C   UNL A   1      32.876  23.218  23.418  1.00  0.00    -0.039 A 
ATOM     17  C   UNL A   1      33.590  20.656  24.318  1.00  0.00     0.119 A 
ATOM     18  C   UNL A   1      32.493  20.824  23.472  1.00  0.00     0.047 A 
ATOM     19  C   UNL A   1      34.382  21.749  24.646  1.00  0.00     0.047 A 
ATOM     20  C   UNL A   1      32.130  22.100  23.026  1.00  0.00     0.008 A 
ATOM     21  C   UNL A   1      34.019  23.020  24.214  1.00  0.00     0.008 A 
BRANCH  17  22
ATOM     22  O   UNL A   1      33.897  19.389  24.718  1.00  0.00    -0.491 OA
BRANCH  22  23
ATOM     23  C   UNL A   1      33.011  18.328  24.307  1.00  0.00     0.167 C 
ATOM     24  C   UNL A   1      33.525  17.517  23.118  1.00  0.00     0.052 C 
ATOM     25  C   UNL A   1      32.533  17.435  25.451  1.00  0.00     0.052 C 
ENDBRANCH  22  23
ENDBRANCH  17  22
ENDBRANCH   6  16
ENDBRANCH   3   5
ENDBRANCH   2   3
ENDBRANCH   1   2
BRANCH   1  26
ATOM     26  C   UNL A   1      33.301  30.808  27.324  1.00  0.00     0.275 C 
BRANCH  26  27
ATOM     27  O   UNL A   1      34.527  31.528  27.424  1.00  0.00    -0.458 OA
BRANCH  27  28
ATOM     28  C   UNL A   1      35.161  31.465  28.617  1.00  0.00     0.338 C 
ATOM     29  O   UNL A   1      34.792  31.957  29.670  1.00  0.00    -0.246 OA
BRANCH  28  30
ATOM     30  C   UNL A   1      36.507  30.929  28.385  1.00  0.00     0.060 A 
ATOM     31  C   UNL A   1      36.618  29.607  27.943  1.00  0.00     0.016 A 
ATOM     32  C   UNL A   1      37.608  31.633  28.893  1.00  0.00     0.016 A 
ATOM     33  C   UNL A   1      37.799  28.934  28.182  1.00  0.00     0.010 A 
ATOM     34  C   UNL A   1      38.771  30.955  29.159  1.00  0.00     0.010 A 
ATOM     35  C   UNL A   1      38.826  29.596  28.866  1.00  0.00    -0.014 A 
BRANCH  35  36
ATOM     36  C   UNL A   1      40.042  28.879  29.168  1.00  0.00     0.031 A 
ATOM     37  C   UNL A   1      40.309  28.780  30.620  1.00  0.00     0.074 A 
ATOM     38  C   UNL A   1      40.754  28.231  28.228  1.00  0.00     0.049 A 
ATOM     39  N   UNL A   1      41.305  29.282  31.266  1.00  0.00    -0.248 NA
ATOM     40  C   UNL A   1      39.268  28.186  31.476  1.00  0.00     0.031 C 
ATOM     41  C   UNL A   1      40.417  28.014  26.818  1.00  0.00     0.029 A 
ATOM     42  N   UNL A   1      41.893  27.508  28.383  1.00  0.00    -0.354 N 
ATOM     43  C   UNL A   1      41.116  28.911  32.592  1.00  0.00     0.074 A 
ATOM     44  C   UNL A   1      39.774  28.397  32.689  1.00  0.00     0.031 C 
ATOM     45  C   UNL A   1      41.192  27.020  26.325  1.00  0.00     0.029 A 
ATOM     46  C   UNL A   1      42.156  26.628  27.342  1.00  0.00     0.049 A 
ATOM     47  H   UNL A   1      42.482  27.600  29.166  1.00  0.00     0.167 HD
ATOM     48  C   UNL A   1      42.165  28.814  33.451  1.00  0.00     0.031 A 
ATOM     49  C   UNL A   1      43.048  25.605  27.362  1.00  0.00     0.031 A 
ATOM     50  C   UNL A   1      43.326  29.506  32.955  1.00  0.00     0.049 A 
ATOM     51  C   UNL A   1      43.996  25.861  28.473  1.00  0.00     0.074 A 
ATOM     52  C   UNL A   1      43.592  30.814  32.600  1.00  0.00     0.029 A 
ATOM     53  N   UNL A   1      44.311  28.746  32.368  1.00  0.00    -0.354 N 
ATOM     54  N   UNL A   1      44.859  26.837  28.465  1.00  0.00    -0.248 NA
ATOM     55  C   UNL A   1      43.669  25.331  29.789  1.00  0.00     0.031 C 
ATOM     56  C   UNL A   1      44.412  30.717  31.437  1.00  0.00     0.029 A 
ATOM     57  C   UNL A   1      44.662  29.365  31.197  1.00  0.00     0.049 A 
ATOM     58  H   UNL A   1      44.692  27.910  32.723  1.00  0.00     0.167 HD
ATOM     59  C   UNL A   1      44.830  27.341  29.758  1.00  0.00     0.074 A 
ATOM     60  C   UNL A   1      44.157  26.314  30.552  1.00  0.00     0.031 C 
ATOM     61  C   UNL A   1      45.084  28.660  30.006  1.00  0.00     0.031 A 
BRANCH  48  62
ATOM     62  C   UNL A   1      42.258  27.736  34.499  1.00  0.00    -0.014 A 
ATOM     63  C   UNL A   1      42.632  26.443  34.099  1.00  0.00     0.009 A 
ATOM     64  C   UNL A   1      41.713  27.868  35.791  1.00  0.00     0.009 A 
ATOM     65  C   UNL A   1      42.394  25.333  34.917  1.00  0.00     0.001 A 
ATOM     66  C   UNL A   1      41.512  26.769  36.628  1.00  0.00     0.001 A 
ATOM     67  C   UNL A   1      41.824  25.496  36.176  1.00  0.00     0.000 A 
ENDBRANCH  48  62
BRANCH  49  68
ATOM     68  C   UNL A   1      42.962  24.288  26.689  1.00  0.00    -0.014 A 
ATOM     69  C   UNL A   1      44.113  23.659  26.187  1.00  0.00     0.009 A 
ATOM     70  C   UNL A   1      41.787  23.519  26.779  1.00  0.00     0.009 A 
ATOM     71  C   UNL A   1      44.097  22.304  25.828  1.00  0.00     0.001 A 
ATOM     72  C   UNL A   1      41.769  22.167  26.416  1.00  0.00     0.001 A 
ATOM     73  C   UNL A   1      42.929  21.556  25.955  1.00  0.00     0.000 A 
ENDBRANCH  49  68
BRANCH  61  74
ATOM     74  C   UNL A   1      45.602  29.512  28.872  1.00  0.00    -0.014 A 
ATOM     75  C   UNL A   1      46.966  29.606  28.540  1.00  0.00     0.009 A 
ATOM     76  C   UNL A   1      44.669  30.108  28.012  1.00  0.00     0.009 A 
ATOM     77  C   UNL A   1      47.382  30.301  27.399  1.00  0.00     0.001 A 
ATOM     78  C   UNL A   1      45.081  30.782  26.861  1.00  0.00     0.001 A 
ATOM     79  C   UNL A   1      46.437  30.884  26.558  1.00  0.00     0.000 A 
ENDBRANCH  61  74
ENDBRANCH  35  36
ENDBRANCH  28  30
ENDBRANCH  27  28
ENDBRANCH  26  27
ENDBRANCH   1  26
TORSDOF 14
ENDMDL
