MODEL 1
REMARK VINA RESULT:     -11.5      0.000      0.000
REMARK SMILES Cc1nc[nH]c1C(=O)[NH+]1CCC2(CC1)C[C@@H](C(=O)OCCOC(=O)c1ccc(-c3c4nc(c(-c5ccccc5)c5ccc([nH]5)c(-c5ccccc5)c5nc(c(-c6ccccc6)c6ccc3[nH]6)C=C5)C=C4)cc1)N(C(=O)C1CC1)C2
REMARK SMILES IDX 20 1 19 2 17 3 18 4 16 5 9 6 10 7 14 8 11 10 13 11 12 12
REMARK SMILES IDX 15 13 79 14 73 15 7 16 8 17 6 18 1 19 2 20 3 21 4 22 5 23
REMARK SMILES IDX 74 25 75 26 76 27 77 28 78 29 21 30 22 31 23 32 24 33 25 34
REMARK SMILES IDX 26 35 72 36 27 37 71 38 28 39 29 40 30 41 65 42 31 43 70 44
REMARK SMILES IDX 64 45 66 46 32 47 69 48 63 49 62 50 33 52 55 53 40 54 54 55
REMARK SMILES IDX 41 56 44 57 53 58 67 59 42 60 43 61 52 63 68 64 45 65 34 66
REMARK SMILES IDX 35 67 39 68 36 69 38 70 37 71 56 72 57 73 61 74 58 75 60 76
REMARK SMILES IDX 59 77 46 78 47 79 51 80 48 81 50 82 49 83
REMARK H PARENT 9 9 5 24 66 51 44 62
REMARK Flexibility Score: inf
ROOT
ATOM      1  C   UNL A   1      38.155  21.367  25.559  1.00  0.00     0.274 C 
ENDROOT
BRANCH   1   2
ATOM      2  O   UNL A   1      36.982  21.411  24.722  1.00  0.00    -0.461 OA
BRANCH   2   3
ATOM      3  C   UNL A   1      35.787  21.338  25.372  1.00  0.00     0.328 C 
ATOM      4  O   UNL A   1      35.645  21.462  26.585  1.00  0.00    -0.250 OA
BRANCH   3   5
ATOM      5  C   UNL A   1      34.606  21.027  24.438  1.00  0.00     0.195 C 
ATOM      6  N   UNL A   1      31.140  24.977  25.167  1.00  0.00    -0.266 N 
ATOM      7  C   UNL A   1      30.602  23.820  24.483  1.00  0.00     0.271 C 
ATOM      8  C   UNL A   1      32.135  24.695  26.192  1.00  0.00     0.271 C 
ATOM      9  H   UNL A   1      30.656  24.303  24.637  1.00  0.00     0.357 HD
ATOM     10  C   UNL A   1      31.743  23.161  23.733  1.00  0.00     0.071 C 
ATOM     11  C   UNL A   1      33.292  23.843  25.661  1.00  0.00     0.071 C 
ATOM     12  C   UNL A   1      32.876  22.716  24.683  1.00  0.00     0.001 C 
ATOM     13  C   UNL A   1      34.079  22.297  23.808  1.00  0.00     0.046 C 
ATOM     14  C   UNL A   1      32.470  21.426  25.436  1.00  0.00     0.128 C 
ATOM     15  N   UNL A   1      33.430  20.418  25.041  1.00  0.00    -0.328 N 
BRANCH   6  16
ATOM     16  C   UNL A   1      30.448  26.172  25.053  1.00  0.00     0.362 C 
ATOM     17  O   UNL A   1      29.222  26.175  24.938  1.00  0.00    -0.224 OA
BRANCH  16  18
ATOM     18  C   UNL A   1      31.185  27.410  24.973  1.00  0.00     0.167 A 
ATOM     19  C   UNL A   1      31.611  28.381  27.362  1.00  0.00     0.069 C 
ATOM     20  C   UNL A   1      31.687  28.328  25.887  1.00  0.00     0.072 A 
ATOM     21  N   UNL A   1      32.441  29.289  25.247  1.00  0.00    -0.241 NA
ATOM     22  C   UNL A   1      32.466  28.940  23.985  1.00  0.00     0.197 A 
ATOM     23  N   UNL A   1      31.722  27.824  23.771  1.00  0.00    -0.337 N 
ATOM     24  H   UNL A   1      31.587  27.384  22.901  1.00  0.00     0.168 HD
ENDBRANCH  16  18
ENDBRANCH   6  16
BRANCH  15  25
ATOM     25  C   UNL A   1      33.324  19.039  25.064  1.00  0.00     0.226 C 
ATOM     26  O   UNL A   1      32.450  18.496  25.736  1.00  0.00    -0.275 OA
BRANCH  25  27
ATOM     27  C   UNL A   1      34.242  18.137  24.316  1.00  0.00     0.079 C 
ATOM     28  C   UNL A   1      34.392  16.643  24.351  1.00  0.00     0.014 C 
ATOM     29  C   UNL A   1      33.699  17.290  23.185  1.00  0.00     0.014 C 
ENDBRANCH  25  27
ENDBRANCH  15  25
ENDBRANCH   3   5
ENDBRANCH   2   3
ENDBRANCH   1   2
BRANCH   1  30
ATOM     30  C   UNL A   1      38.959  20.094  25.303  1.00  0.00     0.275 C 
BRANCH  30  31
ATOM     31  O   UNL A   1      39.875  19.861  26.387  1.00  0.00    -0.458 OA
BRANCH  31  32
ATOM     32  C   UNL A   1      41.187  19.897  26.050  1.00  0.00     0.338 C 
ATOM     33  O   UNL A   1      41.813  19.072  25.411  1.00  0.00    -0.246 OA
BRANCH  32  34
ATOM     34  C   UNL A   1      41.772  21.138  26.580  1.00  0.00     0.060 A 
ATOM     35  C   UNL A   1      41.869  21.306  27.960  1.00  0.00     0.016 A 
ATOM     36  C   UNL A   1      42.135  22.169  25.718  1.00  0.00     0.016 A 
ATOM     37  C   UNL A   1      42.276  22.521  28.497  1.00  0.00     0.010 A 
ATOM     38  C   UNL A   1      42.592  23.376  26.254  1.00  0.00     0.010 A 
ATOM     39  C   UNL A   1      42.642  23.568  27.648  1.00  0.00    -0.014 A 
BRANCH  39  40
ATOM     40  C   UNL A   1      43.010  24.885  28.217  1.00  0.00     0.031 A 
ATOM     41  C   UNL A   1      41.938  25.901  28.485  1.00  0.00     0.074 A 
ATOM     42  C   UNL A   1      44.293  25.160  28.513  1.00  0.00     0.049 A 
ATOM     43  N   UNL A   1      42.061  27.158  28.830  1.00  0.00    -0.248 NA
ATOM     44  C   UNL A   1      40.546  25.446  28.341  1.00  0.00     0.031 C 
ATOM     45  C   UNL A   1      45.416  24.232  28.370  1.00  0.00     0.029 A 
ATOM     46  N   UNL A   1      44.867  26.308  28.997  1.00  0.00    -0.354 N 
ATOM     47  C   UNL A   1      40.765  27.655  28.896  1.00  0.00     0.074 A 
ATOM     48  C   UNL A   1      39.873  26.567  28.558  1.00  0.00     0.031 C 
ATOM     49  C   UNL A   1      46.543  24.844  28.765  1.00  0.00     0.029 A 
ATOM     50  C   UNL A   1      46.232  26.223  29.127  1.00  0.00     0.049 A 
ATOM     51  H   UNL A   1      44.352  27.113  29.229  1.00  0.00     0.167 HD
ATOM     52  C   UNL A   1      40.359  28.909  29.205  1.00  0.00     0.031 A 
ATOM     53  C   UNL A   1      47.135  27.164  29.460  1.00  0.00     0.031 A 
ATOM     54  C   UNL A   1      41.249  29.980  29.567  1.00  0.00     0.049 A 
ATOM     55  C   UNL A   1      46.666  28.560  29.749  1.00  0.00     0.074 A 
ATOM     56  C   UNL A   1      40.937  31.287  29.899  1.00  0.00     0.029 A 
ATOM     57  N   UNL A   1      42.627  29.862  29.656  1.00  0.00    -0.354 N 
ATOM     58  N   UNL A   1      45.444  29.034  29.761  1.00  0.00    -0.248 NA
ATOM     59  C   UNL A   1      47.703  29.555  30.060  1.00  0.00     0.031 C 
ATOM     60  C   UNL A   1      42.132  31.970  30.153  1.00  0.00     0.029 A 
ATOM     61  C   UNL A   1      43.183  31.076  30.022  1.00  0.00     0.049 A 
ATOM     62  H   UNL A   1      43.136  29.036  29.483  1.00  0.00     0.167 HD
ATOM     63  C   UNL A   1      45.561  30.377  30.089  1.00  0.00     0.074 A 
ATOM     64  C   UNL A   1      46.973  30.639  30.287  1.00  0.00     0.031 C 
ATOM     65  C   UNL A   1      44.589  31.313  30.210  1.00  0.00     0.031 A 
BRANCH  52  66
ATOM     66  C   UNL A   1      38.889  29.200  29.114  1.00  0.00    -0.014 A 
ATOM     67  C   UNL A   1      38.048  29.081  30.230  1.00  0.00     0.009 A 
ATOM     68  C   UNL A   1      38.346  29.623  27.892  1.00  0.00     0.009 A 
ATOM     69  C   UNL A   1      36.682  29.352  30.114  1.00  0.00     0.001 A 
ATOM     70  C   UNL A   1      36.985  29.916  27.784  1.00  0.00     0.001 A 
ATOM     71  C   UNL A   1      36.154  29.773  28.893  1.00  0.00     0.000 A 
ENDBRANCH  52  66
BRANCH  53  72
ATOM     72  C   UNL A   1      48.580  26.824  29.488  1.00  0.00    -0.014 A 
ATOM     73  C   UNL A   1      49.179  26.338  30.659  1.00  0.00     0.009 A 
ATOM     74  C   UNL A   1      49.368  26.979  28.335  1.00  0.00     0.009 A 
ATOM     75  C   UNL A   1      50.540  26.027  30.680  1.00  0.00     0.001 A 
ATOM     76  C   UNL A   1      50.723  26.643  28.351  1.00  0.00     0.001 A 
ATOM     77  C   UNL A   1      51.310  26.174  29.526  1.00  0.00     0.000 A 
ENDBRANCH  53  72
BRANCH  65  78
ATOM     78  C   UNL A   1      45.021  32.695  30.600  1.00  0.00    -0.014 A 
ATOM     79  C   UNL A   1      45.397  33.637  29.630  1.00  0.00     0.009 A 
ATOM     80  C   UNL A   1      45.015  33.071  31.952  1.00  0.00     0.009 A 
ATOM     81  C   UNL A   1      45.786  34.922  30.010  1.00  0.00     0.001 A 
ATOM     82  C   UNL A   1      45.383  34.364  32.327  1.00  0.00     0.001 A 
ATOM     83  C   UNL A   1      45.775  35.285  31.357  1.00  0.00     0.000 A 
ENDBRANCH  65  78
ENDBRANCH  39  40
ENDBRANCH  32  34
ENDBRANCH  31  32
ENDBRANCH  30  31
ENDBRANCH   1  30
TORSDOF 15
ENDMDL
MODEL 2
REMARK VINA RESULT:     -11.5      1.699      7.872
REMARK SMILES Cc1nc[nH]c1C(=O)[NH+]1CCC2(CC1)C[C@@H](C(=O)OCCOC(=O)c1ccc(-c3c4nc(c(-c5ccccc5)c5ccc([nH]5)c(-c5ccccc5)c5nc(c(-c6ccccc6)c6ccc3[nH]6)C=C5)C=C4)cc1)N(C(=O)C1CC1)C2
REMARK SMILES IDX 20 1 19 2 17 3 18 4 16 5 9 6 10 7 14 8 11 10 13 11 12 12
REMARK SMILES IDX 15 13 79 14 73 15 7 16 8 17 6 18 1 19 2 20 3 21 4 22 5 23
REMARK SMILES IDX 74 25 75 26 76 27 77 28 78 29 21 30 22 31 23 32 24 33 25 34
REMARK SMILES IDX 26 35 72 36 27 37 71 38 28 39 29 40 30 41 65 42 31 43 70 44
REMARK SMILES IDX 64 45 66 46 32 47 69 48 63 49 62 50 33 52 55 53 40 54 54 55
REMARK SMILES IDX 41 56 44 57 53 58 67 59 42 60 43 61 52 63 68 64 45 65 34 66
REMARK SMILES IDX 35 67 39 68 36 69 38 70 37 71 56 72 57 73 61 74 58 75 60 76
REMARK SMILES IDX 59 77 46 78 47 79 51 80 48 81 50 82 49 83
REMARK H PARENT 9 9 5 24 66 51 44 62
REMARK Flexibility Score: inf
ROOT
ATOM      1  C   UNL A   1      31.876  27.638  27.078  1.00  0.00     0.274 C 
ENDROOT
BRANCH   1   2
ATOM      2  O   UNL A   1      30.902  27.471  26.028  1.00  0.00    -0.461 OA
BRANCH   2   3
ATOM      3  C   UNL A   1      30.496  26.192  25.794  1.00  0.00     0.328 C 
ATOM      4  O   UNL A   1      29.982  25.460  26.635  1.00  0.00    -0.250 OA
BRANCH   3   5
ATOM      5  C   UNL A   1      30.791  25.714  24.363  1.00  0.00     0.195 C 
ATOM      6  N   UNL A   1      34.804  22.273  24.813  1.00  0.00    -0.266 N 
ATOM      7  C   UNL A   1      34.556  22.739  23.465  1.00  0.00     0.271 C 
ATOM      8  C   UNL A   1      34.573  23.250  25.867  1.00  0.00     0.271 C 
ATOM      9  H   UNL A   1      34.715  22.441  23.847  1.00  0.00     0.357 HD
ATOM     10  C   UNL A   1      33.080  23.068  23.360  1.00  0.00     0.071 C 
ATOM     11  C   UNL A   1      33.170  23.860  25.798  1.00  0.00     0.071 C 
ATOM     12  C   UNL A   1      32.660  24.160  24.366  1.00  0.00     0.001 C 
ATOM     13  C   UNL A   1      31.117  24.237  24.354  1.00  0.00     0.046 C 
ATOM     14  C   UNL A   1      33.126  25.552  23.873  1.00  0.00     0.128 C 
ATOM     15  N   UNL A   1      31.920  26.329  23.681  1.00  0.00    -0.328 N 
BRANCH   6  16
ATOM     16  C   UNL A   1      35.545  21.113  24.967  1.00  0.00     0.362 C 
ATOM     17  O   UNL A   1      36.772  21.163  25.060  1.00  0.00    -0.224 OA
BRANCH  16  18
ATOM     18  C   UNL A   1      34.876  19.836  24.921  1.00  0.00     0.167 A 
ATOM     19  C   UNL A   1      32.282  20.158  24.927  1.00  0.00     0.069 C 
ATOM     20  C   UNL A   1      33.554  19.407  24.890  1.00  0.00     0.072 A 
ATOM     21  N   UNL A   1      33.490  18.041  24.715  1.00  0.00    -0.241 NA
ATOM     22  C   UNL A   1      34.729  17.641  24.571  1.00  0.00     0.197 A 
ATOM     23  N   UNL A   1      35.596  18.680  24.693  1.00  0.00    -0.337 N 
ATOM     24  H   UNL A   1      36.576  18.619  24.631  1.00  0.00     0.168 HD
ENDBRANCH  16  18
ENDBRANCH   6  16
BRANCH  15  25
ATOM     25  C   UNL A   1      31.703  27.443  22.892  1.00  0.00     0.226 C 
ATOM     26  O   UNL A   1      30.735  27.487  22.135  1.00  0.00    -0.275 OA
BRANCH  25  27
ATOM     27  C   UNL A   1      32.605  28.627  22.884  1.00  0.00     0.079 C 
ATOM     28  C   UNL A   1      33.870  28.900  23.646  1.00  0.00     0.014 C 
ATOM     29  C   UNL A   1      33.947  28.539  22.189  1.00  0.00     0.014 C 
ENDBRANCH  25  27
ENDBRANCH  15  25
ENDBRANCH   3   5
ENDBRANCH   2   3
ENDBRANCH   1   2
BRANCH   1  30
ATOM     30  C   UNL A   1      32.456  29.051  27.063  1.00  0.00     0.275 C 
BRANCH  30  31
ATOM     31  O   UNL A   1      33.873  29.007  27.305  1.00  0.00    -0.458 OA
BRANCH  31  32
ATOM     32  C   UNL A   1      34.418  30.166  27.746  1.00  0.00     0.338 C 
ATOM     33  O   UNL A   1      33.890  31.261  27.804  1.00  0.00    -0.246 OA
BRANCH  32  34
ATOM     34  C   UNL A   1      35.799  29.900  28.176  1.00  0.00     0.060 A 
ATOM     35  C   UNL A   1      36.834  30.037  27.253  1.00  0.00     0.016 A 
ATOM     36  C   UNL A   1      36.057  29.425  29.458  1.00  0.00     0.016 A 
ATOM     37  C   UNL A   1      38.128  29.651  27.580  1.00  0.00     0.010 A 
ATOM     38  C   UNL A   1      37.367  29.082  29.807  1.00  0.00     0.010 A 
ATOM     39  C   UNL A   1      38.406  29.170  28.861  1.00  0.00    -0.014 A 
BRANCH  39  40
ATOM     40  C   UNL A   1      39.769  28.693  29.190  1.00  0.00     0.031 A 
ATOM     41  C   UNL A   1      40.701  29.586  29.958  1.00  0.00     0.074 A 
ATOM     42  C   UNL A   1      40.163  27.460  28.822  1.00  0.00     0.049 A 
ATOM     43  N   UNL A   1      41.976  29.426  30.210  1.00  0.00    -0.248 NA
ATOM     44  C   UNL A   1      40.125  30.822  30.510  1.00  0.00     0.031 C 
ATOM     45  C   UNL A   1      39.328  26.470  28.139  1.00  0.00     0.029 A 
ATOM     46  N   UNL A   1      41.372  26.831  28.974  1.00  0.00    -0.354 N 
ATOM     47  C   UNL A   1      42.364  30.564  30.907  1.00  0.00     0.074 A 
ATOM     48  C   UNL A   1      41.192  31.403  31.039  1.00  0.00     0.031 C 
ATOM     49  C   UNL A   1      40.048  25.356  27.937  1.00  0.00     0.029 A 
ATOM     50  C   UNL A   1      41.408  25.576  28.417  1.00  0.00     0.049 A 
ATOM     51  H   UNL A   1      42.140  27.239  29.436  1.00  0.00     0.167 HD
ATOM     52  C   UNL A   1      43.589  30.880  31.386  1.00  0.00     0.031 A 
ATOM     53  C   UNL A   1      42.434  24.715  28.274  1.00  0.00     0.031 A 
ATOM     54  C   UNL A   1      44.744  30.030  31.276  1.00  0.00     0.049 A 
ATOM     55  C   UNL A   1      43.795  25.110  28.769  1.00  0.00     0.074 A 
ATOM     56  C   UNL A   1      46.032  30.258  31.730  1.00  0.00     0.029 A 
ATOM     57  N   UNL A   1      44.746  28.780  30.677  1.00  0.00    -0.354 N 
ATOM     58  N   UNL A   1      44.164  26.208  29.382  1.00  0.00    -0.248 NA
ATOM     59  C   UNL A   1      44.885  24.150  28.541  1.00  0.00     0.031 C 
ATOM     60  C   UNL A   1      46.822  29.160  31.373  1.00  0.00     0.029 A 
ATOM     61  C   UNL A   1      46.016  28.230  30.735  1.00  0.00     0.049 A 
ATOM     62  H   UNL A   1      43.961  28.347  30.270  1.00  0.00     0.167 HD
ATOM     63  C   UNL A   1      45.523  26.069  29.622  1.00  0.00     0.074 A 
ATOM     64  C   UNL A   1      45.911  24.771  29.106  1.00  0.00     0.031 C 
ATOM     65  C   UNL A   1      46.377  26.940  30.213  1.00  0.00     0.031 A 
BRANCH  52  66
ATOM     66  C   UNL A   1      43.751  32.227  32.029  1.00  0.00    -0.014 A 
ATOM     67  C   UNL A   1      44.034  33.372  31.271  1.00  0.00     0.009 A 
ATOM     68  C   UNL A   1      43.596  32.350  33.418  1.00  0.00     0.009 A 
ATOM     69  C   UNL A   1      44.187  34.612  31.897  1.00  0.00     0.001 A 
ATOM     70  C   UNL A   1      43.726  33.593  34.039  1.00  0.00     0.001 A 
ATOM     71  C   UNL A   1      44.028  34.721  33.279  1.00  0.00     0.000 A 
ENDBRANCH  52  66
BRANCH  53  72
ATOM     72  C   UNL A   1      42.219  23.417  27.588  1.00  0.00    -0.014 A 
ATOM     73  C   UNL A   1      42.501  23.275  26.221  1.00  0.00     0.009 A 
ATOM     74  C   UNL A   1      41.735  22.308  28.301  1.00  0.00     0.009 A 
ATOM     75  C   UNL A   1      42.289  22.053  25.580  1.00  0.00     0.001 A 
ATOM     76  C   UNL A   1      41.548  21.081  27.663  1.00  0.00     0.001 A 
ATOM     77  C   UNL A   1      41.819  20.956  26.301  1.00  0.00     0.000 A 
ENDBRANCH  53  72
BRANCH  65  78
ATOM     78  C   UNL A   1      47.805  26.501  30.354  1.00  0.00    -0.014 A 
ATOM     79  C   UNL A   1      48.740  26.743  29.336  1.00  0.00     0.009 A 
ATOM     80  C   UNL A   1      48.227  25.873  31.536  1.00  0.00     0.009 A 
ATOM     81  C   UNL A   1      50.067  26.338  29.489  1.00  0.00     0.001 A 
ATOM     82  C   UNL A   1      49.559  25.489  31.694  1.00  0.00     0.001 A 
ATOM     83  C   UNL A   1      50.475  25.715  30.668  1.00  0.00     0.000 A 
ENDBRANCH  65  78
ENDBRANCH  39  40
ENDBRANCH  32  34
ENDBRANCH  31  32
ENDBRANCH  30  31
ENDBRANCH   1  30
TORSDOF 15
ENDMDL
MODEL 3
REMARK VINA RESULT:     -11.5      1.017      5.867
REMARK SMILES Cc1nc[nH]c1C(=O)[NH+]1CCC2(CC1)C[C@@H](C(=O)OCCOC(=O)c1ccc(-c3c4nc(c(-c5ccccc5)c5ccc([nH]5)c(-c5ccccc5)c5nc(c(-c6ccccc6)c6ccc3[nH]6)C=C5)C=C4)cc1)N(C(=O)C1CC1)C2
REMARK SMILES IDX 20 1 19 2 17 3 18 4 16 5 9 6 10 7 14 8 11 10 13 11 12 12
REMARK SMILES IDX 15 13 79 14 73 15 7 16 8 17 6 18 1 19 2 20 3 21 4 22 5 23
REMARK SMILES IDX 74 25 75 26 76 27 77 28 78 29 21 30 22 31 23 32 24 33 25 34
REMARK SMILES IDX 26 35 72 36 27 37 71 38 28 39 29 40 30 41 65 42 31 43 70 44
REMARK SMILES IDX 64 45 66 46 32 47 69 48 63 49 62 50 33 52 55 53 40 54 54 55
REMARK SMILES IDX 41 56 44 57 53 58 67 59 42 60 43 61 52 63 68 64 45 65 34 66
REMARK SMILES IDX 35 67 39 68 36 69 38 70 37 71 56 72 57 73 61 74 58 75 60 76
REMARK SMILES IDX 59 77 46 78 47 79 51 80 48 81 50 82 49 83
REMARK H PARENT 9 9 5 24 66 51 44 62
REMARK Flexibility Score: inf
ROOT
ATOM      1  C   UNL A   1      37.563  20.469  25.196  1.00  0.00     0.274 C 
ENDROOT
BRANCH   1   2
ATOM      2  O   UNL A   1      36.733  21.621  25.451  1.00  0.00    -0.461 OA
BRANCH   2   3
ATOM      3  C   UNL A   1      35.447  21.357  25.812  1.00  0.00     0.328 C 
ATOM      4  O   UNL A   1      35.028  21.383  26.966  1.00  0.00    -0.250 OA
BRANCH   3   5
ATOM      5  C   UNL A   1      34.552  20.963  24.626  1.00  0.00     0.195 C 
ATOM      6  N   UNL A   1      30.969  24.853  24.197  1.00  0.00    -0.266 N 
ATOM      7  C   UNL A   1      30.640  23.646  23.469  1.00  0.00     0.271 C 
ATOM      8  C   UNL A   1      31.668  24.655  25.460  1.00  0.00     0.271 C 
ATOM      9  H   UNL A   1      30.646  24.138  23.603  1.00  0.00     0.357 HD
ATOM     10  C   UNL A   1      31.944  22.977  23.080  1.00  0.00     0.071 C 
ATOM     11  C   UNL A   1      32.933  23.807  25.297  1.00  0.00     0.071 C 
ATOM     12  C   UNL A   1      32.798  22.616  24.314  1.00  0.00     0.001 C 
ATOM     13  C   UNL A   1      34.191  22.182  23.806  1.00  0.00     0.046 C 
ATOM     14  C   UNL A   1      32.225  21.359  25.014  1.00  0.00     0.128 C 
ATOM     15  N   UNL A   1      33.267  20.357  24.941  1.00  0.00    -0.328 N 
BRANCH   6  16
ATOM     16  C   UNL A   1      30.316  26.020  23.838  1.00  0.00     0.362 C 
ATOM     17  O   UNL A   1      29.087  26.052  23.767  1.00  0.00    -0.224 OA
BRANCH  16  18
ATOM     18  C   UNL A   1      31.092  27.174  23.452  1.00  0.00     0.167 A 
ATOM     19  C   UNL A   1      33.239  26.444  22.152  1.00  0.00     0.069 C 
ATOM     20  C   UNL A   1      32.276  27.388  22.756  1.00  0.00     0.072 A 
ATOM     21  N   UNL A   1      32.490  28.737  22.564  1.00  0.00    -0.241 NA
ATOM     22  C   UNL A   1      31.439  29.339  23.061  1.00  0.00     0.197 A 
ATOM     23  N   UNL A   1      30.576  28.445  23.610  1.00  0.00    -0.337 N 
ATOM     24  H   UNL A   1      29.724  28.666  24.051  1.00  0.00     0.168 HD
ENDBRANCH  16  18
ENDBRANCH   6  16
BRANCH  15  25
ATOM     25  C   UNL A   1      33.175  18.979  25.019  1.00  0.00     0.226 C 
ATOM     26  O   UNL A   1      32.391  18.454  25.807  1.00  0.00    -0.275 OA
BRANCH  25  27
ATOM     27  C   UNL A   1      34.004  18.058  24.194  1.00  0.00     0.079 C 
ATOM     28  C   UNL A   1      33.916  16.572  23.997  1.00  0.00     0.014 C 
ATOM     29  C   UNL A   1      33.438  17.491  22.910  1.00  0.00     0.014 C 
ENDBRANCH  25  27
ENDBRANCH  15  25
ENDBRANCH   3   5
ENDBRANCH   2   3
ENDBRANCH   1   2
BRANCH   1  30
ATOM     30  C   UNL A   1      39.040  20.808  25.388  1.00  0.00     0.275 C 
BRANCH  30  31
ATOM     31  O   UNL A   1      39.698  19.758  26.117  1.00  0.00    -0.458 OA
BRANCH  31  32
ATOM     32  C   UNL A   1      41.049  19.752  26.024  1.00  0.00     0.338 C 
ATOM     33  O   UNL A   1      41.760  18.871  25.579  1.00  0.00    -0.246 OA
BRANCH  32  34
ATOM     34  C   UNL A   1      41.559  21.026  26.552  1.00  0.00     0.060 A 
ATOM     35  C   UNL A   1      41.438  21.292  27.915  1.00  0.00     0.016 A 
ATOM     36  C   UNL A   1      42.068  21.992  25.689  1.00  0.00     0.016 A 
ATOM     37  C   UNL A   1      41.771  22.542  28.423  1.00  0.00     0.010 A 
ATOM     38  C   UNL A   1      42.450  23.234  26.205  1.00  0.00     0.010 A 
ATOM     39  C   UNL A   1      42.281  23.525  27.572  1.00  0.00    -0.014 A 
BRANCH  39  40
ATOM     40  C   UNL A   1      42.571  24.878  28.099  1.00  0.00     0.031 A 
ATOM     41  C   UNL A   1      43.973  25.230  28.506  1.00  0.00     0.074 A 
ATOM     42  C   UNL A   1      41.589  25.794  28.190  1.00  0.00     0.049 A 
ATOM     43  N   UNL A   1      44.407  26.294  29.132  1.00  0.00    -0.248 NA
ATOM     44  C   UNL A   1      45.022  24.253  28.172  1.00  0.00     0.031 C 
ATOM     45  C   UNL A   1      40.204  25.601  27.758  1.00  0.00     0.029 A 
ATOM     46  N   UNL A   1      41.612  27.074  28.682  1.00  0.00    -0.354 N 
ATOM     47  C   UNL A   1      45.771  26.092  29.308  1.00  0.00     0.074 A 
ATOM     48  C   UNL A   1      46.091  24.808  28.724  1.00  0.00     0.031 C 
ATOM     49  C   UNL A   1      39.511  26.726  27.996  1.00  0.00     0.029 A 
ATOM     50  C   UNL A   1      40.385  27.691  28.654  1.00  0.00     0.049 A 
ATOM     51  H   UNL A   1      42.427  27.509  29.021  1.00  0.00     0.167 HD
ATOM     52  C   UNL A   1      46.671  26.905  29.910  1.00  0.00     0.031 A 
ATOM     53  C   UNL A   1      39.999  28.886  29.141  1.00  0.00     0.031 A 
ATOM     54  C   UNL A   1      46.352  28.193  30.465  1.00  0.00     0.049 A 
ATOM     55  C   UNL A   1      41.004  29.747  29.850  1.00  0.00     0.074 A 
ATOM     56  C   UNL A   1      47.193  29.094  31.095  1.00  0.00     0.029 A 
ATOM     57  N   UNL A   1      45.091  28.768  30.445  1.00  0.00    -0.354 N 
ATOM     58  N   UNL A   1      42.280  29.527  30.056  1.00  0.00    -0.248 NA
ATOM     59  C   UNL A   1      40.513  31.017  30.402  1.00  0.00     0.031 C 
ATOM     60  C   UNL A   1      46.431  30.200  31.489  1.00  0.00     0.029 A 
ATOM     61  C   UNL A   1      45.126  30.005  31.065  1.00  0.00     0.049 A 
ATOM     62  H   UNL A   1      44.289  28.357  30.048  1.00  0.00     0.167 HD
ATOM     63  C   UNL A   1      42.747  30.632  30.752  1.00  0.00     0.074 A 
ATOM     64  C   UNL A   1      41.622  31.531  30.917  1.00  0.00     0.031 C 
ATOM     65  C   UNL A   1      43.995  30.880  31.219  1.00  0.00     0.031 A 
BRANCH  52  66
ATOM     66  C   UNL A   1      48.077  26.397  30.042  1.00  0.00    -0.014 A 
ATOM     67  C   UNL A   1      48.509  25.727  31.196  1.00  0.00     0.009 A 
ATOM     68  C   UNL A   1      48.977  26.576  28.981  1.00  0.00     0.009 A 
ATOM     69  C   UNL A   1      49.826  25.271  31.295  1.00  0.00     0.001 A 
ATOM     70  C   UNL A   1      50.286  26.099  29.072  1.00  0.00     0.001 A 
ATOM     71  C   UNL A   1      50.711  25.455  30.232  1.00  0.00     0.000 A 
ENDBRANCH  52  66
BRANCH  53  72
ATOM     72  C   UNL A   1      38.582  29.310  29.019  1.00  0.00    -0.014 A 
ATOM     73  C   UNL A   1      38.098  29.850  27.818  1.00  0.00     0.009 A 
ATOM     74  C   UNL A   1      37.702  29.170  30.105  1.00  0.00     0.009 A 
ATOM     75  C   UNL A   1      36.766  30.255  27.713  1.00  0.00     0.001 A 
ATOM     76  C   UNL A   1      36.365  29.552  29.989  1.00  0.00     0.001 A 
ATOM     77  C   UNL A   1      35.899  30.101  28.795  1.00  0.00     0.000 A 
ENDBRANCH  53  72
BRANCH  65  78
ATOM     78  C   UNL A   1      44.209  32.185  31.927  1.00  0.00    -0.014 A 
ATOM     79  C   UNL A   1      44.609  33.332  31.223  1.00  0.00     0.009 A 
ATOM     80  C   UNL A   1      43.970  32.277  33.306  1.00  0.00     0.009 A 
ATOM     81  C   UNL A   1      44.793  34.540  31.896  1.00  0.00     0.001 A 
ATOM     82  C   UNL A   1      44.133  33.492  33.971  1.00  0.00     0.001 A 
ATOM     83  C   UNL A   1      44.552  34.621  33.268  1.00  0.00     0.000 A 
ENDBRANCH  65  78
ENDBRANCH  39  40
ENDBRANCH  32  34
ENDBRANCH  31  32
ENDBRANCH  30  31
ENDBRANCH   1  30
TORSDOF 15
ENDMDL
