MODEL 1
REMARK VINA RESULT:     -11.1      0.000      0.000
REMARK SMILES O=C(COc1ccccc1/C=N\N1CC[NH+](Cc2ccc(Cl)cc2)CC1)OCCOC(=O)c1ccc(-c2c3nc(c(-c4ccccc4)c4ccc([nH]4)c(-c4ccccc4)c4nc(c(-c5ccccc5)c5ccc2[nH]5)C=C4)C=C3)cc1
REMARK SMILES IDX 1 1 2 2 3 3 4 4 5 5 6 6 10 7 7 8 9 9 8 10 11 11 12 12 13 13
REMARK SMILES IDX 14 14 26 15 15 16 25 17 16 18 17 20 18 21 19 22 24 23 20 24
REMARK SMILES IDX 23 25 21 26 22 27 27 28 28 29 29 30 30 31 31 32 32 33 33 34
REMARK SMILES IDX 34 35 80 36 35 37 79 38 36 39 37 40 38 41 73 42 39 43 78 44
REMARK SMILES IDX 72 45 74 46 40 47 77 48 71 49 70 50 41 52 63 53 48 54 62 55
REMARK SMILES IDX 49 56 52 57 61 58 75 59 50 60 51 61 60 63 76 64 53 65 42 66
REMARK SMILES IDX 43 67 47 68 44 69 46 70 45 71 64 72 65 73 69 74 66 75 68 76
REMARK SMILES IDX 67 77 54 78 55 79 59 80 56 81 58 82 57 83
REMARK H PARENT 16 19 74 51 52 62
REMARK Flexibility Score: inf
ROOT
ATOM      1  O   UNL A   1      36.156  22.970  22.761  1.00  0.00    -0.248 OA
ATOM      2  C   UNL A   1      35.570  22.875  23.835  1.00  0.00     0.344 C 
ENDROOT
BRANCH   2   3
ATOM      3  C   UNL A   1      35.333  24.094  24.748  1.00  0.00     0.352 C 
BRANCH   3   4
ATOM      4  O   UNL A   1      34.433  25.125  24.439  1.00  0.00    -0.481 OA
BRANCH   4   5
ATOM      5  C   UNL A   1      33.213  25.267  25.035  1.00  0.00     0.129 A 
ATOM      6  C   UNL A   1      33.070  24.375  26.113  1.00  0.00     0.047 A 
ATOM      7  C   UNL A   1      32.095  25.992  24.606  1.00  0.00     0.037 A 
ATOM      8  C   UNL A   1      31.828  24.117  26.687  1.00  0.00     0.004 A 
ATOM      9  C   UNL A   1      30.837  25.578  25.069  1.00  0.00     0.013 A 
ATOM     10  C   UNL A   1      30.699  24.668  26.112  1.00  0.00     0.001 A 
BRANCH   7  11
ATOM     11  C   UNL A   1      32.245  27.238  23.818  1.00  0.00     0.145 C 
ATOM     12  N   UNL A   1      32.351  28.501  24.117  1.00  0.00    -0.185 NA
BRANCH  12  13
ATOM     13  N   UNL A   1      32.540  28.831  25.402  1.00  0.00    -0.286 NA
ATOM     14  C   UNL A   1      32.029  30.163  25.772  1.00  0.00     0.200 C 
ATOM     15  C   UNL A   1      33.967  28.736  25.785  1.00  0.00     0.200 C 
ATOM     16  C   UNL A   1      32.315  30.535  27.244  1.00  0.00     0.286 C 
ATOM     17  C   UNL A   1      34.191  29.009  27.276  1.00  0.00     0.286 C 
ATOM     18  N   UNL A   1      33.677  30.297  27.750  1.00  0.00    -0.328 N 
ATOM     19  H   UNL A   1      33.584  30.237  28.764  1.00  0.00     0.348 HD
BRANCH  18  20
ATOM     20  C   UNL A   1      34.622  31.414  27.620  1.00  0.00     0.299 C 
BRANCH  20  21
ATOM     21  C   UNL A   1      34.321  32.675  28.399  1.00  0.00     0.006 A 
ATOM     22  C   UNL A   1      33.461  33.658  27.876  1.00  0.00     0.011 A 
ATOM     23  C   UNL A   1      34.827  32.844  29.696  1.00  0.00     0.011 A 
ATOM     24  C   UNL A   1      33.033  34.723  28.674  1.00  0.00     0.021 A 
ATOM     25  C   UNL A   1      34.399  33.908  30.492  1.00  0.00     0.021 A 
ATOM     26  C   UNL A   1      33.487  34.830  29.985  1.00  0.00     0.041 A 
ATOM     27  Cl  UNL A   1      32.900  36.095  30.992  1.00  0.00    -0.084 Cl
ENDBRANCH  20  21
ENDBRANCH  18  20
ENDBRANCH  12  13
ENDBRANCH   7  11
ENDBRANCH   4   5
ENDBRANCH   3   4
ENDBRANCH   2   3
BRANCH   2  28
ATOM     28  O   UNL A   1      35.091  21.686  24.263  1.00  0.00    -0.460 OA
BRANCH  28  29
ATOM     29  C   UNL A   1      35.750  21.070  25.381  1.00  0.00     0.274 C 
BRANCH  29  30
ATOM     30  C   UNL A   1      37.111  20.460  25.002  1.00  0.00     0.275 C 
BRANCH  30  31
ATOM     31  O   UNL A   1      38.141  21.463  25.169  1.00  0.00    -0.458 OA
BRANCH  31  32
ATOM     32  C   UNL A   1      39.185  21.147  25.981  1.00  0.00     0.338 C 
ATOM     33  O   UNL A   1      39.726  20.076  26.096  1.00  0.00    -0.246 OA
BRANCH  32  34
ATOM     34  C   UNL A   1      39.693  22.417  26.581  1.00  0.00     0.060 A 
ATOM     35  C   UNL A   1      39.011  23.608  26.303  1.00  0.00     0.016 A 
ATOM     36  C   UNL A   1      40.784  22.428  27.456  1.00  0.00     0.016 A 
ATOM     37  C   UNL A   1      39.439  24.814  26.869  1.00  0.00     0.010 A 
ATOM     38  C   UNL A   1      41.219  23.639  28.012  1.00  0.00     0.010 A 
ATOM     39  C   UNL A   1      40.570  24.845  27.697  1.00  0.00    -0.014 A 
BRANCH  39  40
ATOM     40  C   UNL A   1      41.191  26.151  28.046  1.00  0.00     0.031 A 
ATOM     41  C   UNL A   1      42.536  26.480  27.449  1.00  0.00     0.074 A 
ATOM     42  C   UNL A   1      40.583  27.053  28.839  1.00  0.00     0.049 A 
ATOM     43  N   UNL A   1      43.252  27.571  27.560  1.00  0.00    -0.248 NA
ATOM     44  C   UNL A   1      43.153  25.436  26.615  1.00  0.00     0.031 C 
ATOM     45  C   UNL A   1      39.279  26.888  29.475  1.00  0.00     0.029 A 
ATOM     46  N   UNL A   1      40.999  28.302  29.241  1.00  0.00    -0.354 N 
ATOM     47  C   UNL A   1      44.388  27.353  26.791  1.00  0.00     0.074 A 
ATOM     48  C   UNL A   1      44.294  26.008  26.267  1.00  0.00     0.031 C 
ATOM     49  C   UNL A   1      39.001  27.994  30.192  1.00  0.00     0.029 A 
ATOM     50  C   UNL A   1      40.112  28.939  30.075  1.00  0.00     0.049 A 
ATOM     51  H   UNL A   1      41.852  28.701  28.957  1.00  0.00     0.167 HD
ATOM     52  C   UNL A   1      45.413  28.196  26.523  1.00  0.00     0.031 A 
ATOM     53  C   UNL A   1      40.189  30.144  30.677  1.00  0.00     0.031 A 
ATOM     54  C   UNL A   1      45.546  29.521  27.063  1.00  0.00     0.049 A 
ATOM     55  C   UNL A   1      41.380  31.035  30.428  1.00  0.00     0.074 A 
ATOM     56  C   UNL A   1      46.557  30.442  26.850  1.00  0.00     0.029 A 
ATOM     57  N   UNL A   1      44.643  30.112  27.932  1.00  0.00    -0.354 N 
ATOM     58  N   UNL A   1      42.424  30.833  29.661  1.00  0.00    -0.248 NA
ATOM     59  C   UNL A   1      41.390  32.336  31.118  1.00  0.00     0.031 C 
ATOM     60  C   UNL A   1      46.292  31.571  27.632  1.00  0.00     0.029 A 
ATOM     61  C   UNL A   1      45.085  31.377  28.283  1.00  0.00     0.049 A 
ATOM     62  H   UNL A   1      43.811  29.695  28.252  1.00  0.00     0.167 HD
ATOM     63  C   UNL A   1      43.195  31.989  29.753  1.00  0.00     0.074 A 
ATOM     64  C   UNL A   1      42.488  32.896  30.631  1.00  0.00     0.031 C 
ATOM     65  C   UNL A   1      44.382  32.273  29.162  1.00  0.00     0.031 A 
BRANCH  52  66
ATOM     66  C   UNL A   1      46.489  27.689  25.603  1.00  0.00    -0.014 A 
ATOM     67  C   UNL A   1      46.505  28.048  24.246  1.00  0.00     0.009 A 
ATOM     68  C   UNL A   1      47.508  26.865  26.104  1.00  0.00     0.009 A 
ATOM     69  C   UNL A   1      47.504  27.564  23.400  1.00  0.00     0.001 A 
ATOM     70  C   UNL A   1      48.521  26.405  25.260  1.00  0.00     0.001 A 
ATOM     71  C   UNL A   1      48.513  26.746  23.908  1.00  0.00     0.000 A 
ENDBRANCH  52  66
BRANCH  53  72
ATOM     72  C   UNL A   1      39.108  30.596  31.596  1.00  0.00    -0.014 A 
ATOM     73  C   UNL A   1      38.050  31.393  31.131  1.00  0.00     0.009 A 
ATOM     74  C   UNL A   1      39.168  30.284  32.964  1.00  0.00     0.009 A 
ATOM     75  C   UNL A   1      37.098  31.897  32.019  1.00  0.00     0.001 A 
ATOM     76  C   UNL A   1      38.197  30.763  33.845  1.00  0.00     0.001 A 
ATOM     77  C   UNL A   1      37.170  31.580  33.375  1.00  0.00     0.000 A 
ENDBRANCH  53  72
BRANCH  65  78
ATOM     78  C   UNL A   1      44.977  33.632  29.419  1.00  0.00    -0.014 A 
ATOM     79  C   UNL A   1      45.799  33.875  30.531  1.00  0.00     0.009 A 
ATOM     80  C   UNL A   1      44.731  34.681  28.518  1.00  0.00     0.009 A 
ATOM     81  C   UNL A   1      46.324  35.149  30.759  1.00  0.00     0.001 A 
ATOM     82  C   UNL A   1      45.283  35.945  28.731  1.00  0.00     0.001 A 
ATOM     83  C   UNL A   1      46.067  36.181  29.858  1.00  0.00     0.000 A 
ENDBRANCH  65  78
ENDBRANCH  39  40
ENDBRANCH  32  34
ENDBRANCH  31  32
ENDBRANCH  30  31
ENDBRANCH  29  30
ENDBRANCH  28  29
ENDBRANCH   2  28
TORSDOF 17
ENDMDL
MODEL 2
REMARK VINA RESULT:     -11.0      3.978      7.567
REMARK SMILES O=C(COc1ccccc1/C=N\N1CC[NH+](Cc2ccc(Cl)cc2)CC1)OCCOC(=O)c1ccc(-c2c3nc(c(-c4ccccc4)c4ccc([nH]4)c(-c4ccccc4)c4nc(c(-c5ccccc5)c5ccc2[nH]5)C=C4)C=C3)cc1
REMARK SMILES IDX 1 1 2 2 3 3 4 4 5 5 6 6 10 7 7 8 9 9 8 10 11 11 12 12 13 13
REMARK SMILES IDX 14 14 26 15 15 16 25 17 16 18 17 20 18 21 19 22 24 23 20 24
REMARK SMILES IDX 23 25 21 26 22 27 27 28 28 29 29 30 30 31 31 32 32 33 33 34
REMARK SMILES IDX 34 35 80 36 35 37 79 38 36 39 37 40 38 41 73 42 39 43 78 44
REMARK SMILES IDX 72 45 74 46 40 47 77 48 71 49 70 50 41 52 63 53 48 54 62 55
REMARK SMILES IDX 49 56 52 57 61 58 75 59 50 60 51 61 60 63 76 64 53 65 42 66
REMARK SMILES IDX 43 67 47 68 44 69 46 70 45 71 64 72 65 73 69 74 66 75 68 76
REMARK SMILES IDX 67 77 54 78 55 79 59 80 56 81 58 82 57 83
REMARK H PARENT 16 19 74 51 52 62
REMARK Flexibility Score: inf
ROOT
ATOM      1  O   UNL A   1      42.280  18.162  25.772  1.00  0.00    -0.248 OA
ATOM      2  C   UNL A   1      42.264  19.387  25.851  1.00  0.00     0.344 C 
ENDROOT
BRANCH   2   3
ATOM      3  C   UNL A   1      41.269  20.134  26.762  1.00  0.00     0.352 C 
BRANCH   3   4
ATOM      4  O   UNL A   1      39.978  20.502  26.355  1.00  0.00    -0.481 OA
BRANCH   4   5
ATOM      5  C   UNL A   1      39.575  21.797  26.204  1.00  0.00     0.129 A 
ATOM      6  C   UNL A   1      40.550  22.690  26.682  1.00  0.00     0.047 A 
ATOM      7  C   UNL A   1      38.317  22.298  25.846  1.00  0.00     0.037 A 
ATOM      8  C   UNL A   1      40.261  24.032  26.912  1.00  0.00     0.004 A 
ATOM      9  C   UNL A   1      37.996  23.600  26.261  1.00  0.00     0.013 A 
ATOM     10  C   UNL A   1      38.957  24.470  26.768  1.00  0.00     0.001 A 
BRANCH   7  11
ATOM     11  C   UNL A   1      37.421  21.545  24.938  1.00  0.00     0.145 C 
ATOM     12  N   UNL A   1      36.145  21.288  24.921  1.00  0.00    -0.185 NA
BRANCH  12  13
ATOM     13  N   UNL A   1      35.357  21.942  25.787  1.00  0.00    -0.286 NA
ATOM     14  C   UNL A   1      34.241  21.141  26.321  1.00  0.00     0.200 C 
ATOM     15  C   UNL A   1      34.821  23.191  25.200  1.00  0.00     0.200 C 
ATOM     16  C   UNL A   1      33.321  21.942  27.270  1.00  0.00     0.286 C 
ATOM     17  C   UNL A   1      34.003  24.005  26.208  1.00  0.00     0.286 C 
ATOM     18  N   UNL A   1      32.891  23.279  26.828  1.00  0.00    -0.328 N 
ATOM     19  H   UNL A   1      32.634  23.778  27.679  1.00  0.00     0.348 HD
BRANCH  18  20
ATOM     20  C   UNL A   1      31.631  23.340  26.075  1.00  0.00     0.299 C 
BRANCH  20  21
ATOM     21  C   UNL A   1      31.295  24.642  25.383  1.00  0.00     0.006 A 
ATOM     22  C   UNL A   1      30.752  24.649  24.086  1.00  0.00     0.011 A 
ATOM     23  C   UNL A   1      31.438  25.861  26.060  1.00  0.00     0.011 A 
ATOM     24  C   UNL A   1      30.263  25.834  23.527  1.00  0.00     0.021 A 
ATOM     25  C   UNL A   1      30.950  27.045  25.502  1.00  0.00     0.021 A 
ATOM     26  C   UNL A   1      30.345  27.021  24.248  1.00  0.00     0.041 A 
ATOM     27  Cl  UNL A   1      29.673  28.465  23.597  1.00  0.00    -0.084 Cl
ENDBRANCH  20  21
ENDBRANCH  18  20
ENDBRANCH  12  13
ENDBRANCH   7  11
ENDBRANCH   4   5
ENDBRANCH   3   4
ENDBRANCH   2   3
BRANCH   2  28
ATOM     28  O   UNL A   1      43.135  20.140  25.146  1.00  0.00    -0.460 OA
BRANCH  28  29
ATOM     29  C   UNL A   1      43.565  21.379  25.732  1.00  0.00     0.274 C 
BRANCH  29  30
ATOM     30  C   UNL A   1      44.999  21.760  25.323  1.00  0.00     0.275 C 
BRANCH  30  31
ATOM     31  O   UNL A   1      45.128  23.201  25.336  1.00  0.00    -0.458 OA
BRANCH  31  32
ATOM     32  C   UNL A   1      45.874  23.746  26.335  1.00  0.00     0.338 C 
ATOM     33  O   UNL A   1      47.073  23.716  26.453  1.00  0.00    -0.246 OA
BRANCH  32  34
ATOM     34  C   UNL A   1      44.962  24.571  27.183  1.00  0.00     0.060 A 
ATOM     35  C   UNL A   1      44.996  25.964  27.043  1.00  0.00     0.016 A 
ATOM     36  C   UNL A   1      44.041  23.982  28.055  1.00  0.00     0.016 A 
ATOM     37  C   UNL A   1      44.136  26.769  27.798  1.00  0.00     0.010 A 
ATOM     38  C   UNL A   1      43.190  24.791  28.821  1.00  0.00     0.010 A 
ATOM     39  C   UNL A   1      43.255  26.192  28.722  1.00  0.00    -0.014 A 
BRANCH  39  40
ATOM     40  C   UNL A   1      42.571  27.052  29.724  1.00  0.00     0.031 A 
ATOM     41  C   UNL A   1      43.193  27.184  31.090  1.00  0.00     0.074 A 
ATOM     42  C   UNL A   1      41.446  27.737  29.443  1.00  0.00     0.049 A 
ATOM     43  N   UNL A   1      42.817  27.914  32.110  1.00  0.00    -0.248 NA
ATOM     44  C   UNL A   1      44.406  26.386  31.334  1.00  0.00     0.031 C 
ATOM     45  C   UNL A   1      40.736  27.724  28.167  1.00  0.00     0.029 A 
ATOM     46  N   UNL A   1      40.704  28.584  30.233  1.00  0.00    -0.354 N 
ATOM     47  C   UNL A   1      43.757  27.680  33.105  1.00  0.00     0.074 A 
ATOM     48  C   UNL A   1      44.688  26.701  32.588  1.00  0.00     0.031 C 
ATOM     49  C   UNL A   1      39.657  28.526  28.261  1.00  0.00     0.029 A 
ATOM     50  C   UNL A   1      39.594  29.097  29.606  1.00  0.00     0.049 A 
ATOM     51  H   UNL A   1      40.947  28.803  31.162  1.00  0.00     0.167 HD
ATOM     52  C   UNL A   1      43.858  28.240  34.334  1.00  0.00     0.031 A 
ATOM     53  C   UNL A   1      38.636  29.928  30.066  1.00  0.00     0.031 A 
ATOM     54  C   UNL A   1      42.925  29.185  34.882  1.00  0.00     0.049 A 
ATOM     55  C   UNL A   1      38.725  30.477  31.468  1.00  0.00     0.074 A 
ATOM     56  C   UNL A   1      42.946  29.798  36.123  1.00  0.00     0.029 A 
ATOM     57  N   UNL A   1      41.796  29.648  34.227  1.00  0.00    -0.354 N 
ATOM     58  N   UNL A   1      39.646  30.283  32.381  1.00  0.00    -0.248 NA
ATOM     59  C   UNL A   1      37.643  31.381  31.896  1.00  0.00     0.031 C 
ATOM     60  C   UNL A   1      41.800  30.592  36.239  1.00  0.00     0.029 A 
ATOM     61  C   UNL A   1      41.100  30.521  35.047  1.00  0.00     0.049 A 
ATOM     62  H   UNL A   1      41.528  29.394  33.314  1.00  0.00     0.167 HD
ATOM     63  C   UNL A   1      39.272  31.061  33.473  1.00  0.00     0.074 A 
ATOM     64  C   UNL A   1      38.053  31.747  33.102  1.00  0.00     0.031 C 
ATOM     65  C   UNL A   1      39.884  31.196  34.675  1.00  0.00     0.031 A 
BRANCH  52  66
ATOM     66  C   UNL A   1      45.029  27.822  35.179  1.00  0.00    -0.014 A 
ATOM     67  C   UNL A   1      46.242  28.527  35.130  1.00  0.00     0.009 A 
ATOM     68  C   UNL A   1      44.911  26.726  36.048  1.00  0.00     0.009 A 
ATOM     69  C   UNL A   1      47.326  28.124  35.913  1.00  0.00     0.001 A 
ATOM     70  C   UNL A   1      45.988  26.343  36.849  1.00  0.00     0.001 A 
ATOM     71  C   UNL A   1      47.197  27.035  36.774  1.00  0.00     0.000 A 
ENDBRANCH  52  66
BRANCH  53  72
ATOM     72  C   UNL A   1      37.483  30.299  29.200  1.00  0.00    -0.014 A 
ATOM     73  C   UNL A   1      37.330  31.611  28.725  1.00  0.00     0.009 A 
ATOM     74  C   UNL A   1      36.493  29.351  28.898  1.00  0.00     0.009 A 
ATOM     75  C   UNL A   1      36.193  31.975  28.000  1.00  0.00     0.001 A 
ATOM     76  C   UNL A   1      35.373  29.709  28.145  1.00  0.00     0.001 A 
ATOM     77  C   UNL A   1      35.216  31.023  27.708  1.00  0.00     0.000 A 
ENDBRANCH  53  72
BRANCH  65  78
ATOM     78  C   UNL A   1      39.265  32.144  35.667  1.00  0.00    -0.014 A 
ATOM     79  C   UNL A   1      38.325  31.705  36.613  1.00  0.00     0.009 A 
ATOM     80  C   UNL A   1      39.647  33.495  35.670  1.00  0.00     0.009 A 
ATOM     81  C   UNL A   1      37.749  32.608  37.511  1.00  0.00     0.001 A 
ATOM     82  C   UNL A   1      39.093  34.389  36.589  1.00  0.00     0.001 A 
ATOM     83  C   UNL A   1      38.135  33.947  37.499  1.00  0.00     0.000 A 
ENDBRANCH  65  78
ENDBRANCH  39  40
ENDBRANCH  32  34
ENDBRANCH  31  32
ENDBRANCH  30  31
ENDBRANCH  29  30
ENDBRANCH  28  29
ENDBRANCH   2  28
TORSDOF 17
ENDMDL
MODEL 3
REMARK VINA RESULT:     -10.8      3.487      8.439
REMARK SMILES O=C(COc1ccccc1/C=N\N1CC[NH+](Cc2ccc(Cl)cc2)CC1)OCCOC(=O)c1ccc(-c2c3nc(c(-c4ccccc4)c4ccc([nH]4)c(-c4ccccc4)c4nc(c(-c5ccccc5)c5ccc2[nH]5)C=C4)C=C3)cc1
REMARK SMILES IDX 1 1 2 2 3 3 4 4 5 5 6 6 10 7 7 8 9 9 8 10 11 11 12 12 13 13
REMARK SMILES IDX 14 14 26 15 15 16 25 17 16 18 17 20 18 21 19 22 24 23 20 24
REMARK SMILES IDX 23 25 21 26 22 27 27 28 28 29 29 30 30 31 31 32 32 33 33 34
REMARK SMILES IDX 34 35 80 36 35 37 79 38 36 39 37 40 38 41 73 42 39 43 78 44
REMARK SMILES IDX 72 45 74 46 40 47 77 48 71 49 70 50 41 52 63 53 48 54 62 55
REMARK SMILES IDX 49 56 52 57 61 58 75 59 50 60 51 61 60 63 76 64 53 65 42 66
REMARK SMILES IDX 43 67 47 68 44 69 46 70 45 71 64 72 65 73 69 74 66 75 68 76
REMARK SMILES IDX 67 77 54 78 55 79 59 80 56 81 58 82 57 83
REMARK H PARENT 16 19 74 51 52 62
REMARK Flexibility Score: inf
ROOT
ATOM      1  O   UNL A   1      33.455  35.581  29.776  1.00  0.00    -0.248 OA
ATOM      2  C   UNL A   1      33.711  34.387  29.654  1.00  0.00     0.344 C 
ENDROOT
BRANCH   2   3
ATOM      3  C   UNL A   1      33.508  33.639  28.321  1.00  0.00     0.352 C 
BRANCH   3   4
ATOM      4  O   UNL A   1      34.553  33.033  27.609  1.00  0.00    -0.481 OA
BRANCH   4   5
ATOM      5  C   UNL A   1      34.954  31.743  27.809  1.00  0.00     0.129 A 
ATOM      6  C   UNL A   1      36.282  31.692  28.269  1.00  0.00     0.047 A 
ATOM      7  C   UNL A   1      34.321  30.550  27.441  1.00  0.00     0.037 A 
ATOM      8  C   UNL A   1      37.012  30.506  28.263  1.00  0.00     0.004 A 
ATOM      9  C   UNL A   1      35.127  29.415  27.266  1.00  0.00     0.013 A 
ATOM     10  C   UNL A   1      36.452  29.379  27.691  1.00  0.00     0.001 A 
BRANCH   7  11
ATOM     11  C   UNL A   1      32.843  30.451  27.387  1.00  0.00     0.145 C 
ATOM     12  N   UNL A   1      31.998  29.802  26.640  1.00  0.00    -0.185 NA
BRANCH  12  13
ATOM     13  N   UNL A   1      32.479  28.864  25.811  1.00  0.00    -0.286 NA
ATOM     14  C   UNL A   1      32.729  29.333  24.437  1.00  0.00     0.200 C 
ATOM     15  C   UNL A   1      31.598  27.674  25.765  1.00  0.00     0.200 C 
ATOM     16  C   UNL A   1      33.226  28.213  23.495  1.00  0.00     0.286 C 
ATOM     17  C   UNL A   1      32.181  26.548  24.906  1.00  0.00     0.286 C 
ATOM     18  N   UNL A   1      32.504  26.930  23.528  1.00  0.00    -0.328 N 
ATOM     19  H   UNL A   1      33.158  26.239  23.162  1.00  0.00     0.348 HD
BRANCH  18  20
ATOM     20  C   UNL A   1      31.388  26.789  22.581  1.00  0.00     0.299 C 
BRANCH  20  21
ATOM     21  C   UNL A   1      30.353  27.892  22.556  1.00  0.00     0.006 A 
ATOM     22  C   UNL A   1      29.098  27.715  23.167  1.00  0.00     0.011 A 
ATOM     23  C   UNL A   1      30.661  29.141  21.999  1.00  0.00     0.011 A 
ATOM     24  C   UNL A   1      28.221  28.794  23.312  1.00  0.00     0.021 A 
ATOM     25  C   UNL A   1      29.785  30.219  22.145  1.00  0.00     0.021 A 
ATOM     26  C   UNL A   1      28.580  30.045  22.820  1.00  0.00     0.041 A 
ATOM     27  Cl  UNL A   1      27.538  31.392  23.068  1.00  0.00    -0.084 Cl
ENDBRANCH  20  21
ENDBRANCH  18  20
ENDBRANCH  12  13
ENDBRANCH   7  11
ENDBRANCH   4   5
ENDBRANCH   3   4
ENDBRANCH   2   3
BRANCH   2  28
ATOM     28  O   UNL A   1      34.201  33.672  30.690  1.00  0.00    -0.460 OA
BRANCH  28  29
ATOM     29  C   UNL A   1      34.326  34.338  31.956  1.00  0.00     0.274 C 
BRANCH  29  30
ATOM     30  C   UNL A   1      34.354  33.358  33.140  1.00  0.00     0.275 C 
BRANCH  30  31
ATOM     31  O   UNL A   1      35.402  32.383  32.923  1.00  0.00    -0.458 OA
BRANCH  31  32
ATOM     32  C   UNL A   1      36.513  32.487  33.701  1.00  0.00     0.338 C 
ATOM     33  O   UNL A   1      36.561  32.704  34.885  1.00  0.00    -0.246 OA
BRANCH  32  34
ATOM     34  C   UNL A   1      37.687  32.088  32.868  1.00  0.00     0.060 A 
ATOM     35  C   UNL A   1      37.793  32.602  31.569  1.00  0.00     0.016 A 
ATOM     36  C   UNL A   1      38.703  31.273  33.378  1.00  0.00     0.016 A 
ATOM     37  C   UNL A   1      38.893  32.274  30.769  1.00  0.00     0.010 A 
ATOM     38  C   UNL A   1      39.798  30.936  32.570  1.00  0.00     0.010 A 
ATOM     39  C   UNL A   1      39.884  31.408  31.249  1.00  0.00    -0.014 A 
BRANCH  39  40
ATOM     40  C   UNL A   1      40.877  30.830  30.304  1.00  0.00     0.031 A 
ATOM     41  C   UNL A   1      42.097  31.648  29.967  1.00  0.00     0.074 A 
ATOM     42  C   UNL A   1      40.741  29.601  29.773  1.00  0.00     0.049 A 
ATOM     43  N   UNL A   1      43.124  31.342  29.215  1.00  0.00    -0.248 NA
ATOM     44  C   UNL A   1      42.165  32.993  30.562  1.00  0.00     0.031 C 
ATOM     45  C   UNL A   1      39.628  28.685  30.014  1.00  0.00     0.029 A 
ATOM     46  N   UNL A   1      41.563  28.912  28.911  1.00  0.00    -0.354 N 
ATOM     47  C   UNL A   1      43.969  32.443  29.267  1.00  0.00     0.074 A 
ATOM     48  C   UNL A   1      43.310  33.446  30.076  1.00  0.00     0.031 C 
ATOM     49  C   UNL A   1      39.836  27.553  29.314  1.00  0.00     0.029 A 
ATOM     50  C   UNL A   1      41.088  27.670  28.566  1.00  0.00     0.049 A 
ATOM     51  H   UNL A   1      42.413  29.275  28.574  1.00  0.00     0.167 HD
ATOM     52  C   UNL A   1      45.194  32.609  28.713  1.00  0.00     0.031 A 
ATOM     53  C   UNL A   1      41.602  26.735  27.739  1.00  0.00     0.031 A 
ATOM     54  C   UNL A   1      45.850  31.643  27.875  1.00  0.00     0.049 A 
ATOM     55  C   UNL A   1      42.932  26.974  27.067  1.00  0.00     0.074 A 
ATOM     56  C   UNL A   1      47.089  31.731  27.265  1.00  0.00     0.029 A 
ATOM     57  N   UNL A   1      45.316  30.414  27.523  1.00  0.00    -0.354 N 
ATOM     58  N   UNL A   1      43.739  28.002  27.164  1.00  0.00    -0.248 NA
ATOM     59  C   UNL A   1      43.428  25.906  26.183  1.00  0.00     0.031 C 
ATOM     60  C   UNL A   1      47.282  30.577  26.499  1.00  0.00     0.029 A 
ATOM     61  C   UNL A   1      46.191  29.744  26.683  1.00  0.00     0.049 A 
ATOM     62  H   UNL A   1      44.445  30.069  27.824  1.00  0.00     0.167 HD
ATOM     63  C   UNL A   1      44.848  27.692  26.381  1.00  0.00     0.074 A 
ATOM     64  C   UNL A   1      44.619  26.372  25.834  1.00  0.00     0.031 C 
ATOM     65  C   UNL A   1      45.956  28.433  26.137  1.00  0.00     0.031 A 
BRANCH  52  66
ATOM     66  C   UNL A   1      45.897  33.907  28.991  1.00  0.00    -0.014 A 
ATOM     67  C   UNL A   1      46.753  34.041  30.095  1.00  0.00     0.009 A 
ATOM     68  C   UNL A   1      45.720  35.000  28.128  1.00  0.00     0.009 A 
ATOM     69  C   UNL A   1      47.395  35.255  30.349  1.00  0.00     0.001 A 
ATOM     70  C   UNL A   1      46.385  36.204  28.369  1.00  0.00     0.001 A 
ATOM     71  C   UNL A   1      47.213  36.334  29.484  1.00  0.00     0.000 A 
ENDBRANCH  52  66
BRANCH  53  72
ATOM     72  C   UNL A   1      40.860  25.472  27.478  1.00  0.00    -0.014 A 
ATOM     73  C   UNL A   1      39.721  25.459  26.657  1.00  0.00     0.009 A 
ATOM     74  C   UNL A   1      41.253  24.279  28.106  1.00  0.00     0.009 A 
ATOM     75  C   UNL A   1      38.971  24.291  26.500  1.00  0.00     0.001 A 
ATOM     76  C   UNL A   1      40.520  23.104  27.922  1.00  0.00     0.001 A 
ATOM     77  C   UNL A   1      39.373  23.113  27.131  1.00  0.00     0.000 A 
ENDBRANCH  53  72
BRANCH  65  78
ATOM     78  C   UNL A   1      47.022  27.824  25.267  1.00  0.00    -0.014 A 
ATOM     79  C   UNL A   1      48.051  27.037  25.809  1.00  0.00     0.009 A 
ATOM     80  C   UNL A   1      46.982  28.018  23.877  1.00  0.00     0.009 A 
ATOM     81  C   UNL A   1      49.041  26.498  24.984  1.00  0.00     0.001 A 
ATOM     82  C   UNL A   1      47.955  27.452  23.050  1.00  0.00     0.001 A 
ATOM     83  C   UNL A   1      48.990  26.704  23.606  1.00  0.00     0.000 A 
ENDBRANCH  65  78
ENDBRANCH  39  40
ENDBRANCH  32  34
ENDBRANCH  31  32
ENDBRANCH  30  31
ENDBRANCH  29  30
ENDBRANCH  28  29
ENDBRANCH   2  28
TORSDOF 17
ENDMDL
