MODEL 1
REMARK VINA RESULT:     -11.1      0.000      0.000
REMARK SMILES CN(Cc1ccc(C(=O)OCCOC(=O)c2ccc(-c3c4nc(c(-c5ccccc5)c5ccc([nH]5)c(-c5ccccc5)c5nc(c(-c6ccccc6)c6ccc3[nH]6)C=C5)C=C4)cc2)cc1)c1ccccc1N
REMARK SMILES IDX 11 1 10 2 8 3 9 4 7 5 4 6 5 7 65 8 6 9 64 10 3 11 2 12 1 13
REMARK SMILES IDX 66 14 67 15 71 16 68 17 70 18 69 19 72 20 12 23 13 24 14 25
REMARK SMILES IDX 15 26 16 27 17 28 63 29 18 30 62 31 19 32 20 33 21 34 56 35
REMARK SMILES IDX 22 36 61 37 55 38 57 39 23 40 60 41 54 42 53 43 24 45 46 46
REMARK SMILES IDX 31 47 45 48 32 49 35 50 44 51 58 52 33 53 34 54 43 56 59 57
REMARK SMILES IDX 36 58 25 59 26 60 30 61 27 62 29 63 28 64 47 65 48 66 52 67
REMARK SMILES IDX 49 68 51 69 50 70 37 71 38 72 42 73 39 74 41 75 40 76
REMARK H PARENT 72 21 72 22 57 44 35 55
REMARK Flexibility Score: inf
ROOT
ATOM      1  C   UNL A   1      42.634  20.560  26.130  1.00  0.00     0.275 C 
ENDROOT
BRANCH   1   2
ATOM      2  O   UNL A   1      41.310  20.942  25.709  1.00  0.00    -0.458 OA
BRANCH   2   3
ATOM      3  C   UNL A   1      40.415  21.176  26.701  1.00  0.00     0.338 C 
ATOM      4  O   UNL A   1      40.572  20.947  27.890  1.00  0.00    -0.246 OA
BRANCH   3   5
ATOM      5  C   UNL A   1      39.218  21.876  26.169  1.00  0.00     0.060 A 
ATOM      6  C   UNL A   1      36.821  23.043  25.266  1.00  0.00    -0.029 A 
ATOM      7  C   UNL A   1      37.161  21.735  24.889  1.00  0.00     0.006 A 
ATOM      8  C   UNL A   1      37.736  23.782  26.033  1.00  0.00     0.006 A 
ATOM      9  C   UNL A   1      38.357  21.165  25.323  1.00  0.00     0.016 A 
ATOM     10  C   UNL A   1      38.918  23.198  26.501  1.00  0.00     0.016 A 
BRANCH   6  11
ATOM     11  C   UNL A   1      35.476  23.610  24.850  1.00  0.00     0.151 C 
BRANCH  11  12
ATOM     12  N   UNL A   1      34.334  22.861  25.379  1.00  0.00    -0.369 N 
ATOM     13  C   UNL A   1      33.902  23.127  26.741  1.00  0.00     0.144 C 
BRANCH  12  14
ATOM     14  C   UNL A   1      33.587  22.019  24.552  1.00  0.00     0.060 A 
ATOM     15  C   UNL A   1      32.864  22.560  23.471  1.00  0.00     0.028 A 
ATOM     16  C   UNL A   1      33.523  20.611  24.725  1.00  0.00     0.055 A 
ATOM     17  C   UNL A   1      32.150  21.763  22.570  1.00  0.00     0.002 A 
ATOM     18  C   UNL A   1      32.850  19.815  23.780  1.00  0.00     0.027 A 
ATOM     19  C   UNL A   1      32.153  20.386  22.718  1.00  0.00     0.002 A 
BRANCH  16  20
ATOM     20  N   UNL A   1      34.178  19.961  25.778  1.00  0.00    -0.397 N 
ATOM     21  H   UNL A   1      35.062  20.276  26.076  1.00  0.00     0.156 HD
ATOM     22  H   UNL A   1      33.754  19.190  26.219  1.00  0.00     0.156 HD
ENDBRANCH  16  20
ENDBRANCH  12  14
ENDBRANCH  11  12
ENDBRANCH   6  11
ENDBRANCH   3   5
ENDBRANCH   2   3
ENDBRANCH   1   2
BRANCH   1  23
ATOM     23  C   UNL A   1      43.690  21.504  25.556  1.00  0.00     0.275 C 
BRANCH  23  24
ATOM     24  O   UNL A   1      43.051  22.629  24.926  1.00  0.00    -0.458 OA
BRANCH  24  25
ATOM     25  C   UNL A   1      43.741  23.790  24.959  1.00  0.00     0.338 C 
ATOM     26  O   UNL A   1      44.749  24.082  24.339  1.00  0.00    -0.246 OA
BRANCH  25  27
ATOM     27  C   UNL A   1      43.085  24.724  25.887  1.00  0.00     0.060 A 
ATOM     28  C   UNL A   1      43.429  26.073  25.852  1.00  0.00     0.016 A 
ATOM     29  C   UNL A   1      42.238  24.241  26.884  1.00  0.00     0.016 A 
ATOM     30  C   UNL A   1      42.990  26.935  26.855  1.00  0.00     0.010 A 
ATOM     31  C   UNL A   1      41.736  25.122  27.847  1.00  0.00     0.010 A 
ATOM     32  C   UNL A   1      42.137  26.472  27.869  1.00  0.00    -0.014 A 
BRANCH  32  33
ATOM     33  C   UNL A   1      41.723  27.370  28.986  1.00  0.00     0.031 A 
ATOM     34  C   UNL A   1      42.515  27.393  30.270  1.00  0.00     0.074 A 
ATOM     35  C   UNL A   1      40.654  28.182  28.862  1.00  0.00     0.049 A 
ATOM     36  N   UNL A   1      42.225  27.962  31.413  1.00  0.00    -0.248 NA
ATOM     37  C   UNL A   1      43.795  26.668  30.270  1.00  0.00     0.031 C 
ATOM     38  C   UNL A   1      39.822  28.319  27.667  1.00  0.00     0.029 A 
ATOM     39  N   UNL A   1      40.090  29.057  29.760  1.00  0.00    -0.354 N 
ATOM     40  C   UNL A   1      43.251  27.612  32.283  1.00  0.00     0.074 A 
ATOM     41  C   UNL A   1      44.171  26.782  31.536  1.00  0.00     0.031 C 
ATOM     42  C   UNL A   1      38.882  29.251  27.890  1.00  0.00     0.029 A 
ATOM     43  C   UNL A   1      38.988  29.715  29.270  1.00  0.00     0.049 A 
ATOM     44  H   UNL A   1      40.443  29.199  30.668  1.00  0.00     0.167 HD
ATOM     45  C   UNL A   1      43.412  27.946  33.586  1.00  0.00     0.031 A 
ATOM     46  C   UNL A   1      38.132  30.565  29.867  1.00  0.00     0.031 A 
ATOM     47  C   UNL A   1      42.529  28.812  34.321  1.00  0.00     0.049 A 
ATOM     48  C   UNL A   1      38.311  30.897  31.321  1.00  0.00     0.074 A 
ATOM     49  C   UNL A   1      42.618  29.216  35.643  1.00  0.00     0.029 A 
ATOM     50  N   UNL A   1      41.405  29.426  33.792  1.00  0.00    -0.354 N 
ATOM     51  N   UNL A   1      39.249  30.504  32.148  1.00  0.00    -0.248 NA
ATOM     52  C   UNL A   1      37.301  31.775  31.929  1.00  0.00     0.031 C 
ATOM     53  C   UNL A   1      41.527  30.046  35.923  1.00  0.00     0.029 A 
ATOM     54  C   UNL A   1      40.786  30.196  34.763  1.00  0.00     0.049 A 
ATOM     55  H   UNL A   1      41.094  29.329  32.863  1.00  0.00     0.167 HD
ATOM     56  C   UNL A   1      38.947  31.093  33.370  1.00  0.00     0.074 A 
ATOM     57  C   UNL A   1      37.752  31.888  33.170  1.00  0.00     0.031 C 
ATOM     58  C   UNL A   1      39.598  30.980  34.552  1.00  0.00     0.031 A 
BRANCH  45  59
ATOM     59  C   UNL A   1      44.573  27.333  34.319  1.00  0.00    -0.014 A 
ATOM     60  C   UNL A   1      45.815  27.978  34.409  1.00  0.00     0.009 A 
ATOM     61  C   UNL A   1      44.402  26.095  34.963  1.00  0.00     0.009 A 
ATOM     62  C   UNL A   1      46.873  27.380  35.097  1.00  0.00     0.001 A 
ATOM     63  C   UNL A   1      45.454  25.513  35.673  1.00  0.00     0.001 A 
ATOM     64  C   UNL A   1      46.691  26.152  35.732  1.00  0.00     0.000 A 
ENDBRANCH  45  59
BRANCH  46  65
ATOM     65  C   UNL A   1      36.989  31.126  29.100  1.00  0.00    -0.014 A 
ATOM     66  C   UNL A   1      36.980  32.474  28.716  1.00  0.00     0.009 A 
ATOM     67  C   UNL A   1      35.904  30.310  28.743  1.00  0.00     0.009 A 
ATOM     68  C   UNL A   1      35.901  32.997  28.001  1.00  0.00     0.001 A 
ATOM     69  C   UNL A   1      34.840  30.828  28.003  1.00  0.00     0.001 A 
ATOM     70  C   UNL A   1      34.837  32.173  27.638  1.00  0.00     0.000 A 
ENDBRANCH  46  65
BRANCH  58  71
ATOM     71  C   UNL A   1      39.048  31.757  35.713  1.00  0.00    -0.014 A 
ATOM     72  C   UNL A   1      38.163  31.166  36.627  1.00  0.00     0.009 A 
ATOM     73  C   UNL A   1      39.445  33.088  35.909  1.00  0.00     0.009 A 
ATOM     74  C   UNL A   1      37.661  31.906  37.700  1.00  0.00     0.001 A 
ATOM     75  C   UNL A   1      38.960  33.818  36.995  1.00  0.00     0.001 A 
ATOM     76  C   UNL A   1      38.062  33.229  37.884  1.00  0.00     0.000 A 
ENDBRANCH  58  71
ENDBRANCH  32  33
ENDBRANCH  25  27
ENDBRANCH  24  25
ENDBRANCH  23  24
ENDBRANCH   1  23
TORSDOF 15
ENDMDL
MODEL 2
REMARK VINA RESULT:     -10.9      5.217     10.048
REMARK SMILES CN(Cc1ccc(C(=O)OCCOC(=O)c2ccc(-c3c4nc(c(-c5ccccc5)c5ccc([nH]5)c(-c5ccccc5)c5nc(c(-c6ccccc6)c6ccc3[nH]6)C=C5)C=C4)cc2)cc1)c1ccccc1N
REMARK SMILES IDX 11 1 10 2 8 3 9 4 7 5 4 6 5 7 65 8 6 9 64 10 3 11 2 12 1 13
REMARK SMILES IDX 66 14 67 15 71 16 68 17 70 18 69 19 72 20 12 23 13 24 14 25
REMARK SMILES IDX 15 26 16 27 17 28 63 29 18 30 62 31 19 32 20 33 21 34 56 35
REMARK SMILES IDX 22 36 61 37 55 38 57 39 23 40 60 41 54 42 53 43 24 45 46 46
REMARK SMILES IDX 31 47 45 48 32 49 35 50 44 51 58 52 33 53 34 54 43 56 59 57
REMARK SMILES IDX 36 58 25 59 26 60 30 61 27 62 29 63 28 64 47 65 48 66 52 67
REMARK SMILES IDX 49 68 51 69 50 70 37 71 38 72 42 73 39 74 41 75 40 76
REMARK H PARENT 72 21 72 22 57 44 35 55
REMARK Flexibility Score: inf
ROOT
ATOM      1  C   UNL A   1      34.087  34.258  29.721  1.00  0.00     0.275 C 
ENDROOT
BRANCH   1   2
ATOM      2  O   UNL A   1      33.657  33.031  29.099  1.00  0.00    -0.458 OA
BRANCH   2   3
ATOM      3  C   UNL A   1      34.388  32.616  28.034  1.00  0.00     0.338 C 
ATOM      4  O   UNL A   1      35.308  33.221  27.505  1.00  0.00    -0.246 OA
BRANCH   3   5
ATOM      5  C   UNL A   1      34.003  31.237  27.642  1.00  0.00     0.060 A 
ATOM      6  C   UNL A   1      33.219  28.706  26.693  1.00  0.00    -0.029 A 
ATOM      7  C   UNL A   1      32.295  29.759  26.756  1.00  0.00     0.006 A 
ATOM      8  C   UNL A   1      34.517  28.918  27.187  1.00  0.00     0.006 A 
ATOM      9  C   UNL A   1      32.680  31.008  27.243  1.00  0.00     0.016 A 
ATOM     10  C   UNL A   1      34.915  30.180  27.640  1.00  0.00     0.016 A 
BRANCH   6  11
ATOM     11  C   UNL A   1      32.797  27.383  26.081  1.00  0.00     0.151 C 
BRANCH  11  12
ATOM     12  N   UNL A   1      32.479  27.470  24.654  1.00  0.00    -0.369 N 
ATOM     13  C   UNL A   1      33.571  27.405  23.696  1.00  0.00     0.144 C 
BRANCH  12  14
ATOM     14  C   UNL A   1      31.153  27.470  24.216  1.00  0.00     0.060 A 
ATOM     15  C   UNL A   1      30.328  26.359  24.480  1.00  0.00     0.028 A 
ATOM     16  C   UNL A   1      30.560  28.555  23.518  1.00  0.00     0.055 A 
ATOM     17  C   UNL A   1      28.976  26.325  24.125  1.00  0.00     0.002 A 
ATOM     18  C   UNL A   1      29.186  28.535  23.217  1.00  0.00     0.027 A 
ATOM     19  C   UNL A   1      28.401  27.421  23.502  1.00  0.00     0.002 A 
BRANCH  16  20
ATOM     20  N   UNL A   1      31.286  29.703  23.176  1.00  0.00    -0.397 N 
ATOM     21  H   UNL A   1      31.052  30.571  23.576  1.00  0.00     0.156 HD
ATOM     22  H   UNL A   1      32.030  29.640  22.534  1.00  0.00     0.156 HD
ENDBRANCH  16  20
ENDBRANCH  12  14
ENDBRANCH  11  12
ENDBRANCH   6  11
ENDBRANCH   3   5
ENDBRANCH   2   3
ENDBRANCH   1   2
BRANCH   1  23
ATOM     23  C   UNL A   1      34.410  34.043  31.199  1.00  0.00     0.275 C 
BRANCH  23  24
ATOM     24  O   UNL A   1      34.552  32.637  31.470  1.00  0.00    -0.458 OA
BRANCH  24  25
ATOM     25  C   UNL A   1      35.511  32.305  32.363  1.00  0.00     0.338 C 
ATOM     26  O   UNL A   1      35.540  32.548  33.557  1.00  0.00    -0.246 OA
BRANCH  25  27
ATOM     27  C   UNL A   1      36.579  31.558  31.681  1.00  0.00     0.060 A 
ATOM     28  C   UNL A   1      37.451  30.778  32.435  1.00  0.00     0.016 A 
ATOM     29  C   UNL A   1      36.802  31.746  30.318  1.00  0.00     0.016 A 
ATOM     30  C   UNL A   1      38.595  30.240  31.847  1.00  0.00     0.010 A 
ATOM     31  C   UNL A   1      37.910  31.142  29.713  1.00  0.00     0.010 A 
ATOM     32  C   UNL A   1      38.843  30.415  30.478  1.00  0.00    -0.014 A 
BRANCH  32  33
ATOM     33  C   UNL A   1      40.100  29.905  29.858  1.00  0.00     0.031 A 
ATOM     34  C   UNL A   1      41.302  30.808  29.737  1.00  0.00     0.074 A 
ATOM     35  C   UNL A   1      40.189  28.635  29.415  1.00  0.00     0.049 A 
ATOM     36  N   UNL A   1      42.420  30.619  29.080  1.00  0.00    -0.248 NA
ATOM     37  C   UNL A   1      41.232  32.100  30.439  1.00  0.00     0.031 C 
ATOM     38  C   UNL A   1      39.137  27.623  29.512  1.00  0.00     0.029 A 
ATOM     39  N   UNL A   1      41.227  27.976  28.799  1.00  0.00    -0.354 N 
ATOM     40  C   UNL A   1      43.155  31.788  29.236  1.00  0.00     0.074 A 
ATOM     41  C   UNL A   1      42.359  32.681  30.050  1.00  0.00     0.031 C 
ATOM     42  C   UNL A   1      39.595  26.464  29.013  1.00  0.00     0.029 A 
ATOM     43  C   UNL A   1      40.938  26.671  28.482  1.00  0.00     0.049 A 
ATOM     44  H   UNL A   1      42.093  28.400  28.603  1.00  0.00     0.167 HD
ATOM     45  C   UNL A   1      44.379  32.095  28.743  1.00  0.00     0.031 A 
ATOM     46  C   UNL A   1      41.652  25.750  27.807  1.00  0.00     0.031 A 
ATOM     47  C   UNL A   1      45.198  31.195  27.976  1.00  0.00     0.049 A 
ATOM     48  C   UNL A   1      42.994  26.121  27.242  1.00  0.00     0.074 A 
ATOM     49  C   UNL A   1      46.458  31.415  27.443  1.00  0.00     0.029 A 
ATOM     50  N   UNL A   1      44.849  29.894  27.649  1.00  0.00    -0.354 N 
ATOM     51  N   UNL A   1      43.646  27.254  27.340  1.00  0.00    -0.248 NA
ATOM     52  C   UNL A   1      43.689  25.092  26.456  1.00  0.00     0.031 C 
ATOM     53  C   UNL A   1      46.855  30.257  26.763  1.00  0.00     0.029 A 
ATOM     54  C   UNL A   1      45.862  29.303  26.914  1.00  0.00     0.049 A 
ATOM     55  H   UNL A   1      44.005  29.456  27.904  1.00  0.00     0.167 HD
ATOM     56  C   UNL A   1      44.830  27.070  26.637  1.00  0.00     0.074 A 
ATOM     57  C   UNL A   1      44.816  25.711  26.136  1.00  0.00     0.031 C 
ATOM     58  C   UNL A   1      45.835  27.952  26.420  1.00  0.00     0.031 A 
BRANCH  45  59
ATOM     59  C   UNL A   1      44.892  33.488  28.982  1.00  0.00    -0.014 A 
ATOM     60  C   UNL A   1      44.688  34.521  28.056  1.00  0.00     0.009 A 
ATOM     61  C   UNL A   1      45.566  33.775  30.182  1.00  0.00     0.009 A 
ATOM     62  C   UNL A   1      45.179  35.804  28.309  1.00  0.00     0.001 A 
ATOM     63  C   UNL A   1      46.032  35.064  30.443  1.00  0.00     0.001 A 
ATOM     64  C   UNL A   1      45.846  36.075  29.503  1.00  0.00     0.000 A 
ENDBRANCH  45  59
BRANCH  46  65
ATOM     65  C   UNL A   1      41.087  24.395  27.581  1.00  0.00    -0.014 A 
ATOM     66  C   UNL A   1      40.002  24.209  26.713  1.00  0.00     0.009 A 
ATOM     67  C   UNL A   1      41.637  23.277  28.230  1.00  0.00     0.009 A 
ATOM     68  C   UNL A   1      39.471  22.933  26.509  1.00  0.00     0.001 A 
ATOM     69  C   UNL A   1      41.124  22.000  28.002  1.00  0.00     0.001 A 
ATOM     70  C   UNL A   1      40.037  21.830  27.147  1.00  0.00     0.000 A 
ENDBRANCH  46  65
BRANCH  58  71
ATOM     71  C   UNL A   1      47.016  27.463  25.632  1.00  0.00    -0.014 A 
ATOM     72  C   UNL A   1      47.089  27.649  24.243  1.00  0.00     0.009 A 
ATOM     73  C   UNL A   1      48.082  26.834  26.294  1.00  0.00     0.009 A 
ATOM     74  C   UNL A   1      48.194  27.185  23.527  1.00  0.00     0.001 A 
ATOM     75  C   UNL A   1      49.196  26.393  25.579  1.00  0.00     0.001 A 
ATOM     76  C   UNL A   1      49.247  26.561  24.196  1.00  0.00     0.000 A 
ENDBRANCH  58  71
ENDBRANCH  32  33
ENDBRANCH  25  27
ENDBRANCH  24  25
ENDBRANCH  23  24
ENDBRANCH   1  23
TORSDOF 15
ENDMDL
MODEL 3
REMARK VINA RESULT:     -10.8      4.775      9.457
REMARK SMILES CN(Cc1ccc(C(=O)OCCOC(=O)c2ccc(-c3c4nc(c(-c5ccccc5)c5ccc([nH]5)c(-c5ccccc5)c5nc(c(-c6ccccc6)c6ccc3[nH]6)C=C5)C=C4)cc2)cc1)c1ccccc1N
REMARK SMILES IDX 11 1 10 2 8 3 9 4 7 5 4 6 5 7 65 8 6 9 64 10 3 11 2 12 1 13
REMARK SMILES IDX 66 14 67 15 71 16 68 17 70 18 69 19 72 20 12 23 13 24 14 25
REMARK SMILES IDX 15 26 16 27 17 28 63 29 18 30 62 31 19 32 20 33 21 34 56 35
REMARK SMILES IDX 22 36 61 37 55 38 57 39 23 40 60 41 54 42 53 43 24 45 46 46
REMARK SMILES IDX 31 47 45 48 32 49 35 50 44 51 58 52 33 53 34 54 43 56 59 57
REMARK SMILES IDX 36 58 25 59 26 60 30 61 27 62 29 63 28 64 47 65 48 66 52 67
REMARK SMILES IDX 49 68 51 69 50 70 37 71 38 72 42 73 39 74 41 75 40 76
REMARK H PARENT 72 21 72 22 57 44 35 55
REMARK Flexibility Score: inf
ROOT
ATOM      1  C   UNL A   1      34.043  35.196  28.902  1.00  0.00     0.275 C 
ENDROOT
BRANCH   1   2
ATOM      2  O   UNL A   1      33.693  33.830  28.604  1.00  0.00    -0.458 OA
BRANCH   2   3
ATOM      3  C   UNL A   1      34.691  33.055  28.111  1.00  0.00     0.338 C 
ATOM      4  O   UNL A   1      35.881  33.330  28.088  1.00  0.00    -0.246 OA
BRANCH   3   5
ATOM      5  C   UNL A   1      34.164  31.732  27.691  1.00  0.00     0.060 A 
ATOM      6  C   UNL A   1      33.219  29.146  27.103  1.00  0.00    -0.029 A 
ATOM      7  C   UNL A   1      34.566  29.352  27.437  1.00  0.00     0.006 A 
ATOM      8  C   UNL A   1      32.374  30.263  26.991  1.00  0.00     0.006 A 
ATOM      9  C   UNL A   1      35.036  30.636  27.710  1.00  0.00     0.016 A 
ATOM     10  C   UNL A   1      32.836  31.546  27.303  1.00  0.00     0.016 A 
BRANCH   6  11
ATOM     11  C   UNL A   1      32.713  27.731  26.893  1.00  0.00     0.151 C 
BRANCH  11  12
ATOM     12  N   UNL A   1      32.854  27.256  25.515  1.00  0.00    -0.369 N 
ATOM     13  C   UNL A   1      33.891  26.280  25.221  1.00  0.00     0.144 C 
BRANCH  12  14
ATOM     14  C   UNL A   1      31.925  27.617  24.536  1.00  0.00     0.060 A 
ATOM     15  C   UNL A   1      30.692  26.941  24.455  1.00  0.00     0.028 A 
ATOM     16  C   UNL A   1      32.142  28.665  23.602  1.00  0.00     0.055 A 
ATOM     17  C   UNL A   1      29.697  27.298  23.540  1.00  0.00     0.002 A 
ATOM     18  C   UNL A   1      31.113  29.054  22.726  1.00  0.00     0.027 A 
ATOM     19  C   UNL A   1      29.903  28.366  22.682  1.00  0.00     0.002 A 
BRANCH  16  20
ATOM     20  N   UNL A   1      33.338  29.393  23.567  1.00  0.00    -0.397 N 
ATOM     21  H   UNL A   1      33.479  30.075  22.872  1.00  0.00     0.156 HD
ATOM     22  H   UNL A   1      34.037  29.220  24.238  1.00  0.00     0.156 HD
ENDBRANCH  16  20
ENDBRANCH  12  14
ENDBRANCH  11  12
ENDBRANCH   6  11
ENDBRANCH   3   5
ENDBRANCH   2   3
ENDBRANCH   1   2
BRANCH   1  23
ATOM     23  C   UNL A   1      32.875  35.936  29.551  1.00  0.00     0.275 C 
BRANCH  23  24
ATOM     24  O   UNL A   1      32.391  35.193  30.683  1.00  0.00    -0.458 OA
BRANCH  24  25
ATOM     25  C   UNL A   1      32.670  35.720  31.896  1.00  0.00     0.338 C 
ATOM     26  O   UNL A   1      32.099  36.632  32.467  1.00  0.00    -0.246 OA
BRANCH  25  27
ATOM     27  C   UNL A   1      33.815  35.009  32.488  1.00  0.00     0.060 A 
ATOM     28  C   UNL A   1      35.065  35.622  32.495  1.00  0.00     0.016 A 
ATOM     29  C   UNL A   1      33.678  33.685  32.901  1.00  0.00     0.016 A 
ATOM     30  C   UNL A   1      36.200  34.893  32.846  1.00  0.00     0.010 A 
ATOM     31  C   UNL A   1      34.807  32.977  33.326  1.00  0.00     0.010 A 
ATOM     32  C   UNL A   1      36.088  33.559  33.266  1.00  0.00    -0.014 A 
BRANCH  32  33
ATOM     33  C   UNL A   1      37.304  32.751  33.572  1.00  0.00     0.031 A 
ATOM     34  C   UNL A   1      38.012  32.923  34.893  1.00  0.00     0.074 A 
ATOM     35  C   UNL A   1      37.778  31.849  32.690  1.00  0.00     0.049 A 
ATOM     36  N   UNL A   1      39.172  32.453  35.281  1.00  0.00    -0.248 NA
ATOM     37  C   UNL A   1      37.330  33.743  35.907  1.00  0.00     0.031 C 
ATOM     38  C   UNL A   1      37.175  31.524  31.397  1.00  0.00     0.029 A 
ATOM     39  N   UNL A   1      38.879  31.029  32.756  1.00  0.00    -0.354 N 
ATOM     40  C   UNL A   1      39.386  32.970  36.553  1.00  0.00     0.074 A 
ATOM     41  C   UNL A   1      38.237  33.789  36.873  1.00  0.00     0.031 C 
ATOM     42  C   UNL A   1      37.888  30.549  30.811  1.00  0.00     0.029 A 
ATOM     43  C   UNL A   1      39.045  30.239  31.644  1.00  0.00     0.049 A 
ATOM     44  H   UNL A   1      39.491  31.009  33.527  1.00  0.00     0.167 HD
ATOM     45  C   UNL A   1      40.444  32.786  37.379  1.00  0.00     0.031 A 
ATOM     46  C   UNL A   1      40.034  29.390  31.307  1.00  0.00     0.031 A 
ATOM     47  C   UNL A   1      41.566  31.933  37.088  1.00  0.00     0.049 A 
ATOM     48  C   UNL A   1      41.213  29.224  32.223  1.00  0.00     0.074 A 
ATOM     49  C   UNL A   1      42.681  31.676  37.870  1.00  0.00     0.029 A 
ATOM     50  N   UNL A   1      41.708  31.181  35.933  1.00  0.00    -0.354 N 
ATOM     51  N   UNL A   1      41.433  29.773  33.392  1.00  0.00    -0.248 NA
ATOM     52  C   UNL A   1      42.290  28.336  31.762  1.00  0.00     0.031 C 
ATOM     53  C   UNL A   1      43.513  30.795  37.171  1.00  0.00     0.029 A 
ATOM     54  C   UNL A   1      42.895  30.469  35.976  1.00  0.00     0.049 A 
ATOM     55  H   UNL A   1      41.060  31.157  35.193  1.00  0.00     0.167 HD
ATOM     56  C   UNL A   1      42.667  29.291  33.810  1.00  0.00     0.074 A 
ATOM     57  C   UNL A   1      43.137  28.388  32.779  1.00  0.00     0.031 C 
ATOM     58  C   UNL A   1      43.352  29.576  34.943  1.00  0.00     0.031 A 
BRANCH  45  59
ATOM     59  C   UNL A   1      40.460  33.561  38.667  1.00  0.00    -0.014 A 
ATOM     60  C   UNL A   1      39.868  33.063  39.837  1.00  0.00     0.009 A 
ATOM     61  C   UNL A   1      41.115  34.804  38.713  1.00  0.00     0.009 A 
ATOM     62  C   UNL A   1      39.900  33.809  41.017  1.00  0.00     0.001 A 
ATOM     63  C   UNL A   1      41.168  35.535  39.901  1.00  0.00     0.001 A 
ATOM     64  C   UNL A   1      40.553  35.041  41.050  1.00  0.00     0.000 A 
ENDBRANCH  45  59
BRANCH  46  65
ATOM     65  C   UNL A   1      39.978  28.665  30.011  1.00  0.00    -0.014 A 
ATOM     66  C   UNL A   1      39.448  27.368  29.940  1.00  0.00     0.009 A 
ATOM     67  C   UNL A   1      40.449  29.271  28.835  1.00  0.00     0.009 A 
ATOM     68  C   UNL A   1      39.403  26.689  28.721  1.00  0.00     0.001 A 
ATOM     69  C   UNL A   1      40.375  28.602  27.613  1.00  0.00     0.001 A 
ATOM     70  C   UNL A   1      39.859  27.309  27.558  1.00  0.00     0.000 A 
ENDBRANCH  46  65
BRANCH  58  71
ATOM     71  C   UNL A   1      44.668  28.882  35.141  1.00  0.00    -0.014 A 
ATOM     72  C   UNL A   1      44.742  27.638  35.787  1.00  0.00     0.009 A 
ATOM     73  C   UNL A   1      45.844  29.467  34.648  1.00  0.00     0.009 A 
ATOM     74  C   UNL A   1      45.976  27.009  35.964  1.00  0.00     0.001 A 
ATOM     75  C   UNL A   1      47.073  28.824  34.805  1.00  0.00     0.001 A 
ATOM     76  C   UNL A   1      47.139  27.600  35.469  1.00  0.00     0.000 A 
ENDBRANCH  58  71
ENDBRANCH  32  33
ENDBRANCH  25  27
ENDBRANCH  24  25
ENDBRANCH  23  24
ENDBRANCH   1  23
TORSDOF 15
ENDMDL
