MODEL 1
REMARK VINA RESULT:     -10.0      0.000      0.000
REMARK SMILES O=C(OCCOC(=O)c1cc(-c2ccoc2)n[nH]1)c1ccc(-c2c3nc(c(-c4ccccc4)c4ccc([nH]4)c(-c4ccccc4)c4nc(c(-c5ccccc5)c5ccc2[nH]5)C=C4)C=C3)cc1
REMARK SMILES IDX 4 1 3 2 2 3 1 4 19 5 20 6 66 7 21 8 65 9 22 10 23 11 24 12
REMARK SMILES IDX 59 13 25 14 64 15 58 16 60 17 26 18 63 19 57 20 56 21 27 23
REMARK SMILES IDX 49 24 34 25 48 26 35 27 38 28 47 29 61 30 36 31 37 32 46 34
REMARK SMILES IDX 62 35 39 36 28 37 29 38 33 39 30 40 32 41 31 42 50 43 51 44
REMARK SMILES IDX 55 45 52 46 54 47 53 48 40 49 41 50 45 51 42 52 44 53 43 54
REMARK SMILES IDX 5 55 6 56 7 57 8 58 9 59 10 60 18 61 11 62 17 63 12 65 13 66
REMARK SMILES IDX 16 67 14 68 15 69
REMARK H PARENT 60 22 38 33 18 64
REMARK Flexibility Score: inf
ROOT
ATOM      1  C   UNL A   1      33.137  36.514  29.477  1.00  0.00     0.275 C 
ENDROOT
BRANCH   1   2
ATOM      2  O   UNL A   1      32.522  35.379  28.836  1.00  0.00    -0.458 OA
BRANCH   2   3
ATOM      3  C   UNL A   1      33.048  34.239  28.336  1.00  0.00     0.338 C 
ATOM      4  O   UNL A   1      32.340  33.529  27.622  1.00  0.00    -0.246 OA
BRANCH   3   5
ATOM      5  C   UNL A   1      34.397  33.705  28.702  1.00  0.00     0.060 A 
ATOM      6  C   UNL A   1      35.556  33.798  27.930  1.00  0.00     0.016 A 
ATOM      7  C   UNL A   1      34.481  33.025  29.933  1.00  0.00     0.016 A 
ATOM      8  C   UNL A   1      36.773  33.284  28.391  1.00  0.00     0.010 A 
ATOM      9  C   UNL A   1      35.693  32.511  30.402  1.00  0.00     0.010 A 
ATOM     10  C   UNL A   1      36.848  32.634  29.626  1.00  0.00    -0.014 A 
BRANCH  10  11
ATOM     11  C   UNL A   1      38.105  31.975  30.031  1.00  0.00     0.031 A 
ATOM     12  C   UNL A   1      39.014  32.680  30.990  1.00  0.00     0.074 A 
ATOM     13  C   UNL A   1      38.409  30.745  29.582  1.00  0.00     0.049 A 
ATOM     14  N   UNL A   1      40.124  32.257  31.536  1.00  0.00    -0.248 NA
ATOM     15  C   UNL A   1      38.607  34.031  31.409  1.00  0.00     0.031 C 
ATOM     16  C   UNL A   1      37.579  29.942  28.688  1.00  0.00     0.029 A 
ATOM     17  N   UNL A   1      39.512  29.964  29.806  1.00  0.00    -0.354 N 
ATOM     18  C   UNL A   1      40.523  33.269  32.396  1.00  0.00     0.074 A 
ATOM     19  C   UNL A   1      39.578  34.355  32.250  1.00  0.00     0.031 C 
ATOM     20  C   UNL A   1      38.225  28.801  28.393  1.00  0.00     0.029 A 
ATOM     21  C   UNL A   1      39.506  28.793  29.090  1.00  0.00     0.049 A 
ATOM     22  H   UNL A   1      40.237  30.217  30.422  1.00  0.00     0.167 HD
ATOM     23  C   UNL A   1      41.567  33.281  33.258  1.00  0.00     0.031 A 
ATOM     24  C   UNL A   1      40.439  27.827  29.003  1.00  0.00     0.031 A 
ATOM     25  C   UNL A   1      42.536  32.228  33.358  1.00  0.00     0.049 A 
ATOM     26  C   UNL A   1      41.678  27.935  29.841  1.00  0.00     0.074 A 
ATOM     27  C   UNL A   1      43.630  32.131  34.198  1.00  0.00     0.029 A 
ATOM     28  N   UNL A   1      42.539  31.091  32.561  1.00  0.00    -0.354 N 
ATOM     29  N   UNL A   1      42.013  28.868  30.700  1.00  0.00    -0.248 NA
ATOM     30  C   UNL A   1      42.652  26.842  29.723  1.00  0.00     0.031 C 
ATOM     31  C   UNL A   1      44.321  30.955  33.877  1.00  0.00     0.029 A 
ATOM     32  C   UNL A   1      43.632  30.300  32.869  1.00  0.00     0.049 A 
ATOM     33  H   UNL A   1      41.863  30.879  31.878  1.00  0.00     0.167 HD
ATOM     34  C   UNL A   1      43.212  28.453  31.260  1.00  0.00     0.074 A 
ATOM     35  C   UNL A   1      43.552  27.191  30.632  1.00  0.00     0.031 C 
ATOM     36  C   UNL A   1      43.951  29.051  32.227  1.00  0.00     0.031 A 
BRANCH  23  37
ATOM     37  C   UNL A   1      41.692  34.493  34.133  1.00  0.00    -0.014 A 
ATOM     38  C   UNL A   1      41.020  34.560  35.367  1.00  0.00     0.009 A 
ATOM     39  C   UNL A   1      42.441  35.598  33.705  1.00  0.00     0.009 A 
ATOM     40  C   UNL A   1      41.055  35.729  36.129  1.00  0.00     0.001 A 
ATOM     41  C   UNL A   1      42.492  36.758  34.481  1.00  0.00     0.001 A 
ATOM     42  C   UNL A   1      41.788  36.827  35.684  1.00  0.00     0.000 A 
ENDBRANCH  23  37
BRANCH  24  43
ATOM     43  C   UNL A   1      40.233  26.677  28.091  1.00  0.00    -0.014 A 
ATOM     44  C   UNL A   1      40.789  26.668  26.804  1.00  0.00     0.009 A 
ATOM     45  C   UNL A   1      39.473  25.576  28.513  1.00  0.00     0.009 A 
ATOM     46  C   UNL A   1      40.578  25.579  25.953  1.00  0.00     0.001 A 
ATOM     47  C   UNL A   1      39.279  24.482  27.668  1.00  0.00     0.001 A 
ATOM     48  C   UNL A   1      39.828  24.486  26.388  1.00  0.00     0.000 A 
ENDBRANCH  24  43
BRANCH  36  49
ATOM     49  C   UNL A   1      45.170  28.315  32.699  1.00  0.00    -0.014 A 
ATOM     50  C   UNL A   1      46.433  28.559  32.140  1.00  0.00     0.009 A 
ATOM     51  C   UNL A   1      45.049  27.385  33.744  1.00  0.00     0.009 A 
ATOM     52  C   UNL A   1      47.551  27.862  32.604  1.00  0.00     0.001 A 
ATOM     53  C   UNL A   1      46.172  26.710  34.221  1.00  0.00     0.001 A 
ATOM     54  C   UNL A   1      47.420  26.943  33.646  1.00  0.00     0.000 A 
ENDBRANCH  36  49
ENDBRANCH  10  11
ENDBRANCH   3   5
ENDBRANCH   2   3
ENDBRANCH   1   2
BRANCH   1  55
ATOM     55  C   UNL A   1      32.901  36.611  30.987  1.00  0.00     0.275 C 
BRANCH  55  56
ATOM     56  O   UNL A   1      34.095  36.841  31.749  1.00  0.00    -0.457 OA
BRANCH  56  57
ATOM     57  C   UNL A   1      33.966  36.602  33.086  1.00  0.00     0.356 C 
ATOM     58  O   UNL A   1      33.352  37.308  33.874  1.00  0.00    -0.244 OA
BRANCH  57  59
ATOM     59  C   UNL A   1      34.525  35.329  33.421  1.00  0.00     0.144 A 
ATOM     60  C   UNL A   1      35.808  34.899  33.699  1.00  0.00     0.066 A 
ATOM     61  N   UNL A   1      33.743  34.210  33.508  1.00  0.00    -0.271 N 
ATOM     62  C   UNL A   1      35.692  33.501  33.872  1.00  0.00     0.096 A 
ATOM     63  N   UNL A   1      34.436  33.077  33.706  1.00  0.00    -0.175 NA
ATOM     64  H   UNL A   1      32.762  34.233  33.434  1.00  0.00     0.190 HD
BRANCH  62  65
ATOM     65  C   UNL A   1      36.781  32.597  34.196  1.00  0.00     0.040 A 
ATOM     66  C   UNL A   1      37.026  31.346  33.580  1.00  0.00     0.052 A 
ATOM     67  C   UNL A   1      37.797  32.792  35.102  1.00  0.00     0.205 A 
ATOM     68  C   UNL A   1      38.195  30.877  34.136  1.00  0.00     0.195 A 
ATOM     69  O   UNL A   1      38.659  31.739  35.077  1.00  0.00    -0.472 OA
ENDBRANCH  62  65
ENDBRANCH  57  59
ENDBRANCH  56  57
ENDBRANCH  55  56
ENDBRANCH   1  55
TORSDOF 12
ENDMDL
MODEL 2
REMARK VINA RESULT:     -10.0      5.781     11.920
REMARK SMILES O=C(OCCOC(=O)c1cc(-c2ccoc2)n[nH]1)c1ccc(-c2c3nc(c(-c4ccccc4)c4ccc([nH]4)c(-c4ccccc4)c4nc(c(-c5ccccc5)c5ccc2[nH]5)C=C4)C=C3)cc1
REMARK SMILES IDX 4 1 3 2 2 3 1 4 19 5 20 6 66 7 21 8 65 9 22 10 23 11 24 12
REMARK SMILES IDX 59 13 25 14 64 15 58 16 60 17 26 18 63 19 57 20 56 21 27 23
REMARK SMILES IDX 49 24 34 25 48 26 35 27 38 28 47 29 61 30 36 31 37 32 46 34
REMARK SMILES IDX 62 35 39 36 28 37 29 38 33 39 30 40 32 41 31 42 50 43 51 44
REMARK SMILES IDX 55 45 52 46 54 47 53 48 40 49 41 50 45 51 42 52 44 53 43 54
REMARK SMILES IDX 5 55 6 56 7 57 8 58 9 59 10 60 18 61 11 62 17 63 12 65 13 66
REMARK SMILES IDX 16 67 14 68 15 69
REMARK H PARENT 60 22 38 33 18 64
REMARK Flexibility Score: inf
ROOT
ATOM      1  C   UNL A   1      43.127  18.250  26.194  1.00  0.00     0.275 C 
ENDROOT
BRANCH   1   2
ATOM      2  O   UNL A   1      41.920  18.743  25.582  1.00  0.00    -0.458 OA
BRANCH   2   3
ATOM      3  C   UNL A   1      41.010  19.651  26.000  1.00  0.00     0.338 C 
ATOM      4  O   UNL A   1      39.826  19.471  25.712  1.00  0.00    -0.246 OA
BRANCH   3   5
ATOM      5  C   UNL A   1      41.358  20.939  26.678  1.00  0.00     0.060 A 
ATOM      6  C   UNL A   1      41.224  21.215  28.039  1.00  0.00     0.016 A 
ATOM      7  C   UNL A   1      41.839  21.967  25.844  1.00  0.00     0.016 A 
ATOM      8  C   UNL A   1      41.611  22.452  28.565  1.00  0.00     0.010 A 
ATOM      9  C   UNL A   1      42.231  23.204  26.362  1.00  0.00     0.010 A 
ATOM     10  C   UNL A   1      42.111  23.454  27.731  1.00  0.00    -0.014 A 
BRANCH  10  11
ATOM     11  C   UNL A   1      42.381  24.798  28.280  1.00  0.00     0.031 A 
ATOM     12  C   UNL A   1      43.756  25.110  28.783  1.00  0.00     0.074 A 
ATOM     13  C   UNL A   1      41.421  25.738  28.290  1.00  0.00     0.049 A 
ATOM     14  N   UNL A   1      44.232  26.242  29.234  1.00  0.00    -0.248 NA
ATOM     15  C   UNL A   1      44.734  24.010  28.752  1.00  0.00     0.031 C 
ATOM     16  C   UNL A   1      40.062  25.566  27.781  1.00  0.00     0.029 A 
ATOM     17  N   UNL A   1      41.440  27.024  28.762  1.00  0.00    -0.354 N 
ATOM     18  C   UNL A   1      45.572  26.002  29.495  1.00  0.00     0.074 A 
ATOM     19  C   UNL A   1      45.820  24.604  29.221  1.00  0.00     0.031 C 
ATOM     20  C   UNL A   1      39.358  26.685  28.018  1.00  0.00     0.029 A 
ATOM     21  C   UNL A   1      40.223  27.654  28.682  1.00  0.00     0.049 A 
ATOM     22  H   UNL A   1      42.249  27.455  29.123  1.00  0.00     0.167 HD
ATOM     23  C   UNL A   1      46.522  26.879  29.897  1.00  0.00     0.031 A 
ATOM     24  C   UNL A   1      39.851  28.875  29.105  1.00  0.00     0.031 A 
ATOM     25  C   UNL A   1      46.261  28.251  30.226  1.00  0.00     0.049 A 
ATOM     26  C   UNL A   1      40.883  29.782  29.708  1.00  0.00     0.074 A 
ATOM     27  C   UNL A   1      47.146  29.229  30.638  1.00  0.00     0.029 A 
ATOM     28  N   UNL A   1      45.000  28.832  30.203  1.00  0.00    -0.354 N 
ATOM     29  N   UNL A   1      42.163  29.565  29.891  1.00  0.00    -0.248 NA
ATOM     30  C   UNL A   1      40.426  31.112  30.132  1.00  0.00     0.031 C 
ATOM     31  C   UNL A   1      46.413  30.392  30.910  1.00  0.00     0.029 A 
ATOM     32  C   UNL A   1      45.078  30.149  30.623  1.00  0.00     0.049 A 
ATOM     33  H   UNL A   1      44.172  28.375  29.930  1.00  0.00     0.167 HD
ATOM     34  C   UNL A   1      42.676  30.746  30.408  1.00  0.00     0.074 A 
ATOM     35  C   UNL A   1      41.565  31.670  30.522  1.00  0.00     0.031 C 
ATOM     36  C   UNL A   1      43.958  31.047  30.733  1.00  0.00     0.031 A 
BRANCH  23  37
ATOM     37  C   UNL A   1      47.918  26.340  30.010  1.00  0.00    -0.014 A 
ATOM     38  C   UNL A   1      48.757  26.280  28.883  1.00  0.00     0.009 A 
ATOM     39  C   UNL A   1      48.385  25.840  31.233  1.00  0.00     0.009 A 
ATOM     40  C   UNL A   1      50.016  25.683  28.969  1.00  0.00     0.001 A 
ATOM     41  C   UNL A   1      49.654  25.263  31.320  1.00  0.00     0.001 A 
ATOM     42  C   UNL A   1      50.461  25.173  30.186  1.00  0.00     0.000 A 
ENDBRANCH  23  37
BRANCH  24  43
ATOM     43  C   UNL A   1      38.440  29.309  28.970  1.00  0.00    -0.014 A 
ATOM     44  C   UNL A   1      37.958  29.832  27.762  1.00  0.00     0.009 A 
ATOM     45  C   UNL A   1      37.567  29.198  30.062  1.00  0.00     0.009 A 
ATOM     46  C   UNL A   1      36.626  30.245  27.655  1.00  0.00     0.001 A 
ATOM     47  C   UNL A   1      36.232  29.594  29.947  1.00  0.00     0.001 A 
ATOM     48  C   UNL A   1      35.765  30.120  28.745  1.00  0.00     0.000 A 
ENDBRANCH  24  43
BRANCH  36  49
ATOM     49  C   UNL A   1      44.229  32.449  31.191  1.00  0.00    -0.014 A 
ATOM     50  C   UNL A   1      44.519  33.472  30.278  1.00  0.00     0.009 A 
ATOM     51  C   UNL A   1      44.160  32.749  32.560  1.00  0.00     0.009 A 
ATOM     52  C   UNL A   1      44.761  34.770  30.734  1.00  0.00     0.001 A 
ATOM     53  C   UNL A   1      44.379  34.050  33.010  1.00  0.00     0.001 A 
ATOM     54  C   UNL A   1      44.686  35.058  32.097  1.00  0.00     0.000 A 
ENDBRANCH  36  49
ENDBRANCH  10  11
ENDBRANCH   3   5
ENDBRANCH   2   3
ENDBRANCH   1   2
BRANCH   1  55
ATOM     55  C   UNL A   1      44.416  18.555  25.423  1.00  0.00     0.275 C 
BRANCH  55  56
ATOM     56  O   UNL A   1      44.602  19.946  25.126  1.00  0.00    -0.457 OA
BRANCH  56  57
ATOM     57  C   UNL A   1      45.900  20.310  24.920  1.00  0.00     0.356 C 
ATOM     58  O   UNL A   1      46.826  19.538  24.713  1.00  0.00    -0.244 OA
BRANCH  57  59
ATOM     59  C   UNL A   1      46.010  21.733  24.834  1.00  0.00     0.144 A 
ATOM     60  C   UNL A   1      45.498  22.773  25.587  1.00  0.00     0.066 A 
ATOM     61  N   UNL A   1      46.734  22.330  23.839  1.00  0.00    -0.271 N 
ATOM     62  C   UNL A   1      45.921  23.945  24.919  1.00  0.00     0.096 A 
ATOM     63  N   UNL A   1      46.635  23.670  23.824  1.00  0.00    -0.175 NA
ATOM     64  H   UNL A   1      47.280  21.826  23.194  1.00  0.00     0.190 HD
BRANCH  62  65
ATOM     65  C   UNL A   1      45.637  25.305  25.340  1.00  0.00     0.040 A 
ATOM     66  C   UNL A   1      44.375  25.943  25.276  1.00  0.00     0.052 A 
ATOM     67  C   UNL A   1      46.501  26.205  25.920  1.00  0.00     0.205 A 
ATOM     68  C   UNL A   1      44.552  27.182  25.850  1.00  0.00     0.195 A 
ATOM     69  O   UNL A   1      45.845  27.357  26.225  1.00  0.00    -0.472 OA
ENDBRANCH  62  65
ENDBRANCH  57  59
ENDBRANCH  56  57
ENDBRANCH  55  56
ENDBRANCH   1  55
TORSDOF 12
ENDMDL
MODEL 3
REMARK VINA RESULT:     -10.0      0.493      6.339
REMARK SMILES O=C(OCCOC(=O)c1cc(-c2ccoc2)n[nH]1)c1ccc(-c2c3nc(c(-c4ccccc4)c4ccc([nH]4)c(-c4ccccc4)c4nc(c(-c5ccccc5)c5ccc2[nH]5)C=C4)C=C3)cc1
REMARK SMILES IDX 4 1 3 2 2 3 1 4 19 5 20 6 66 7 21 8 65 9 22 10 23 11 24 12
REMARK SMILES IDX 59 13 25 14 64 15 58 16 60 17 26 18 63 19 57 20 56 21 27 23
REMARK SMILES IDX 49 24 34 25 48 26 35 27 38 28 47 29 61 30 36 31 37 32 46 34
REMARK SMILES IDX 62 35 39 36 28 37 29 38 33 39 30 40 32 41 31 42 50 43 51 44
REMARK SMILES IDX 55 45 52 46 54 47 53 48 40 49 41 50 45 51 42 52 44 53 43 54
REMARK SMILES IDX 5 55 6 56 7 57 8 58 9 59 10 60 18 61 11 62 17 63 12 65 13 66
REMARK SMILES IDX 16 67 14 68 15 69
REMARK H PARENT 60 22 38 33 18 64
REMARK Flexibility Score: inf
ROOT
ATOM      1  C   UNL A   1      33.321  36.701  29.000  1.00  0.00     0.275 C 
ENDROOT
BRANCH   1   2
ATOM      2  O   UNL A   1      32.630  35.462  28.747  1.00  0.00    -0.458 OA
BRANCH   2   3
ATOM      3  C   UNL A   1      33.081  34.251  28.350  1.00  0.00     0.338 C 
ATOM      4  O   UNL A   1      32.372  33.578  27.601  1.00  0.00    -0.246 OA
BRANCH   3   5
ATOM      5  C   UNL A   1      34.329  33.608  28.868  1.00  0.00     0.060 A 
ATOM      6  C   UNL A   1      34.453  32.892  30.060  1.00  0.00     0.016 A 
ATOM      7  C   UNL A   1      35.484  33.773  28.079  1.00  0.00     0.016 A 
ATOM      8  C   UNL A   1      35.669  32.309  30.427  1.00  0.00     0.010 A 
ATOM      9  C   UNL A   1      36.703  33.191  28.437  1.00  0.00     0.010 A 
ATOM     10  C   UNL A   1      36.801  32.458  29.622  1.00  0.00    -0.014 A 
BRANCH  10  11
ATOM     11  C   UNL A   1      38.107  31.958  30.094  1.00  0.00     0.031 A 
ATOM     12  C   UNL A   1      38.567  30.604  29.649  1.00  0.00     0.074 A 
ATOM     13  C   UNL A   1      38.891  32.720  30.877  1.00  0.00     0.049 A 
ATOM     14  N   UNL A   1      39.705  30.002  29.879  1.00  0.00    -0.248 NA
ATOM     15  C   UNL A   1      37.631  29.834  28.812  1.00  0.00     0.031 C 
ATOM     16  C   UNL A   1      38.573  34.071  31.331  1.00  0.00     0.029 A 
ATOM     17  N   UNL A   1      40.111  32.456  31.440  1.00  0.00    -0.354 N 
ATOM     18  C   UNL A   1      39.639  28.807  29.179  1.00  0.00     0.074 A 
ATOM     19  C   UNL A   1      38.328  28.734  28.574  1.00  0.00     0.031 C 
ATOM     20  C   UNL A   1      39.547  34.501  32.151  1.00  0.00     0.029 A 
ATOM     21  C   UNL A   1      40.560  33.458  32.265  1.00  0.00     0.049 A 
ATOM     22  H   UNL A   1      40.617  31.629  31.270  1.00  0.00     0.167 HD
ATOM     23  C   UNL A   1      40.601  27.866  29.026  1.00  0.00     0.031 A 
ATOM     24  C   UNL A   1      41.664  33.519  33.030  1.00  0.00     0.031 A 
ATOM     25  C   UNL A   1      41.879  27.912  29.676  1.00  0.00     0.049 A 
ATOM     26  C   UNL A   1      42.647  32.386  32.982  1.00  0.00     0.074 A 
ATOM     27  C   UNL A   1      42.930  27.019  29.590  1.00  0.00     0.029 A 
ATOM     28  N   UNL A   1      42.268  28.907  30.564  1.00  0.00    -0.354 N 
ATOM     29  N   UNL A   1      42.603  31.289  32.265  1.00  0.00    -0.248 NA
ATOM     30  C   UNL A   1      43.845  32.516  33.821  1.00  0.00     0.031 C 
ATOM     31  C   UNL A   1      43.939  27.449  30.462  1.00  0.00     0.029 A 
ATOM     32  C   UNL A   1      43.533  28.634  31.056  1.00  0.00     0.049 A 
ATOM     33  H   UNL A   1      41.724  29.690  30.808  1.00  0.00     0.167 HD
ATOM     34  C   UNL A   1      43.788  30.618  32.529  1.00  0.00     0.074 A 
ATOM     35  C   UNL A   1      44.522  31.426  33.484  1.00  0.00     0.031 C 
ATOM     36  C   UNL A   1      44.240  29.451  32.008  1.00  0.00     0.031 A 
BRANCH  23  37
ATOM     37  C   UNL A   1      40.265  26.713  28.127  1.00  0.00    -0.014 A 
ATOM     38  C   UNL A   1      39.527  25.618  28.610  1.00  0.00     0.009 A 
ATOM     39  C   UNL A   1      40.729  26.690  26.805  1.00  0.00     0.009 A 
ATOM     40  C   UNL A   1      39.306  24.501  27.802  1.00  0.00     0.001 A 
ATOM     41  C   UNL A   1      40.487  25.581  25.992  1.00  0.00     0.001 A 
ATOM     42  C   UNL A   1      39.789  24.483  26.495  1.00  0.00     0.000 A 
ENDBRANCH  23  37
BRANCH  24  43
ATOM     43  C   UNL A   1      41.897  34.693  33.904  1.00  0.00    -0.014 A 
ATOM     44  C   UNL A   1      42.624  35.801  33.446  1.00  0.00     0.009 A 
ATOM     45  C   UNL A   1      41.385  34.706  35.210  1.00  0.00     0.009 A 
ATOM     46  C   UNL A   1      42.842  36.897  34.286  1.00  0.00     0.001 A 
ATOM     47  C   UNL A   1      41.589  35.810  36.041  1.00  0.00     0.001 A 
ATOM     48  C   UNL A   1      42.320  36.903  35.580  1.00  0.00     0.000 A 
ENDBRANCH  24  43
BRANCH  36  49
ATOM     49  C   UNL A   1      45.613  29.011  32.421  1.00  0.00    -0.014 A 
ATOM     50  C   UNL A   1      45.809  28.169  33.525  1.00  0.00     0.009 A 
ATOM     51  C   UNL A   1      46.722  29.426  31.669  1.00  0.00     0.009 A 
ATOM     52  C   UNL A   1      47.099  27.772  33.882  1.00  0.00     0.001 A 
ATOM     53  C   UNL A   1      48.007  29.008  32.014  1.00  0.00     0.001 A 
ATOM     54  C   UNL A   1      48.195  28.187  33.124  1.00  0.00     0.000 A 
ENDBRANCH  36  49
ENDBRANCH  10  11
ENDBRANCH   3   5
ENDBRANCH   2   3
ENDBRANCH   1   2
BRANCH   1  55
ATOM     55  C   UNL A   1      33.230  37.211  30.442  1.00  0.00     0.275 C 
BRANCH  55  56
ATOM     56  O   UNL A   1      33.144  36.169  31.424  1.00  0.00    -0.457 OA
BRANCH  56  57
ATOM     57  C   UNL A   1      33.749  36.461  32.611  1.00  0.00     0.356 C 
ATOM     58  O   UNL A   1      33.649  37.521  33.213  1.00  0.00    -0.244 OA
BRANCH  57  59
ATOM     59  C   UNL A   1      34.403  35.302  33.134  1.00  0.00     0.144 A 
ATOM     60  C   UNL A   1      35.714  35.022  33.470  1.00  0.00     0.066 A 
ATOM     61  N   UNL A   1      33.710  34.152  33.396  1.00  0.00    -0.271 N 
ATOM     62  C   UNL A   1      35.706  33.662  33.856  1.00  0.00     0.096 A 
ATOM     63  N   UNL A   1      34.488  33.121  33.762  1.00  0.00    -0.175 NA
ATOM     64  H   UNL A   1      32.731  34.086  33.323  1.00  0.00     0.190 HD
BRANCH  62  65
ATOM     65  C   UNL A   1      36.860  32.907  34.309  1.00  0.00     0.040 A 
ATOM     66  C   UNL A   1      37.235  31.619  33.855  1.00  0.00     0.052 A 
ATOM     67  C   UNL A   1      37.826  33.301  35.206  1.00  0.00     0.205 A 
ATOM     68  C   UNL A   1      38.422  31.329  34.488  1.00  0.00     0.195 A 
ATOM     69  O   UNL A   1      38.778  32.336  35.327  1.00  0.00    -0.472 OA
ENDBRANCH  62  65
ENDBRANCH  57  59
ENDBRANCH  56  57
ENDBRANCH  55  56
ENDBRANCH   1  55
TORSDOF 12
ENDMDL
