MODEL 1
REMARK VINA RESULT:     -11.0      0.000      0.000
REMARK SMILES CC[C@H](NC(=O)c1nn(C)cc1C(=O)OCCOC(=O)c1ccc(-c2c3nc(c(-c4ccccc4)c4ccc([nH]4)c(-c4ccccc4)c4nc(c(-c5ccccc5)c5ccc2[nH]5)C=C4)C=C3)cc1)c1ccccc1
REMARK SMILES IDX 16 1 15 2 13 3 14 4 12 5 7 6 8 7 9 8 11 9 10 10 5 11 4 12
REMARK SMILES IDX 6 14 3 15 2 16 1 17 69 18 70 19 74 20 71 21 73 22 72 23
REMARK SMILES IDX 17 24 18 25 19 26 20 27 21 28 22 29 68 30 23 31 67 32 24 33
REMARK SMILES IDX 25 34 26 35 61 36 27 37 66 38 60 39 62 40 28 41 65 42 59 43
REMARK SMILES IDX 58 44 29 46 51 47 36 48 50 49 37 50 40 51 49 52 63 53 38 54
REMARK SMILES IDX 39 55 48 57 64 58 41 59 30 60 31 61 35 62 32 63 34 64 33 65
REMARK SMILES IDX 52 66 53 67 57 68 54 69 56 70 55 71 42 72 43 73 47 74 44 75
REMARK SMILES IDX 46 76 45 77
REMARK H PARENT 4 13 62 45 40 56
REMARK Flexibility Score: inf
ROOT
ATOM      1  C   UNL A   1      31.711  27.741  26.081  1.00  0.00     0.275 C 
ENDROOT
BRANCH   1   2
ATOM      2  O   UNL A   1      32.888  26.975  26.508  1.00  0.00    -0.458 OA
BRANCH   2   3
ATOM      3  C   UNL A   1      33.538  26.105  25.658  1.00  0.00     0.342 C 
ATOM      4  O   UNL A   1      34.179  26.498  24.691  1.00  0.00    -0.246 OA
BRANCH   3   5
ATOM      5  C   UNL A   1      33.535  24.675  26.081  1.00  0.00     0.111 A 
ATOM      6  C   UNL A   1      32.518  23.646  26.351  1.00  0.00     0.164 A 
ATOM      7  N   UNL A   1      33.126  22.481  26.655  1.00  0.00    -0.167 NA
ATOM      8  N   UNL A   1      34.396  22.648  26.334  1.00  0.00    -0.274 N 
ATOM      9  C   UNL A   1      34.724  23.944  26.101  1.00  0.00     0.125 A 
ATOM     10  C   UNL A   1      35.181  21.457  26.122  1.00  0.00     0.173 C 
BRANCH   6  11
ATOM     11  C   UNL A   1      31.032  23.516  26.321  1.00  0.00     0.273 C 
ATOM     12  N   UNL A   1      30.279  23.849  25.234  1.00  0.00    -0.344 N 
ATOM     13  H   UNL A   1      29.302  23.861  25.354  1.00  0.00     0.164 HD
ATOM     14  O   UNL A   1      30.384  23.170  27.315  1.00  0.00    -0.267 OA
BRANCH  12  15
ATOM     15  C   UNL A   1      30.775  24.178  23.946  1.00  0.00     0.112 C 
BRANCH  15  16
ATOM     16  C   UNL A   1      31.052  22.905  23.130  1.00  0.00     0.026 C 
ATOM     17  C   UNL A   1      32.496  22.485  22.900  1.00  0.00     0.006 C 
ENDBRANCH  15  16
BRANCH  15  18
ATOM     18  C   UNL A   1      30.322  25.537  23.416  1.00  0.00    -0.026 A 
ATOM     19  C   UNL A   1      29.156  26.170  23.866  1.00  0.00     0.006 A 
ATOM     20  C   UNL A   1      31.205  26.338  22.671  1.00  0.00     0.006 A 
ATOM     21  C   UNL A   1      28.917  27.528  23.598  1.00  0.00     0.000 A 
ATOM     22  C   UNL A   1      30.971  27.682  22.381  1.00  0.00     0.000 A 
ATOM     23  C   UNL A   1      29.824  28.285  22.860  1.00  0.00     0.000 A 
ENDBRANCH  15  18
ENDBRANCH  12  15
ENDBRANCH   6  11
ENDBRANCH   3   5
ENDBRANCH   2   3
ENDBRANCH   1   2
BRANCH   1  24
ATOM     24  C   UNL A   1      31.782  29.309  26.079  1.00  0.00     0.275 C 
BRANCH  24  25
ATOM     25  O   UNL A   1      32.269  29.918  27.318  1.00  0.00    -0.458 OA
BRANCH  25  26
ATOM     26  C   UNL A   1      32.963  31.101  27.221  1.00  0.00     0.338 C 
ATOM     27  O   UNL A   1      32.469  32.206  27.260  1.00  0.00    -0.246 OA
BRANCH  26  28
ATOM     28  C   UNL A   1      34.461  30.860  27.334  1.00  0.00     0.060 A 
ATOM     29  C   UNL A   1      34.990  29.576  27.397  1.00  0.00     0.016 A 
ATOM     30  C   UNL A   1      35.310  31.915  27.687  1.00  0.00     0.016 A 
ATOM     31  C   UNL A   1      36.191  29.339  28.107  1.00  0.00     0.010 A 
ATOM     32  C   UNL A   1      36.591  31.666  28.241  1.00  0.00     0.010 A 
ATOM     33  C   UNL A   1      37.031  30.369  28.570  1.00  0.00    -0.014 A 
BRANCH  33  34
ATOM     34  C   UNL A   1      38.296  30.134  29.400  1.00  0.00     0.031 A 
ATOM     35  C   UNL A   1      39.473  29.315  28.850  1.00  0.00     0.074 A 
ATOM     36  C   UNL A   1      38.508  30.642  30.641  1.00  0.00     0.049 A 
ATOM     37  N   UNL A   1      40.437  28.691  29.494  1.00  0.00    -0.248 NA
ATOM     38  C   UNL A   1      39.600  29.219  27.388  1.00  0.00     0.031 C 
ATOM     39  C   UNL A   1      37.669  31.596  31.364  1.00  0.00     0.029 A 
ATOM     40  N   UNL A   1      39.535  30.388  31.541  1.00  0.00    -0.354 N 
ATOM     41  C   UNL A   1      41.241  28.092  28.525  1.00  0.00     0.074 A 
ATOM     42  C   UNL A   1      40.669  28.444  27.243  1.00  0.00     0.031 C 
ATOM     43  C   UNL A   1      38.213  31.863  32.559  1.00  0.00     0.029 A 
ATOM     44  C   UNL A   1      39.347  30.977  32.772  1.00  0.00     0.049 A 
ATOM     45  H   UNL A   1      40.322  29.839  31.320  1.00  0.00     0.167 HD
ATOM     46  C   UNL A   1      42.339  27.306  28.668  1.00  0.00     0.031 A 
ATOM     47  C   UNL A   1      39.908  30.774  33.983  1.00  0.00     0.031 A 
ATOM     48  C   UNL A   1      42.962  26.951  29.918  1.00  0.00     0.049 A 
ATOM     49  C   UNL A   1      40.955  29.720  34.184  1.00  0.00     0.074 A 
ATOM     50  C   UNL A   1      44.029  26.091  30.142  1.00  0.00     0.029 A 
ATOM     51  N   UNL A   1      42.595  27.451  31.151  1.00  0.00    -0.354 N 
ATOM     52  N   UNL A   1      41.562  28.980  33.294  1.00  0.00    -0.248 NA
ATOM     53  C   UNL A   1      41.360  29.444  35.573  1.00  0.00     0.031 C 
ATOM     54  C   UNL A   1      44.274  26.035  31.519  1.00  0.00     0.029 A 
ATOM     55  C   UNL A   1      43.392  26.898  32.143  1.00  0.00     0.049 A 
ATOM     56  H   UNL A   1      41.874  28.104  31.304  1.00  0.00     0.167 HD
ATOM     57  C   UNL A   1      42.421  28.158  34.012  1.00  0.00     0.074 A 
ATOM     58  C   UNL A   1      42.273  28.497  35.409  1.00  0.00     0.031 C 
ATOM     59  C   UNL A   1      43.256  27.203  33.539  1.00  0.00     0.031 A 
BRANCH  46  60
ATOM     60  C   UNL A   1      42.925  26.683  27.429  1.00  0.00    -0.014 A 
ATOM     61  C   UNL A   1      42.458  25.463  26.922  1.00  0.00     0.009 A 
ATOM     62  C   UNL A   1      43.896  27.397  26.704  1.00  0.00     0.009 A 
ATOM     63  C   UNL A   1      42.963  24.963  25.718  1.00  0.00     0.001 A 
ATOM     64  C   UNL A   1      44.384  26.904  25.493  1.00  0.00     0.001 A 
ATOM     65  C   UNL A   1      43.919  25.685  25.003  1.00  0.00     0.000 A 
ENDBRANCH  46  60
BRANCH  47  66
ATOM     66  C   UNL A   1      39.349  31.481  35.168  1.00  0.00    -0.014 A 
ATOM     67  C   UNL A   1      38.294  30.932  35.908  1.00  0.00     0.009 A 
ATOM     68  C   UNL A   1      39.874  32.728  35.549  1.00  0.00     0.009 A 
ATOM     69  C   UNL A   1      37.779  31.620  37.010  1.00  0.00     0.001 A 
ATOM     70  C   UNL A   1      39.381  33.395  36.670  1.00  0.00     0.001 A 
ATOM     71  C   UNL A   1      38.329  32.843  37.396  1.00  0.00     0.000 A 
ENDBRANCH  47  66
BRANCH  59  72
ATOM     72  C   UNL A   1      44.100  26.463  34.533  1.00  0.00    -0.014 A 
ATOM     73  C   UNL A   1      45.350  26.962  34.935  1.00  0.00     0.009 A 
ATOM     74  C   UNL A   1      43.641  25.257  35.085  1.00  0.00     0.009 A 
ATOM     75  C   UNL A   1      46.134  26.253  35.849  1.00  0.00     0.001 A 
ATOM     76  C   UNL A   1      44.419  24.560  36.012  1.00  0.00     0.001 A 
ATOM     77  C   UNL A   1      45.667  25.053  36.387  1.00  0.00     0.000 A 
ENDBRANCH  59  72
ENDBRANCH  33  34
ENDBRANCH  26  28
ENDBRANCH  25  26
ENDBRANCH  24  25
ENDBRANCH   1  24
TORSDOF 15
ENDMDL
MODEL 2
REMARK VINA RESULT:     -10.5      3.865      6.938
REMARK SMILES CC[C@H](NC(=O)c1nn(C)cc1C(=O)OCCOC(=O)c1ccc(-c2c3nc(c(-c4ccccc4)c4ccc([nH]4)c(-c4ccccc4)c4nc(c(-c5ccccc5)c5ccc2[nH]5)C=C4)C=C3)cc1)c1ccccc1
REMARK SMILES IDX 16 1 15 2 13 3 14 4 12 5 7 6 8 7 9 8 11 9 10 10 5 11 4 12
REMARK SMILES IDX 6 14 3 15 2 16 1 17 69 18 70 19 74 20 71 21 73 22 72 23
REMARK SMILES IDX 17 24 18 25 19 26 20 27 21 28 22 29 68 30 23 31 67 32 24 33
REMARK SMILES IDX 25 34 26 35 61 36 27 37 66 38 60 39 62 40 28 41 65 42 59 43
REMARK SMILES IDX 58 44 29 46 51 47 36 48 50 49 37 50 40 51 49 52 63 53 38 54
REMARK SMILES IDX 39 55 48 57 64 58 41 59 30 60 31 61 35 62 32 63 34 64 33 65
REMARK SMILES IDX 52 66 53 67 57 68 54 69 56 70 55 71 42 72 43 73 47 74 44 75
REMARK SMILES IDX 46 76 45 77
REMARK H PARENT 4 13 62 45 40 56
REMARK Flexibility Score: inf
ROOT
ATOM      1  C   UNL A   1      33.094  29.215  26.378  1.00  0.00     0.275 C 
ENDROOT
BRANCH   1   2
ATOM      2  O   UNL A   1      33.229  27.815  26.797  1.00  0.00    -0.458 OA
BRANCH   2   3
ATOM      3  C   UNL A   1      32.286  26.863  26.469  1.00  0.00     0.342 C 
ATOM      4  O   UNL A   1      31.095  27.019  26.707  1.00  0.00    -0.246 OA
BRANCH   3   5
ATOM      5  C   UNL A   1      32.793  25.708  25.675  1.00  0.00     0.111 A 
ATOM      6  C   UNL A   1      32.287  24.862  24.582  1.00  0.00     0.164 A 
ATOM      7  N   UNL A   1      33.239  23.979  24.217  1.00  0.00    -0.167 NA
ATOM      8  N   UNL A   1      34.349  24.391  24.803  1.00  0.00    -0.274 N 
ATOM      9  C   UNL A   1      34.133  25.327  25.761  1.00  0.00     0.125 A 
ATOM     10  C   UNL A   1      35.595  23.925  24.246  1.00  0.00     0.173 C 
BRANCH   6  11
ATOM     11  C   UNL A   1      31.062  24.752  23.737  1.00  0.00     0.273 C 
ATOM     12  N   UNL A   1      30.435  25.834  23.194  1.00  0.00    -0.344 N 
ATOM     13  H   UNL A   1      29.560  25.677  22.769  1.00  0.00     0.164 HD
ATOM     14  O   UNL A   1      30.494  23.671  23.543  1.00  0.00    -0.267 OA
BRANCH  12  15
ATOM     15  C   UNL A   1      30.927  27.164  23.183  1.00  0.00     0.112 C 
BRANCH  15  16
ATOM     16  C   UNL A   1      32.189  27.268  22.311  1.00  0.00     0.026 C 
ATOM     17  C   UNL A   1      33.378  28.056  22.838  1.00  0.00     0.006 C 
ENDBRANCH  15  16
BRANCH  15  18
ATOM     18  C   UNL A   1      29.865  28.239  23.408  1.00  0.00    -0.026 A 
ATOM     19  C   UNL A   1      30.186  29.595  23.549  1.00  0.00     0.006 A 
ATOM     20  C   UNL A   1      28.507  27.950  23.193  1.00  0.00     0.006 A 
ATOM     21  C   UNL A   1      29.198  30.589  23.454  1.00  0.00     0.000 A 
ATOM     22  C   UNL A   1      27.512  28.924  23.115  1.00  0.00     0.000 A 
ATOM     23  C   UNL A   1      27.863  30.256  23.233  1.00  0.00     0.000 A 
ENDBRANCH  15  18
ENDBRANCH  12  15
ENDBRANCH   6  11
ENDBRANCH   3   5
ENDBRANCH   2   3
ENDBRANCH   1   2
BRANCH   1  24
ATOM     24  C   UNL A   1      33.003  30.334  27.475  1.00  0.00     0.275 C 
BRANCH  24  25
ATOM     25  O   UNL A   1      34.070  31.337  27.440  1.00  0.00    -0.458 OA
BRANCH  25  26
ATOM     26  C   UNL A   1      34.913  31.413  28.523  1.00  0.00     0.338 C 
ATOM     27  O   UNL A   1      34.751  32.129  29.487  1.00  0.00    -0.246 OA
BRANCH  26  28
ATOM     28  C   UNL A   1      35.935  30.287  28.492  1.00  0.00     0.060 A 
ATOM     29  C   UNL A   1      36.324  29.623  29.651  1.00  0.00     0.016 A 
ATOM     30  C   UNL A   1      36.730  30.101  27.356  1.00  0.00     0.016 A 
ATOM     31  C   UNL A   1      37.629  29.085  29.754  1.00  0.00     0.010 A 
ATOM     32  C   UNL A   1      37.963  29.405  27.435  1.00  0.00     0.010 A 
ATOM     33  C   UNL A   1      38.505  28.967  28.659  1.00  0.00    -0.014 A 
BRANCH  33  34
ATOM     34  C   UNL A   1      39.943  28.454  28.765  1.00  0.00     0.031 A 
ATOM     35  C   UNL A   1      41.107  29.398  29.104  1.00  0.00     0.074 A 
ATOM     36  C   UNL A   1      40.310  27.156  28.617  1.00  0.00     0.049 A 
ATOM     37  N   UNL A   1      42.396  29.259  28.874  1.00  0.00    -0.248 NA
ATOM     38  C   UNL A   1      40.779  30.638  29.825  1.00  0.00     0.031 C 
ATOM     39  C   UNL A   1      39.431  25.997  28.468  1.00  0.00     0.029 A 
ATOM     40  N   UNL A   1      41.579  26.593  28.549  1.00  0.00    -0.354 N 
ATOM     41  C   UNL A   1      43.014  30.407  29.369  1.00  0.00     0.074 A 
ATOM     42  C   UNL A   1      41.964  31.226  29.936  1.00  0.00     0.031 C 
ATOM     43  C   UNL A   1      40.166  24.882  28.354  1.00  0.00     0.029 A 
ATOM     44  C   UNL A   1      41.570  25.250  28.248  1.00  0.00     0.049 A 
ATOM     45  H   UNL A   1      42.405  27.107  28.702  1.00  0.00     0.167 HD
ATOM     46  C   UNL A   1      44.323  30.771  29.347  1.00  0.00     0.031 A 
ATOM     47  C   UNL A   1      42.524  24.399  27.813  1.00  0.00     0.031 A 
ATOM     48  C   UNL A   1      45.406  29.980  28.821  1.00  0.00     0.049 A 
ATOM     49  C   UNL A   1      43.922  24.873  27.551  1.00  0.00     0.074 A 
ATOM     50  C   UNL A   1      46.746  30.321  28.692  1.00  0.00     0.029 A 
ATOM     51  N   UNL A   1      45.285  28.684  28.362  1.00  0.00    -0.354 N 
ATOM     52  N   UNL A   1      44.460  26.037  27.805  1.00  0.00    -0.248 NA
ATOM     53  C   UNL A   1      44.833  23.920  26.895  1.00  0.00     0.031 C 
ATOM     54  C   UNL A   1      47.425  29.246  28.108  1.00  0.00     0.029 A 
ATOM     55  C   UNL A   1      46.516  28.221  27.921  1.00  0.00     0.049 A 
ATOM     56  H   UNL A   1      44.449  28.165  28.349  1.00  0.00     0.167 HD
ATOM     57  C   UNL A   1      45.769  25.954  27.347  1.00  0.00     0.074 A 
ATOM     58  C   UNL A   1      45.954  24.624  26.813  1.00  0.00     0.031 C 
ATOM     59  C   UNL A   1      46.726  26.911  27.371  1.00  0.00     0.031 A 
BRANCH  46  60
ATOM     60  C   UNL A   1      44.679  32.147  29.842  1.00  0.00    -0.014 A 
ATOM     61  C   UNL A   1      45.120  32.370  31.154  1.00  0.00     0.009 A 
ATOM     62  C   UNL A   1      44.668  33.220  28.934  1.00  0.00     0.009 A 
ATOM     63  C   UNL A   1      45.531  33.647  31.549  1.00  0.00     0.001 A 
ATOM     64  C   UNL A   1      45.097  34.489  29.327  1.00  0.00     0.001 A 
ATOM     65  C   UNL A   1      45.525  34.702  30.635  1.00  0.00     0.000 A 
ENDBRANCH  46  60
BRANCH  47  66
ATOM     66  C   UNL A   1      42.137  23.017  27.416  1.00  0.00    -0.014 A 
ATOM     67  C   UNL A   1      42.279  21.941  28.301  1.00  0.00     0.009 A 
ATOM     68  C   UNL A   1      41.632  22.779  26.125  1.00  0.00     0.009 A 
ATOM     69  C   UNL A   1      41.919  20.652  27.901  1.00  0.00     0.001 A 
ATOM     70  C   UNL A   1      41.241  21.496  25.742  1.00  0.00     0.001 A 
ATOM     71  C   UNL A   1      41.391  20.433  26.627  1.00  0.00     0.000 A 
ENDBRANCH  47  66
BRANCH  59  72
ATOM     72  C   UNL A   1      48.077  26.557  26.825  1.00  0.00    -0.014 A 
ATOM     73  C   UNL A   1      49.030  25.902  27.622  1.00  0.00     0.009 A 
ATOM     74  C   UNL A   1      48.402  26.871  25.496  1.00  0.00     0.009 A 
ATOM     75  C   UNL A   1      50.291  25.594  27.105  1.00  0.00     0.001 A 
ATOM     76  C   UNL A   1      49.657  26.545  24.978  1.00  0.00     0.001 A 
ATOM     77  C   UNL A   1      50.603  25.914  25.784  1.00  0.00     0.000 A 
ENDBRANCH  59  72
ENDBRANCH  33  34
ENDBRANCH  26  28
ENDBRANCH  25  26
ENDBRANCH  24  25
ENDBRANCH   1  24
TORSDOF 15
ENDMDL
MODEL 3
REMARK VINA RESULT:     -10.5      3.924      7.363
REMARK SMILES CC[C@H](NC(=O)c1nn(C)cc1C(=O)OCCOC(=O)c1ccc(-c2c3nc(c(-c4ccccc4)c4ccc([nH]4)c(-c4ccccc4)c4nc(c(-c5ccccc5)c5ccc2[nH]5)C=C4)C=C3)cc1)c1ccccc1
REMARK SMILES IDX 16 1 15 2 13 3 14 4 12 5 7 6 8 7 9 8 11 9 10 10 5 11 4 12
REMARK SMILES IDX 6 14 3 15 2 16 1 17 69 18 70 19 74 20 71 21 73 22 72 23
REMARK SMILES IDX 17 24 18 25 19 26 20 27 21 28 22 29 68 30 23 31 67 32 24 33
REMARK SMILES IDX 25 34 26 35 61 36 27 37 66 38 60 39 62 40 28 41 65 42 59 43
REMARK SMILES IDX 58 44 29 46 51 47 36 48 50 49 37 50 40 51 49 52 63 53 38 54
REMARK SMILES IDX 39 55 48 57 64 58 41 59 30 60 31 61 35 62 32 63 34 64 33 65
REMARK SMILES IDX 52 66 53 67 57 68 54 69 56 70 55 71 42 72 43 73 47 74 44 75
REMARK SMILES IDX 46 76 45 77
REMARK H PARENT 4 13 62 45 40 56
REMARK Flexibility Score: inf
ROOT
ATOM      1  C   UNL A   1      32.869  29.881  26.656  1.00  0.00     0.275 C 
ENDROOT
BRANCH   1   2
ATOM      2  O   UNL A   1      32.889  29.969  25.191  1.00  0.00    -0.458 OA
BRANCH   2   3
ATOM      3  C   UNL A   1      33.022  28.850  24.396  1.00  0.00     0.342 C 
ATOM      4  O   UNL A   1      33.973  28.086  24.503  1.00  0.00    -0.246 OA
BRANCH   3   5
ATOM      5  C   UNL A   1      31.860  28.552  23.510  1.00  0.00     0.111 A 
ATOM      6  C   UNL A   1      31.495  27.499  22.549  1.00  0.00     0.164 A 
ATOM      7  N   UNL A   1      30.255  27.732  22.074  1.00  0.00    -0.167 NA
ATOM      8  N   UNL A   1      29.746  28.669  22.854  1.00  0.00    -0.274 N 
ATOM      9  C   UNL A   1      30.672  29.274  23.640  1.00  0.00     0.125 A 
ATOM     10  C   UNL A   1      28.309  28.795  22.877  1.00  0.00     0.173 C 
BRANCH   6  11
ATOM     11  C   UNL A   1      32.076  26.234  22.012  1.00  0.00     0.273 C 
ATOM     12  N   UNL A   1      32.476  25.203  22.809  1.00  0.00    -0.344 N 
ATOM     13  H   UNL A   1      32.973  24.471  22.376  1.00  0.00     0.164 HD
ATOM     14  O   UNL A   1      32.303  26.078  20.807  1.00  0.00    -0.267 OA
BRANCH  12  15
ATOM     15  C   UNL A   1      32.242  25.088  24.203  1.00  0.00     0.112 C 
BRANCH  15  16
ATOM     16  C   UNL A   1      30.755  24.814  24.482  1.00  0.00     0.026 C 
ATOM     17  C   UNL A   1      30.013  25.725  25.447  1.00  0.00     0.006 C 
ENDBRANCH  15  16
BRANCH  15  18
ATOM     18  C   UNL A   1      33.441  24.601  25.014  1.00  0.00    -0.026 A 
ATOM     19  C   UNL A   1      33.305  23.998  26.271  1.00  0.00     0.006 A 
ATOM     20  C   UNL A   1      34.703  24.474  24.407  1.00  0.00     0.006 A 
ATOM     21  C   UNL A   1      34.370  23.296  26.858  1.00  0.00     0.000 A 
ATOM     22  C   UNL A   1      35.774  23.795  24.987  1.00  0.00     0.000 A 
ATOM     23  C   UNL A   1      35.602  23.190  26.217  1.00  0.00     0.000 A 
ENDBRANCH  15  18
ENDBRANCH  12  15
ENDBRANCH   6  11
ENDBRANCH   3   5
ENDBRANCH   2   3
ENDBRANCH   1   2
BRANCH   1  24
ATOM     24  C   UNL A   1      32.879  31.206  27.499  1.00  0.00     0.275 C 
BRANCH  24  25
ATOM     25  O   UNL A   1      34.176  31.877  27.602  1.00  0.00    -0.458 OA
BRANCH  25  26
ATOM     26  C   UNL A   1      34.853  31.783  28.794  1.00  0.00     0.338 C 
ATOM     27  O   UNL A   1      34.569  32.385  29.807  1.00  0.00    -0.246 OA
BRANCH  26  28
ATOM     28  C   UNL A   1      35.838  30.625  28.768  1.00  0.00     0.060 A 
ATOM     29  C   UNL A   1      36.266  30.005  29.937  1.00  0.00     0.016 A 
ATOM     30  C   UNL A   1      36.566  30.358  27.604  1.00  0.00     0.016 A 
ATOM     31  C   UNL A   1      37.558  29.431  30.001  1.00  0.00     0.010 A 
ATOM     32  C   UNL A   1      37.780  29.627  27.654  1.00  0.00     0.010 A 
ATOM     33  C   UNL A   1      38.373  29.232  28.870  1.00  0.00    -0.014 A 
BRANCH  33  34
ATOM     34  C   UNL A   1      39.798  28.679  28.929  1.00  0.00     0.031 A 
ATOM     35  C   UNL A   1      40.998  29.589  29.233  1.00  0.00     0.074 A 
ATOM     36  C   UNL A   1      40.124  27.371  28.765  1.00  0.00     0.049 A 
ATOM     37  N   UNL A   1      42.275  29.415  28.961  1.00  0.00    -0.248 NA
ATOM     38  C   UNL A   1      40.729  30.834  29.968  1.00  0.00     0.031 C 
ATOM     39  C   UNL A   1      39.209  26.238  28.640  1.00  0.00     0.029 A 
ATOM     40  N   UNL A   1      41.373  26.774  28.655  1.00  0.00    -0.354 N 
ATOM     41  C   UNL A   1      42.941  30.543  29.441  1.00  0.00     0.074 A 
ATOM     42  C   UNL A   1      41.933  31.389  30.043  1.00  0.00     0.031 C 
ATOM     43  C   UNL A   1      39.908  25.104  28.500  1.00  0.00     0.029 A 
ATOM     44  C   UNL A   1      41.317  25.432  28.350  1.00  0.00     0.049 A 
ATOM     45  H   UNL A   1      42.218  27.263  28.783  1.00  0.00     0.167 HD
ATOM     46  C   UNL A   1      44.258  30.870  29.378  1.00  0.00     0.031 A 
ATOM     47  C   UNL A   1      42.233  24.557  27.882  1.00  0.00     0.031 A 
ATOM     48  C   UNL A   1      45.301  30.051  28.815  1.00  0.00     0.049 A 
ATOM     49  C   UNL A   1      43.635  24.993  27.577  1.00  0.00     0.074 A 
ATOM     50  C   UNL A   1      46.645  30.356  28.644  1.00  0.00     0.029 A 
ATOM     51  N   UNL A   1      45.129  28.761  28.356  1.00  0.00    -0.354 N 
ATOM     52  N   UNL A   1      44.213  26.140  27.818  1.00  0.00    -0.248 NA
ATOM     53  C   UNL A   1      44.497  24.017  26.889  1.00  0.00     0.031 C 
ATOM     54  C   UNL A   1      47.274  29.264  28.035  1.00  0.00     0.029 A 
ATOM     55  C   UNL A   1      46.332  28.265  27.874  1.00  0.00     0.049 A 
ATOM     56  H   UNL A   1      44.278  28.265  28.368  1.00  0.00     0.167 HD
ATOM     57  C   UNL A   1      45.503  26.023  27.317  1.00  0.00     0.074 A 
ATOM     58  C   UNL A   1      45.634  24.690  26.774  1.00  0.00     0.031 C 
ATOM     59  C   UNL A   1      46.487  26.953  27.313  1.00  0.00     0.031 A 
BRANCH  46  60
ATOM     60  C   UNL A   1      44.668  32.233  29.865  1.00  0.00    -0.014 A 
ATOM     61  C   UNL A   1      45.379  32.409  31.061  1.00  0.00     0.009 A 
ATOM     62  C   UNL A   1      44.422  33.350  29.047  1.00  0.00     0.009 A 
ATOM     63  C   UNL A   1      45.824  33.681  31.433  1.00  0.00     0.001 A 
ATOM     64  C   UNL A   1      44.884  34.615  29.414  1.00  0.00     0.001 A 
ATOM     65  C   UNL A   1      45.581  34.780  30.608  1.00  0.00     0.000 A 
ENDBRANCH  46  60
BRANCH  47  66
ATOM     66  C   UNL A   1      41.795  23.188  27.493  1.00  0.00    -0.014 A 
ATOM     67  C   UNL A   1      40.814  22.992  26.512  1.00  0.00     0.009 A 
ATOM     68  C   UNL A   1      42.361  22.068  28.127  1.00  0.00     0.009 A 
ATOM     69  C   UNL A   1      40.412  21.697  26.172  1.00  0.00     0.001 A 
ATOM     70  C   UNL A   1      41.982  20.777  27.761  1.00  0.00     0.001 A 
ATOM     71  C   UNL A   1      41.003  20.593  26.788  1.00  0.00     0.000 A 
ENDBRANCH  47  66
BRANCH  59  72
ATOM     72  C   UNL A   1      47.810  26.562  26.724  1.00  0.00    -0.014 A 
ATOM     73  C   UNL A   1      48.097  26.799  25.371  1.00  0.00     0.009 A 
ATOM     74  C   UNL A   1      48.787  25.958  27.531  1.00  0.00     0.009 A 
ATOM     75  C   UNL A   1      49.327  26.414  24.831  1.00  0.00     0.001 A 
ATOM     76  C   UNL A   1      50.022  25.591  26.992  1.00  0.00     0.001 A 
ATOM     77  C   UNL A   1      50.288  25.812  25.642  1.00  0.00     0.000 A 
ENDBRANCH  59  72
ENDBRANCH  33  34
ENDBRANCH  26  28
ENDBRANCH  25  26
ENDBRANCH  24  25
ENDBRANCH   1  24
TORSDOF 15
ENDMDL
