MODEL 1
REMARK VINA RESULT:     -10.0      0.000      0.000
REMARK SMILES CC(C)Cc1cc(C(=O)N[C@@H](CO)C(=O)OCCOC(=O)c2ccc(-c3c4nc(c(-c5ccccc5)c5ccc([nH]5)c(-c5ccccc5)c5nc(c(-c6ccccc6)c6ccc3[nH]6)C=C5)C=C4)cc2)n(C)n1
REMARK SMILES IDX 17 1 16 2 14 3 15 4 11 5 10 6 8 7 9 8 7 10 5 11 6 12 72 13
REMARK SMILES IDX 70 14 71 15 4 16 2 17 1 18 3 19 12 20 13 21 18 23 19 24
REMARK SMILES IDX 20 25 21 26 22 27 23 28 69 29 24 30 68 31 25 32 26 33 27 34
REMARK SMILES IDX 62 35 28 36 67 37 61 38 63 39 29 40 66 41 60 42 59 43 30 45
REMARK SMILES IDX 52 46 37 47 51 48 38 49 41 50 50 51 64 52 39 53 40 54 49 56
REMARK SMILES IDX 65 57 42 58 31 59 32 60 36 61 33 62 35 63 34 64 53 65 54 66
REMARK SMILES IDX 58 67 55 68 57 69 56 70 43 71 44 72 48 73 45 74 47 75 46 76
REMARK H PARENT 10 9 13 22 63 44 41 55
REMARK Flexibility Score: inf
ROOT
ATOM      1  C   UNL A   1      35.350  20.968  24.614  1.00  0.00     0.274 C 
ENDROOT
BRANCH   1   2
ATOM      2  O   UNL A   1      34.246  20.530  25.431  1.00  0.00    -0.460 OA
BRANCH   2   3
ATOM      3  C   UNL A   1      33.098  21.245  25.290  1.00  0.00     0.331 C 
ATOM      4  O   UNL A   1      32.319  21.150  24.344  1.00  0.00    -0.250 OA
BRANCH   3   5
ATOM      5  C   UNL A   1      32.866  22.247  26.422  1.00  0.00     0.218 C 
BRANCH   5   6
ATOM      6  N   UNL A   1      31.483  22.457  26.850  1.00  0.00    -0.335 N 
ATOM      7  C   UNL A   1      30.596  23.497  26.763  1.00  0.00     0.270 C 
ATOM      8  O   UNL A   1      29.535  23.310  27.364  1.00  0.00    -0.268 OA
ATOM      9  H   UNL A   1      31.103  21.671  27.305  1.00  0.00     0.164 HD
BRANCH   7  10
ATOM     10  C   UNL A   1      30.801  24.699  25.978  1.00  0.00     0.126 A 
ATOM     11  C   UNL A   1      31.347  26.824  25.446  1.00  0.00     0.064 A 
ATOM     12  C   UNL A   1      31.351  25.879  26.491  1.00  0.00     0.059 A 
ATOM     13  N   UNL A   1      30.762  26.302  24.370  1.00  0.00    -0.178 NA
ATOM     14  N   UNL A   1      30.666  24.991  24.644  1.00  0.00    -0.263 N 
ATOM     15  C   UNL A   1      30.644  24.133  23.486  1.00  0.00     0.174 C 
BRANCH  11  16
ATOM     16  C   UNL A   1      31.857  28.231  25.425  1.00  0.00     0.061 C 
BRANCH  16  17
ATOM     17  C   UNL A   1      32.196  28.801  26.825  1.00  0.00    -0.011 C 
ATOM     18  C   UNL A   1      33.681  28.671  27.188  1.00  0.00     0.008 C 
ATOM     19  C   UNL A   1      31.803  30.280  26.900  1.00  0.00     0.008 C 
ENDBRANCH  16  17
ENDBRANCH  11  16
ENDBRANCH   7  10
ENDBRANCH   5   6
BRANCH   5  20
ATOM     20  C   UNL A   1      33.707  21.769  27.617  1.00  0.00     0.193 C 
BRANCH  20  21
ATOM     21  O   UNL A   1      34.891  22.557  27.764  1.00  0.00    -0.394 OA
ATOM     22  H   UNL A   1      34.683  23.365  28.258  1.00  0.00     0.210 HD
ENDBRANCH  20  21
ENDBRANCH   5  20
ENDBRANCH   3   5
ENDBRANCH   2   3
ENDBRANCH   1   2
BRANCH   1  23
ATOM     23  C   UNL A   1      36.676  20.445  25.163  1.00  0.00     0.275 C 
BRANCH  23  24
ATOM     24  O   UNL A   1      37.711  21.440  25.044  1.00  0.00    -0.458 OA
BRANCH  24  25
ATOM     25  C   UNL A   1      38.830  21.170  25.754  1.00  0.00     0.338 C 
ATOM     26  O   UNL A   1      39.428  20.112  25.831  1.00  0.00    -0.246 OA
BRANCH  25  27
ATOM     27  C   UNL A   1      39.309  22.391  26.414  1.00  0.00     0.060 A 
ATOM     28  C   UNL A   1      38.689  23.599  26.105  1.00  0.00     0.016 A 
ATOM     29  C   UNL A   1      40.469  22.367  27.188  1.00  0.00     0.016 A 
ATOM     30  C   UNL A   1      39.268  24.798  26.512  1.00  0.00     0.010 A 
ATOM     31  C   UNL A   1      41.021  23.574  27.637  1.00  0.00     0.010 A 
ATOM     32  C   UNL A   1      40.451  24.805  27.266  1.00  0.00    -0.014 A 
BRANCH  32  33
ATOM     33  C   UNL A   1      41.124  26.098  27.574  1.00  0.00     0.031 A 
ATOM     34  C   UNL A   1      42.454  26.429  26.947  1.00  0.00     0.074 A 
ATOM     35  C   UNL A   1      40.528  27.013  28.364  1.00  0.00     0.049 A 
ATOM     36  N   UNL A   1      43.243  27.452  27.171  1.00  0.00    -0.248 NA
ATOM     37  C   UNL A   1      42.970  25.485  25.942  1.00  0.00     0.031 C 
ATOM     38  C   UNL A   1      39.213  26.870  28.989  1.00  0.00     0.029 A 
ATOM     39  N   UNL A   1      40.947  28.263  28.752  1.00  0.00    -0.354 N 
ATOM     40  C   UNL A   1      44.370  27.242  26.385  1.00  0.00     0.074 A 
ATOM     41  C   UNL A   1      44.161  26.001  25.671  1.00  0.00     0.031 C 
ATOM     42  C   UNL A   1      38.910  28.007  29.636  1.00  0.00     0.029 A 
ATOM     43  C   UNL A   1      40.035  28.930  29.531  1.00  0.00     0.049 A 
ATOM     44  H   UNL A   1      41.818  28.644  28.495  1.00  0.00     0.167 HD
ATOM     45  C   UNL A   1      45.482  28.008  26.271  1.00  0.00     0.031 A 
ATOM     46  C   UNL A   1      40.099  30.141  30.116  1.00  0.00     0.031 A 
ATOM     47  C   UNL A   1      45.681  29.269  26.935  1.00  0.00     0.049 A 
ATOM     48  C   UNL A   1      41.345  30.968  29.983  1.00  0.00     0.074 A 
ATOM     49  C   UNL A   1      46.782  30.108  26.881  1.00  0.00     0.029 A 
ATOM     50  N   UNL A   1      44.750  29.885  27.754  1.00  0.00    -0.354 N 
ATOM     51  N   UNL A   1      42.435  30.717  29.301  1.00  0.00    -0.248 NA
ATOM     52  C   UNL A   1      41.373  32.242  30.719  1.00  0.00     0.031 C 
ATOM     53  C   UNL A   1      46.526  31.222  27.689  1.00  0.00     0.029 A 
ATOM     54  C   UNL A   1      45.252  31.092  28.215  1.00  0.00     0.049 A 
ATOM     55  H   UNL A   1      43.864  29.520  27.976  1.00  0.00     0.167 HD
ATOM     56  C   UNL A   1      43.279  31.795  29.528  1.00  0.00     0.074 A 
ATOM     57  C   UNL A   1      42.564  32.719  30.385  1.00  0.00     0.031 C 
ATOM     58  C   UNL A   1      44.539  31.997  29.073  1.00  0.00     0.031 A 
BRANCH  45  59
ATOM     59  C   UNL A   1      46.599  27.477  25.421  1.00  0.00    -0.014 A 
ATOM     60  C   UNL A   1      47.471  26.484  25.890  1.00  0.00     0.009 A 
ATOM     61  C   UNL A   1      46.753  27.956  24.109  1.00  0.00     0.009 A 
ATOM     62  C   UNL A   1      48.492  25.999  25.070  1.00  0.00     0.001 A 
ATOM     63  C   UNL A   1      47.760  27.455  23.285  1.00  0.00     0.001 A 
ATOM     64  C   UNL A   1      48.634  26.481  23.768  1.00  0.00     0.000 A 
ENDBRANCH  45  59
BRANCH  46  65
ATOM     65  C   UNL A   1      38.954  30.636  30.921  1.00  0.00    -0.014 A 
ATOM     66  C   UNL A   1      37.925  31.371  30.315  1.00  0.00     0.009 A 
ATOM     67  C   UNL A   1      38.890  30.383  32.300  1.00  0.00     0.009 A 
ATOM     68  C   UNL A   1      36.861  31.856  31.077  1.00  0.00     0.001 A 
ATOM     69  C   UNL A   1      37.812  30.846  33.054  1.00  0.00     0.001 A 
ATOM     70  C   UNL A   1      36.802  31.588  32.445  1.00  0.00     0.000 A 
ENDBRANCH  46  65
BRANCH  58  71
ATOM     71  C   UNL A   1      45.216  33.270  29.488  1.00  0.00    -0.014 A 
ATOM     72  C   UNL A   1      45.013  34.461  28.774  1.00  0.00     0.009 A 
ATOM     73  C   UNL A   1      46.053  33.283  30.613  1.00  0.00     0.009 A 
ATOM     74  C   UNL A   1      45.663  35.635  29.161  1.00  0.00     0.001 A 
ATOM     75  C   UNL A   1      46.686  34.462  31.010  1.00  0.00     0.001 A 
ATOM     76  C   UNL A   1      46.497  35.635  30.278  1.00  0.00     0.000 A 
ENDBRANCH  58  71
ENDBRANCH  32  33
ENDBRANCH  25  27
ENDBRANCH  24  25
ENDBRANCH  23  24
ENDBRANCH   1  23
TORSDOF 17
ENDMDL
MODEL 2
REMARK VINA RESULT:     -10.0      3.896      6.917
REMARK SMILES CC(C)Cc1cc(C(=O)N[C@@H](CO)C(=O)OCCOC(=O)c2ccc(-c3c4nc(c(-c5ccccc5)c5ccc([nH]5)c(-c5ccccc5)c5nc(c(-c6ccccc6)c6ccc3[nH]6)C=C5)C=C4)cc2)n(C)n1
REMARK SMILES IDX 17 1 16 2 14 3 15 4 11 5 10 6 8 7 9 8 7 10 5 11 6 12 72 13
REMARK SMILES IDX 70 14 71 15 4 16 2 17 1 18 3 19 12 20 13 21 18 23 19 24
REMARK SMILES IDX 20 25 21 26 22 27 23 28 69 29 24 30 68 31 25 32 26 33 27 34
REMARK SMILES IDX 62 35 28 36 67 37 61 38 63 39 29 40 66 41 60 42 59 43 30 45
REMARK SMILES IDX 52 46 37 47 51 48 38 49 41 50 50 51 64 52 39 53 40 54 49 56
REMARK SMILES IDX 65 57 42 58 31 59 32 60 36 61 33 62 35 63 34 64 53 65 54 66
REMARK SMILES IDX 58 67 55 68 57 69 56 70 43 71 44 72 48 73 45 74 47 75 46 76
REMARK H PARENT 10 9 13 22 63 44 41 55
REMARK Flexibility Score: inf
ROOT
ATOM      1  C   UNL A   1      32.092  28.959  24.841  1.00  0.00     0.274 C 
ENDROOT
BRANCH   1   2
ATOM      2  O   UNL A   1      31.261  27.814  25.114  1.00  0.00    -0.460 OA
BRANCH   2   3
ATOM      3  C   UNL A   1      31.161  26.913  24.101  1.00  0.00     0.331 C 
ATOM      4  O   UNL A   1      31.915  26.852  23.133  1.00  0.00    -0.250 OA
BRANCH   3   5
ATOM      5  C   UNL A   1      29.962  25.973  24.244  1.00  0.00     0.218 C 
BRANCH   5   6
ATOM      6  N   UNL A   1      29.767  25.340  25.549  1.00  0.00    -0.335 N 
ATOM      7  C   UNL A   1      30.295  24.242  26.175  1.00  0.00     0.270 C 
ATOM      8  O   UNL A   1      29.770  23.974  27.258  1.00  0.00    -0.268 OA
ATOM      9  H   UNL A   1      29.103  25.811  26.104  1.00  0.00     0.164 HD
BRANCH   7  10
ATOM     10  C   UNL A   1      31.429  23.477  25.692  1.00  0.00     0.126 A 
ATOM     11  C   UNL A   1      32.618  21.886  24.619  1.00  0.00     0.064 A 
ATOM     12  C   UNL A   1      31.317  22.389  24.819  1.00  0.00     0.059 A 
ATOM     13  N   UNL A   1      33.482  22.560  25.375  1.00  0.00    -0.178 NA
ATOM     14  N   UNL A   1      32.788  23.625  25.808  1.00  0.00    -0.263 N 
ATOM     15  C   UNL A   1      33.589  24.782  26.117  1.00  0.00     0.174 C 
BRANCH  11  16
ATOM     16  C   UNL A   1      33.088  20.761  23.749  1.00  0.00     0.061 C 
BRANCH  16  17
ATOM     17  C   UNL A   1      32.476  19.385  24.111  1.00  0.00    -0.011 C 
ATOM     18  C   UNL A   1      32.288  18.468  22.895  1.00  0.00     0.008 C 
ATOM     19  C   UNL A   1      33.365  18.667  25.131  1.00  0.00     0.008 C 
ENDBRANCH  16  17
ENDBRANCH  11  16
ENDBRANCH   7  10
ENDBRANCH   5   6
BRANCH   5  20
ATOM     20  C   UNL A   1      28.712  26.788  23.877  1.00  0.00     0.193 C 
BRANCH  20  21
ATOM     21  O   UNL A   1      27.537  25.975  23.908  1.00  0.00    -0.394 OA
ATOM     22  H   UNL A   1      27.430  25.595  24.794  1.00  0.00     0.210 HD
ENDBRANCH  20  21
ENDBRANCH   5  20
ENDBRANCH   3   5
ENDBRANCH   2   3
ENDBRANCH   1   2
BRANCH   1  23
ATOM     23  C   UNL A   1      31.495  30.225  25.452  1.00  0.00     0.275 C 
BRANCH  23  24
ATOM     24  O   UNL A   1      31.890  30.366  26.831  1.00  0.00    -0.458 OA
BRANCH  24  25
ATOM     25  C   UNL A   1      32.516  31.531  27.116  1.00  0.00     0.338 C 
ATOM     26  O   UNL A   1      32.051  32.656  27.082  1.00  0.00    -0.246 OA
BRANCH  25  27
ATOM     27  C   UNL A   1      33.889  31.264  27.560  1.00  0.00     0.060 A 
ATOM     28  C   UNL A   1      34.307  29.939  27.661  1.00  0.00     0.016 A 
ATOM     29  C   UNL A   1      34.690  32.298  28.041  1.00  0.00     0.016 A 
ATOM     30  C   UNL A   1      35.503  29.638  28.309  1.00  0.00     0.010 A 
ATOM     31  C   UNL A   1      35.916  31.994  28.649  1.00  0.00     0.010 A 
ATOM     32  C   UNL A   1      36.314  30.657  28.829  1.00  0.00    -0.014 A 
BRANCH  32  33
ATOM     33  C   UNL A   1      37.517  30.306  29.634  1.00  0.00     0.031 A 
ATOM     34  C   UNL A   1      38.673  29.580  28.995  1.00  0.00     0.074 A 
ATOM     35  C   UNL A   1      37.617  30.684  30.924  1.00  0.00     0.049 A 
ATOM     36  N   UNL A   1      39.757  29.096  29.551  1.00  0.00    -0.248 NA
ATOM     37  C   UNL A   1      38.600  29.362  27.541  1.00  0.00     0.031 C 
ATOM     38  C   UNL A   1      36.615  31.450  31.666  1.00  0.00     0.029 A 
ATOM     39  N   UNL A   1      38.631  30.495  31.832  1.00  0.00    -0.354 N 
ATOM     40  C   UNL A   1      40.460  28.466  28.532  1.00  0.00     0.074 A 
ATOM     41  C   UNL A   1      39.686  28.635  27.320  1.00  0.00     0.031 C 
ATOM     42  C   UNL A   1      37.086  31.713  32.895  1.00  0.00     0.029 A 
ATOM     43  C   UNL A   1      38.389  31.076  33.053  1.00  0.00     0.049 A 
ATOM     44  H   UNL A   1      39.452  29.993  31.627  1.00  0.00     0.167 HD
ATOM     45  C   UNL A   1      41.638  27.800  28.596  1.00  0.00     0.031 A 
ATOM     46  C   UNL A   1      39.121  31.080  34.183  1.00  0.00     0.031 A 
ATOM     47  C   UNL A   1      42.442  27.668  29.782  1.00  0.00     0.049 A 
ATOM     48  C   UNL A   1      40.419  30.329  34.233  1.00  0.00     0.074 A 
ATOM     49  C   UNL A   1      43.648  27.004  29.938  1.00  0.00     0.029 A 
ATOM     50  N   UNL A   1      42.136  28.231  31.009  1.00  0.00    -0.354 N 
ATOM     51  N   UNL A   1      41.030  29.668  33.281  1.00  0.00    -0.248 NA
ATOM     52  C   UNL A   1      41.121  30.308  35.526  1.00  0.00     0.031 C 
ATOM     53  C   UNL A   1      44.058  27.145  31.268  1.00  0.00     0.029 A 
ATOM     54  C   UNL A   1      43.127  27.927  31.929  1.00  0.00     0.049 A 
ATOM     55  H   UNL A   1      41.333  28.767  31.201  1.00  0.00     0.167 HD
ATOM     56  C   UNL A   1      42.182  29.153  33.857  1.00  0.00     0.074 A 
ATOM     57  C   UNL A   1      42.204  29.602  35.235  1.00  0.00     0.031 C 
ATOM     58  C   UNL A   1      43.134  28.368  33.297  1.00  0.00     0.031 A 
BRANCH  45  59
ATOM     59  C   UNL A   1      42.114  27.120  27.346  1.00  0.00    -0.014 A 
ATOM     60  C   UNL A   1      42.949  27.773  26.428  1.00  0.00     0.009 A 
ATOM     61  C   UNL A   1      41.749  25.784  27.107  1.00  0.00     0.009 A 
ATOM     62  C   UNL A   1      43.389  27.108  25.280  1.00  0.00     0.001 A 
ATOM     63  C   UNL A   1      42.207  25.117  25.972  1.00  0.00     0.001 A 
ATOM     64  C   UNL A   1      43.021  25.781  25.055  1.00  0.00     0.000 A 
ENDBRANCH  45  59
BRANCH  46  65
ATOM     65  C   UNL A   1      38.622  31.795  35.385  1.00  0.00    -0.014 A 
ATOM     66  C   UNL A   1      38.723  33.191  35.473  1.00  0.00     0.009 A 
ATOM     67  C   UNL A   1      38.051  31.083  36.451  1.00  0.00     0.009 A 
ATOM     68  C   UNL A   1      38.275  33.860  36.614  1.00  0.00     0.001 A 
ATOM     69  C   UNL A   1      37.580  31.758  37.579  1.00  0.00     0.001 A 
ATOM     70  C   UNL A   1      37.699  33.144  37.663  1.00  0.00     0.000 A 
ENDBRANCH  46  65
BRANCH  58  71
ATOM     71  C   UNL A   1      44.280  27.957  34.173  1.00  0.00    -0.014 A 
ATOM     72  C   UNL A   1      45.430  28.756  34.280  1.00  0.00     0.009 A 
ATOM     73  C   UNL A   1      44.204  26.768  34.913  1.00  0.00     0.009 A 
ATOM     74  C   UNL A   1      46.496  28.352  35.086  1.00  0.00     0.001 A 
ATOM     75  C   UNL A   1      45.263  26.377  35.734  1.00  0.00     0.001 A 
ATOM     76  C   UNL A   1      46.411  27.166  35.813  1.00  0.00     0.000 A 
ENDBRANCH  58  71
ENDBRANCH  32  33
ENDBRANCH  25  27
ENDBRANCH  24  25
ENDBRANCH  23  24
ENDBRANCH   1  23
TORSDOF 17
ENDMDL
MODEL 3
REMARK VINA RESULT:     -10.0      1.019      6.123
REMARK SMILES CC(C)Cc1cc(C(=O)N[C@@H](CO)C(=O)OCCOC(=O)c2ccc(-c3c4nc(c(-c5ccccc5)c5ccc([nH]5)c(-c5ccccc5)c5nc(c(-c6ccccc6)c6ccc3[nH]6)C=C5)C=C4)cc2)n(C)n1
REMARK SMILES IDX 17 1 16 2 14 3 15 4 11 5 10 6 8 7 9 8 7 10 5 11 6 12 72 13
REMARK SMILES IDX 70 14 71 15 4 16 2 17 1 18 3 19 12 20 13 21 18 23 19 24
REMARK SMILES IDX 20 25 21 26 22 27 23 28 69 29 24 30 68 31 25 32 26 33 27 34
REMARK SMILES IDX 62 35 28 36 67 37 61 38 63 39 29 40 66 41 60 42 59 43 30 45
REMARK SMILES IDX 52 46 37 47 51 48 38 49 41 50 50 51 64 52 39 53 40 54 49 56
REMARK SMILES IDX 65 57 42 58 31 59 32 60 36 61 33 62 35 63 34 64 53 65 54 66
REMARK SMILES IDX 58 67 55 68 57 69 56 70 43 71 44 72 48 73 45 74 47 75 46 76
REMARK H PARENT 10 9 13 22 63 44 41 55
REMARK Flexibility Score: inf
ROOT
ATOM      1  C   UNL A   1      35.106  21.323  25.052  1.00  0.00     0.274 C 
ENDROOT
BRANCH   1   2
ATOM      2  O   UNL A   1      34.111  20.986  26.039  1.00  0.00    -0.460 OA
BRANCH   2   3
ATOM      3  C   UNL A   1      32.823  21.211  25.668  1.00  0.00     0.331 C 
ATOM      4  O   UNL A   1      31.990  20.337  25.444  1.00  0.00    -0.250 OA
BRANCH   3   5
ATOM      5  C   UNL A   1      32.492  22.695  25.500  1.00  0.00     0.218 C 
BRANCH   5   6
ATOM      6  N   UNL A   1      31.558  23.051  24.431  1.00  0.00    -0.335 N 
ATOM      7  C   UNL A   1      31.115  24.230  23.892  1.00  0.00     0.270 C 
ATOM      8  O   UNL A   1      30.217  24.100  23.056  1.00  0.00    -0.268 OA
ATOM      9  H   UNL A   1      31.157  22.262  23.999  1.00  0.00     0.164 HD
BRANCH   7  10
ATOM     10  C   UNL A   1      31.674  25.536  24.182  1.00  0.00     0.126 A 
ATOM     11  C   UNL A   1      31.803  27.707  24.791  1.00  0.00     0.064 A 
ATOM     12  C   UNL A   1      30.927  26.607  24.685  1.00  0.00     0.059 A 
ATOM     13  N   UNL A   1      33.001  27.374  24.314  1.00  0.00    -0.178 NA
ATOM     14  N   UNL A   1      32.951  26.039  24.183  1.00  0.00    -0.263 N 
ATOM     15  C   UNL A   1      34.227  25.376  24.273  1.00  0.00     0.174 C 
BRANCH  11  16
ATOM     16  C   UNL A   1      31.548  29.088  25.309  1.00  0.00     0.061 C 
BRANCH  16  17
ATOM     17  C   UNL A   1      31.979  29.300  26.782  1.00  0.00    -0.011 C 
ATOM     18  C   UNL A   1      31.565  28.146  27.705  1.00  0.00     0.008 C 
ATOM     19  C   UNL A   1      33.499  29.471  26.866  1.00  0.00     0.008 C 
ENDBRANCH  16  17
ENDBRANCH  11  16
ENDBRANCH   7  10
ENDBRANCH   5   6
BRANCH   5  20
ATOM     20  C   UNL A   1      31.938  23.183  26.848  1.00  0.00     0.193 C 
BRANCH  20  21
ATOM     21  O   UNL A   1      32.052  22.169  27.850  1.00  0.00    -0.394 OA
ATOM     22  H   UNL A   1      31.208  21.700  27.934  1.00  0.00     0.210 HD
ENDBRANCH  20  21
ENDBRANCH   5  20
ENDBRANCH   3   5
ENDBRANCH   2   3
ENDBRANCH   1   2
BRANCH   1  23
ATOM     23  C   UNL A   1      36.389  20.525  25.276  1.00  0.00     0.275 C 
BRANCH  23  24
ATOM     24  O   UNL A   1      37.549  21.319  24.963  1.00  0.00    -0.458 OA
BRANCH  24  25
ATOM     25  C   UNL A   1      38.652  21.006  25.682  1.00  0.00     0.338 C 
ATOM     26  O   UNL A   1      39.198  19.921  25.775  1.00  0.00    -0.246 OA
BRANCH  25  27
ATOM     27  C   UNL A   1      39.186  22.211  26.328  1.00  0.00     0.060 A 
ATOM     28  C   UNL A   1      38.616  23.441  26.010  1.00  0.00     0.016 A 
ATOM     29  C   UNL A   1      40.347  22.144  27.097  1.00  0.00     0.016 A 
ATOM     30  C   UNL A   1      39.248  24.618  26.404  1.00  0.00     0.010 A 
ATOM     31  C   UNL A   1      40.952  23.331  27.532  1.00  0.00     0.010 A 
ATOM     32  C   UNL A   1      40.433  24.582  27.152  1.00  0.00    -0.014 A 
BRANCH  32  33
ATOM     33  C   UNL A   1      41.162  25.848  27.445  1.00  0.00     0.031 A 
ATOM     34  C   UNL A   1      40.585  26.848  28.413  1.00  0.00     0.074 A 
ATOM     35  C   UNL A   1      42.371  26.088  26.899  1.00  0.00     0.049 A 
ATOM     36  N   UNL A   1      41.016  28.049  28.717  1.00  0.00    -0.248 NA
ATOM     37  C   UNL A   1      39.362  26.453  29.129  1.00  0.00     0.031 C 
ATOM     38  C   UNL A   1      43.092  25.189  25.998  1.00  0.00     0.029 A 
ATOM     39  N   UNL A   1      43.219  27.158  27.050  1.00  0.00    -0.354 N 
ATOM     40  C   UNL A   1      40.086  28.572  29.607  1.00  0.00     0.074 A 
ATOM     41  C   UNL A   1      39.073  27.558  29.803  1.00  0.00     0.031 C 
ATOM     42  C   UNL A   1      44.294  25.718  25.721  1.00  0.00     0.029 A 
ATOM     43  C   UNL A   1      44.401  27.023  26.364  1.00  0.00     0.049 A 
ATOM     44  H   UNL A   1      43.001  27.947  27.598  1.00  0.00     0.167 HD
ATOM     45  C   UNL A   1      40.071  29.789  30.204  1.00  0.00     0.031 A 
ATOM     46  C   UNL A   1      45.449  27.860  26.246  1.00  0.00     0.031 A 
ATOM     47  C   UNL A   1      41.096  30.787  30.059  1.00  0.00     0.049 A 
ATOM     48  C   UNL A   1      45.405  29.206  26.909  1.00  0.00     0.074 A 
ATOM     49  C   UNL A   1      41.157  32.051  30.623  1.00  0.00     0.029 A 
ATOM     50  N   UNL A   1      42.253  30.626  29.315  1.00  0.00    -0.354 N 
ATOM     51  N   UNL A   1      44.479  29.718  27.682  1.00  0.00    -0.248 NA
ATOM     52  C   UNL A   1      46.549  30.099  26.665  1.00  0.00     0.031 C 
ATOM     53  C   UNL A   1      42.341  32.665  30.199  1.00  0.00     0.029 A 
ATOM     54  C   UNL A   1      43.034  31.769  29.402  1.00  0.00     0.049 A 
ATOM     55  H   UNL A   1      42.488  29.821  28.801  1.00  0.00     0.167 HD
ATOM     56  C   UNL A   1      44.925  30.990  28.014  1.00  0.00     0.074 A 
ATOM     57  C   UNL A   1      46.218  31.163  27.384  1.00  0.00     0.031 C 
ATOM     58  C   UNL A   1      44.311  31.935  28.766  1.00  0.00     0.031 A 
BRANCH  45  59
ATOM     59  C   UNL A   1      38.874  30.129  31.044  1.00  0.00    -0.014 A 
ATOM     60  C   UNL A   1      38.861  29.901  32.428  1.00  0.00     0.009 A 
ATOM     61  C   UNL A   1      37.756  30.727  30.439  1.00  0.00     0.009 A 
ATOM     62  C   UNL A   1      37.738  30.242  33.186  1.00  0.00     0.001 A 
ATOM     63  C   UNL A   1      36.646  31.087  31.203  1.00  0.00     0.001 A 
ATOM     64  C   UNL A   1      36.634  30.838  32.575  1.00  0.00     0.000 A 
ENDBRANCH  45  59
BRANCH  46  65
ATOM     65  C   UNL A   1      46.623  27.465  25.429  1.00  0.00    -0.014 A 
ATOM     66  C   UNL A   1      46.731  27.878  24.093  1.00  0.00     0.009 A 
ATOM     67  C   UNL A   1      47.638  26.667  25.980  1.00  0.00     0.009 A 
ATOM     68  C   UNL A   1      47.825  27.487  23.319  1.00  0.00     0.001 A 
ATOM     69  C   UNL A   1      48.743  26.299  25.212  1.00  0.00     0.001 A 
ATOM     70  C   UNL A   1      48.833  26.703  23.881  1.00  0.00     0.000 A 
ENDBRANCH  46  65
BRANCH  58  71
ATOM     71  C   UNL A   1      45.039  33.233  28.955  1.00  0.00    -0.014 A 
ATOM     72  C   UNL A   1      45.951  33.402  30.008  1.00  0.00     0.009 A 
ATOM     73  C   UNL A   1      44.824  34.292  28.061  1.00  0.00     0.009 A 
ATOM     74  C   UNL A   1      46.609  34.622  30.182  1.00  0.00     0.001 A 
ATOM     75  C   UNL A   1      45.498  35.504  28.225  1.00  0.00     0.001 A 
ATOM     76  C   UNL A   1      46.383  35.670  29.290  1.00  0.00     0.000 A 
ENDBRANCH  58  71
ENDBRANCH  32  33
ENDBRANCH  25  27
ENDBRANCH  24  25
ENDBRANCH  23  24
ENDBRANCH   1  23
TORSDOF 17
ENDMDL
