MODEL 1
REMARK VINA RESULT:     -11.9      0.000      0.000
REMARK SMILES O=C(OCCOC(=O)c1ccc(-c2c3nc(c(-c4ccccc4)c4ccc([nH]4)c(-c4ccccc4)c4nc(c(-c5ccccc5)c5ccc2[nH]5)C=C4)C=C3)cc1)C1=NN(c2ccc(S(=O)(=O)[O-])cc2)C(=O)/C1=C/Nc1ccccc1
REMARK SMILES IDX 4 1 3 2 2 3 1 4 57 5 58 6 72 7 59 8 70 9 73 10 71 11 60 12
REMARK SMILES IDX 61 13 69 14 62 15 68 16 63 17 64 18 65 19 66 20 67 21 74 22
REMARK SMILES IDX 75 24 76 25 80 26 77 27 79 28 78 29 5 30 6 31 7 32 8 33 9 34
REMARK SMILES IDX 10 35 56 36 11 37 55 38 12 39 13 40 14 41 49 42 15 43 54 44
REMARK SMILES IDX 48 45 50 46 16 47 53 48 47 49 46 50 17 52 39 53 24 54 38 55
REMARK SMILES IDX 25 56 28 57 37 58 51 59 26 60 27 61 36 63 52 64 29 65 18 66
REMARK SMILES IDX 19 67 23 68 20 69 22 70 21 71 40 72 41 73 45 74 42 75 44 76
REMARK SMILES IDX 43 77 30 78 31 79 35 80 32 81 34 82 33 83
REMARK H PARENT 74 23 50 51 28 62
REMARK Flexibility Score: inf
ROOT
ATOM      1  C   UNL A   1      33.296  29.231  24.671  1.00  0.00     0.275 C 
ENDROOT
BRANCH   1   2
ATOM      2  O   UNL A   1      33.083  29.176  23.246  1.00  0.00    -0.457 OA
BRANCH   2   3
ATOM      3  C   UNL A   1      33.245  27.991  22.648  1.00  0.00     0.359 C 
ATOM      4  O   UNL A   1      33.983  27.764  21.705  1.00  0.00    -0.244 OA
BRANCH   3   5
ATOM      5  C   UNL A   1      32.448  26.909  23.330  1.00  0.00     0.183 C 
ATOM      6  N   UNL A   1      33.005  25.752  23.593  1.00  0.00    -0.157 NA
ATOM      7  C   UNL A   1      31.035  26.981  23.785  1.00  0.00     0.093 C 
ATOM      8  N   UNL A   1      32.025  25.004  24.212  1.00  0.00    -0.196 N 
ATOM      9  C   UNL A   1      30.852  25.703  24.513  1.00  0.00     0.282 C 
ATOM     10  C   UNL A   1      29.897  27.654  23.537  1.00  0.00     0.099 C 
ATOM     11  O   UNL A   1      29.845  25.352  25.102  1.00  0.00    -0.267 OA
BRANCH   8  12
ATOM     12  C   UNL A   1      32.157  23.603  24.211  1.00  0.00     0.069 A 
ATOM     13  C   UNL A   1      31.746  22.832  23.119  1.00  0.00     0.030 A 
ATOM     14  C   UNL A   1      32.659  22.963  25.353  1.00  0.00     0.030 A 
ATOM     15  C   UNL A   1      31.935  21.444  23.133  1.00  0.00     0.021 A 
ATOM     16  C   UNL A   1      32.796  21.582  25.398  1.00  0.00     0.021 A 
ATOM     17  C   UNL A   1      32.468  20.830  24.274  1.00  0.00     0.054 A 
BRANCH  17  18
ATOM     18  S   UNL A   1      32.861  19.104  24.252  1.00  0.00     0.124 S 
ATOM     19  O   UNL A   1      32.182  18.462  25.343  1.00  0.00    -0.237 OA
ATOM     20  O   UNL A   1      32.716  18.650  22.882  1.00  0.00    -0.237 OA
ATOM     21  O   UNL A   1      34.424  19.012  24.638  1.00  0.00    -0.744 OA
ENDBRANCH  17  18
ENDBRANCH   8  12
BRANCH  10  22
ATOM     22  N   UNL A   1      29.577  28.487  22.499  1.00  0.00    -0.361 N 
ATOM     23  H   UNL A   1      29.709  28.089  21.608  1.00  0.00     0.166 HD
BRANCH  22  24
ATOM     24  C   UNL A   1      29.095  29.805  22.473  1.00  0.00     0.038 A 
ATOM     25  C   UNL A   1      28.558  30.296  21.268  1.00  0.00     0.026 A 
ATOM     26  C   UNL A   1      29.152  30.667  23.569  1.00  0.00     0.026 A 
ATOM     27  C   UNL A   1      28.159  31.627  21.138  1.00  0.00     0.002 A 
ATOM     28  C   UNL A   1      28.762  32.006  23.438  1.00  0.00     0.002 A 
ATOM     29  C   UNL A   1      28.280  32.488  22.222  1.00  0.00     0.000 A 
ENDBRANCH  22  24
ENDBRANCH  10  22
ENDBRANCH   3   5
ENDBRANCH   2   3
ENDBRANCH   1   2
BRANCH   1  30
ATOM     30  C   UNL A   1      32.295  30.036  25.531  1.00  0.00     0.275 C 
BRANCH  30  31
ATOM     31  O   UNL A   1      32.777  30.144  26.896  1.00  0.00    -0.458 OA
BRANCH  31  32
ATOM     32  C   UNL A   1      33.374  31.310  27.240  1.00  0.00     0.338 C 
ATOM     33  O   UNL A   1      32.867  32.414  27.194  1.00  0.00    -0.246 OA
BRANCH  32  34
ATOM     34  C   UNL A   1      34.706  31.002  27.828  1.00  0.00     0.060 A 
ATOM     35  C   UNL A   1      34.959  29.675  28.177  1.00  0.00     0.016 A 
ATOM     36  C   UNL A   1      35.702  31.967  28.022  1.00  0.00     0.016 A 
ATOM     37  C   UNL A   1      36.183  29.318  28.758  1.00  0.00     0.010 A 
ATOM     38  C   UNL A   1      36.947  31.594  28.564  1.00  0.00     0.010 A 
ATOM     39  C   UNL A   1      37.190  30.271  28.977  1.00  0.00    -0.014 A 
BRANCH  39  40
ATOM     40  C   UNL A   1      38.425  29.894  29.737  1.00  0.00     0.031 A 
ATOM     41  C   UNL A   1      38.647  30.440  31.131  1.00  0.00     0.074 A 
ATOM     42  C   UNL A   1      39.317  29.010  29.239  1.00  0.00     0.049 A 
ATOM     43  N   UNL A   1      39.608  30.174  31.986  1.00  0.00    -0.248 NA
ATOM     44  C   UNL A   1      37.659  31.407  31.636  1.00  0.00     0.031 C 
ATOM     45  C   UNL A   1      39.240  28.368  27.926  1.00  0.00     0.029 A 
ATOM     46  N   UNL A   1      40.465  28.486  29.792  1.00  0.00    -0.354 N 
ATOM     47  C   UNL A   1      39.313  30.904  33.132  1.00  0.00     0.074 A 
ATOM     48  C   UNL A   1      38.147  31.703  32.831  1.00  0.00     0.031 C 
ATOM     49  C   UNL A   1      40.283  27.530  27.781  1.00  0.00     0.029 A 
ATOM     50  C   UNL A   1      41.126  27.598  28.971  1.00  0.00     0.049 A 
ATOM     51  H   UNL A   1      40.785  28.724  30.691  1.00  0.00     0.167 HD
ATOM     52  C   UNL A   1      39.914  30.879  34.347  1.00  0.00     0.031 A 
ATOM     53  C   UNL A   1      42.289  26.934  29.145  1.00  0.00     0.031 A 
ATOM     54  C   UNL A   1      41.068  30.086  34.674  1.00  0.00     0.049 A 
ATOM     55  C   UNL A   1      43.059  27.112  30.433  1.00  0.00     0.074 A 
ATOM     56  C   UNL A   1      41.697  29.944  35.900  1.00  0.00     0.029 A 
ATOM     57  N   UNL A   1      41.769  29.306  33.772  1.00  0.00    -0.354 N 
ATOM     58  N   UNL A   1      42.710  27.734  31.534  1.00  0.00    -0.248 NA
ATOM     59  C   UNL A   1      44.385  26.475  30.508  1.00  0.00     0.031 C 
ATOM     60  C   UNL A   1      42.817  29.124  35.725  1.00  0.00     0.029 A 
ATOM     61  C   UNL A   1      42.851  28.716  34.403  1.00  0.00     0.049 A 
ATOM     62  H   UNL A   1      41.534  29.188  32.823  1.00  0.00     0.167 HD
ATOM     63  C   UNL A   1      43.729  27.489  32.449  1.00  0.00     0.074 A 
ATOM     64  C   UNL A   1      44.724  26.689  31.772  1.00  0.00     0.031 C 
ATOM     65  C   UNL A   1      43.814  27.874  33.745  1.00  0.00     0.031 A 
BRANCH  52  66
ATOM     66  C   UNL A   1      39.305  31.717  35.438  1.00  0.00    -0.014 A 
ATOM     67  C   UNL A   1      39.662  33.068  35.587  1.00  0.00     0.009 A 
ATOM     68  C   UNL A   1      38.328  31.176  36.288  1.00  0.00     0.009 A 
ATOM     69  C   UNL A   1      39.081  33.848  36.588  1.00  0.00     0.001 A 
ATOM     70  C   UNL A   1      37.730  31.967  37.271  1.00  0.00     0.001 A 
ATOM     71  C   UNL A   1      38.114  33.298  37.427  1.00  0.00     0.000 A 
ENDBRANCH  52  66
BRANCH  53  72
ATOM     72  C   UNL A   1      42.867  26.080  28.061  1.00  0.00    -0.014 A 
ATOM     73  C   UNL A   1      42.651  24.694  28.037  1.00  0.00     0.009 A 
ATOM     74  C   UNL A   1      43.742  26.630  27.110  1.00  0.00     0.009 A 
ATOM     75  C   UNL A   1      43.334  23.884  27.123  1.00  0.00     0.001 A 
ATOM     76  C   UNL A   1      44.409  25.825  26.185  1.00  0.00     0.001 A 
ATOM     77  C   UNL A   1      44.215  24.448  26.201  1.00  0.00     0.000 A 
ENDBRANCH  53  72
BRANCH  65  78
ATOM     78  C   UNL A   1      44.950  27.330  34.568  1.00  0.00    -0.014 A 
ATOM     79  C   UNL A   1      46.164  28.017  34.707  1.00  0.00     0.009 A 
ATOM     80  C   UNL A   1      44.771  26.120  35.259  1.00  0.00     0.009 A 
ATOM     81  C   UNL A   1      47.184  27.490  35.504  1.00  0.00     0.001 A 
ATOM     82  C   UNL A   1      45.782  25.609  36.074  1.00  0.00     0.001 A 
ATOM     83  C   UNL A   1      46.991  26.291  36.190  1.00  0.00     0.000 A 
ENDBRANCH  65  78
ENDBRANCH  39  40
ENDBRANCH  32  34
ENDBRANCH  31  32
ENDBRANCH  30  31
ENDBRANCH   1  30
TORSDOF 15
ENDMDL
MODEL 2
REMARK VINA RESULT:     -11.9      2.884      6.058
REMARK SMILES O=C(OCCOC(=O)c1ccc(-c2c3nc(c(-c4ccccc4)c4ccc([nH]4)c(-c4ccccc4)c4nc(c(-c5ccccc5)c5ccc2[nH]5)C=C4)C=C3)cc1)C1=NN(c2ccc(S(=O)(=O)[O-])cc2)C(=O)/C1=C/Nc1ccccc1
REMARK SMILES IDX 4 1 3 2 2 3 1 4 57 5 58 6 72 7 59 8 70 9 73 10 71 11 60 12
REMARK SMILES IDX 61 13 69 14 62 15 68 16 63 17 64 18 65 19 66 20 67 21 74 22
REMARK SMILES IDX 75 24 76 25 80 26 77 27 79 28 78 29 5 30 6 31 7 32 8 33 9 34
REMARK SMILES IDX 10 35 56 36 11 37 55 38 12 39 13 40 14 41 49 42 15 43 54 44
REMARK SMILES IDX 48 45 50 46 16 47 53 48 47 49 46 50 17 52 39 53 24 54 38 55
REMARK SMILES IDX 25 56 28 57 37 58 51 59 26 60 27 61 36 63 52 64 29 65 18 66
REMARK SMILES IDX 19 67 23 68 20 69 22 70 21 71 40 72 41 73 45 74 42 75 44 76
REMARK SMILES IDX 43 77 30 78 31 79 35 80 32 81 34 82 33 83
REMARK H PARENT 74 23 50 51 28 62
REMARK Flexibility Score: inf
ROOT
ATOM      1  C   UNL A   1      33.955  28.281  24.809  1.00  0.00     0.275 C 
ENDROOT
BRANCH   1   2
ATOM      2  O   UNL A   1      33.467  28.399  23.457  1.00  0.00    -0.457 OA
BRANCH   2   3
ATOM      3  C   UNL A   1      33.421  27.282  22.723  1.00  0.00     0.359 C 
ATOM      4  O   UNL A   1      33.972  27.112  21.649  1.00  0.00    -0.244 OA
BRANCH   3   5
ATOM      5  C   UNL A   1      32.649  26.190  23.418  1.00  0.00     0.183 C 
ATOM      6  N   UNL A   1      33.163  24.989  23.522  1.00  0.00    -0.157 NA
ATOM      7  C   UNL A   1      31.309  26.296  24.052  1.00  0.00     0.093 C 
ATOM      8  N   UNL A   1      32.222  24.244  24.203  1.00  0.00    -0.196 N 
ATOM      9  C   UNL A   1      31.139  24.975  24.700  1.00  0.00     0.282 C 
ATOM     10  C   UNL A   1      30.192  27.044  24.000  1.00  0.00     0.099 C 
ATOM     11  O   UNL A   1      30.192  24.628  25.384  1.00  0.00    -0.267 OA
BRANCH   8  12
ATOM     12  C   UNL A   1      32.268  22.843  24.080  1.00  0.00     0.069 A 
ATOM     13  C   UNL A   1      32.238  22.218  22.829  1.00  0.00     0.030 A 
ATOM     14  C   UNL A   1      32.287  22.056  25.241  1.00  0.00     0.030 A 
ATOM     15  C   UNL A   1      32.332  20.822  22.743  1.00  0.00     0.021 A 
ATOM     16  C   UNL A   1      32.322  20.670  25.165  1.00  0.00     0.021 A 
ATOM     17  C   UNL A   1      32.382  20.058  23.917  1.00  0.00     0.054 A 
BRANCH  17  18
ATOM     18  S   UNL A   1      32.659  18.312  23.828  1.00  0.00     0.124 S 
ATOM     19  O   UNL A   1      32.053  17.690  24.973  1.00  0.00    -0.237 OA
ATOM     20  O   UNL A   1      32.349  17.899  22.473  1.00  0.00    -0.237 OA
ATOM     21  O   UNL A   1      34.245  18.116  24.053  1.00  0.00    -0.744 OA
ENDBRANCH  17  18
ENDBRANCH   8  12
BRANCH  10  22
ATOM     22  N   UNL A   1      29.799  27.975  23.076  1.00  0.00    -0.361 N 
ATOM     23  H   UNL A   1      29.970  27.711  22.142  1.00  0.00     0.166 HD
BRANCH  22  24
ATOM     24  C   UNL A   1      29.197  29.235  23.215  1.00  0.00     0.038 A 
ATOM     25  C   UNL A   1      27.934  29.441  22.629  1.00  0.00     0.026 A 
ATOM     26  C   UNL A   1      29.800  30.306  23.875  1.00  0.00     0.026 A 
ATOM     27  C   UNL A   1      27.325  30.696  22.635  1.00  0.00     0.002 A 
ATOM     28  C   UNL A   1      29.196  31.570  23.873  1.00  0.00     0.002 A 
ATOM     29  C   UNL A   1      27.968  31.767  23.243  1.00  0.00     0.000 A 
ENDBRANCH  22  24
ENDBRANCH  10  22
ENDBRANCH   3   5
ENDBRANCH   2   3
ENDBRANCH   1   2
BRANCH   1  30
ATOM     30  C   UNL A   1      33.447  29.292  25.862  1.00  0.00     0.275 C 
BRANCH  30  31
ATOM     31  O   UNL A   1      34.138  29.094  27.123  1.00  0.00    -0.458 OA
BRANCH  31  32
ATOM     32  C   UNL A   1      34.616  30.203  27.736  1.00  0.00     0.338 C 
ATOM     33  O   UNL A   1      33.987  31.217  27.971  1.00  0.00    -0.246 OA
BRANCH  32  34
ATOM     34  C   UNL A   1      35.998  29.921  28.210  1.00  0.00     0.060 A 
ATOM     35  C   UNL A   1      37.031  30.047  27.280  1.00  0.00     0.016 A 
ATOM     36  C   UNL A   1      36.299  29.560  29.529  1.00  0.00     0.016 A 
ATOM     37  C   UNL A   1      38.353  29.772  27.651  1.00  0.00     0.010 A 
ATOM     38  C   UNL A   1      37.635  29.329  29.907  1.00  0.00     0.010 A 
ATOM     39  C   UNL A   1      38.677  29.393  28.963  1.00  0.00    -0.014 A 
BRANCH  39  40
ATOM     40  C   UNL A   1      40.072  28.958  29.294  1.00  0.00     0.031 A 
ATOM     41  C   UNL A   1      40.527  27.557  28.943  1.00  0.00     0.074 A 
ATOM     42  C   UNL A   1      40.969  29.813  29.830  1.00  0.00     0.049 A 
ATOM     43  N   UNL A   1      41.714  27.011  29.071  1.00  0.00    -0.248 NA
ATOM     44  C   UNL A   1      39.519  26.651  28.368  1.00  0.00     0.031 C 
ATOM     45  C   UNL A   1      40.705  31.204  30.202  1.00  0.00     0.029 A 
ATOM     46  N   UNL A   1      42.299  29.638  30.146  1.00  0.00    -0.354 N 
ATOM     47  C   UNL A   1      41.600  25.724  28.556  1.00  0.00     0.074 A 
ATOM     48  C   UNL A   1      40.210  25.532  28.210  1.00  0.00     0.031 C 
ATOM     49  C   UNL A   1      41.835  31.756  30.680  1.00  0.00     0.029 A 
ATOM     50  C   UNL A   1      42.898  30.755  30.686  1.00  0.00     0.049 A 
ATOM     51  H   UNL A   1      42.778  28.790  29.999  1.00  0.00     0.167 HD
ATOM     52  C   UNL A   1      42.565  24.798  28.332  1.00  0.00     0.031 A 
ATOM     53  C   UNL A   1      44.150  30.945  31.155  1.00  0.00     0.031 A 
ATOM     54  C   UNL A   1      43.956  24.968  28.657  1.00  0.00     0.049 A 
ATOM     55  C   UNL A   1      45.142  29.806  31.102  1.00  0.00     0.074 A 
ATOM     56  C   UNL A   1      45.013  24.111  28.398  1.00  0.00     0.029 A 
ATOM     57  N   UNL A   1      44.481  26.064  29.316  1.00  0.00    -0.354 N 
ATOM     58  N   UNL A   1      45.035  28.634  30.525  1.00  0.00    -0.248 NA
ATOM     59  C   UNL A   1      46.444  30.029  31.754  1.00  0.00     0.031 C 
ATOM     60  C   UNL A   1      46.170  24.664  28.955  1.00  0.00     0.029 A 
ATOM     61  C   UNL A   1      45.840  25.887  29.513  1.00  0.00     0.049 A 
ATOM     62  H   UNL A   1      43.967  26.854  29.602  1.00  0.00     0.167 HD
ATOM     63  C   UNL A   1      46.277  28.022  30.672  1.00  0.00     0.074 A 
ATOM     64  C   UNL A   1      47.114  28.936  31.417  1.00  0.00     0.031 C 
ATOM     65  C   UNL A   1      46.689  26.819  30.205  1.00  0.00     0.031 A 
BRANCH  52  66
ATOM     66  C   UNL A   1      42.152  23.515  27.664  1.00  0.00    -0.014 A 
ATOM     67  C   UNL A   1      42.215  23.383  26.266  1.00  0.00     0.009 A 
ATOM     68  C   UNL A   1      41.751  22.412  28.432  1.00  0.00     0.009 A 
ATOM     69  C   UNL A   1      41.848  22.185  25.650  1.00  0.00     0.001 A 
ATOM     70  C   UNL A   1      41.410  21.207  27.814  1.00  0.00     0.001 A 
ATOM     71  C   UNL A   1      41.450  21.097  26.424  1.00  0.00     0.000 A 
ENDBRANCH  52  66
BRANCH  53  72
ATOM     72  C   UNL A   1      44.555  32.238  31.789  1.00  0.00    -0.014 A 
ATOM     73  C   UNL A   1      44.366  32.465  33.161  1.00  0.00     0.009 A 
ATOM     74  C   UNL A   1      45.021  33.303  31.001  1.00  0.00     0.009 A 
ATOM     75  C   UNL A   1      44.587  33.733  33.709  1.00  0.00     0.001 A 
ATOM     76  C   UNL A   1      45.261  34.563  31.550  1.00  0.00     0.001 A 
ATOM     77  C   UNL A   1      45.029  34.782  32.904  1.00  0.00     0.000 A 
ENDBRANCH  53  72
BRANCH  65  78
ATOM     78  C   UNL A   1      48.143  26.466  30.359  1.00  0.00    -0.014 A 
ATOM     79  C   UNL A   1      48.624  25.757  31.469  1.00  0.00     0.009 A 
ATOM     80  C   UNL A   1      49.040  26.813  29.334  1.00  0.00     0.009 A 
ATOM     81  C   UNL A   1      49.979  25.424  31.559  1.00  0.00     0.001 A 
ATOM     82  C   UNL A   1      50.387  26.457  29.415  1.00  0.00     0.001 A 
ATOM     83  C   UNL A   1      50.857  25.769  30.531  1.00  0.00     0.000 A 
ENDBRANCH  65  78
ENDBRANCH  39  40
ENDBRANCH  32  34
ENDBRANCH  31  32
ENDBRANCH  30  31
ENDBRANCH   1  30
TORSDOF 15
ENDMDL
MODEL 3
REMARK VINA RESULT:     -11.9      1.804      2.650
REMARK SMILES O=C(OCCOC(=O)c1ccc(-c2c3nc(c(-c4ccccc4)c4ccc([nH]4)c(-c4ccccc4)c4nc(c(-c5ccccc5)c5ccc2[nH]5)C=C4)C=C3)cc1)C1=NN(c2ccc(S(=O)(=O)[O-])cc2)C(=O)/C1=C/Nc1ccccc1
REMARK SMILES IDX 4 1 3 2 2 3 1 4 57 5 58 6 72 7 59 8 70 9 73 10 71 11 60 12
REMARK SMILES IDX 61 13 69 14 62 15 68 16 63 17 64 18 65 19 66 20 67 21 74 22
REMARK SMILES IDX 75 24 76 25 80 26 77 27 79 28 78 29 5 30 6 31 7 32 8 33 9 34
REMARK SMILES IDX 10 35 56 36 11 37 55 38 12 39 13 40 14 41 49 42 15 43 54 44
REMARK SMILES IDX 48 45 50 46 16 47 53 48 47 49 46 50 17 52 39 53 24 54 38 55
REMARK SMILES IDX 25 56 28 57 37 58 51 59 26 60 27 61 36 63 52 64 29 65 18 66
REMARK SMILES IDX 19 67 23 68 20 69 22 70 21 71 40 72 41 73 45 74 42 75 44 76
REMARK SMILES IDX 43 77 30 78 31 79 35 80 32 81 34 82 33 83
REMARK H PARENT 74 23 50 51 28 62
REMARK Flexibility Score: inf
ROOT
ATOM      1  C   UNL A   1      33.545  29.039  25.043  1.00  0.00     0.275 C 
ENDROOT
BRANCH   1   2
ATOM      2  O   UNL A   1      33.148  29.040  23.656  1.00  0.00    -0.457 OA
BRANCH   2   3
ATOM      3  C   UNL A   1      33.302  27.899  22.975  1.00  0.00     0.359 C 
ATOM      4  O   UNL A   1      33.996  27.749  21.984  1.00  0.00    -0.244 OA
BRANCH   3   5
ATOM      5  C   UNL A   1      32.558  26.760  23.621  1.00  0.00     0.183 C 
ATOM      6  N   UNL A   1      33.180  25.638  23.887  1.00  0.00    -0.157 NA
ATOM      7  C   UNL A   1      31.131  26.735  24.038  1.00  0.00     0.093 C 
ATOM      8  N   UNL A   1      32.234  24.820  24.470  1.00  0.00    -0.196 N 
ATOM      9  C   UNL A   1      31.011  25.439  24.746  1.00  0.00     0.282 C 
ATOM     10  C   UNL A   1      29.960  27.337  23.766  1.00  0.00     0.099 C 
ATOM     11  O   UNL A   1      30.013  25.016  25.302  1.00  0.00    -0.267 OA
BRANCH   8  12
ATOM     12  C   UNL A   1      32.456  23.431  24.455  1.00  0.00     0.069 A 
ATOM     13  C   UNL A   1      32.922  22.754  25.587  1.00  0.00     0.030 A 
ATOM     14  C   UNL A   1      32.260  22.720  23.263  1.00  0.00     0.030 A 
ATOM     15  C   UNL A   1      33.088  21.363  25.550  1.00  0.00     0.021 A 
ATOM     16  C   UNL A   1      32.478  21.350  23.202  1.00  0.00     0.021 A 
ATOM     17  C   UNL A   1      32.855  20.670  24.355  1.00  0.00     0.054 A 
BRANCH  17  18
ATOM     18  S   UNL A   1      32.906  18.900  24.331  1.00  0.00     0.124 S 
ATOM     19  O   UNL A   1      34.276  18.479  24.236  1.00  0.00    -0.237 OA
ATOM     20  O   UNL A   1      32.029  18.433  25.388  1.00  0.00    -0.237 OA
ATOM     21  O   UNL A   1      32.251  18.470  22.921  1.00  0.00    -0.744 OA
ENDBRANCH  17  18
ENDBRANCH   8  12
BRANCH  10  22
ATOM     22  N   UNL A   1      29.615  28.162  22.730  1.00  0.00    -0.361 N 
ATOM     23  H   UNL A   1      29.691  27.745  21.841  1.00  0.00     0.166 HD
BRANCH  22  24
ATOM     24  C   UNL A   1      29.172  29.494  22.702  1.00  0.00     0.038 A 
ATOM     25  C   UNL A   1      29.565  30.351  23.748  1.00  0.00     0.026 A 
ATOM     26  C   UNL A   1      28.334  30.005  21.711  1.00  0.00     0.026 A 
ATOM     27  C   UNL A   1      29.077  31.655  23.842  1.00  0.00     0.002 A 
ATOM     28  C   UNL A   1      27.834  31.310  21.809  1.00  0.00     0.002 A 
ATOM     29  C   UNL A   1      28.195  32.128  22.879  1.00  0.00     0.000 A 
ENDBRANCH  22  24
ENDBRANCH  10  22
ENDBRANCH   3   5
ENDBRANCH   2   3
ENDBRANCH   1   2
BRANCH   1  30
ATOM     30  C   UNL A   1      32.916  30.090  25.985  1.00  0.00     0.275 C 
BRANCH  30  31
ATOM     31  O   UNL A   1      33.424  29.925  27.335  1.00  0.00    -0.458 OA
BRANCH  31  32
ATOM     32  C   UNL A   1      34.242  30.899  27.801  1.00  0.00     0.338 C 
ATOM     33  O   UNL A   1      33.914  32.038  28.073  1.00  0.00    -0.246 OA
BRANCH  32  34
ATOM     34  C   UNL A   1      35.579  30.304  28.067  1.00  0.00     0.060 A 
ATOM     35  C   UNL A   1      35.791  29.746  29.329  1.00  0.00     0.016 A 
ATOM     36  C   UNL A   1      36.606  30.264  27.116  1.00  0.00     0.016 A 
ATOM     37  C   UNL A   1      37.034  29.190  29.656  1.00  0.00     0.010 A 
ATOM     38  C   UNL A   1      37.839  29.664  27.435  1.00  0.00     0.010 A 
ATOM     39  C   UNL A   1      38.084  29.154  28.724  1.00  0.00    -0.014 A 
BRANCH  39  40
ATOM     40  C   UNL A   1      39.446  28.695  29.148  1.00  0.00     0.031 A 
ATOM     41  C   UNL A   1      40.260  29.538  30.106  1.00  0.00     0.074 A 
ATOM     42  C   UNL A   1      39.940  27.501  28.757  1.00  0.00     0.049 A 
ATOM     43  N   UNL A   1      41.424  29.282  30.656  1.00  0.00    -0.248 NA
ATOM     44  C   UNL A   1      39.692  30.838  30.502  1.00  0.00     0.031 C 
ATOM     45  C   UNL A   1      39.275  26.554  27.860  1.00  0.00     0.029 A 
ATOM     46  N   UNL A   1      41.123  26.870  29.079  1.00  0.00    -0.354 N 
ATOM     47  C   UNL A   1      41.699  30.362  31.488  1.00  0.00     0.074 A 
ATOM     48  C   UNL A   1      40.636  31.322  31.294  1.00  0.00     0.031 C 
ATOM     49  C   UNL A   1      40.050  25.463  27.716  1.00  0.00     0.029 A 
ATOM     50  C   UNL A   1      41.283  25.641  28.476  1.00  0.00     0.049 A 
ATOM     51  H   UNL A   1      41.793  27.263  29.683  1.00  0.00     0.167 HD
ATOM     52  C   UNL A   1      42.707  30.527  32.380  1.00  0.00     0.031 A 
ATOM     53  C   UNL A   1      42.315  24.770  28.511  1.00  0.00     0.031 A 
ATOM     54  C   UNL A   1      43.769  29.583  32.600  1.00  0.00     0.049 A 
ATOM     55  C   UNL A   1      43.534  25.098  29.341  1.00  0.00     0.074 A 
ATOM     56  C   UNL A   1      44.791  29.636  33.534  1.00  0.00     0.029 A 
ATOM     57  N   UNL A   1      43.951  28.420  31.874  1.00  0.00    -0.354 N 
ATOM     58  N   UNL A   1      43.726  26.079  30.190  1.00  0.00    -0.248 NA
ATOM     59  C   UNL A   1      44.680  24.179  29.229  1.00  0.00     0.031 C 
ATOM     60  C   UNL A   1      45.626  28.533  33.333  1.00  0.00     0.029 A 
ATOM     61  C   UNL A   1      45.093  27.769  32.309  1.00  0.00     0.049 A 
ATOM     62  H   UNL A   1      43.357  28.102  31.156  1.00  0.00     0.167 HD
ATOM     63  C   UNL A   1      44.970  25.845  30.768  1.00  0.00     0.074 A 
ATOM     64  C   UNL A   1      45.503  24.648  30.156  1.00  0.00     0.031 C 
ATOM     65  C   UNL A   1      45.598  26.548  31.741  1.00  0.00     0.031 A 
BRANCH  52  66
ATOM     66  C   UNL A   1      42.690  31.774  33.222  1.00  0.00    -0.014 A 
ATOM     67  C   UNL A   1      43.342  32.940  32.787  1.00  0.00     0.009 A 
ATOM     68  C   UNL A   1      41.974  31.807  34.428  1.00  0.00     0.009 A 
ATOM     69  C   UNL A   1      43.308  34.102  33.561  1.00  0.00     0.001 A 
ATOM     70  C   UNL A   1      41.920  32.978  35.186  1.00  0.00     0.001 A 
ATOM     71  C   UNL A   1      42.595  34.121  34.758  1.00  0.00     0.000 A 
ENDBRANCH  52  66
BRANCH  53  72
ATOM     72  C   UNL A   1      42.303  23.519  27.692  1.00  0.00    -0.014 A 
ATOM     73  C   UNL A   1      41.901  22.293  28.244  1.00  0.00     0.009 A 
ATOM     74  C   UNL A   1      42.813  23.519  26.383  1.00  0.00     0.009 A 
ATOM     75  C   UNL A   1      42.058  21.104  27.523  1.00  0.00     0.001 A 
ATOM     76  C   UNL A   1      42.951  22.336  25.656  1.00  0.00     0.001 A 
ATOM     77  C   UNL A   1      42.587  21.124  26.234  1.00  0.00     0.000 A 
ENDBRANCH  53  72
BRANCH  65  78
ATOM     78  C   UNL A   1      46.869  25.980  32.310  1.00  0.00    -0.014 A 
ATOM     79  C   UNL A   1      46.871  25.126  33.422  1.00  0.00     0.009 A 
ATOM     80  C   UNL A   1      48.090  26.274  31.678  1.00  0.00     0.009 A 
ATOM     81  C   UNL A   1      48.073  24.597  33.902  1.00  0.00     0.001 A 
ATOM     82  C   UNL A   1      49.284  25.725  32.144  1.00  0.00     0.001 A 
ATOM     83  C   UNL A   1      49.276  24.892  33.261  1.00  0.00     0.000 A 
ENDBRANCH  65  78
ENDBRANCH  39  40
ENDBRANCH  32  34
ENDBRANCH  31  32
ENDBRANCH  30  31
ENDBRANCH   1  30
TORSDOF 15
ENDMDL
