MODEL 1
REMARK VINA RESULT:     -12.4      0.000      0.000
REMARK SMILES NS(=O)(=O)c1ccc(-c2cc(Cl)cc3c2O[C@H](C(F)(F)F)C(C(=O)OCCOC(=O)c2ccc(-c4c5nc(c(-c6ccccc6)c6ccc([nH]6)c(-c6ccccc6)c6nc(c(-c7ccccc7)c7ccc4[nH]7)C=C6)C=C5)cc2)=C3)cc1
REMARK SMILES IDX 26 1 25 2 23 3 24 4 22 5 9 6 10 7 15 8 11 9 14 10 16 11
REMARK SMILES IDX 12 12 13 13 79 14 17 15 8 16 5 17 6 18 81 19 7 20 80 21 2 22
REMARK SMILES IDX 3 23 4 24 1 25 18 28 19 29 20 30 21 31 27 32 28 33 29 34
REMARK SMILES IDX 30 35 31 36 32 37 78 38 33 39 77 40 34 41 35 42 36 43 71 44
REMARK SMILES IDX 37 45 76 46 70 47 72 48 38 49 75 50 69 51 68 52 39 54 61 55
REMARK SMILES IDX 46 56 60 57 47 58 50 59 59 60 73 61 48 62 49 63 58 65 74 66
REMARK SMILES IDX 51 67 40 68 41 69 45 70 42 71 44 72 43 73 62 74 63 75 67 76
REMARK SMILES IDX 64 77 66 78 65 79 52 80 53 81 57 82 54 83 56 84 55 85
REMARK H PARENT 1 26 1 27 72 53 50 64
REMARK Flexibility Score: inf
ROOT
ATOM      1  C   UNL A   1      31.051  29.182  24.427  1.00  0.00     0.275 C 
ENDROOT
BRANCH   1   2
ATOM      2  O   UNL A   1      30.607  27.991  25.128  1.00  0.00    -0.459 OA
BRANCH   2   3
ATOM      3  C   UNL A   1      30.543  26.891  24.336  1.00  0.00     0.338 C 
ATOM      4  O   UNL A   1      29.502  26.425  23.887  1.00  0.00    -0.246 OA
BRANCH   3   5
ATOM      5  C   UNL A   1      31.864  26.274  24.032  1.00  0.00     0.087 C 
ATOM      6  C   UNL A   1      32.060  22.255  24.599  1.00  0.00     0.026 A 
ATOM      7  C   UNL A   1      31.093  22.051  25.619  1.00  0.00     0.033 A 
ATOM      8  C   UNL A   1      32.379  23.595  24.359  1.00  0.00     0.135 A 
ATOM      9  C   UNL A   1      30.633  23.069  26.459  1.00  0.00     0.042 A 
ATOM     10  C   UNL A   1      32.097  24.556  25.363  1.00  0.00     0.019 A 
ATOM     11  O   UNL A   1      32.819  24.101  23.143  1.00  0.00    -0.475 OA
ATOM     12  Cl  UNL A   1      29.357  22.861  27.584  1.00  0.00    -0.084 Cl
ATOM     13  C   UNL A   1      31.220  24.306  26.403  1.00  0.00     0.032 A 
ATOM     14  C   UNL A   1      32.540  25.945  25.146  1.00  0.00     0.027 C 
ATOM     15  C   UNL A   1      32.167  25.428  22.805  1.00  0.00     0.316 C 
BRANCH   6  16
ATOM     16  C   UNL A   1      32.712  20.998  24.116  1.00  0.00    -0.015 A 
ATOM     17  C   UNL A   1      33.527  18.258  24.054  1.00  0.00     0.082 A 
ATOM     18  C   UNL A   1      32.528  18.724  23.194  1.00  0.00     0.022 A 
ATOM     19  C   UNL A   1      34.202  19.168  24.861  1.00  0.00     0.022 A 
ATOM     20  C   UNL A   1      32.153  20.092  23.203  1.00  0.00     0.010 A 
ATOM     21  C   UNL A   1      33.796  20.511  24.887  1.00  0.00     0.010 A 
BRANCH  17  22
ATOM     22  S   UNL A   1      34.070  16.559  24.010  1.00  0.00     0.238 S 
ATOM     23  O   UNL A   1      35.197  16.432  24.911  1.00  0.00    -0.207 OA
ATOM     24  O   UNL A   1      34.156  16.152  22.627  1.00  0.00    -0.207 OA
BRANCH  22  25
ATOM     25  N   UNL A   1      32.812  15.684  24.676  1.00  0.00    -0.225 NA
ATOM     26  H   UNL A   1      32.682  15.961  25.648  1.00  0.00     0.137 HD
ATOM     27  H   UNL A   1      33.030  14.688  24.633  1.00  0.00     0.137 HD
ENDBRANCH  22  25
ENDBRANCH  17  22
ENDBRANCH   6  16
BRANCH  15  28
ATOM     28  C   UNL A   1      33.087  26.279  21.919  1.00  0.00     0.430 C 
ATOM     29  F   UNL A   1      32.777  27.596  21.993  1.00  0.00    -0.167 F 
ATOM     30  F   UNL A   1      34.387  26.142  22.255  1.00  0.00    -0.167 F 
ATOM     31  F   UNL A   1      32.974  25.921  20.615  1.00  0.00    -0.167 F 
ENDBRANCH  15  28
ENDBRANCH   3   5
ENDBRANCH   2   3
ENDBRANCH   1   2
BRANCH   1  32
ATOM     32  C   UNL A   1      32.427  29.681  24.879  1.00  0.00     0.275 C 
BRANCH  32  33
ATOM     33  O   UNL A   1      32.584  29.603  26.308  1.00  0.00    -0.458 OA
BRANCH  33  34
ATOM     34  C   UNL A   1      32.808  30.802  26.894  1.00  0.00     0.338 C 
ATOM     35  O   UNL A   1      31.997  31.710  27.008  1.00  0.00    -0.246 OA
BRANCH  34  36
ATOM     36  C   UNL A   1      34.151  30.871  27.515  1.00  0.00     0.060 A 
ATOM     37  C   UNL A   1      34.694  29.654  27.918  1.00  0.00     0.016 A 
ATOM     38  C   UNL A   1      34.869  32.050  27.750  1.00  0.00     0.016 A 
ATOM     39  C   UNL A   1      35.946  29.623  28.526  1.00  0.00     0.010 A 
ATOM     40  C   UNL A   1      36.139  32.004  28.375  1.00  0.00     0.010 A 
ATOM     41  C   UNL A   1      36.702  30.780  28.758  1.00  0.00    -0.014 A 
BRANCH  41  42
ATOM     42  C   UNL A   1      38.041  30.599  29.413  1.00  0.00     0.031 A 
ATOM     43  C   UNL A   1      38.213  30.959  30.861  1.00  0.00     0.074 A 
ATOM     44  C   UNL A   1      39.033  29.897  28.826  1.00  0.00     0.049 A 
ATOM     45  N   UNL A   1      39.233  30.722  31.647  1.00  0.00    -0.248 NA
ATOM     46  C   UNL A   1      37.092  31.654  31.512  1.00  0.00     0.031 C 
ATOM     47  C   UNL A   1      38.991  29.403  27.465  1.00  0.00     0.029 A 
ATOM     48  N   UNL A   1      40.223  29.396  29.309  1.00  0.00    -0.354 N 
ATOM     49  C   UNL A   1      38.879  31.248  32.879  1.00  0.00     0.074 A 
ATOM     50  C   UNL A   1      37.534  31.768  32.754  1.00  0.00     0.031 C 
ATOM     51  C   UNL A   1      39.989  28.529  27.265  1.00  0.00     0.029 A 
ATOM     52  C   UNL A   1      40.865  28.546  28.429  1.00  0.00     0.049 A 
ATOM     53  H   UNL A   1      40.582  29.624  30.197  1.00  0.00     0.167 HD
ATOM     54  C   UNL A   1      39.623  31.339  34.005  1.00  0.00     0.031 A 
ATOM     55  C   UNL A   1      42.049  27.902  28.513  1.00  0.00     0.031 A 
ATOM     56  C   UNL A   1      40.993  30.933  34.116  1.00  0.00     0.049 A 
ATOM     57  C   UNL A   1      42.925  28.184  29.702  1.00  0.00     0.074 A 
ATOM     58  C   UNL A   1      41.839  31.054  35.204  1.00  0.00     0.029 A 
ATOM     59  N   UNL A   1      41.732  30.364  33.094  1.00  0.00    -0.354 N 
ATOM     60  N   UNL A   1      42.626  28.826  30.804  1.00  0.00    -0.248 NA
ATOM     61  C   UNL A   1      44.318  27.718  29.630  1.00  0.00     0.031 C 
ATOM     62  C   UNL A   1      43.096  30.565  34.835  1.00  0.00     0.029 A 
ATOM     63  C   UNL A   1      43.009  30.075  33.543  1.00  0.00     0.049 A 
ATOM     64  H   UNL A   1      41.400  30.190  32.185  1.00  0.00     0.167 HD
ATOM     65  C   UNL A   1      43.796  28.843  31.554  1.00  0.00     0.074 A 
ATOM     66  C   UNL A   1      44.799  28.129  30.795  1.00  0.00     0.031 C 
ATOM     67  C   UNL A   1      44.015  29.403  32.768  1.00  0.00     0.031 A 
BRANCH  54  68
ATOM     68  C   UNL A   1      38.970  31.994  35.181  1.00  0.00    -0.014 A 
ATOM     69  C   UNL A   1      38.973  33.389  35.326  1.00  0.00     0.009 A 
ATOM     70  C   UNL A   1      38.364  31.199  36.165  1.00  0.00     0.009 A 
ATOM     71  C   UNL A   1      38.403  33.975  36.457  1.00  0.00     0.001 A 
ATOM     72  C   UNL A   1      37.778  31.790  37.283  1.00  0.00     0.001 A 
ATOM     73  C   UNL A   1      37.806  33.176  37.431  1.00  0.00     0.000 A 
ENDBRANCH  54  68
BRANCH  55  74
ATOM     74  C   UNL A   1      42.562  27.048  27.398  1.00  0.00    -0.014 A 
ATOM     75  C   UNL A   1      43.222  27.612  26.293  1.00  0.00     0.009 A 
ATOM     76  C   UNL A   1      42.322  25.664  27.393  1.00  0.00     0.009 A 
ATOM     77  C   UNL A   1      43.608  26.814  25.209  1.00  0.00     0.001 A 
ATOM     78  C   UNL A   1      42.749  24.862  26.332  1.00  0.00     0.001 A 
ATOM     79  C   UNL A   1      43.379  25.439  25.234  1.00  0.00     0.000 A 
ENDBRANCH  55  74
BRANCH  67  80
ATOM     80  C   UNL A   1      45.378  29.235  33.372  1.00  0.00    -0.014 A 
ATOM     81  C   UNL A   1      46.361  30.229  33.255  1.00  0.00     0.009 A 
ATOM     82  C   UNL A   1      45.661  28.080  34.118  1.00  0.00     0.009 A 
ATOM     83  C   UNL A   1      47.607  30.060  33.864  1.00  0.00     0.001 A 
ATOM     84  C   UNL A   1      46.897  27.926  34.746  1.00  0.00     0.001 A 
ATOM     85  C   UNL A   1      47.870  28.915  34.615  1.00  0.00     0.000 A 
ENDBRANCH  67  80
ENDBRANCH  41  42
ENDBRANCH  34  36
ENDBRANCH  33  34
ENDBRANCH  32  33
ENDBRANCH   1  32
TORSDOF 15
ENDMDL
MODEL 2
REMARK VINA RESULT:     -12.3      0.820      5.723
REMARK SMILES NS(=O)(=O)c1ccc(-c2cc(Cl)cc3c2O[C@H](C(F)(F)F)C(C(=O)OCCOC(=O)c2ccc(-c4c5nc(c(-c6ccccc6)c6ccc([nH]6)c(-c6ccccc6)c6nc(c(-c7ccccc7)c7ccc4[nH]7)C=C6)C=C5)cc2)=C3)cc1
REMARK SMILES IDX 26 1 25 2 23 3 24 4 22 5 9 6 10 7 15 8 11 9 14 10 16 11
REMARK SMILES IDX 12 12 13 13 79 14 17 15 8 16 5 17 6 18 81 19 7 20 80 21 2 22
REMARK SMILES IDX 3 23 4 24 1 25 18 28 19 29 20 30 21 31 27 32 28 33 29 34
REMARK SMILES IDX 30 35 31 36 32 37 78 38 33 39 77 40 34 41 35 42 36 43 71 44
REMARK SMILES IDX 37 45 76 46 70 47 72 48 38 49 75 50 69 51 68 52 39 54 61 55
REMARK SMILES IDX 46 56 60 57 47 58 50 59 59 60 73 61 48 62 49 63 58 65 74 66
REMARK SMILES IDX 51 67 40 68 41 69 45 70 42 71 44 72 43 73 62 74 63 75 67 76
REMARK SMILES IDX 64 77 66 78 65 79 52 80 53 81 57 82 54 83 56 84 55 85
REMARK H PARENT 1 26 1 27 72 53 50 64
REMARK Flexibility Score: inf
ROOT
ATOM      1  C   UNL A   1      30.912  29.038  24.105  1.00  0.00     0.275 C 
ENDROOT
BRANCH   1   2
ATOM      2  O   UNL A   1      30.370  27.939  24.883  1.00  0.00    -0.459 OA
BRANCH   2   3
ATOM      3  C   UNL A   1      30.327  26.766  24.202  1.00  0.00     0.338 C 
ATOM      4  O   UNL A   1      29.293  26.211  23.849  1.00  0.00    -0.246 OA
BRANCH   3   5
ATOM      5  C   UNL A   1      31.664  26.183  23.898  1.00  0.00     0.087 C 
ATOM      6  C   UNL A   1      31.987  22.183  24.541  1.00  0.00     0.026 A 
ATOM      7  C   UNL A   1      31.037  21.971  25.574  1.00  0.00     0.033 A 
ATOM      8  C   UNL A   1      32.263  23.528  24.272  1.00  0.00     0.135 A 
ATOM      9  C   UNL A   1      30.554  22.991  26.399  1.00  0.00     0.042 A 
ATOM     10  C   UNL A   1      31.962  24.499  25.260  1.00  0.00     0.019 A 
ATOM     11  O   UNL A   1      32.676  24.022  23.042  1.00  0.00    -0.475 OA
ATOM     12  Cl  UNL A   1      29.295  22.767  27.541  1.00  0.00    -0.084 Cl
ATOM     13  C   UNL A   1      31.103  24.244  26.313  1.00  0.00     0.032 A 
ATOM     14  C   UNL A   1      32.359  25.897  25.011  1.00  0.00     0.027 C 
ATOM     15  C   UNL A   1      31.980  25.322  22.685  1.00  0.00     0.316 C 
BRANCH   6  16
ATOM     16  C   UNL A   1      32.673  20.937  24.076  1.00  0.00    -0.015 A 
ATOM     17  C   UNL A   1      33.553  18.217  24.049  1.00  0.00     0.082 A 
ATOM     18  C   UNL A   1      32.550  18.651  23.176  1.00  0.00     0.022 A 
ATOM     19  C   UNL A   1      34.200  19.151  24.852  1.00  0.00     0.022 A 
ATOM     20  C   UNL A   1      32.142  20.009  23.169  1.00  0.00     0.010 A 
ATOM     21  C   UNL A   1      33.762  20.484  24.861  1.00  0.00     0.010 A 
BRANCH  17  22
ATOM     22  S   UNL A   1      34.137  16.531  24.026  1.00  0.00     0.238 S 
ATOM     23  O   UNL A   1      35.185  16.414  25.018  1.00  0.00    -0.207 OA
ATOM     24  O   UNL A   1      34.348  16.149  22.650  1.00  0.00    -0.207 OA
BRANCH  22  25
ATOM     25  N   UNL A   1      32.846  15.618  24.570  1.00  0.00    -0.225 NA
ATOM     26  H   UNL A   1      32.121  15.595  23.853  1.00  0.00     0.137 HD
ATOM     27  H   UNL A   1      32.469  16.035  25.421  1.00  0.00     0.137 HD
ENDBRANCH  22  25
ENDBRANCH  17  22
ENDBRANCH   6  16
BRANCH  15  28
ATOM     28  C   UNL A   1      32.866  26.182  21.773  1.00  0.00     0.430 C 
ATOM     29  F   UNL A   1      32.800  25.776  20.481  1.00  0.00    -0.167 F 
ATOM     30  F   UNL A   1      32.522  27.487  21.811  1.00  0.00    -0.167 F 
ATOM     31  F   UNL A   1      34.169  26.103  22.144  1.00  0.00    -0.167 F 
ENDBRANCH  15  28
ENDBRANCH   3   5
ENDBRANCH   2   3
ENDBRANCH   1   2
BRANCH   1  32
ATOM     32  C   UNL A   1      32.142  29.690  24.742  1.00  0.00     0.275 C 
BRANCH  32  33
ATOM     33  O   UNL A   1      32.012  29.801  26.171  1.00  0.00    -0.458 OA
BRANCH  33  34
ATOM     34  C   UNL A   1      32.446  30.985  26.663  1.00  0.00     0.338 C 
ATOM     35  O   UNL A   1      31.870  32.059  26.566  1.00  0.00    -0.246 OA
BRANCH  34  36
ATOM     36  C   UNL A   1      33.681  30.829  27.467  1.00  0.00     0.060 A 
ATOM     37  C   UNL A   1      33.968  29.534  27.889  1.00  0.00     0.016 A 
ATOM     38  C   UNL A   1      34.528  31.877  27.852  1.00  0.00     0.016 A 
ATOM     39  C   UNL A   1      35.099  29.295  28.663  1.00  0.00     0.010 A 
ATOM     40  C   UNL A   1      35.672  31.619  28.644  1.00  0.00     0.010 A 
ATOM     41  C   UNL A   1      35.982  30.314  29.049  1.00  0.00    -0.014 A 
BRANCH  41  42
ATOM     42  C   UNL A   1      37.168  29.911  29.876  1.00  0.00     0.031 A 
ATOM     43  C   UNL A   1      38.366  29.300  29.207  1.00  0.00     0.074 A 
ATOM     44  C   UNL A   1      37.306  30.299  31.161  1.00  0.00     0.049 A 
ATOM     45  N   UNL A   1      39.543  29.041  29.716  1.00  0.00    -0.248 NA
ATOM     46  C   UNL A   1      38.228  28.954  27.784  1.00  0.00     0.031 C 
ATOM     47  C   UNL A   1      36.280  30.976  31.927  1.00  0.00     0.029 A 
ATOM     48  N   UNL A   1      38.380  30.270  32.026  1.00  0.00    -0.354 N 
ATOM     49  C   UNL A   1      40.282  28.494  28.679  1.00  0.00     0.074 A 
ATOM     50  C   UNL A   1      39.441  28.505  27.501  1.00  0.00     0.031 C 
ATOM     51  C   UNL A   1      36.802  31.462  33.062  1.00  0.00     0.029 A 
ATOM     52  C   UNL A   1      38.163  30.962  33.202  1.00  0.00     0.049 A 
ATOM     53  H   UNL A   1      39.220  29.800  31.825  1.00  0.00     0.167 HD
ATOM     54  C   UNL A   1      41.531  27.977  28.710  1.00  0.00     0.031 A 
ATOM     55  C   UNL A   1      38.937  31.128  34.297  1.00  0.00     0.031 A 
ATOM     56  C   UNL A   1      42.337  27.853  29.890  1.00  0.00     0.049 A 
ATOM     57  C   UNL A   1      40.239  30.379  34.361  1.00  0.00     0.074 A 
ATOM     58  C   UNL A   1      43.588  27.279  30.019  1.00  0.00     0.029 A 
ATOM     59  N   UNL A   1      41.956  28.273  31.152  1.00  0.00    -0.354 N 
ATOM     60  N   UNL A   1      40.855  29.725  33.408  1.00  0.00    -0.248 NA
ATOM     61  C   UNL A   1      40.916  30.330  35.667  1.00  0.00     0.031 C 
ATOM     62  C   UNL A   1      43.961  27.344  31.365  1.00  0.00     0.029 A 
ATOM     63  C   UNL A   1      42.973  28.022  32.057  1.00  0.00     0.049 A 
ATOM     64  H   UNL A   1      41.092  28.688  31.374  1.00  0.00     0.167 HD
ATOM     65  C   UNL A   1      41.989  29.184  34.001  1.00  0.00     0.074 A 
ATOM     66  C   UNL A   1      41.990  29.605  35.384  1.00  0.00     0.031 C 
ATOM     67  C   UNL A   1      42.947  28.407  33.441  1.00  0.00     0.031 A 
BRANCH  54  68
ATOM     68  C   UNL A   1      42.054  27.424  27.422  1.00  0.00    -0.014 A 
ATOM     69  C   UNL A   1      42.714  28.245  26.497  1.00  0.00     0.009 A 
ATOM     70  C   UNL A   1      41.863  26.065  27.127  1.00  0.00     0.009 A 
ATOM     71  C   UNL A   1      43.148  27.718  25.280  1.00  0.00     0.001 A 
ATOM     72  C   UNL A   1      42.316  25.539  25.920  1.00  0.00     0.001 A 
ATOM     73  C   UNL A   1      42.950  26.367  24.994  1.00  0.00     0.000 A 
ENDBRANCH  54  68
BRANCH  55  74
ATOM     74  C   UNL A   1      38.466  31.905  35.484  1.00  0.00    -0.014 A 
ATOM     75  C   UNL A   1      38.545  33.308  35.513  1.00  0.00     0.009 A 
ATOM     76  C   UNL A   1      38.007  31.241  36.633  1.00  0.00     0.009 A 
ATOM     77  C   UNL A   1      38.194  34.018  36.667  1.00  0.00     0.001 A 
ATOM     78  C   UNL A   1      37.614  31.954  37.768  1.00  0.00     0.001 A 
ATOM     79  C   UNL A   1      37.721  33.341  37.791  1.00  0.00     0.000 A 
ENDBRANCH  55  74
BRANCH  67  80
ATOM     80  C   UNL A   1      44.097  27.990  34.311  1.00  0.00    -0.014 A 
ATOM     81  C   UNL A   1      44.095  26.765  34.994  1.00  0.00     0.009 A 
ATOM     82  C   UNL A   1      45.224  28.822  34.402  1.00  0.00     0.009 A 
ATOM     83  C   UNL A   1      45.199  26.388  35.764  1.00  0.00     0.001 A 
ATOM     84  C   UNL A   1      46.335  28.431  35.150  1.00  0.00     0.001 A 
ATOM     85  C   UNL A   1      46.320  27.216  35.834  1.00  0.00     0.000 A 
ENDBRANCH  67  80
ENDBRANCH  41  42
ENDBRANCH  34  36
ENDBRANCH  33  34
ENDBRANCH  32  33
ENDBRANCH   1  32
TORSDOF 15
ENDMDL
MODEL 3
REMARK VINA RESULT:     -11.9      4.350      8.862
REMARK SMILES NS(=O)(=O)c1ccc(-c2cc(Cl)cc3c2O[C@H](C(F)(F)F)C(C(=O)OCCOC(=O)c2ccc(-c4c5nc(c(-c6ccccc6)c6ccc([nH]6)c(-c6ccccc6)c6nc(c(-c7ccccc7)c7ccc4[nH]7)C=C6)C=C5)cc2)=C3)cc1
REMARK SMILES IDX 26 1 25 2 23 3 24 4 22 5 9 6 10 7 15 8 11 9 14 10 16 11
REMARK SMILES IDX 12 12 13 13 79 14 17 15 8 16 5 17 6 18 81 19 7 20 80 21 2 22
REMARK SMILES IDX 3 23 4 24 1 25 18 28 19 29 20 30 21 31 27 32 28 33 29 34
REMARK SMILES IDX 30 35 31 36 32 37 78 38 33 39 77 40 34 41 35 42 36 43 71 44
REMARK SMILES IDX 37 45 76 46 70 47 72 48 38 49 75 50 69 51 68 52 39 54 61 55
REMARK SMILES IDX 46 56 60 57 47 58 50 59 59 60 73 61 48 62 49 63 58 65 74 66
REMARK SMILES IDX 51 67 40 68 41 69 45 70 42 71 44 72 43 73 62 74 63 75 67 76
REMARK SMILES IDX 64 77 66 78 65 79 52 80 53 81 57 82 54 83 56 84 55 85
REMARK H PARENT 1 26 1 27 72 53 50 64
REMARK Flexibility Score: inf
ROOT
ATOM      1  C   UNL A   1      45.115  22.643  25.614  1.00  0.00     0.275 C 
ENDROOT
BRANCH   1   2
ATOM      2  O   UNL A   1      43.704  22.842  25.890  1.00  0.00    -0.459 OA
BRANCH   2   3
ATOM      3  C   UNL A   1      43.354  22.530  27.164  1.00  0.00     0.338 C 
ATOM      4  O   UNL A   1      43.808  23.085  28.158  1.00  0.00    -0.246 OA
BRANCH   3   5
ATOM      5  C   UNL A   1      42.345  21.440  27.275  1.00  0.00     0.087 C 
ATOM      6  C   UNL A   1      38.633  22.385  25.917  1.00  0.00     0.026 A 
ATOM      7  C   UNL A   1      38.588  23.789  26.127  1.00  0.00     0.033 A 
ATOM      8  C   UNL A   1      39.722  21.742  26.514  1.00  0.00     0.135 A 
ATOM      9  C   UNL A   1      39.434  24.463  27.012  1.00  0.00     0.042 A 
ATOM     10  C   UNL A   1      40.399  22.389  27.579  1.00  0.00     0.019 A 
ATOM     11  O   UNL A   1      40.304  20.570  26.049  1.00  0.00    -0.475 OA
ATOM     12  Cl  UNL A   1      39.488  26.171  27.152  1.00  0.00    -0.084 Cl
ATOM     13  C   UNL A   1      40.271  23.743  27.825  1.00  0.00     0.032 A 
ATOM     14  C   UNL A   1      41.473  21.655  28.274  1.00  0.00     0.027 C 
ATOM     15  C   UNL A   1      41.819  20.621  26.106  1.00  0.00     0.316 C 
BRANCH   6  16
ATOM     16  C   UNL A   1      37.401  21.823  25.279  1.00  0.00    -0.015 A 
ATOM     17  C   UNL A   1      34.991  20.315  24.982  1.00  0.00     0.082 A 
ATOM     18  C   UNL A   1      34.949  21.705  25.129  1.00  0.00     0.022 A 
ATOM     19  C   UNL A   1      36.226  19.685  24.865  1.00  0.00     0.022 A 
ATOM     20  C   UNL A   1      36.149  22.452  25.240  1.00  0.00     0.010 A 
ATOM     21  C   UNL A   1      37.405  20.432  25.014  1.00  0.00     0.010 A 
BRANCH  17  22
ATOM     22  S   UNL A   1      33.499  19.360  24.765  1.00  0.00     0.238 S 
ATOM     23  O   UNL A   1      33.867  18.103  24.146  1.00  0.00    -0.207 OA
ATOM     24  O   UNL A   1      32.494  20.223  24.190  1.00  0.00    -0.207 OA
BRANCH  22  25
ATOM     25  N   UNL A   1      32.980  19.009  26.314  1.00  0.00    -0.225 NA
ATOM     26  H   UNL A   1      32.874  19.875  26.842  1.00  0.00     0.137 HD
ATOM     27  H   UNL A   1      33.666  18.412  26.776  1.00  0.00     0.137 HD
ENDBRANCH  22  25
ENDBRANCH  17  22
ENDBRANCH   6  16
BRANCH  15  28
ATOM     28  C   UNL A   1      42.407  19.214  26.276  1.00  0.00     0.430 C 
ATOM     29  F   UNL A   1      42.348  18.797  27.565  1.00  0.00    -0.167 F 
ATOM     30  F   UNL A   1      41.766  18.299  25.518  1.00  0.00    -0.167 F 
ATOM     31  F   UNL A   1      43.715  19.185  25.914  1.00  0.00    -0.167 F 
ENDBRANCH  15  28
ENDBRANCH   3   5
ENDBRANCH   2   3
ENDBRANCH   1   2
BRANCH   1  32
ATOM     32  C   UNL A   1      45.824  23.905  25.115  1.00  0.00     0.275 C 
BRANCH  32  33
ATOM     33  O   UNL A   1      44.890  24.928  24.725  1.00  0.00    -0.458 OA
BRANCH  33  34
ATOM     34  C   UNL A   1      45.289  26.178  25.054  1.00  0.00     0.338 C 
ATOM     35  O   UNL A   1      46.090  26.865  24.435  1.00  0.00    -0.246 OA
BRANCH  34  36
ATOM     36  C   UNL A   1      44.546  26.706  26.222  1.00  0.00     0.060 A 
ATOM     37  C   UNL A   1      44.929  27.970  26.662  1.00  0.00     0.016 A 
ATOM     38  C   UNL A   1      43.540  26.018  26.913  1.00  0.00     0.016 A 
ATOM     39  C   UNL A   1      44.297  28.539  27.763  1.00  0.00     0.010 A 
ATOM     40  C   UNL A   1      42.909  26.608  28.035  1.00  0.00     0.010 A 
ATOM     41  C   UNL A   1      43.272  27.890  28.466  1.00  0.00    -0.014 A 
BRANCH  41  42
ATOM     42  C   UNL A   1      42.671  28.626  29.629  1.00  0.00     0.031 A 
ATOM     43  C   UNL A   1      41.287  29.196  29.511  1.00  0.00     0.074 A 
ATOM     44  C   UNL A   1      43.223  28.586  30.860  1.00  0.00     0.049 A 
ATOM     45  N   UNL A   1      40.534  29.715  30.448  1.00  0.00    -0.248 NA
ATOM     46  C   UNL A   1      40.665  29.162  28.179  1.00  0.00     0.031 C 
ATOM     47  C   UNL A   1      44.512  27.998  31.161  1.00  0.00     0.029 A 
ATOM     48  N   UNL A   1      42.748  28.959  32.100  1.00  0.00    -0.354 N 
ATOM     49  C   UNL A   1      39.355  30.076  29.815  1.00  0.00     0.074 A 
ATOM     50  C   UNL A   1      39.470  29.672  28.430  1.00  0.00     0.031 C 
ATOM     51  C   UNL A   1      44.660  27.874  32.488  1.00  0.00     0.029 A 
ATOM     52  C   UNL A   1      43.554  28.556  33.146  1.00  0.00     0.049 A 
ATOM     53  H   UNL A   1      41.914  29.465  32.226  1.00  0.00     0.167 HD
ATOM     54  C   UNL A   1      38.289  30.733  30.324  1.00  0.00     0.031 A 
ATOM     55  C   UNL A   1      43.458  28.761  34.478  1.00  0.00     0.031 A 
ATOM     56  C   UNL A   1      38.202  31.242  31.662  1.00  0.00     0.049 A 
ATOM     57  C   UNL A   1      42.358  29.656  34.978  1.00  0.00     0.074 A 
ATOM     58  C   UNL A   1      37.183  31.979  32.237  1.00  0.00     0.029 A 
ATOM     59  N   UNL A   1      39.188  31.102  32.624  1.00  0.00    -0.354 N 
ATOM     60  N   UNL A   1      41.325  30.126  34.323  1.00  0.00    -0.248 NA
ATOM     61  C   UNL A   1      42.448  30.108  36.375  1.00  0.00     0.031 C 
ATOM     62  C   UNL A   1      37.557  32.293  33.547  1.00  0.00     0.029 A 
ATOM     63  C   UNL A   1      38.776  31.690  33.806  1.00  0.00     0.049 A 
ATOM     64  H   UNL A   1      40.052  30.651  32.487  1.00  0.00     0.167 HD
ATOM     65  C   UNL A   1      40.645  30.931  35.230  1.00  0.00     0.074 A 
ATOM     66  C   UNL A   1      41.366  30.867  36.482  1.00  0.00     0.031 C 
ATOM     67  C   UNL A   1      39.519  31.658  35.036  1.00  0.00     0.031 A 
BRANCH  54  68
ATOM     68  C   UNL A   1      37.165  31.013  29.377  1.00  0.00    -0.014 A 
ATOM     69  C   UNL A   1      36.970  32.295  28.843  1.00  0.00     0.009 A 
ATOM     70  C   UNL A   1      36.281  29.979  29.032  1.00  0.00     0.009 A 
ATOM     71  C   UNL A   1      35.885  32.544  28.002  1.00  0.00     0.001 A 
ATOM     72  C   UNL A   1      35.211  30.228  28.175  1.00  0.00     0.001 A 
ATOM     73  C   UNL A   1      35.009  31.511  27.668  1.00  0.00     0.000 A 
ENDBRANCH  54  68
BRANCH  55  74
ATOM     74  C   UNL A   1      44.490  28.249  35.431  1.00  0.00    -0.014 A 
ATOM     75  C   UNL A   1      44.299  27.045  36.132  1.00  0.00     0.009 A 
ATOM     76  C   UNL A   1      45.642  29.003  35.707  1.00  0.00     0.009 A 
ATOM     77  C   UNL A   1      45.225  26.627  37.094  1.00  0.00     0.001 A 
ATOM     78  C   UNL A   1      46.588  28.561  36.633  1.00  0.00     0.001 A 
ATOM     79  C   UNL A   1      46.373  27.380  37.338  1.00  0.00     0.000 A 
ENDBRANCH  55  74
BRANCH  67  80
ATOM     80  C   UNL A   1      38.971  32.413  36.212  1.00  0.00    -0.014 A 
ATOM     81  C   UNL A   1      38.087  31.816  37.122  1.00  0.00     0.009 A 
ATOM     82  C   UNL A   1      39.394  33.733  36.436  1.00  0.00     0.009 A 
ATOM     83  C   UNL A   1      37.627  32.534  38.229  1.00  0.00     0.001 A 
ATOM     84  C   UNL A   1      38.954  34.438  37.557  1.00  0.00     0.001 A 
ATOM     85  C   UNL A   1      38.067  33.839  38.450  1.00  0.00     0.000 A 
ENDBRANCH  67  80
ENDBRANCH  41  42
ENDBRANCH  34  36
ENDBRANCH  33  34
ENDBRANCH  32  33
ENDBRANCH   1  32
TORSDOF 15
ENDMDL
