MODEL 1
REMARK VINA RESULT:     -12.1      0.000      0.000
REMARK SMILES Cc1cccc(O[C@H](C)C(=O)NNC(=O)[C@H]2[C@@H]3CC[C@@H](C3)[C@@H]2C(=O)OCCOC(=O)c2ccc(-c3c4nc(c(-c5ccccc5)c5ccc([nH]5)c(-c5ccccc5)c5nc(c(-c6ccccc6)c6ccc3[nH]6)C=C5)C=C4)cc2)c1
REMARK SMILES IDX 25 1 23 2 24 3 22 4 16 5 17 6 18 7 21 8 20 9 19 10 14 11
REMARK SMILES IDX 13 12 15 14 12 15 10 16 11 17 8 19 9 20 7 21 6 22 1 23 2 24
REMARK SMILES IDX 3 25 79 26 4 27 5 28 26 29 27 30 28 31 29 32 30 33 31 34
REMARK SMILES IDX 32 35 78 36 33 37 77 38 34 39 35 40 36 41 71 42 37 43 76 44
REMARK SMILES IDX 70 45 72 46 38 47 75 48 69 49 68 50 39 52 61 53 46 54 60 55
REMARK SMILES IDX 47 56 50 57 59 58 73 59 48 60 49 61 58 63 74 64 51 65 40 66
REMARK SMILES IDX 41 67 45 68 42 69 44 70 43 71 62 72 63 73 67 74 64 75 66 76
REMARK SMILES IDX 65 77 52 78 53 79 57 80 54 81 56 82 55 83
REMARK H PARENT 13 13 12 18 72 51 50 62
REMARK Flexibility Score: inf
ROOT
ATOM      1  O   UNL A   1      33.539  28.332  25.476  1.00  0.00    -0.462 OA
ENDROOT
BRANCH   1   2
ATOM      2  C   UNL A   1      32.534  27.444  25.766  1.00  0.00     0.310 C 
ATOM      3  O   UNL A   1      32.471  26.801  26.805  1.00  0.00    -0.252 OA
BRANCH   2   4
ATOM      4  C   UNL A   1      31.653  27.125  24.583  1.00  0.00     0.115 C 
ATOM      5  C   UNL A   1      32.230  27.207  23.175  1.00  0.00     0.098 C 
ATOM      6  C   UNL A   1      30.976  27.507  22.305  1.00  0.00     0.003 C 
ATOM      7  C   UNL A   1      30.794  29.032  22.315  1.00  0.00     0.005 C 
ATOM      8  C   UNL A   1      29.786  27.104  23.191  1.00  0.00     0.009 C 
ATOM      9  C   UNL A   1      30.309  27.880  24.409  1.00  0.00     0.004 C 
ATOM     10  C   UNL A   1      30.430  29.295  23.792  1.00  0.00     0.005 C 
BRANCH   5  11
ATOM     11  C   UNL A   1      33.108  26.097  22.641  1.00  0.00     0.242 C 
ATOM     12  N   UNL A   1      33.083  24.856  23.205  1.00  0.00    -0.267 N 
ATOM     13  H   UNL A   1      33.923  24.462  23.535  1.00  0.00     0.191 HD
ATOM     14  O   UNL A   1      33.918  26.337  21.742  1.00  0.00    -0.273 OA
BRANCH  12  15
ATOM     15  N   UNL A   1      31.883  24.120  23.332  1.00  0.00    -0.264 N 
ATOM     16  C   UNL A   1      31.637  23.461  24.512  1.00  0.00     0.279 C 
ATOM     17  O   UNL A   1      30.732  23.868  25.245  1.00  0.00    -0.269 OA
ATOM     18  H   UNL A   1      31.238  24.080  22.590  1.00  0.00     0.191 HD
BRANCH  16  19
ATOM     19  C   UNL A   1      32.286  22.069  24.731  1.00  0.00     0.260 C 
ATOM     20  C   UNL A   1      32.485  21.377  23.377  1.00  0.00     0.064 C 
BRANCH  19  21
ATOM     21  O   UNL A   1      33.301  21.776  25.669  1.00  0.00    -0.481 OA
BRANCH  21  22
ATOM     22  C   UNL A   1      34.602  22.130  25.518  1.00  0.00     0.120 A 
ATOM     23  C   UNL A   1      37.747  20.073  24.845  1.00  0.00     0.044 C 
ATOM     24  C   UNL A   1      36.839  21.232  25.135  1.00  0.00    -0.047 A 
ATOM     25  C   UNL A   1      37.371  22.512  25.301  1.00  0.00     0.003 A 
ATOM     26  C   UNL A   1      35.454  21.055  25.238  1.00  0.00     0.049 A 
ATOM     27  C   UNL A   1      36.528  23.595  25.545  1.00  0.00     0.004 A 
ATOM     28  C   UNL A   1      35.145  23.408  25.633  1.00  0.00     0.046 A 
ENDBRANCH  21  22
ENDBRANCH  19  21
ENDBRANCH  16  19
ENDBRANCH  12  15
ENDBRANCH   5  11
ENDBRANCH   2   4
ENDBRANCH   1   2
BRANCH   1  29
ATOM     29  C   UNL A   1      33.215  29.684  25.845  1.00  0.00     0.274 C 
BRANCH  29  30
ATOM     30  C   UNL A   1      33.758  30.181  27.200  1.00  0.00     0.275 C 
BRANCH  30  31
ATOM     31  O   UNL A   1      35.067  29.732  27.614  1.00  0.00    -0.458 OA
BRANCH  31  32
ATOM     32  C   UNL A   1      36.071  30.565  28.018  1.00  0.00     0.338 C 
ATOM     33  O   UNL A   1      35.915  31.726  28.320  1.00  0.00    -0.246 OA
BRANCH  32  34
ATOM     34  C   UNL A   1      37.348  29.880  28.249  1.00  0.00     0.060 A 
ATOM     35  C   UNL A   1      37.434  29.040  29.358  1.00  0.00     0.016 A 
ATOM     36  C   UNL A   1      38.350  29.929  27.286  1.00  0.00     0.016 A 
ATOM     37  C   UNL A   1      38.467  28.111  29.420  1.00  0.00     0.010 A 
ATOM     38  C   UNL A   1      39.335  28.962  27.316  1.00  0.00     0.010 A 
ATOM     39  C   UNL A   1      39.379  28.029  28.363  1.00  0.00    -0.014 A 
BRANCH  39  40
ATOM     40  C   UNL A   1      40.598  27.234  28.441  1.00  0.00     0.031 A 
ATOM     41  C   UNL A   1      40.675  25.774  28.232  1.00  0.00     0.074 A 
ATOM     42  C   UNL A   1      41.691  27.959  28.750  1.00  0.00     0.049 A 
ATOM     43  N   UNL A   1      41.506  24.996  28.848  1.00  0.00    -0.248 NA
ATOM     44  C   UNL A   1      39.790  25.053  27.325  1.00  0.00     0.031 C 
ATOM     45  C   UNL A   1      43.085  27.561  28.754  1.00  0.00     0.029 A 
ATOM     46  N   UNL A   1      41.680  29.205  29.387  1.00  0.00    -0.354 N 
ATOM     47  C   UNL A   1      41.467  23.775  28.203  1.00  0.00     0.074 A 
ATOM     48  C   UNL A   1      40.280  23.808  27.385  1.00  0.00     0.031 C 
ATOM     49  C   UNL A   1      43.733  28.363  29.621  1.00  0.00     0.029 A 
ATOM     50  C   UNL A   1      42.719  29.158  30.311  1.00  0.00     0.049 A 
ATOM     51  H   UNL A   1      41.067  29.955  29.216  1.00  0.00     0.167 HD
ATOM     52  C   UNL A   1      42.540  22.935  28.241  1.00  0.00     0.031 A 
ATOM     53  C   UNL A   1      42.476  29.167  31.656  1.00  0.00     0.031 A 
ATOM     54  C   UNL A   1      43.635  23.501  29.014  1.00  0.00     0.049 A 
ATOM     55  C   UNL A   1      43.069  27.966  32.357  1.00  0.00     0.074 A 
ATOM     56  C   UNL A   1      44.773  24.203  28.654  1.00  0.00     0.029 A 
ATOM     57  N   UNL A   1      43.477  23.678  30.375  1.00  0.00    -0.354 N 
ATOM     58  N   UNL A   1      43.412  26.863  31.753  1.00  0.00    -0.248 NA
ATOM     59  C   UNL A   1      43.223  27.880  33.806  1.00  0.00     0.031 C 
ATOM     60  C   UNL A   1      45.288  24.833  29.817  1.00  0.00     0.029 A 
ATOM     61  C   UNL A   1      44.474  24.490  30.880  1.00  0.00     0.049 A 
ATOM     62  H   UNL A   1      42.756  23.278  30.912  1.00  0.00     0.167 HD
ATOM     63  C   UNL A   1      43.917  25.982  32.668  1.00  0.00     0.074 A 
ATOM     64  C   UNL A   1      43.709  26.635  33.948  1.00  0.00     0.031 C 
ATOM     65  C   UNL A   1      44.476  24.794  32.298  1.00  0.00     0.031 A 
BRANCH  52  66
ATOM     66  C   UNL A   1      42.712  21.766  27.302  1.00  0.00    -0.014 A 
ATOM     67  C   UNL A   1      42.031  20.560  27.564  1.00  0.00     0.009 A 
ATOM     68  C   UNL A   1      43.540  21.778  26.168  1.00  0.00     0.009 A 
ATOM     69  C   UNL A   1      42.237  19.404  26.800  1.00  0.00     0.001 A 
ATOM     70  C   UNL A   1      43.769  20.616  25.411  1.00  0.00     0.001 A 
ATOM     71  C   UNL A   1      43.127  19.425  25.737  1.00  0.00     0.000 A 
ENDBRANCH  52  66
BRANCH  53  72
ATOM     72  C   UNL A   1      41.205  29.828  32.103  1.00  0.00    -0.014 A 
ATOM     73  C   UNL A   1      41.031  31.213  31.890  1.00  0.00     0.009 A 
ATOM     74  C   UNL A   1      40.085  29.081  32.496  1.00  0.00     0.009 A 
ATOM     75  C   UNL A   1      39.766  31.807  31.978  1.00  0.00     0.001 A 
ATOM     76  C   UNL A   1      38.825  29.685  32.615  1.00  0.00     0.001 A 
ATOM     77  C   UNL A   1      38.661  31.039  32.330  1.00  0.00     0.000 A 
ENDBRANCH  53  72
BRANCH  65  78
ATOM     78  C   UNL A   1      45.094  23.793  33.234  1.00  0.00    -0.014 A 
ATOM     79  C   UNL A   1      44.421  22.669  33.725  1.00  0.00     0.009 A 
ATOM     80  C   UNL A   1      46.387  24.036  33.748  1.00  0.00     0.009 A 
ATOM     81  C   UNL A   1      45.045  21.779  34.608  1.00  0.00     0.001 A 
ATOM     82  C   UNL A   1      47.003  23.168  34.650  1.00  0.00     0.001 A 
ATOM     83  C   UNL A   1      46.337  22.026  35.065  1.00  0.00     0.000 A 
ENDBRANCH  65  78
ENDBRANCH  39  40
ENDBRANCH  32  34
ENDBRANCH  31  32
ENDBRANCH  30  31
ENDBRANCH  29  30
ENDBRANCH   1  29
TORSDOF 16
ENDMDL
MODEL 2
REMARK VINA RESULT:     -12.0      1.402      2.434
REMARK SMILES Cc1cccc(O[C@H](C)C(=O)NNC(=O)[C@H]2[C@@H]3CC[C@@H](C3)[C@@H]2C(=O)OCCOC(=O)c2ccc(-c3c4nc(c(-c5ccccc5)c5ccc([nH]5)c(-c5ccccc5)c5nc(c(-c6ccccc6)c6ccc3[nH]6)C=C5)C=C4)cc2)c1
REMARK SMILES IDX 25 1 23 2 24 3 22 4 16 5 17 6 18 7 21 8 20 9 19 10 14 11
REMARK SMILES IDX 13 12 15 14 12 15 10 16 11 17 8 19 9 20 7 21 6 22 1 23 2 24
REMARK SMILES IDX 3 25 79 26 4 27 5 28 26 29 27 30 28 31 29 32 30 33 31 34
REMARK SMILES IDX 32 35 78 36 33 37 77 38 34 39 35 40 36 41 71 42 37 43 76 44
REMARK SMILES IDX 70 45 72 46 38 47 75 48 69 49 68 50 39 52 61 53 46 54 60 55
REMARK SMILES IDX 47 56 50 57 59 58 73 59 48 60 49 61 58 63 74 64 51 65 40 66
REMARK SMILES IDX 41 67 45 68 42 69 44 70 43 71 62 72 63 73 67 74 64 75 66 76
REMARK SMILES IDX 65 77 52 78 53 79 57 80 54 81 56 82 55 83
REMARK H PARENT 13 13 12 18 72 51 50 62
REMARK Flexibility Score: inf
ROOT
ATOM      1  O   UNL A   1      33.244  27.835  26.633  1.00  0.00    -0.462 OA
ENDROOT
BRANCH   1   2
ATOM      2  C   UNL A   1      31.922  27.617  26.924  1.00  0.00     0.310 C 
ATOM      3  O   UNL A   1      31.388  27.961  27.970  1.00  0.00    -0.252 OA
BRANCH   2   4
ATOM      4  C   UNL A   1      31.238  26.681  25.957  1.00  0.00     0.115 C 
ATOM      5  C   UNL A   1      31.905  25.359  25.598  1.00  0.00     0.098 C 
ATOM      6  C   UNL A   1      31.335  25.059  24.182  1.00  0.00     0.003 C 
ATOM      7  C   UNL A   1      32.247  25.786  23.183  1.00  0.00     0.005 C 
ATOM      8  C   UNL A   1      30.083  25.946  24.074  1.00  0.00     0.009 C 
ATOM      9  C   UNL A   1      30.817  27.204  24.559  1.00  0.00     0.004 C 
ATOM     10  C   UNL A   1      31.959  27.266  23.514  1.00  0.00     0.005 C 
BRANCH   5  11
ATOM     11  C   UNL A   1      31.849  24.187  26.553  1.00  0.00     0.242 C 
ATOM     12  N   UNL A   1      32.785  23.196  26.496  1.00  0.00    -0.267 N 
ATOM     13  H   UNL A   1      32.489  22.264  26.380  1.00  0.00     0.191 HD
ATOM     14  O   UNL A   1      30.901  24.080  27.335  1.00  0.00    -0.273 OA
BRANCH  12  15
ATOM     15  N   UNL A   1      34.167  23.471  26.596  1.00  0.00    -0.264 N 
ATOM     16  C   UNL A   1      34.923  23.465  25.450  1.00  0.00     0.279 C 
ATOM     17  O   UNL A   1      35.378  24.533  25.029  1.00  0.00    -0.269 OA
ATOM     18  H   UNL A   1      34.579  23.663  27.470  1.00  0.00     0.191 HD
BRANCH  16  19
ATOM     19  C   UNL A   1      35.432  22.104  24.906  1.00  0.00     0.260 C 
ATOM     20  C   UNL A   1      36.946  22.176  24.678  1.00  0.00     0.064 C 
BRANCH  19  21
ATOM     21  O   UNL A   1      34.986  20.833  25.332  1.00  0.00    -0.481 OA
BRANCH  21  22
ATOM     22  C   UNL A   1      34.089  20.074  24.652  1.00  0.00     0.120 A 
ATOM     23  C   UNL A   1      34.061  16.372  23.724  1.00  0.00     0.044 C 
ATOM     24  C   UNL A   1      33.671  17.816  23.825  1.00  0.00    -0.047 A 
ATOM     25  C   UNL A   1      32.519  18.275  23.182  1.00  0.00     0.003 A 
ATOM     26  C   UNL A   1      34.442  18.723  24.562  1.00  0.00     0.049 A 
ATOM     27  C   UNL A   1      32.139  19.611  23.295  1.00  0.00     0.004 A 
ATOM     28  C   UNL A   1      32.911  20.505  24.045  1.00  0.00     0.046 A 
ENDBRANCH  21  22
ENDBRANCH  19  21
ENDBRANCH  16  19
ENDBRANCH  12  15
ENDBRANCH   5  11
ENDBRANCH   2   4
ENDBRANCH   1   2
BRANCH   1  29
ATOM     29  C   UNL A   1      33.525  29.204  26.294  1.00  0.00     0.274 C 
BRANCH  29  30
ATOM     30  C   UNL A   1      33.924  30.137  27.456  1.00  0.00     0.275 C 
BRANCH  30  31
ATOM     31  O   UNL A   1      35.279  30.637  27.492  1.00  0.00    -0.458 OA
BRANCH  31  32
ATOM     32  C   UNL A   1      36.062  30.647  28.611  1.00  0.00     0.338 C 
ATOM     33  O   UNL A   1      35.798  31.253  29.624  1.00  0.00    -0.246 OA
BRANCH  32  34
ATOM     34  C   UNL A   1      37.175  29.692  28.559  1.00  0.00     0.060 A 
ATOM     35  C   UNL A   1      37.937  29.659  27.392  1.00  0.00     0.016 A 
ATOM     36  C   UNL A   1      37.555  29.001  29.704  1.00  0.00     0.016 A 
ATOM     37  C   UNL A   1      39.188  29.053  27.423  1.00  0.00     0.010 A 
ATOM     38  C   UNL A   1      38.824  28.459  29.752  1.00  0.00     0.010 A 
ATOM     39  C   UNL A   1      39.658  28.512  28.625  1.00  0.00    -0.014 A 
BRANCH  39  40
ATOM     40  C   UNL A   1      40.857  27.686  28.695  1.00  0.00     0.031 A 
ATOM     41  C   UNL A   1      40.896  26.225  28.475  1.00  0.00     0.074 A 
ATOM     42  C   UNL A   1      41.968  28.380  29.008  1.00  0.00     0.049 A 
ATOM     43  N   UNL A   1      41.709  25.422  29.083  1.00  0.00    -0.248 NA
ATOM     44  C   UNL A   1      39.992  25.535  27.563  1.00  0.00     0.031 C 
ATOM     45  C   UNL A   1      43.352  27.947  29.006  1.00  0.00     0.029 A 
ATOM     46  N   UNL A   1      41.990  29.620  29.654  1.00  0.00    -0.354 N 
ATOM     47  C   UNL A   1      41.637  24.208  28.428  1.00  0.00     0.074 A 
ATOM     48  C   UNL A   1      40.450  24.277  27.613  1.00  0.00     0.031 C 
ATOM     49  C   UNL A   1      44.021  28.725  29.878  1.00  0.00     0.029 A 
ATOM     50  C   UNL A   1      43.029  29.540  30.577  1.00  0.00     0.049 A 
ATOM     51  H   UNL A   1      41.396  30.388  29.491  1.00  0.00     0.167 HD
ATOM     52  C   UNL A   1      42.688  23.341  28.458  1.00  0.00     0.031 A 
ATOM     53  C   UNL A   1      42.788  29.545  31.922  1.00  0.00     0.031 A 
ATOM     54  C   UNL A   1      43.798  23.872  29.234  1.00  0.00     0.049 A 
ATOM     55  C   UNL A   1      43.351  28.323  32.612  1.00  0.00     0.074 A 
ATOM     56  C   UNL A   1      44.953  24.548  28.877  1.00  0.00     0.029 A 
ATOM     57  N   UNL A   1      43.647  24.042  30.597  1.00  0.00    -0.354 N 
ATOM     58  N   UNL A   1      43.665  27.216  31.999  1.00  0.00    -0.248 NA
ATOM     59  C   UNL A   1      43.505  28.222  34.061  1.00  0.00     0.031 C 
ATOM     60  C   UNL A   1      45.486  25.155  30.044  1.00  0.00     0.029 A 
ATOM     61  C   UNL A   1      44.665  24.825  31.106  1.00  0.00     0.049 A 
ATOM     62  H   UNL A   1      42.916  23.656  31.131  1.00  0.00     0.167 HD
ATOM     63  C   UNL A   1      44.149  26.316  32.907  1.00  0.00     0.074 A 
ATOM     64  C   UNL A   1      43.960  26.964  34.192  1.00  0.00     0.031 C 
ATOM     65  C   UNL A   1      44.677  25.117  32.527  1.00  0.00     0.031 A 
BRANCH  52  66
ATOM     66  C   UNL A   1      42.829  22.174  27.510  1.00  0.00    -0.014 A 
ATOM     67  C   UNL A   1      43.735  22.261  26.434  1.00  0.00     0.009 A 
ATOM     68  C   UNL A   1      42.089  20.984  27.605  1.00  0.00     0.009 A 
ATOM     69  C   UNL A   1      43.829  21.265  25.454  1.00  0.00     0.001 A 
ATOM     70  C   UNL A   1      42.162  19.991  26.613  1.00  0.00     0.001 A 
ATOM     71  C   UNL A   1      43.022  20.138  25.530  1.00  0.00     0.000 A 
ENDBRANCH  52  66
BRANCH  53  72
ATOM     72  C   UNL A   1      41.535  30.234  32.376  1.00  0.00    -0.014 A 
ATOM     73  C   UNL A   1      41.315  31.582  32.016  1.00  0.00     0.009 A 
ATOM     74  C   UNL A   1      40.461  29.522  32.929  1.00  0.00     0.009 A 
ATOM     75  C   UNL A   1      40.046  32.163  32.122  1.00  0.00     0.001 A 
ATOM     76  C   UNL A   1      39.198  30.117  33.064  1.00  0.00     0.001 A 
ATOM     77  C   UNL A   1      38.985  31.425  32.636  1.00  0.00     0.000 A 
ENDBRANCH  53  72
BRANCH  65  78
ATOM     78  C   UNL A   1      45.270  24.094  33.454  1.00  0.00    -0.014 A 
ATOM     79  C   UNL A   1      46.533  24.218  34.043  1.00  0.00     0.009 A 
ATOM     80  C   UNL A   1      44.582  22.880  33.674  1.00  0.00     0.009 A 
ATOM     81  C   UNL A   1      47.041  23.223  34.888  1.00  0.00     0.001 A 
ATOM     82  C   UNL A   1      45.095  21.872  34.492  1.00  0.00     0.001 A 
ATOM     83  C   UNL A   1      46.319  22.055  35.116  1.00  0.00     0.000 A 
ENDBRANCH  65  78
ENDBRANCH  39  40
ENDBRANCH  32  34
ENDBRANCH  31  32
ENDBRANCH  30  31
ENDBRANCH  29  30
ENDBRANCH   1  29
TORSDOF 16
ENDMDL
MODEL 3
REMARK VINA RESULT:     -11.9      3.001      8.717
REMARK SMILES Cc1cccc(O[C@H](C)C(=O)NNC(=O)[C@H]2[C@@H]3CC[C@@H](C3)[C@@H]2C(=O)OCCOC(=O)c2ccc(-c3c4nc(c(-c5ccccc5)c5ccc([nH]5)c(-c5ccccc5)c5nc(c(-c6ccccc6)c6ccc3[nH]6)C=C5)C=C4)cc2)c1
REMARK SMILES IDX 25 1 23 2 24 3 22 4 16 5 17 6 18 7 21 8 20 9 19 10 14 11
REMARK SMILES IDX 13 12 15 14 12 15 10 16 11 17 8 19 9 20 7 21 6 22 1 23 2 24
REMARK SMILES IDX 3 25 79 26 4 27 5 28 26 29 27 30 28 31 29 32 30 33 31 34
REMARK SMILES IDX 32 35 78 36 33 37 77 38 34 39 35 40 36 41 71 42 37 43 76 44
REMARK SMILES IDX 70 45 72 46 38 47 75 48 69 49 68 50 39 52 61 53 46 54 60 55
REMARK SMILES IDX 47 56 50 57 59 58 73 59 48 60 49 61 58 63 74 64 51 65 40 66
REMARK SMILES IDX 41 67 45 68 42 69 44 70 43 71 62 72 63 73 67 74 64 75 66 76
REMARK SMILES IDX 65 77 52 78 53 79 57 80 54 81 56 82 55 83
REMARK H PARENT 13 13 12 18 72 51 50 62
REMARK Flexibility Score: inf
ROOT
ATOM      1  O   UNL A   1      36.854  19.328  25.027  1.00  0.00    -0.462 OA
ENDROOT
BRANCH   1   2
ATOM      2  C   UNL A   1      35.611  19.905  25.063  1.00  0.00     0.310 C 
ATOM      3  O   UNL A   1      35.325  20.869  25.762  1.00  0.00    -0.252 OA
BRANCH   2   4
ATOM      4  C   UNL A   1      34.548  19.090  24.367  1.00  0.00     0.115 C 
ATOM      5  C   UNL A   1      33.098  19.210  24.819  1.00  0.00     0.098 C 
ATOM      6  C   UNL A   1      32.498  17.832  24.421  1.00  0.00     0.003 C 
ATOM      7  C   UNL A   1      32.779  16.880  25.593  1.00  0.00     0.005 C 
ATOM      8  C   UNL A   1      33.486  17.263  23.389  1.00  0.00     0.009 C 
ATOM      9  C   UNL A   1      34.713  17.550  24.267  1.00  0.00     0.004 C 
ATOM     10  C   UNL A   1      34.318  16.767  25.543  1.00  0.00     0.005 C 
BRANCH   5  11
ATOM     11  C   UNL A   1      32.261  20.398  24.400  1.00  0.00     0.242 C 
ATOM     12  N   UNL A   1      31.657  21.190  25.333  1.00  0.00    -0.267 N 
ATOM     13  H   UNL A   1      30.684  21.327  25.287  1.00  0.00     0.191 HD
ATOM     14  O   UNL A   1      32.050  20.607  23.202  1.00  0.00    -0.273 OA
BRANCH  12  15
ATOM     15  N   UNL A   1      32.392  21.815  26.366  1.00  0.00    -0.264 N 
ATOM     16  C   UNL A   1      32.154  23.142  26.630  1.00  0.00     0.279 C 
ATOM     17  O   UNL A   1      31.600  23.449  27.690  1.00  0.00    -0.269 OA
ATOM     18  H   UNL A   1      33.059  21.310  26.884  1.00  0.00     0.191 HD
BRANCH  16  19
ATOM     19  C   UNL A   1      32.856  24.209  25.751  1.00  0.00     0.260 C 
ATOM     20  C   UNL A   1      34.367  24.172  26.007  1.00  0.00     0.064 C 
BRANCH  19  21
ATOM     21  O   UNL A   1      32.518  24.522  24.415  1.00  0.00    -0.481 OA
BRANCH  21  22
ATOM     22  C   UNL A   1      31.895  25.667  24.036  1.00  0.00     0.120 A 
ATOM     23  C   UNL A   1      28.209  26.655  23.944  1.00  0.00     0.044 C 
ATOM     24  C   UNL A   1      29.699  26.700  23.778  1.00  0.00    -0.047 A 
ATOM     25  C   UNL A   1      30.304  27.820  23.204  1.00  0.00     0.003 A 
ATOM     26  C   UNL A   1      30.504  25.635  24.197  1.00  0.00     0.049 A 
ATOM     27  C   UNL A   1      31.690  27.877  23.072  1.00  0.00     0.004 A 
ATOM     28  C   UNL A   1      32.486  26.811  23.506  1.00  0.00     0.046 A 
ENDBRANCH  21  22
ENDBRANCH  19  21
ENDBRANCH  16  19
ENDBRANCH  12  15
ENDBRANCH   5  11
ENDBRANCH   2   4
ENDBRANCH   1   2
BRANCH   1  29
ATOM     29  C   UNL A   1      37.893  20.258  24.673  1.00  0.00     0.274 C 
BRANCH  29  30
ATOM     30  C   UNL A   1      39.023  20.460  25.703  1.00  0.00     0.275 C 
BRANCH  30  31
ATOM     31  O   UNL A   1      40.028  19.429  25.821  1.00  0.00    -0.458 OA
BRANCH  31  32
ATOM     32  C   UNL A   1      41.370  19.672  25.892  1.00  0.00     0.338 C 
ATOM     33  O   UNL A   1      42.215  19.004  25.341  1.00  0.00    -0.246 OA
BRANCH  32  34
ATOM     34  C   UNL A   1      41.705  20.943  26.544  1.00  0.00     0.060 A 
ATOM     35  C   UNL A   1      42.009  22.026  25.720  1.00  0.00     0.016 A 
ATOM     36  C   UNL A   1      41.530  21.091  27.915  1.00  0.00     0.016 A 
ATOM     37  C   UNL A   1      41.977  23.309  26.255  1.00  0.00     0.010 A 
ATOM     38  C   UNL A   1      41.434  22.369  28.430  1.00  0.00     0.010 A 
ATOM     39  C   UNL A   1      41.623  23.482  27.597  1.00  0.00    -0.014 A 
BRANCH  39  40
ATOM     40  C   UNL A   1      41.764  24.760  28.284  1.00  0.00     0.031 A 
ATOM     41  C   UNL A   1      40.733  25.816  28.337  1.00  0.00     0.074 A 
ATOM     42  C   UNL A   1      42.965  24.920  28.876  1.00  0.00     0.049 A 
ATOM     43  N   UNL A   1      40.993  27.083  28.372  1.00  0.00    -0.248 NA
ATOM     44  C   UNL A   1      39.303  25.530  28.322  1.00  0.00     0.031 C 
ATOM     45  C   UNL A   1      43.412  25.963  29.777  1.00  0.00     0.029 A 
ATOM     46  N   UNL A   1      44.132  24.228  28.535  1.00  0.00    -0.354 N 
ATOM     47  C   UNL A   1      39.811  27.726  28.688  1.00  0.00     0.074 A 
ATOM     48  C   UNL A   1      38.771  26.749  28.481  1.00  0.00     0.031 C 
ATOM     49  C   UNL A   1      44.752  26.045  29.670  1.00  0.00     0.029 A 
ATOM     50  C   UNL A   1      45.148  25.178  28.562  1.00  0.00     0.049 A 
ATOM     51  H   UNL A   1      44.216  23.271  28.321  1.00  0.00     0.167 HD
ATOM     52  C   UNL A   1      39.827  28.944  29.300  1.00  0.00     0.031 A 
ATOM     53  C   UNL A   1      45.790  25.566  27.419  1.00  0.00     0.031 A 
ATOM     54  C   UNL A   1      41.186  29.405  29.539  1.00  0.00     0.049 A 
ATOM     55  C   UNL A   1      45.701  27.057  27.188  1.00  0.00     0.074 A 
ATOM     56  C   UNL A   1      42.016  29.344  30.646  1.00  0.00     0.029 A 
ATOM     57  N   UNL A   1      41.990  29.720  28.461  1.00  0.00    -0.354 N 
ATOM     58  N   UNL A   1      44.814  27.833  27.745  1.00  0.00    -0.248 NA
ATOM     59  C   UNL A   1      46.541  27.770  26.229  1.00  0.00     0.031 C 
ATOM     60  C   UNL A   1      43.344  29.601  30.215  1.00  0.00     0.029 A 
ATOM     61  C   UNL A   1      43.309  29.838  28.854  1.00  0.00     0.049 A 
ATOM     62  H   UNL A   1      41.667  29.844  27.539  1.00  0.00     0.167 HD
ATOM     63  C   UNL A   1      45.010  29.120  27.330  1.00  0.00     0.074 A 
ATOM     64  C   UNL A   1      46.054  29.019  26.326  1.00  0.00     0.031 C 
ATOM     65  C   UNL A   1      44.308  30.165  27.855  1.00  0.00     0.031 A 
BRANCH  52  66
ATOM     66  C   UNL A   1      38.621  29.547  29.979  1.00  0.00    -0.014 A 
ATOM     67  C   UNL A   1      38.427  29.343  31.359  1.00  0.00     0.009 A 
ATOM     68  C   UNL A   1      37.635  30.298  29.317  1.00  0.00     0.009 A 
ATOM     69  C   UNL A   1      37.273  29.774  32.024  1.00  0.00     0.001 A 
ATOM     70  C   UNL A   1      36.464  30.715  29.973  1.00  0.00     0.001 A 
ATOM     71  C   UNL A   1      36.277  30.440  31.324  1.00  0.00     0.000 A 
ENDBRANCH  52  66
BRANCH  53  72
ATOM     72  C   UNL A   1      45.831  24.566  26.301  1.00  0.00    -0.014 A 
ATOM     73  C   UNL A   1      46.330  23.268  26.548  1.00  0.00     0.009 A 
ATOM     74  C   UNL A   1      45.165  24.791  25.088  1.00  0.00     0.009 A 
ATOM     75  C   UNL A   1      46.089  22.217  25.656  1.00  0.00     0.001 A 
ATOM     76  C   UNL A   1      44.953  23.742  24.180  1.00  0.00     0.001 A 
ATOM     77  C   UNL A   1      45.391  22.453  24.477  1.00  0.00     0.000 A 
ENDBRANCH  53  72
BRANCH  65  78
ATOM     78  C   UNL A   1      44.496  31.611  27.489  1.00  0.00    -0.014 A 
ATOM     79  C   UNL A   1      44.966  32.583  28.379  1.00  0.00     0.009 A 
ATOM     80  C   UNL A   1      44.080  32.061  26.216  1.00  0.00     0.009 A 
ATOM     81  C   UNL A   1      45.106  33.920  27.984  1.00  0.00     0.001 A 
ATOM     82  C   UNL A   1      44.190  33.396  25.827  1.00  0.00     0.001 A 
ATOM     83  C   UNL A   1      44.724  34.323  26.708  1.00  0.00     0.000 A 
ENDBRANCH  65  78
ENDBRANCH  39  40
ENDBRANCH  32  34
ENDBRANCH  31  32
ENDBRANCH  30  31
ENDBRANCH  29  30
ENDBRANCH   1  29
TORSDOF 16
ENDMDL
