MODEL 1
REMARK VINA RESULT:     -11.4      0.000      0.000
REMARK SMILES Cc1ccccc1O[C@@H](C)C(=O)Oc1ccccc1C(=O)OCCOC(=O)c1ccc(-c2c3nc(c(-c4ccccc4)c4ccc([nH]4)c(-c4ccccc4)c4nc(c(-c5ccccc5)c5ccc2[nH]5)C=C4)C=C3)cc1
REMARK SMILES IDX 22 1 20 2 21 3 19 4 14 5 15 6 16 7 18 8 17 9 13 10 11 11
REMARK SMILES IDX 12 12 9 13 10 14 8 15 7 16 1 17 2 18 3 19 4 20 6 21 5 22
REMARK SMILES IDX 23 23 24 24 25 25 26 26 27 27 28 28 29 29 75 30 30 31 74 32
REMARK SMILES IDX 31 33 32 34 33 35 68 36 34 37 73 38 67 39 69 40 35 41 72 42
REMARK SMILES IDX 66 43 65 44 36 46 58 47 43 48 57 49 44 50 47 51 56 52 70 53
REMARK SMILES IDX 45 54 46 55 55 57 71 58 48 59 37 60 38 61 42 62 39 63 41 64
REMARK SMILES IDX 40 65 59 66 60 67 64 68 61 69 63 70 62 71 49 72 50 73 54 74
REMARK SMILES IDX 51 75 53 76 52 77
REMARK H PARENT 69 45 47 56
REMARK Flexibility Score: inf
ROOT
ATOM      1  O   UNL A   1      37.463  21.409  24.684  1.00  0.00    -0.458 OA
ENDROOT
BRANCH   1   2
ATOM      2  C   UNL A   1      36.188  20.769  25.105  1.00  0.00     0.342 C 
ATOM      3  O   UNL A   1      36.470  19.558  24.868  1.00  0.00    -0.246 OA
BRANCH   2   4
ATOM      4  C   UNL A   1      34.408  21.680  25.935  1.00  0.00     0.102 A 
ATOM      5  C   UNL A   1      33.143  22.401  25.158  1.00  0.00     0.145 A 
ATOM      6  C   UNL A   1      32.016  23.096  25.685  1.00  0.00     0.048 A 
ATOM      7  C   UNL A   1      31.883  23.219  27.052  1.00  0.00     0.004 A 
ATOM      8  C   UNL A   1      33.973  21.925  27.368  1.00  0.00     0.019 A 
ATOM      9  C   UNL A   1      32.836  22.642  27.875  1.00  0.00     0.001 A 
BRANCH   5  10
ATOM     10  O   UNL A   1      33.091  22.685  23.570  1.00  0.00    -0.423 OA
BRANCH  10  11
ATOM     11  C   UNL A   1      33.789  23.618  22.763  1.00  0.00     0.352 C 
ATOM     12  O   UNL A   1      34.999  23.471  22.569  1.00  0.00    -0.247 OA
BRANCH  11  13
ATOM     13  C   UNL A   1      33.021  24.861  22.115  1.00  0.00     0.280 C 
ATOM     14  C   UNL A   1      32.588  25.493  20.784  1.00  0.00     0.066 C 
BRANCH  13  15
ATOM     15  O   UNL A   1      33.397  25.987  22.872  1.00  0.00    -0.479 OA
BRANCH  15  16
ATOM     16  C   UNL A   1      32.750  26.254  24.038  1.00  0.00     0.123 A 
ATOM     17  C   UNL A   1      30.149  26.300  23.537  1.00  0.00     0.048 C 
ATOM     18  C   UNL A   1      31.401  26.509  24.350  1.00  0.00    -0.009 A 
ATOM     19  C   UNL A   1      31.125  26.965  25.650  1.00  0.00     0.007 A 
ATOM     20  C   UNL A   1      32.121  27.081  26.616  1.00  0.00     0.001 A 
ATOM     21  C   UNL A   1      33.726  26.295  25.040  1.00  0.00     0.047 A 
ATOM     22  C   UNL A   1      33.420  26.703  26.323  1.00  0.00     0.004 A 
ENDBRANCH  15  16
ENDBRANCH  13  15
ENDBRANCH  11  13
ENDBRANCH  10  11
ENDBRANCH   5  10
ENDBRANCH   2   4
ENDBRANCH   1   2
BRANCH   1  23
ATOM     23  C   UNL A   1      38.620  21.040  25.458  1.00  0.00     0.275 C 
BRANCH  23  24
ATOM     24  C   UNL A   1      39.170  22.281  26.185  1.00  0.00     0.275 C 
BRANCH  24  25
ATOM     25  O   UNL A   1      40.615  22.445  26.173  1.00  0.00    -0.458 OA
BRANCH  25  26
ATOM     26  C   UNL A   1      41.159  23.447  26.921  1.00  0.00     0.338 C 
ATOM     27  O   UNL A   1      42.136  23.377  27.638  1.00  0.00    -0.246 OA
BRANCH  26  28
ATOM     28  C   UNL A   1      40.285  24.634  26.793  1.00  0.00     0.060 A 
ATOM     29  C   UNL A   1      41.037  26.014  25.905  1.00  0.00     0.016 A 
ATOM     30  C   UNL A   1      39.283  24.954  28.243  1.00  0.00     0.016 A 
ATOM     31  C   UNL A   1      40.764  27.771  26.505  1.00  0.00     0.010 A 
ATOM     32  C   UNL A   1      39.146  26.656  28.895  1.00  0.00     0.010 A 
ATOM     33  C   UNL A   1      39.895  28.051  28.032  1.00  0.00    -0.014 A 
BRANCH  33  34
ATOM     34  C   UNL A   1      40.315  29.144  28.922  1.00  0.00     0.031 A 
ATOM     35  C   UNL A   1      39.292  30.185  29.084  1.00  0.00     0.074 A 
ATOM     36  C   UNL A   1      41.445  29.128  29.698  1.00  0.00     0.049 A 
ATOM     37  N   UNL A   1      39.494  31.274  29.717  1.00  0.00    -0.248 NA
ATOM     38  C   UNL A   1      37.947  30.122  28.509  1.00  0.00     0.031 C 
ATOM     39  C   UNL A   1      41.736  29.920  30.900  1.00  0.00     0.029 A 
ATOM     40  N   UNL A   1      42.650  28.443  29.527  1.00  0.00    -0.354 N 
ATOM     41  C   UNL A   1      38.282  31.880  29.912  1.00  0.00     0.074 A 
ATOM     42  C   UNL A   1      37.346  31.153  29.103  1.00  0.00     0.031 C 
ATOM     43  C   UNL A   1      43.050  29.882  31.190  1.00  0.00     0.029 A 
ATOM     44  C   UNL A   1      43.725  29.130  30.154  1.00  0.00     0.049 A 
ATOM     45  H   UNL A   1      42.741  27.594  29.036  1.00  0.00     0.167 HD
ATOM     46  C   UNL A   1      38.241  32.865  30.842  1.00  0.00     0.031 A 
ATOM     47  C   UNL A   1      44.808  29.621  29.454  1.00  0.00     0.031 A 
ATOM     48  C   UNL A   1      39.608  33.293  31.160  1.00  0.00     0.049 A 
ATOM     49  C   UNL A   1      44.631  31.103  29.133  1.00  0.00     0.074 A 
ATOM     50  C   UNL A   1      40.477  33.014  32.200  1.00  0.00     0.029 A 
ATOM     51  N   UNL A   1      40.404  33.733  30.101  1.00  0.00    -0.354 N 
ATOM     52  N   UNL A   1      43.606  31.810  29.526  1.00  0.00    -0.248 NA
ATOM     53  C   UNL A   1      45.564  31.900  28.339  1.00  0.00     0.031 C 
ATOM     54  C   UNL A   1      41.809  33.204  31.715  1.00  0.00     0.029 A 
ATOM     55  C   UNL A   1      41.752  33.644  30.402  1.00  0.00     0.049 A 
ATOM     56  H   UNL A   1      40.050  34.066  29.245  1.00  0.00     0.167 HD
ATOM     57  C   UNL A   1      43.711  33.101  29.093  1.00  0.00     0.074 A 
ATOM     58  C   UNL A   1      44.968  33.107  28.359  1.00  0.00     0.031 C 
ATOM     59  C   UNL A   1      42.755  34.035  29.398  1.00  0.00     0.031 A 
BRANCH  46  60
ATOM     60  C   UNL A   1      37.002  33.258  31.594  1.00  0.00    -0.014 A 
ATOM     61  C   UNL A   1      36.872  32.835  32.927  1.00  0.00     0.009 A 
ATOM     62  C   UNL A   1      35.886  33.919  31.045  1.00  0.00     0.009 A 
ATOM     63  C   UNL A   1      35.696  33.041  33.659  1.00  0.00     0.001 A 
ATOM     64  C   UNL A   1      34.710  34.138  31.774  1.00  0.00     0.001 A 
ATOM     65  C   UNL A   1      34.613  33.693  33.084  1.00  0.00     0.000 A 
ENDBRANCH  46  60
BRANCH  47  66
ATOM     66  C   UNL A   1      45.421  28.628  28.500  1.00  0.00    -0.014 A 
ATOM     67  C   UNL A   1      45.068  28.699  27.126  1.00  0.00     0.009 A 
ATOM     68  C   UNL A   1      46.741  28.388  28.801  1.00  0.00     0.009 A 
ATOM     69  C   UNL A   1      46.034  28.977  26.146  1.00  0.00     0.001 A 
ATOM     70  C   UNL A   1      47.644  28.845  27.845  1.00  0.00     0.001 A 
ATOM     71  C   UNL A   1      47.318  29.212  26.552  1.00  0.00     0.000 A 
ENDBRANCH  47  66
BRANCH  59  72
ATOM     72  C   UNL A   1      42.694  35.455  28.865  1.00  0.00    -0.014 A 
ATOM     73  C   UNL A   1      43.262  36.575  29.477  1.00  0.00     0.009 A 
ATOM     74  C   UNL A   1      42.047  35.698  27.628  1.00  0.00     0.009 A 
ATOM     75  C   UNL A   1      43.112  37.863  28.941  1.00  0.00     0.001 A 
ATOM     76  C   UNL A   1      41.969  36.962  27.044  1.00  0.00     0.001 A 
ATOM     77  C   UNL A   1      42.475  38.055  27.721  1.00  0.00     0.000 A 
ENDBRANCH  59  72
ENDBRANCH  33  34
ENDBRANCH  26  28
ENDBRANCH  25  26
ENDBRANCH  24  25
ENDBRANCH  23  24
ENDBRANCH   1  23
TORSDOF 16
ENDMDL
MODEL 2
REMARK VINA RESULT:     -11.2      3.944      8.944
REMARK SMILES Cc1ccccc1O[C@@H](C)C(=O)Oc1ccccc1C(=O)OCCOC(=O)c1ccc(-c2c3nc(c(-c4ccccc4)c4ccc([nH]4)c(-c4ccccc4)c4nc(c(-c5ccccc5)c5ccc2[nH]5)C=C4)C=C3)cc1
REMARK SMILES IDX 22 1 20 2 21 3 19 4 14 5 15 6 16 7 18 8 17 9 13 10 11 11
REMARK SMILES IDX 12 12 9 13 10 14 8 15 7 16 1 17 2 18 3 19 4 20 6 21 5 22
REMARK SMILES IDX 23 23 24 24 25 25 26 26 27 27 28 28 29 29 75 30 30 31 74 32
REMARK SMILES IDX 31 33 32 34 33 35 68 36 34 37 73 38 67 39 69 40 35 41 72 42
REMARK SMILES IDX 66 43 65 44 36 46 58 47 43 48 57 49 44 50 47 51 56 52 70 53
REMARK SMILES IDX 45 54 46 55 55 57 71 58 48 59 37 60 38 61 42 62 39 63 41 64
REMARK SMILES IDX 40 65 59 66 60 67 64 68 61 69 63 70 62 71 49 72 50 73 54 74
REMARK SMILES IDX 51 75 53 76 52 77
REMARK H PARENT 69 45 47 56
REMARK Flexibility Score: inf
ROOT
ATOM      1  O   UNL A   1      34.046  29.407  26.482  1.00  0.00    -0.458 OA
ENDROOT
BRANCH   1   2
ATOM      2  C   UNL A   1      33.449  28.046  26.532  1.00  0.00     0.342 C 
ATOM      3  O   UNL A   1      32.564  28.234  27.417  1.00  0.00    -0.246 OA
BRANCH   2   4
ATOM      4  C   UNL A   1      33.944  26.291  25.363  1.00  0.00     0.102 A 
ATOM      5  C   UNL A   1      33.683  25.994  23.762  1.00  0.00     0.145 A 
ATOM      6  C   UNL A   1      33.905  24.811  22.997  1.00  0.00     0.048 A 
ATOM      7  C   UNL A   1      34.432  23.700  23.621  1.00  0.00     0.004 A 
ATOM      8  C   UNL A   1      34.550  24.956  25.754  1.00  0.00     0.019 A 
ATOM      9  C   UNL A   1      34.753  23.773  24.966  1.00  0.00     0.001 A 
BRANCH   5  10
ATOM     10  O   UNL A   1      32.840  26.960  22.780  1.00  0.00    -0.423 OA
BRANCH  10  11
ATOM     11  C   UNL A   1      31.571  26.798  22.171  1.00  0.00     0.352 C 
ATOM     12  O   UNL A   1      31.494  26.298  21.045  1.00  0.00    -0.247 OA
BRANCH  11  13
ATOM     13  C   UNL A   1      30.244  27.269  22.928  1.00  0.00     0.280 C 
ATOM     14  C   UNL A   1      29.057  26.777  23.768  1.00  0.00     0.066 C 
BRANCH  13  15
ATOM     15  O   UNL A   1      29.642  28.231  22.094  1.00  0.00    -0.479 OA
BRANCH  15  16
ATOM     16  C   UNL A   1      29.323  29.450  22.605  1.00  0.00     0.123 A 
ATOM     17  C   UNL A   1      31.025  29.988  24.562  1.00  0.00     0.048 C 
ATOM     18  C   UNL A   1      29.796  30.181  23.712  1.00  0.00    -0.009 A 
ATOM     19  C   UNL A   1      29.072  31.330  24.071  1.00  0.00     0.007 A 
ATOM     20  C   UNL A   1      27.987  31.780  23.322  1.00  0.00     0.001 A 
ATOM     21  C   UNL A   1      28.285  29.958  21.815  1.00  0.00     0.047 A 
ATOM     22  C   UNL A   1      27.619  31.116  22.165  1.00  0.00     0.004 A 
ENDBRANCH  15  16
ENDBRANCH  13  15
ENDBRANCH  11  13
ENDBRANCH  10  11
ENDBRANCH   5  10
ENDBRANCH   2   4
ENDBRANCH   1   2
BRANCH   1  23
ATOM     23  C   UNL A   1      33.636  30.295  27.539  1.00  0.00     0.275 C 
BRANCH  23  24
ATOM     24  C   UNL A   1      34.649  31.448  27.665  1.00  0.00     0.275 C 
BRANCH  24  25
ATOM     25  O   UNL A   1      35.232  31.651  28.981  1.00  0.00    -0.458 OA
BRANCH  25  26
ATOM     26  C   UNL A   1      36.577  31.480  29.127  1.00  0.00     0.338 C 
ATOM     27  O   UNL A   1      37.405  32.341  29.339  1.00  0.00    -0.246 OA
BRANCH  26  28
ATOM     28  C   UNL A   1      36.882  30.055  28.878  1.00  0.00     0.060 A 
ATOM     29  C   UNL A   1      37.135  29.079  30.375  1.00  0.00     0.016 A 
ATOM     30  C   UNL A   1      37.931  29.777  27.452  1.00  0.00     0.016 A 
ATOM     31  C   UNL A   1      38.493  27.784  30.429  1.00  0.00     0.010 A 
ATOM     32  C   UNL A   1      39.337  28.616  27.570  1.00  0.00     0.010 A 
ATOM     33  C   UNL A   1      39.618  27.636  29.058  1.00  0.00    -0.014 A 
BRANCH  33  34
ATOM     34  C   UNL A   1      41.033  27.322  29.306  1.00  0.00     0.031 A 
ATOM     35  C   UNL A   1      41.416  25.977  28.858  1.00  0.00     0.074 A 
ATOM     36  C   UNL A   1      41.974  28.232  29.715  1.00  0.00     0.049 A 
ATOM     37  N   UNL A   1      42.562  25.463  29.083  1.00  0.00    -0.248 NA
ATOM     38  C   UNL A   1      40.526  25.055  28.150  1.00  0.00     0.031 C 
ATOM     39  C   UNL A   1      43.434  28.156  29.578  1.00  0.00     0.029 A 
ATOM     40  N   UNL A   1      41.830  29.418  30.438  1.00  0.00    -0.354 N 
ATOM     41  C   UNL A   1      42.679  24.339  28.310  1.00  0.00     0.074 A 
ATOM     42  C   UNL A   1      41.370  24.093  27.776  1.00  0.00     0.031 C 
ATOM     43  C   UNL A   1      44.035  29.055  30.381  1.00  0.00     0.029 A 
ATOM     44  C   UNL A   1      43.016  29.726  31.159  1.00  0.00     0.049 A 
ATOM     45  H   UNL A   1      41.014  29.968  30.447  1.00  0.00     0.167 HD
ATOM     46  C   UNL A   1      43.930  23.843  28.151  1.00  0.00     0.031 A 
ATOM     47  C   UNL A   1      43.055  29.807  32.536  1.00  0.00     0.031 A 
ATOM     48  C   UNL A   1      44.820  24.432  29.158  1.00  0.00     0.049 A 
ATOM     49  C   UNL A   1      43.547  28.501  33.152  1.00  0.00     0.074 A 
ATOM     50  C   UNL A   1      45.748  25.457  29.127  1.00  0.00     0.029 A 
ATOM     51  N   UNL A   1      44.462  24.277  30.498  1.00  0.00    -0.354 N 
ATOM     52  N   UNL A   1      43.931  27.470  32.449  1.00  0.00    -0.248 NA
ATOM     53  C   UNL A   1      43.632  28.237  34.588  1.00  0.00     0.031 C 
ATOM     54  C   UNL A   1      45.868  25.975  30.455  1.00  0.00     0.029 A 
ATOM     55  C   UNL A   1      45.055  25.236  31.300  1.00  0.00     0.049 A 
ATOM     56  H   UNL A   1      43.862  23.572  30.832  1.00  0.00     0.167 HD
ATOM     57  C   UNL A   1      44.319  26.443  33.262  1.00  0.00     0.074 A 
ATOM     58  C   UNL A   1      44.120  26.981  34.600  1.00  0.00     0.031 C 
ATOM     59  C   UNL A   1      44.776  25.258  32.745  1.00  0.00     0.031 A 
BRANCH  46  60
ATOM     60  C   UNL A   1      44.363  23.021  26.970  1.00  0.00    -0.014 A 
ATOM     61  C   UNL A   1      43.479  22.048  26.479  1.00  0.00     0.009 A 
ATOM     62  C   UNL A   1      45.639  23.054  26.374  1.00  0.00     0.009 A 
ATOM     63  C   UNL A   1      43.851  21.149  25.471  1.00  0.00     0.001 A 
ATOM     64  C   UNL A   1      46.015  22.165  25.358  1.00  0.00     0.001 A 
ATOM     65  C   UNL A   1      45.120  21.207  24.909  1.00  0.00     0.000 A 
ENDBRANCH  46  60
BRANCH  47  66
ATOM     66  C   UNL A   1      41.951  30.645  33.130  1.00  0.00    -0.014 A 
ATOM     67  C   UNL A   1      41.689  31.923  32.568  1.00  0.00     0.009 A 
ATOM     68  C   UNL A   1      40.866  29.875  33.480  1.00  0.00     0.009 A 
ATOM     69  C   UNL A   1      40.451  32.209  31.971  1.00  0.00     0.001 A 
ATOM     70  C   UNL A   1      39.722  30.112  32.724  1.00  0.00     0.001 A 
ATOM     71  C   UNL A   1      39.516  31.214  31.914  1.00  0.00     0.000 A 
ENDBRANCH  47  66
BRANCH  59  72
ATOM     72  C   UNL A   1      45.103  24.006  33.540  1.00  0.00    -0.014 A 
ATOM     73  C   UNL A   1      44.213  22.965  33.814  1.00  0.00     0.009 A 
ATOM     74  C   UNL A   1      46.421  23.828  34.029  1.00  0.00     0.009 A 
ATOM     75  C   UNL A   1      44.585  21.867  34.603  1.00  0.00     0.001 A 
ATOM     76  C   UNL A   1      46.822  22.698  34.740  1.00  0.00     0.001 A 
ATOM     77  C   UNL A   1      45.891  21.728  35.057  1.00  0.00     0.000 A 
ENDBRANCH  59  72
ENDBRANCH  33  34
ENDBRANCH  26  28
ENDBRANCH  25  26
ENDBRANCH  24  25
ENDBRANCH  23  24
ENDBRANCH   1  23
TORSDOF 16
ENDMDL
MODEL 3
REMARK VINA RESULT:     -11.2      4.023      9.224
REMARK SMILES Cc1ccccc1O[C@@H](C)C(=O)Oc1ccccc1C(=O)OCCOC(=O)c1ccc(-c2c3nc(c(-c4ccccc4)c4ccc([nH]4)c(-c4ccccc4)c4nc(c(-c5ccccc5)c5ccc2[nH]5)C=C4)C=C3)cc1
REMARK SMILES IDX 22 1 20 2 21 3 19 4 14 5 15 6 16 7 18 8 17 9 13 10 11 11
REMARK SMILES IDX 12 12 9 13 10 14 8 15 7 16 1 17 2 18 3 19 4 20 6 21 5 22
REMARK SMILES IDX 23 23 24 24 25 25 26 26 27 27 28 28 29 29 75 30 30 31 74 32
REMARK SMILES IDX 31 33 32 34 33 35 68 36 34 37 73 38 67 39 69 40 35 41 72 42
REMARK SMILES IDX 66 43 65 44 36 46 58 47 43 48 57 49 44 50 47 51 56 52 70 53
REMARK SMILES IDX 45 54 46 55 55 57 71 58 48 59 37 60 38 61 42 62 39 63 41 64
REMARK SMILES IDX 40 65 59 66 60 67 64 68 61 69 63 70 62 71 49 72 50 73 54 74
REMARK SMILES IDX 51 75 53 76 52 77
REMARK H PARENT 69 45 47 56
REMARK Flexibility Score: inf
ROOT
ATOM      1  O   UNL A   1      33.076  30.409  27.098  1.00  0.00    -0.458 OA
ENDROOT
BRANCH   1   2
ATOM      2  C   UNL A   1      31.835  30.486  26.283  1.00  0.00     0.342 C 
ATOM      3  O   UNL A   1      31.509  31.689  26.502  1.00  0.00    -0.246 OA
BRANCH   2   4
ATOM      4  C   UNL A   1      30.916  28.966  25.043  1.00  0.00     0.102 A 
ATOM      5  C   UNL A   1      30.845  27.333  25.272  1.00  0.00     0.145 A 
ATOM      6  C   UNL A   1      30.339  26.307  24.422  1.00  0.00     0.048 A 
ATOM      7  C   UNL A   1      29.795  26.654  23.203  1.00  0.00     0.004 A 
ATOM      8  C   UNL A   1      30.226  29.044  23.694  1.00  0.00     0.019 A 
ATOM      9  C   UNL A   1      29.735  27.992  22.850  1.00  0.00     0.001 A 
BRANCH   5  10
ATOM     10  O   UNL A   1      31.613  26.543  26.452  1.00  0.00    -0.423 OA
BRANCH  10  11
ATOM     11  C   UNL A   1      31.970  25.178  26.586  1.00  0.00     0.352 C 
ATOM     12  O   UNL A   1      31.214  24.405  27.180  1.00  0.00    -0.247 OA
BRANCH  11  13
ATOM     13  C   UNL A   1      33.349  24.640  25.981  1.00  0.00     0.280 C 
ATOM     14  C   UNL A   1      34.552  23.728  26.262  1.00  0.00     0.066 C 
BRANCH  13  15
ATOM     15  O   UNL A   1      33.952  25.744  25.348  1.00  0.00    -0.479 OA
BRANCH  15  16
ATOM     16  C   UNL A   1      33.741  25.948  24.020  1.00  0.00     0.123 A 
ATOM     17  C   UNL A   1      34.185  28.509  23.505  1.00  0.00     0.048 C 
ATOM     18  C   UNL A   1      33.713  27.107  23.220  1.00  0.00    -0.009 A 
ATOM     19  C   UNL A   1      33.241  26.958  21.904  1.00  0.00     0.007 A 
ATOM     20  C   UNL A   1      32.896  25.714  21.382  1.00  0.00     0.001 A 
ATOM     21  C   UNL A   1      33.471  24.695  23.458  1.00  0.00     0.047 A 
ATOM     22  C   UNL A   1      33.053  24.572  22.148  1.00  0.00     0.004 A 
ENDBRANCH  15  16
ENDBRANCH  13  15
ENDBRANCH  11  13
ENDBRANCH  10  11
ENDBRANCH   5  10
ENDBRANCH   2   4
ENDBRANCH   1   2
BRANCH   1  23
ATOM     23  C   UNL A   1      33.507  31.655  27.677  1.00  0.00     0.275 C 
BRANCH  23  24
ATOM     24  C   UNL A   1      35.030  31.618  27.904  1.00  0.00     0.275 C 
BRANCH  24  25
ATOM     25  O   UNL A   1      35.482  31.835  29.269  1.00  0.00    -0.458 OA
BRANCH  25  26
ATOM     26  C   UNL A   1      36.795  31.609  29.560  1.00  0.00     0.338 C 
ATOM     27  O   UNL A   1      37.601  32.415  29.977  1.00  0.00    -0.246 OA
BRANCH  26  28
ATOM     28  C   UNL A   1      37.111  30.215  29.179  1.00  0.00     0.060 A 
ATOM     29  C   UNL A   1      37.318  29.093  30.578  1.00  0.00     0.016 A 
ATOM     30  C   UNL A   1      38.205  30.081  27.767  1.00  0.00     0.016 A 
ATOM     31  C   UNL A   1      38.675  27.798  30.544  1.00  0.00     0.010 A 
ATOM     32  C   UNL A   1      39.608  28.911  27.813  1.00  0.00     0.010 A 
ATOM     33  C   UNL A   1      39.844  27.787  29.203  1.00  0.00    -0.014 A 
BRANCH  33  34
ATOM     34  C   UNL A   1      41.251  27.448  29.463  1.00  0.00     0.031 A 
ATOM     35  C   UNL A   1      41.632  26.123  28.956  1.00  0.00     0.074 A 
ATOM     36  C   UNL A   1      42.190  28.327  29.937  1.00  0.00     0.049 A 
ATOM     37  N   UNL A   1      42.768  25.588  29.177  1.00  0.00    -0.248 NA
ATOM     38  C   UNL A   1      40.749  25.247  28.183  1.00  0.00     0.031 C 
ATOM     39  C   UNL A   1      43.652  28.245  29.826  1.00  0.00     0.029 A 
ATOM     40  N   UNL A   1      42.041  29.476  30.716  1.00  0.00    -0.354 N 
ATOM     41  C   UNL A   1      42.892  24.504  28.351  1.00  0.00     0.074 A 
ATOM     42  C   UNL A   1      41.593  24.297  27.779  1.00  0.00     0.031 C 
ATOM     43  C   UNL A   1      44.244  29.096  30.685  1.00  0.00     0.029 A 
ATOM     44  C   UNL A   1      43.215  29.737  31.476  1.00  0.00     0.049 A 
ATOM     45  H   UNL A   1      41.230  30.033  30.736  1.00  0.00     0.167 HD
ATOM     46  C   UNL A   1      44.142  24.005  28.192  1.00  0.00     0.031 A 
ATOM     47  C   UNL A   1      43.225  29.748  32.856  1.00  0.00     0.031 A 
ATOM     48  C   UNL A   1      45.017  24.534  29.246  1.00  0.00     0.049 A 
ATOM     49  C   UNL A   1      43.694  28.407  33.414  1.00  0.00     0.074 A 
ATOM     50  C   UNL A   1      45.953  25.551  29.286  1.00  0.00     0.029 A 
ATOM     51  N   UNL A   1      44.630  24.315  30.568  1.00  0.00    -0.354 N 
ATOM     52  N   UNL A   1      44.084  27.410  32.668  1.00  0.00    -0.248 NA
ATOM     53  C   UNL A   1      43.747  28.070  34.836  1.00  0.00     0.031 C 
ATOM     54  C   UNL A   1      46.049  25.999  30.640  1.00  0.00     0.029 A 
ATOM     55  C   UNL A   1      45.213  25.227  31.430  1.00  0.00     0.049 A 
ATOM     56  H   UNL A   1      44.017  23.599  30.854  1.00  0.00     0.167 HD
ATOM     57  C   UNL A   1      44.446  26.340  33.436  1.00  0.00     0.074 A 
ATOM     58  C   UNL A   1      44.224  26.811  34.794  1.00  0.00     0.031 C 
ATOM     59  C   UNL A   1      44.904  25.178  32.868  1.00  0.00     0.031 A 
BRANCH  46  60
ATOM     60  C   UNL A   1      44.593  23.240  26.981  1.00  0.00    -0.014 A 
ATOM     61  C   UNL A   1      45.664  23.753  26.232  1.00  0.00     0.009 A 
ATOM     62  C   UNL A   1      43.956  22.102  26.448  1.00  0.00     0.009 A 
ATOM     63  C   UNL A   1      46.063  23.179  25.018  1.00  0.00     0.001 A 
ATOM     64  C   UNL A   1      44.355  21.516  25.239  1.00  0.00     0.001 A 
ATOM     65  C   UNL A   1      45.408  22.059  24.519  1.00  0.00     0.000 A 
ENDBRANCH  46  60
BRANCH  47  66
ATOM     66  C   UNL A   1      42.117  30.565  33.469  1.00  0.00    -0.014 A 
ATOM     67  C   UNL A   1      41.003  29.887  34.033  1.00  0.00     0.009 A 
ATOM     68  C   UNL A   1      42.611  31.649  34.157  1.00  0.00     0.009 A 
ATOM     69  C   UNL A   1      40.711  29.993  35.402  1.00  0.00     0.001 A 
ATOM     70  C   UNL A   1      42.419  31.593  35.535  1.00  0.00     0.001 A 
ATOM     71  C   UNL A   1      41.546  30.741  36.185  1.00  0.00     0.000 A 
ENDBRANCH  47  66
BRANCH  59  72
ATOM     72  C   UNL A   1      45.205  23.885  33.605  1.00  0.00    -0.014 A 
ATOM     73  C   UNL A   1      44.299  22.842  33.812  1.00  0.00     0.009 A 
ATOM     74  C   UNL A   1      46.512  23.668  34.107  1.00  0.00     0.009 A 
ATOM     75  C   UNL A   1      44.646  21.701  34.551  1.00  0.00     0.001 A 
ATOM     76  C   UNL A   1      46.889  22.499  34.767  1.00  0.00     0.001 A 
ATOM     77  C   UNL A   1      45.942  21.526  35.020  1.00  0.00     0.000 A 
ENDBRANCH  59  72
ENDBRANCH  33  34
ENDBRANCH  26  28
ENDBRANCH  25  26
ENDBRANCH  24  25
ENDBRANCH  23  24
ENDBRANCH   1  23
TORSDOF 16
ENDMDL
