MODEL 1
REMARK VINA RESULT:     -11.5      0.000      0.000
REMARK SMILES CC(C)(C)c1cc2c(cc1Cl)C=C(C(=O)OCCOC(=O)c1ccc(-c3c4nc(c(-c5ccccc5)c5ccc([nH]5)c(-c5ccccc5)c5nc(c(-c6ccccc6)c6ccc3[nH]6)C=C5)C=C4)cc1)[C@H](C(F)(F)F)O2
REMARK SMILES IDX 18 1 17 2 16 3 14 4 15 5 13 6 5 7 6 8 10 9 7 10 9 11 11 12
REMARK SMILES IDX 8 13 75 14 12 15 70 16 2 17 1 18 3 19 4 20 71 21 72 22 73 23
REMARK SMILES IDX 74 24 19 25 20 26 21 27 22 28 23 29 69 30 24 31 68 32 25 33
REMARK SMILES IDX 26 34 27 35 62 36 28 37 67 38 61 39 63 40 29 41 66 42 60 43
REMARK SMILES IDX 59 44 30 46 52 47 37 48 51 49 38 50 41 51 50 52 64 53 39 54
REMARK SMILES IDX 40 55 49 57 65 58 42 59 31 60 32 61 36 62 33 63 35 64 34 65
REMARK SMILES IDX 53 66 54 67 58 68 55 69 57 70 56 71 43 72 44 73 48 74 45 75
REMARK SMILES IDX 47 76 46 77
REMARK H PARENT 63 45 41 56
REMARK Flexibility Score: inf
ROOT
ATOM      1  C   UNL A   1      39.077  20.504  25.611  1.00  0.00     0.275 C 
ENDROOT
BRANCH   1   2
ATOM      2  C   UNL A   1      37.744  20.128  24.966  1.00  0.00     0.275 C 
BRANCH   2   3
ATOM      3  O   UNL A   1      36.761  21.158  25.207  1.00  0.00    -0.459 OA
BRANCH   3   4
ATOM      4  C   UNL A   1      35.475  20.824  24.976  1.00  0.00     0.338 C 
ATOM      5  O   UNL A   1      35.057  19.704  24.727  1.00  0.00    -0.246 OA
BRANCH   4   6
ATOM      6  C   UNL A   1      34.591  21.988  25.175  1.00  0.00     0.087 C 
ATOM      7  C   UNL A   1      32.901  26.757  25.509  1.00  0.00    -0.020 A 
ATOM      8  C   UNL A   1      32.642  25.531  26.196  1.00  0.00     0.053 A 
ATOM      9  C   UNL A   1      33.775  26.676  24.404  1.00  0.00     0.045 A 
ATOM     10  C   UNL A   1      33.268  24.330  25.859  1.00  0.00     0.128 A 
ATOM     11  C   UNL A   1      34.430  25.474  24.095  1.00  0.00     0.032 A 
ATOM     12  Cl  UNL A   1      34.172  27.966  23.326  1.00  0.00    -0.084 Cl
ATOM     13  C   UNL A   1      34.207  24.323  24.845  1.00  0.00     0.019 A 
ATOM     14  O   UNL A   1      32.989  23.218  26.612  1.00  0.00    -0.475 OA
ATOM     15  C   UNL A   1      35.015  23.141  24.644  1.00  0.00     0.027 C 
ATOM     16  C   UNL A   1      33.347  21.918  26.024  1.00  0.00     0.316 C 
BRANCH   7  17
ATOM     17  C   UNL A   1      32.259  28.037  26.100  1.00  0.00    -0.012 C 
ATOM     18  C   UNL A   1      33.350  29.102  26.360  1.00  0.00     0.016 C 
ATOM     19  C   UNL A   1      31.468  27.912  27.418  1.00  0.00     0.016 C 
ATOM     20  C   UNL A   1      31.246  28.585  25.061  1.00  0.00     0.016 C 
ENDBRANCH   7  17
BRANCH  16  21
ATOM     21  C   UNL A   1      32.112  21.311  25.334  1.00  0.00     0.430 C 
ATOM     22  F   UNL A   1      32.103  21.620  24.013  1.00  0.00    -0.167 F 
ATOM     23  F   UNL A   1      32.076  19.965  25.434  1.00  0.00    -0.167 F 
ATOM     24  F   UNL A   1      30.952  21.793  25.837  1.00  0.00    -0.167 F 
ENDBRANCH  16  21
ENDBRANCH   4   6
ENDBRANCH   3   4
ENDBRANCH   2   3
ENDBRANCH   1   2
BRANCH   1  25
ATOM     25  O   UNL A   1      39.897  19.327  25.748  1.00  0.00    -0.458 OA
BRANCH  25  26
ATOM     26  C   UNL A   1      41.220  19.540  25.929  1.00  0.00     0.338 C 
ATOM     27  O   UNL A   1      42.144  18.805  25.637  1.00  0.00    -0.246 OA
BRANCH  26  28
ATOM     28  C   UNL A   1      41.409  20.876  26.517  1.00  0.00     0.060 A 
ATOM     29  C   UNL A   1      41.256  21.089  27.883  1.00  0.00     0.016 A 
ATOM     30  C   UNL A   1      41.849  21.909  25.695  1.00  0.00     0.016 A 
ATOM     31  C   UNL A   1      41.526  22.358  28.413  1.00  0.00     0.010 A 
ATOM     32  C   UNL A   1      42.226  23.135  26.238  1.00  0.00     0.010 A 
ATOM     33  C   UNL A   1      42.044  23.388  27.602  1.00  0.00    -0.014 A 
BRANCH  33  34
ATOM     34  C   UNL A   1      42.397  24.725  28.163  1.00  0.00     0.031 A 
ATOM     35  C   UNL A   1      43.821  25.050  28.547  1.00  0.00     0.074 A 
ATOM     36  C   UNL A   1      41.432  25.640  28.385  1.00  0.00     0.049 A 
ATOM     37  N   UNL A   1      44.299  26.140  29.099  1.00  0.00    -0.248 NA
ATOM     38  C   UNL A   1      44.837  24.009  28.319  1.00  0.00     0.031 C 
ATOM     39  C   UNL A   1      40.004  25.446  28.129  1.00  0.00     0.029 A 
ATOM     40  N   UNL A   1      41.509  26.925  28.869  1.00  0.00    -0.354 N 
ATOM     41  C   UNL A   1      45.650  25.896  29.318  1.00  0.00     0.074 A 
ATOM     42  C   UNL A   1      45.911  24.542  28.881  1.00  0.00     0.031 C 
ATOM     43  C   UNL A   1      39.350  26.586  28.397  1.00  0.00     0.029 A 
ATOM     44  C   UNL A   1      40.301  27.579  28.888  1.00  0.00     0.049 A 
ATOM     45  H   UNL A   1      42.350  27.336  29.175  1.00  0.00     0.167 HD
ATOM     46  C   UNL A   1      46.597  26.727  29.813  1.00  0.00     0.031 A 
ATOM     47  C   UNL A   1      39.987  28.839  29.247  1.00  0.00     0.031 A 
ATOM     48  C   UNL A   1      46.362  28.094  30.188  1.00  0.00     0.049 A 
ATOM     49  C   UNL A   1      41.063  29.766  29.733  1.00  0.00     0.074 A 
ATOM     50  C   UNL A   1      47.282  29.036  30.619  1.00  0.00     0.029 A 
ATOM     51  N   UNL A   1      45.128  28.721  30.161  1.00  0.00    -0.354 N 
ATOM     52  N   UNL A   1      42.343  29.532  29.883  1.00  0.00    -0.248 NA
ATOM     53  C   UNL A   1      40.655  31.133  30.094  1.00  0.00     0.031 C 
ATOM     54  C   UNL A   1      46.599  30.225  30.882  1.00  0.00     0.029 A 
ATOM     55  C   UNL A   1      45.262  30.035  30.572  1.00  0.00     0.049 A 
ATOM     56  H   UNL A   1      44.283  28.294  29.891  1.00  0.00     0.167 HD
ATOM     57  C   UNL A   1      42.895  30.721  30.337  1.00  0.00     0.074 A 
ATOM     58  C   UNL A   1      41.816  31.682  30.429  1.00  0.00     0.031 C 
ATOM     59  C   UNL A   1      44.185  30.987  30.650  1.00  0.00     0.031 A 
BRANCH  46  60
ATOM     60  C   UNL A   1      47.997  26.196  29.956  1.00  0.00    -0.014 A 
ATOM     61  C   UNL A   1      48.442  25.722  31.201  1.00  0.00     0.009 A 
ATOM     62  C   UNL A   1      48.902  26.241  28.885  1.00  0.00     0.009 A 
ATOM     63  C   UNL A   1      49.763  25.307  31.371  1.00  0.00     0.001 A 
ATOM     64  C   UNL A   1      50.216  25.798  29.049  1.00  0.00     0.001 A 
ATOM     65  C   UNL A   1      50.647  25.338  30.292  1.00  0.00     0.000 A 
ENDBRANCH  46  60
BRANCH  47  66
ATOM     66  C   UNL A   1      38.585  29.308  29.101  1.00  0.00    -0.014 A 
ATOM     67  C   UNL A   1      37.691  29.256  30.181  1.00  0.00     0.009 A 
ATOM     68  C   UNL A   1      38.122  29.762  27.857  1.00  0.00     0.009 A 
ATOM     69  C   UNL A   1      36.356  29.631  30.013  1.00  0.00     0.001 A 
ATOM     70  C   UNL A   1      36.792  30.158  27.697  1.00  0.00     0.001 A 
ATOM     71  C   UNL A   1      35.909  30.085  28.773  1.00  0.00     0.000 A 
ENDBRANCH  47  66
BRANCH  59  72
ATOM     72  C   UNL A   1      44.532  32.375  31.104  1.00  0.00    -0.014 A 
ATOM     73  C   UNL A   1      44.423  32.708  32.463  1.00  0.00     0.009 A 
ATOM     74  C   UNL A   1      44.842  33.380  30.176  1.00  0.00     0.009 A 
ATOM     75  C   UNL A   1      44.602  34.026  32.884  1.00  0.00     0.001 A 
ATOM     76  C   UNL A   1      45.041  34.693  30.603  1.00  0.00     0.001 A 
ATOM     77  C   UNL A   1      44.911  35.017  31.954  1.00  0.00     0.000 A 
ENDBRANCH  59  72
ENDBRANCH  33  34
ENDBRANCH  26  28
ENDBRANCH  25  26
ENDBRANCH   1  25
TORSDOF 13
ENDMDL
MODEL 2
REMARK VINA RESULT:     -11.5      4.573      7.747
REMARK SMILES CC(C)(C)c1cc2c(cc1Cl)C=C(C(=O)OCCOC(=O)c1ccc(-c3c4nc(c(-c5ccccc5)c5ccc([nH]5)c(-c5ccccc5)c5nc(c(-c6ccccc6)c6ccc3[nH]6)C=C5)C=C4)cc1)[C@H](C(F)(F)F)O2
REMARK SMILES IDX 18 1 17 2 16 3 14 4 15 5 13 6 5 7 6 8 10 9 7 10 9 11 11 12
REMARK SMILES IDX 8 13 75 14 12 15 70 16 2 17 1 18 3 19 4 20 71 21 72 22 73 23
REMARK SMILES IDX 74 24 19 25 20 26 21 27 22 28 23 29 69 30 24 31 68 32 25 33
REMARK SMILES IDX 26 34 27 35 62 36 28 37 67 38 61 39 63 40 29 41 66 42 60 43
REMARK SMILES IDX 59 44 30 46 52 47 37 48 51 49 38 50 41 51 50 52 64 53 39 54
REMARK SMILES IDX 40 55 49 57 65 58 42 59 31 60 32 61 36 62 33 63 35 64 34 65
REMARK SMILES IDX 53 66 54 67 58 68 55 69 57 70 56 71 43 72 44 73 48 74 45 75
REMARK SMILES IDX 47 76 46 77
REMARK H PARENT 63 45 41 56
REMARK Flexibility Score: inf
ROOT
ATOM      1  C   UNL A   1      39.580  20.603  26.081  1.00  0.00     0.275 C 
ENDROOT
BRANCH   1   2
ATOM      2  C   UNL A   1      40.726  19.917  26.824  1.00  0.00     0.275 C 
BRANCH   2   3
ATOM      3  O   UNL A   1      41.956  20.652  26.639  1.00  0.00    -0.459 OA
BRANCH   3   4
ATOM      4  C   UNL A   1      42.830  20.141  25.749  1.00  0.00     0.338 C 
ATOM      5  O   UNL A   1      42.663  19.140  25.070  1.00  0.00    -0.246 OA
BRANCH   4   6
ATOM      6  C   UNL A   1      44.003  21.024  25.604  1.00  0.00     0.087 C 
ATOM      7  C   UNL A   1      47.169  24.953  26.104  1.00  0.00    -0.020 A 
ATOM      8  C   UNL A   1      46.804  24.063  25.047  1.00  0.00     0.053 A 
ATOM      9  C   UNL A   1      46.602  24.681  27.368  1.00  0.00     0.045 A 
ATOM     10  C   UNL A   1      45.884  23.028  25.216  1.00  0.00     0.128 A 
ATOM     11  C   UNL A   1      45.648  23.663  27.520  1.00  0.00     0.032 A 
ATOM     12  Cl  UNL A   1      46.954  25.513  28.839  1.00  0.00    -0.084 Cl
ATOM     13  C   UNL A   1      45.264  22.873  26.442  1.00  0.00     0.019 A 
ATOM     14  O   UNL A   1      45.564  22.259  24.127  1.00  0.00    -0.475 OA
ATOM     15  C   UNL A   1      44.155  21.953  26.557  1.00  0.00     0.027 C 
ATOM     16  C   UNL A   1      44.908  20.970  24.400  1.00  0.00     0.316 C 
BRANCH   7  17
ATOM     17  C   UNL A   1      48.074  26.153  25.725  1.00  0.00    -0.012 C 
ATOM     18  C   UNL A   1      48.478  26.059  24.235  1.00  0.00     0.016 C 
ATOM     19  C   UNL A   1      49.389  26.346  26.508  1.00  0.00     0.016 C 
ATOM     20  C   UNL A   1      47.261  27.454  25.955  1.00  0.00     0.016 C 
ENDBRANCH   7  17
BRANCH  16  21
ATOM     21  C   UNL A   1      45.965  19.852  24.420  1.00  0.00     0.430 C 
ATOM     22  F   UNL A   1      47.212  20.370  24.280  1.00  0.00    -0.167 F 
ATOM     23  F   UNL A   1      45.948  19.147  25.571  1.00  0.00    -0.167 F 
ATOM     24  F   UNL A   1      45.809  18.978  23.399  1.00  0.00    -0.167 F 
ENDBRANCH  16  21
ENDBRANCH   4   6
ENDBRANCH   3   4
ENDBRANCH   2   3
ENDBRANCH   1   2
BRANCH   1  25
ATOM     25  O   UNL A   1      39.896  21.994  25.882  1.00  0.00    -0.458 OA
BRANCH  25  26
ATOM     26  C   UNL A   1      38.884  22.870  26.078  1.00  0.00     0.338 C 
ATOM     27  O   UNL A   1      37.698  22.703  25.869  1.00  0.00    -0.246 OA
BRANCH  26  28
ATOM     28  C   UNL A   1      39.433  24.106  26.658  1.00  0.00     0.060 A 
ATOM     29  C   UNL A   1      40.078  25.049  25.864  1.00  0.00     0.016 A 
ATOM     30  C   UNL A   1      39.203  24.368  28.005  1.00  0.00     0.016 A 
ATOM     31  C   UNL A   1      40.512  26.249  26.442  1.00  0.00     0.010 A 
ATOM     32  C   UNL A   1      39.533  25.606  28.553  1.00  0.00     0.010 A 
ATOM     33  C   UNL A   1      40.218  26.556  27.786  1.00  0.00    -0.014 A 
BRANCH  33  34
ATOM     34  C   UNL A   1      40.616  27.856  28.399  1.00  0.00     0.031 A 
ATOM     35  C   UNL A   1      42.053  28.124  28.780  1.00  0.00     0.074 A 
ATOM     36  C   UNL A   1      39.681  28.788  28.673  1.00  0.00     0.049 A 
ATOM     37  N   UNL A   1      42.569  29.175  29.372  1.00  0.00    -0.248 NA
ATOM     38  C   UNL A   1      43.036  27.065  28.494  1.00  0.00     0.031 C 
ATOM     39  C   UNL A   1      38.245  28.646  28.427  1.00  0.00     0.029 A 
ATOM     40  N   UNL A   1      39.800  30.047  29.212  1.00  0.00    -0.354 N 
ATOM     41  C   UNL A   1      43.915  28.883  29.564  1.00  0.00     0.074 A 
ATOM     42  C   UNL A   1      44.132  27.543  29.065  1.00  0.00     0.031 C 
ATOM     43  C   UNL A   1      37.627  29.792  28.752  1.00  0.00     0.029 A 
ATOM     44  C   UNL A   1      38.612  30.735  29.274  1.00  0.00     0.049 A 
ATOM     45  H   UNL A   1      40.656  30.421  29.525  1.00  0.00     0.167 HD
ATOM     46  C   UNL A   1      44.891  29.664  30.083  1.00  0.00     0.031 A 
ATOM     47  C   UNL A   1      38.338  31.986  29.691  1.00  0.00     0.031 A 
ATOM     48  C   UNL A   1      44.700  31.020  30.520  1.00  0.00     0.049 A 
ATOM     49  C   UNL A   1      39.446  32.860  30.204  1.00  0.00     0.074 A 
ATOM     50  C   UNL A   1      45.651  31.915  30.980  1.00  0.00     0.029 A 
ATOM     51  N   UNL A   1      43.484  31.682  30.535  1.00  0.00    -0.354 N 
ATOM     52  N   UNL A   1      40.721  32.583  30.327  1.00  0.00    -0.248 NA
ATOM     53  C   UNL A   1      39.082  34.221  30.629  1.00  0.00     0.031 C 
ATOM     54  C   UNL A   1      45.005  33.111  31.303  1.00  0.00     0.029 A 
ATOM     55  C   UNL A   1      43.660  32.973  31.001  1.00  0.00     0.049 A 
ATOM     56  H   UNL A   1      42.623  31.292  30.258  1.00  0.00     0.167 HD
ATOM     57  C   UNL A   1      41.312  33.735  30.825  1.00  0.00     0.074 A 
ATOM     58  C   UNL A   1      40.262  34.721  30.972  1.00  0.00     0.031 C 
ATOM     59  C   UNL A   1      42.612  33.951  31.134  1.00  0.00     0.031 A 
BRANCH  46  60
ATOM     60  C   UNL A   1      46.276  29.088  30.186  1.00  0.00    -0.014 A 
ATOM     61  C   UNL A   1      46.675  28.431  31.361  1.00  0.00     0.009 A 
ATOM     62  C   UNL A   1      47.213  29.267  29.157  1.00  0.00     0.009 A 
ATOM     63  C   UNL A   1      47.983  27.967  31.505  1.00  0.00     0.001 A 
ATOM     64  C   UNL A   1      48.513  28.777  29.291  1.00  0.00     0.001 A 
ATOM     65  C   UNL A   1      48.900  28.134  30.466  1.00  0.00     0.000 A 
ENDBRANCH  46  60
BRANCH  47  66
ATOM     66  C   UNL A   1      36.949  32.501  29.583  1.00  0.00    -0.014 A 
ATOM     67  C   UNL A   1      36.524  33.196  28.441  1.00  0.00     0.009 A 
ATOM     68  C   UNL A   1      36.056  32.343  30.654  1.00  0.00     0.009 A 
ATOM     69  C   UNL A   1      35.238  33.740  28.382  1.00  0.00     0.001 A 
ATOM     70  C   UNL A   1      34.764  32.868  30.583  1.00  0.00     0.001 A 
ATOM     71  C   UNL A   1      34.359  33.572  29.451  1.00  0.00     0.000 A 
ENDBRANCH  47  66
BRANCH  59  72
ATOM     72  C   UNL A   1      43.004  35.307  31.643  1.00  0.00    -0.014 A 
ATOM     73  C   UNL A   1      43.561  36.246  30.761  1.00  0.00     0.009 A 
ATOM     74  C   UNL A   1      42.937  35.609  33.012  1.00  0.00     0.009 A 
ATOM     75  C   UNL A   1      44.061  37.457  31.242  1.00  0.00     0.001 A 
ATOM     76  C   UNL A   1      43.420  36.829  33.486  1.00  0.00     0.001 A 
ATOM     77  C   UNL A   1      43.990  37.747  32.603  1.00  0.00     0.000 A 
ENDBRANCH  59  72
ENDBRANCH  33  34
ENDBRANCH  26  28
ENDBRANCH  25  26
ENDBRANCH   1  25
TORSDOF 13
ENDMDL
MODEL 3
REMARK VINA RESULT:     -11.4      0.291      5.866
REMARK SMILES CC(C)(C)c1cc2c(cc1Cl)C=C(C(=O)OCCOC(=O)c1ccc(-c3c4nc(c(-c5ccccc5)c5ccc([nH]5)c(-c5ccccc5)c5nc(c(-c6ccccc6)c6ccc3[nH]6)C=C5)C=C4)cc1)[C@H](C(F)(F)F)O2
REMARK SMILES IDX 18 1 17 2 16 3 14 4 15 5 13 6 5 7 6 8 10 9 7 10 9 11 11 12
REMARK SMILES IDX 8 13 75 14 12 15 70 16 2 17 1 18 3 19 4 20 71 21 72 22 73 23
REMARK SMILES IDX 74 24 19 25 20 26 21 27 22 28 23 29 69 30 24 31 68 32 25 33
REMARK SMILES IDX 26 34 27 35 62 36 28 37 67 38 61 39 63 40 29 41 66 42 60 43
REMARK SMILES IDX 59 44 30 46 52 47 37 48 51 49 38 50 41 51 50 52 64 53 39 54
REMARK SMILES IDX 40 55 49 57 65 58 42 59 31 60 32 61 36 62 33 63 35 64 34 65
REMARK SMILES IDX 53 66 54 67 58 68 55 69 57 70 56 71 43 72 44 73 48 74 45 75
REMARK SMILES IDX 47 76 46 77
REMARK H PARENT 63 45 41 56
REMARK Flexibility Score: inf
ROOT
ATOM      1  C   UNL A   1      39.089  20.562  25.531  1.00  0.00     0.275 C 
ENDROOT
BRANCH   1   2
ATOM      2  C   UNL A   1      37.728  20.144  24.975  1.00  0.00     0.275 C 
BRANCH   2   3
ATOM      3  O   UNL A   1      36.734  21.149  25.271  1.00  0.00    -0.459 OA
BRANCH   3   4
ATOM      4  C   UNL A   1      35.456  20.831  24.979  1.00  0.00     0.338 C 
ATOM      5  O   UNL A   1      35.041  19.721  24.683  1.00  0.00    -0.246 OA
BRANCH   4   6
ATOM      6  C   UNL A   1      34.572  21.995  25.176  1.00  0.00     0.087 C 
ATOM      7  C   UNL A   1      32.882  26.764  25.502  1.00  0.00    -0.020 A 
ATOM      8  C   UNL A   1      32.622  25.539  26.191  1.00  0.00     0.053 A 
ATOM      9  C   UNL A   1      33.759  26.682  24.399  1.00  0.00     0.045 A 
ATOM     10  C   UNL A   1      33.248  24.337  25.856  1.00  0.00     0.128 A 
ATOM     11  C   UNL A   1      34.414  25.480  24.093  1.00  0.00     0.032 A 
ATOM     12  Cl  UNL A   1      34.158  27.971  23.321  1.00  0.00    -0.084 Cl
ATOM     13  C   UNL A   1      34.190  24.330  24.843  1.00  0.00     0.019 A 
ATOM     14  O   UNL A   1      32.968  23.227  26.608  1.00  0.00    -0.475 OA
ATOM     15  C   UNL A   1      34.998  23.148  24.645  1.00  0.00     0.027 C 
ATOM     16  C   UNL A   1      33.326  21.926  26.022  1.00  0.00     0.316 C 
BRANCH   7  17
ATOM     17  C   UNL A   1      32.239  28.045  26.092  1.00  0.00    -0.012 C 
ATOM     18  C   UNL A   1      33.328  29.115  26.340  1.00  0.00     0.016 C 
ATOM     19  C   UNL A   1      31.457  27.923  27.415  1.00  0.00     0.016 C 
ATOM     20  C   UNL A   1      31.218  28.585  25.056  1.00  0.00     0.016 C 
ENDBRANCH   7  17
BRANCH  16  21
ATOM     21  C   UNL A   1      32.093  21.318  25.331  1.00  0.00     0.430 C 
ATOM     22  F   UNL A   1      32.083  21.632  24.010  1.00  0.00    -0.167 F 
ATOM     23  F   UNL A   1      32.059  19.972  25.426  1.00  0.00    -0.167 F 
ATOM     24  F   UNL A   1      30.932  21.796  25.835  1.00  0.00    -0.167 F 
ENDBRANCH  16  21
ENDBRANCH   4   6
ENDBRANCH   3   4
ENDBRANCH   2   3
ENDBRANCH   1   2
BRANCH   1  25
ATOM     25  O   UNL A   1      39.872  19.390  25.827  1.00  0.00    -0.458 OA
BRANCH  25  26
ATOM     26  C   UNL A   1      41.206  19.578  25.947  1.00  0.00     0.338 C 
ATOM     27  O   UNL A   1      42.101  18.828  25.608  1.00  0.00    -0.246 OA
BRANCH  26  28
ATOM     28  C   UNL A   1      41.446  20.907  26.530  1.00  0.00     0.060 A 
ATOM     29  C   UNL A   1      41.317  21.126  27.898  1.00  0.00     0.016 A 
ATOM     30  C   UNL A   1      41.910  21.924  25.702  1.00  0.00     0.016 A 
ATOM     31  C   UNL A   1      41.635  22.386  28.423  1.00  0.00     0.010 A 
ATOM     32  C   UNL A   1      42.334  23.137  26.238  1.00  0.00     0.010 A 
ATOM     33  C   UNL A   1      42.177  23.398  27.605  1.00  0.00    -0.014 A 
BRANCH  33  34
ATOM     34  C   UNL A   1      42.582  24.722  28.159  1.00  0.00     0.031 A 
ATOM     35  C   UNL A   1      41.558  25.807  28.396  1.00  0.00     0.074 A 
ATOM     36  C   UNL A   1      43.883  24.984  28.401  1.00  0.00     0.049 A 
ATOM     37  N   UNL A   1      41.740  27.035  28.820  1.00  0.00    -0.248 NA
ATOM     38  C   UNL A   1      40.155  25.489  28.087  1.00  0.00     0.031 C 
ATOM     39  C   UNL A   1      44.993  24.061  28.156  1.00  0.00     0.029 A 
ATOM     40  N   UNL A   1      44.492  26.103  28.916  1.00  0.00    -0.354 N 
ATOM     41  C   UNL A   1      40.488  27.640  28.785  1.00  0.00     0.074 A 
ATOM     42  C   UNL A   1      39.561  26.661  28.261  1.00  0.00     0.031 C 
ATOM     43  C   UNL A   1      46.135  24.624  28.579  1.00  0.00     0.029 A 
ATOM     44  C   UNL A   1      45.849  25.965  29.082  1.00  0.00     0.049 A 
ATOM     45  H   UNL A   1      44.002  26.926  29.145  1.00  0.00     0.167 HD
ATOM     46  C   UNL A   1      40.131  28.885  29.177  1.00  0.00     0.031 A 
ATOM     47  C   UNL A   1      46.766  26.812  29.589  1.00  0.00     0.031 A 
ATOM     48  C   UNL A   1      41.032  29.842  29.761  1.00  0.00     0.049 A 
ATOM     49  C   UNL A   1      46.340  28.166  30.078  1.00  0.00     0.074 A 
ATOM     50  C   UNL A   1      40.739  31.097  30.266  1.00  0.00     0.029 A 
ATOM     51  N   UNL A   1      42.391  29.645  29.935  1.00  0.00    -0.354 N 
ATOM     52  N   UNL A   1      45.142  28.698  30.085  1.00  0.00    -0.248 NA
ATOM     53  C   UNL A   1      47.388  29.036  30.635  1.00  0.00     0.031 C 
ATOM     54  C   UNL A   1      41.928  31.673  30.719  1.00  0.00     0.029 A 
ATOM     55  C   UNL A   1      42.952  30.758  30.535  1.00  0.00     0.049 A 
ATOM     56  H   UNL A   1      42.884  28.835  29.669  1.00  0.00     0.167 HD
ATOM     57  C   UNL A   1      45.289  29.952  30.660  1.00  0.00     0.074 A 
ATOM     58  C   UNL A   1      46.688  30.102  31.001  1.00  0.00     0.031 C 
ATOM     59  C   UNL A   1      44.342  30.894  30.881  1.00  0.00     0.031 A 
BRANCH  46  60
ATOM     60  C   UNL A   1      38.692  29.290  29.017  1.00  0.00    -0.014 A 
ATOM     61  C   UNL A   1      37.801  29.151  30.094  1.00  0.00     0.009 A 
ATOM     62  C   UNL A   1      38.197  29.729  27.779  1.00  0.00     0.009 A 
ATOM     63  C   UNL A   1      36.446  29.441  29.935  1.00  0.00     0.001 A 
ATOM     64  C   UNL A   1      36.846  30.046  27.630  1.00  0.00     0.001 A 
ATOM     65  C   UNL A   1      35.970  29.895  28.704  1.00  0.00     0.000 A 
ENDBRANCH  46  60
BRANCH  47  66
ATOM     66  C   UNL A   1      48.178  26.368  29.709  1.00  0.00    -0.014 A 
ATOM     67  C   UNL A   1      48.638  25.734  30.873  1.00  0.00     0.009 A 
ATOM     68  C   UNL A   1      49.087  26.629  28.673  1.00  0.00     0.009 A 
ATOM     69  C   UNL A   1      49.985  25.387  31.003  1.00  0.00     0.001 A 
ATOM     70  C   UNL A   1      50.428  26.261  28.796  1.00  0.00     0.001 A 
ATOM     71  C   UNL A   1      50.878  25.648  29.965  1.00  0.00     0.000 A 
ENDBRANCH  47  66
BRANCH  59  72
ATOM     72  C   UNL A   1      44.759  32.174  31.544  1.00  0.00    -0.014 A 
ATOM     73  C   UNL A   1      44.644  32.305  32.937  1.00  0.00     0.009 A 
ATOM     74  C   UNL A   1      45.145  33.287  30.782  1.00  0.00     0.009 A 
ATOM     75  C   UNL A   1      44.891  33.531  33.555  1.00  0.00     0.001 A 
ATOM     76  C   UNL A   1      45.411  34.507  31.406  1.00  0.00     0.001 A 
ATOM     77  C   UNL A   1      45.274  34.631  32.789  1.00  0.00     0.000 A 
ENDBRANCH  59  72
ENDBRANCH  33  34
ENDBRANCH  26  28
ENDBRANCH  25  26
ENDBRANCH   1  25
TORSDOF 13
ENDMDL
